REMARK  6 active torsions:
REMARK  status: ('A' for Active; 'I' for Inactive)
REMARK    1  A    between atoms: O1_1  and  C1_2 
REMARK    2  A    between atoms: O1_1  and  C31_38 
REMARK    3  A    between atoms: C6_7  and  C8_9 
REMARK    4  A    between atoms: C32_40  and  C41_56 
REMARK    5  A    between atoms: C33_41  and  O11_46 
REMARK    6  A    between atoms: O11_46  and  C36_47 
ROOT
HETATM    1  C1  UNL     1       0.371  -0.455  -0.655  1.00  0.00     0.158 C 
HETATM    2  C2  UNL     1       0.871  -0.529  -2.349  1.00  0.00     0.180 C 
HETATM    3  C3  UNL     1       0.214   0.472  -3.636  1.00  0.00     0.035 C 
HETATM    4  C4  UNL     1      -0.950   1.780  -3.119  1.00  0.00     0.003 C 
HETATM    5  C5  UNL     1      -1.667   1.614  -1.416  1.00  0.00     0.012 C 
HETATM    6  C6  UNL     1      -1.016   0.480  -0.130  1.00  0.00     0.106 C 
HETATM    7  C7  UNL     1      -2.074  -0.563   0.446  1.00  0.00     0.013 C 
HETATM    8  C9  UNL     1      -2.573   0.625  -2.003  1.00  0.00     0.001 C 
HETATM    9  C10 UNL     1      -1.076   0.211  -2.126  1.00  0.00     0.000 C 
HETATM   10  C11 UNL     1       0.387   1.613  -1.843  1.00  0.00     0.004 C 
HETATM   11  C12 UNL     1       0.124   2.735  -2.880  1.00  0.00     0.005 C 
HETATM   12  C13 UNL     1       0.019   4.192  -2.515  1.00  0.00     0.025 C 
HETATM   13  C14 UNL     1       1.494   4.458  -2.346  1.00  0.00    -0.035 C 
HETATM   14  C15 UNL     1       2.445   3.498  -2.206  1.00  0.00    -0.049 C 
HETATM   15  C16 UNL     1       2.142   1.898  -2.186  1.00  0.00     0.017 C 
HETATM   16  C17 UNL     1       2.826   1.534  -3.558  1.00  0.00     0.004 C 
HETATM   17  C18 UNL     1       3.179   1.331  -1.136  1.00  0.00     0.037 C 
HETATM   18  C19 UNL     1       4.008   2.312  -0.309  1.00  0.00     0.162 C 
HETATM   19  C20 UNL     1       4.814   3.261  -1.176  1.00  0.00     0.112 C 
HETATM   20  C21 UNL     1       3.872   4.056  -2.090  1.00  0.00     0.029 C 
HETATM   21  C22 UNL     1       4.505   4.471  -3.434  1.00  0.00     0.007 C 
HETATM   22  C23 UNL     1       6.039   4.711  -3.417  1.00  0.00     0.026 C 
HETATM   23  C24 UNL     1       6.729   3.966  -2.252  1.00  0.00     0.125 C 
HETATM   24  C25 UNL     1       6.005   2.666  -1.933  1.00  0.00     0.042 C 
HETATM   25  O4  UNL     1       6.649   4.697  -1.062  1.00  0.00    -0.304 OA
HETATM   26  C26 UNL     1       5.586   4.276  -0.332  1.00  0.00     0.274 C 
HETATM   27  O5  UNL     1       5.280   4.701   0.760  1.00  0.00    -0.264 OA
HETATM   28  C27 UNL     1       6.633   4.181  -4.747  1.00  0.00     0.002 C 
HETATM   29  C28 UNL     1       6.339   6.226  -3.367  1.00  0.00     0.002 C 
HETATM   30  O6  UNL     1       4.898   1.597   0.517  1.00  0.00    -0.223 OA
HETATM   31  C29 UNL     1       0.521   2.415  -0.462  1.00  0.00     0.000 C 
HETATM   32  C30 UNL     1      -1.835   2.278  -4.277  1.00  0.00     0.000 C 
HETATM   33  O7  UNL     1       0.709  -1.854  -2.834  1.00  0.00    -0.221 OA
ENDROOT
BRANCH   1  34
HETATM   34  O1  UNL     1       0.274  -1.814  -0.266  1.00  0.00    -0.328 OA
BRANCH  34  35
HETATM   35  C31 UNL     1       0.899  -2.176   0.944  1.00  0.00     0.270 C 
HETATM   36  O8  UNL     1       2.289  -2.117   0.737  1.00  0.00    -0.326 OA
HETATM   37  C32 UNL     1       2.994  -2.348   1.927  1.00  0.00     0.181 C 
HETATM   38  C33 UNL     1       2.717  -3.749   2.498  1.00  0.00     0.181 C 
HETATM   39  C34 UNL     1       1.210  -3.992   2.574  1.00  0.00     0.217 C 
HETATM   40  C35 UNL     1       0.549  -3.604   1.265  1.00  0.00     0.241 C 
HETATM   41  O10 UNL     1       0.897  -5.349   2.773  1.00  0.00    -0.218 OA
HETATM   42  O9  UNL     1      -0.843  -3.735   1.394  1.00  0.00    -0.215 OA
BRANCH  37  43
HETATM   43  C41 UNL     1       4.470  -2.108   1.636  1.00  0.00     0.214 C 
HETATM   44  O16 UNL     1       4.655  -0.730   1.388  1.00  0.00    -0.218 OA
ENDBRANCH  37  43
BRANCH  38  45
HETATM   45  O11 UNL     1       3.369  -3.775   3.742  1.00  0.00    -0.326 OA
BRANCH  45  46
HETATM   46  C36 UNL     1       3.192  -4.918   4.545  1.00  0.00     0.270 C 
HETATM   47  O12 UNL     1       2.100  -4.601   5.386  1.00  0.00    -0.326 OA
HETATM   48  C37 UNL     1       1.808  -5.635   6.293  1.00  0.00     0.181 C 
HETATM   49  C38 UNL     1       2.994  -5.872   7.211  1.00  0.00     0.215 C 
HETATM   50  C39 UNL     1       4.216  -6.212   6.385  1.00  0.00     0.220 C 
HETATM   51  O15 UNL     1       2.738  -6.939   8.089  1.00  0.00    -0.218 OA
HETATM   52  C40 UNL     1       4.438  -5.098   5.385  1.00  0.00     0.241 C 
HETATM   53  O14 UNL     1       5.336  -6.325   7.225  1.00  0.00    -0.218 OA
HETATM   54  O13 UNL     1       5.522  -5.435   4.557  1.00  0.00    -0.215 OA
ENDBRANCH  45  46
ENDBRANCH  38  45
ENDBRANCH  34  35
ENDBRANCH   1  34
BRANCH   6  55
HETATM   55  C8  UNL     1      -0.989   1.207   1.244  1.00  0.00     0.187 C 
HETATM   56  O2  UNL     1      -0.065   0.742   2.105  1.00  0.00    -0.647 OA
HETATM   57  O3  UNL     1      -1.748   2.083   1.590  1.00  0.00    -0.647 OA
ENDBRANCH   6  55
TORSDOF 6
