REMARK  8 active torsions:
REMARK  status: ('A' for Active; 'I' for Inactive)
REMARK    1  A    between atoms: O1_1  and  C1_2 
REMARK    2  A    between atoms: O1_1  and  C47_65 
REMARK    3  A    between atoms: C6_7  and  C8_9 
REMARK    4  A    between atoms: C37_44  and  O9_47 
REMARK    5  A    between atoms: O9_47  and  C39_48 
REMARK    6  A    between atoms: C48_67  and  C57_83 
REMARK    7  A    between atoms: C49_68  and  O22_73 
REMARK    8  A    between atoms: O22_73  and  C52_74 
ROOT
HETATM    1  C1  UNL     1       1.150  -0.190  -0.208  1.00  0.00     0.158 C 
HETATM    2  C2  UNL     1       1.441   1.302   0.034  1.00  0.00     0.180 C 
HETATM    3  C3  UNL     1       2.867   1.809  -0.280  1.00  0.00     0.035 C 
HETATM    4  C4  UNL     1       3.903   0.671  -0.543  1.00  0.00     0.003 C 
HETATM    5  C5  UNL     1       3.214  -0.135  -1.723  1.00  0.00     0.012 C 
HETATM    6  C6  UNL     1       1.721  -0.598  -1.584  1.00  0.00     0.106 C 
HETATM    7  C7  UNL     1       1.519  -2.111  -1.829  1.00  0.00     0.013 C 
HETATM    8  C9  UNL     1       4.110  -1.022  -2.631  1.00  0.00     0.001 C 
HETATM    9  C10 UNL     1       5.555  -0.511  -2.900  1.00  0.00     0.000 C 
HETATM   10  C11 UNL     1       6.377  -0.128  -1.608  1.00  0.00     0.000 C 
HETATM   11  C12 UNL     1       5.306   1.156  -1.079  1.00  0.00     0.000 C 
HETATM   12  C13 UNL     1       5.811   2.673  -0.552  1.00  0.00     0.005 C 
HETATM   13  C14 UNL     1       7.626   2.959  -0.633  1.00  0.00     0.061 A 
HETATM   14  C15 UNL     1       8.755   1.839  -1.256  1.00  0.00     0.005 C 
HETATM   15  C16 UNL     1       8.171   0.133  -1.671  1.00  0.00     0.000 C 
HETATM   16  C17 UNL     1       8.601  -0.659  -2.980  1.00  0.00     0.000 C 
HETATM   17  C18 UNL     1       9.077  -0.802  -0.714  1.00  0.00     0.001 C 
HETATM   18  C19 UNL     1      10.613  -0.732  -0.802  1.00  0.00     0.009 C 
HETATM   19  C20 UNL     1      11.246   0.667  -0.677  1.00  0.00     0.078 C 
HETATM   20  C21 UNL     1      10.403   1.740  -1.488  1.00  0.00     0.009 C 
HETATM   21  C22 UNL     1      10.829   1.761  -2.990  1.00  0.00     0.001 C 
HETATM   22  C23 UNL     1      12.311   1.602  -3.395  1.00  0.00     0.000 C 
HETATM   23  C24 UNL     1      12.905   0.386  -2.676  1.00  0.00     0.001 C 
HETATM   24  C25 UNL     1      12.720   0.520  -1.164  1.00  0.00     0.009 C 
HETATM   25  C26 UNL     1      12.390   1.358  -4.923  1.00  0.00     0.000 C 
HETATM   26  C27 UNL     1      13.135   2.876  -3.102  1.00  0.00     0.000 C 
HETATM   27  C28 UNL     1      11.533   1.117   0.796  1.00  0.00     0.273 C 
HETATM   28  O4  UNL     1      11.013   0.287   1.736  1.00  0.00    -0.273 OA
HETATM   29  C29 UNL     1      10.525   0.866   2.941  1.00  0.00     0.273 C 
HETATM   30  O5  UNL     1      10.846  -0.187   3.830  1.00  0.00    -0.326 OA
HETATM   31  C30 UNL     1      10.409   0.041   5.144  1.00  0.00     0.181 C 
HETATM   32  C31 UNL     1       8.898   0.143   5.197  1.00  0.00     0.214 C 
HETATM   33  C32 UNL     1       8.437   1.264   4.293  1.00  0.00     0.217 C 
HETATM   34  C33 UNL     1       9.014   1.106   2.897  1.00  0.00     0.207 C 
HETATM   35  O6  UNL     1       8.612   2.252   2.173  1.00  0.00    -0.324 OA
HETATM   36  C34 UNL     1       8.788   2.138   0.778  1.00  0.00     0.267 C 
HETATM   37  O7  UNL     1       9.509   3.426   0.351  1.00  0.00    -0.329 OA
HETATM   38  C35 UNL     1       9.303   4.229  -0.943  1.00  0.00     0.151 C 
HETATM   39  C36 UNL     1       8.307   3.696  -2.220  1.00  0.00     0.206 C 
HETATM   40  C37 UNL     1       7.217   2.192  -2.064  1.00  0.00     0.158 A 
HETATM   41  C38 UNL     1       7.425   1.430  -0.133  1.00  0.00     0.205 A 
HETATM   42  O8  UNL     1       6.998   0.229   0.474  1.00  0.00    -0.218 OA
HETATM   43  O14 UNL     1       7.474   4.777  -2.590  1.00  0.00    -0.218 OA
HETATM   44  C44 UNL     1      10.579   4.956  -1.412  1.00  0.00     0.035 C 
HETATM   45  O15 UNL     1       7.030   1.251   4.207  1.00  0.00    -0.218 OA
HETATM   46  O16 UNL     1       8.322  -1.069   4.767  1.00  0.00    -0.218 OA
HETATM   47  O17 UNL     1      12.030   2.188   1.065  1.00  0.00    -0.264 OA
HETATM   48  C45 UNL     1       6.225  -1.587  -0.969  1.00  0.00     0.000 C 
HETATM   49  C46 UNL     1       4.159   0.120   0.885  1.00  0.00     0.000 C 
HETATM   50  O18 UNL     1       1.098   1.626   1.364  1.00  0.00    -0.221 OA
ENDROOT
BRANCH   1  51
HETATM   51  O1  UNL     1       1.756  -0.942   0.801  1.00  0.00    -0.328 OA
BRANCH  51  52
HETATM   52  C47 UNL     1       1.072  -2.030   1.369  1.00  0.00     0.270 C 
HETATM   53  O19 UNL     1       0.271  -1.460   2.375  1.00  0.00    -0.326 OA
HETATM   54  C48 UNL     1      -0.395  -2.423   3.151  1.00  0.00     0.181 C 
HETATM   55  C49 UNL     1       0.587  -3.356   3.879  1.00  0.00     0.181 C 
HETATM   56  C50 UNL     1       1.535  -3.981   2.862  1.00  0.00     0.217 C 
HETATM   57  C51 UNL     1       2.135  -2.885   2.016  1.00  0.00     0.241 C 
HETATM   58  O21 UNL     1       2.628  -4.630   3.468  1.00  0.00    -0.218 OA
HETATM   59  O20 UNL     1       2.964  -3.456   1.034  1.00  0.00    -0.215 OA
BRANCH  54  60
HETATM   60  C57 UNL     1      -1.287  -1.675   4.136  1.00  0.00     0.214 C 
HETATM   61  O27 UNL     1      -2.199  -0.856   3.432  1.00  0.00    -0.218 OA
ENDBRANCH  54  60
BRANCH  55  62
HETATM   62  O22 UNL     1      -0.170  -4.311   4.581  1.00  0.00    -0.326 OA
BRANCH  62  63
HETATM   63  C52 UNL     1       0.571  -5.168   5.422  1.00  0.00     0.270 C 
HETATM   64  O23 UNL     1       0.722  -6.349   4.666  1.00  0.00    -0.326 OA
HETATM   65  C53 UNL     1       1.521  -7.293   5.334  1.00  0.00     0.181 C 
HETATM   66  C54 UNL     1       0.868  -7.706   6.641  1.00  0.00     0.215 C 
HETATM   67  C55 UNL     1       0.572  -6.492   7.499  1.00  0.00     0.220 C 
HETATM   68  O26 UNL     1       1.725  -8.572   7.344  1.00  0.00    -0.218 OA
HETATM   69  C56 UNL     1      -0.205  -5.478   6.680  1.00  0.00     0.241 C 
HETATM   70  O25 UNL     1      -0.182  -6.874   8.622  1.00  0.00    -0.218 OA
HETATM   71  O24 UNL     1      -0.372  -4.297   7.426  1.00  0.00    -0.215 OA
ENDBRANCH  62  63
ENDBRANCH  55  62
ENDBRANCH  51  52
ENDBRANCH   1  51
BRANCH   6  72
HETATM   72  C8  UNL     1       0.810   0.044  -2.658  1.00  0.00     0.187 C 
HETATM   73  O2  UNL     1       1.305  -0.061  -3.899  1.00  0.00    -0.647 OA
HETATM   74  O3  UNL     1      -0.271   0.549  -2.470  1.00  0.00    -0.647 OA
ENDBRANCH   6  72
BRANCH  40  75
HETATM   75  O9  UNL     1       7.559   1.596  -3.333  1.00  0.00    -0.329 OA
BRANCH  75  76
HETATM   76  C39 UNL     1       7.092   2.162  -4.591  1.00  0.00     0.270 C 
HETATM   77  O10 UNL     1       6.773   0.952  -5.258  1.00  0.00    -0.326 OA
HETATM   78  C40 UNL     1       6.488   1.035  -6.624  1.00  0.00     0.181 C 
HETATM   79  C41 UNL     1       7.735   1.447  -7.368  1.00  0.00     0.215 C 
HETATM   80  C42 UNL     1       8.056   2.842  -6.905  1.00  0.00     0.220 C 
HETATM   81  O13 UNL     1       8.803   0.583  -7.060  1.00  0.00    -0.218 OA
HETATM   82  C43 UNL     1       8.128   2.954  -5.388  1.00  0.00     0.241 C 
HETATM   83  O12 UNL     1       9.282   3.248  -7.468  1.00  0.00    -0.218 OA
HETATM   84  O11 UNL     1       7.992   4.340  -5.151  1.00  0.00    -0.215 OA
ENDBRANCH  75  76
ENDBRANCH  40  75
TORSDOF 8
