REMARK  16 active torsions:
REMARK  status: ('A' for Active; 'I' for Inactive)
REMARK    1  A    between atoms: O1_1  and  C1_2 
REMARK    2  A    between atoms: O1_1  and  C49_69 
REMARK    3  A    between atoms: C6_7  and  C8_9 
REMARK    4  A    between atoms: C20_23  and  C28_31 
REMARK    5  A    between atoms: C28_31  and  O4_32 
REMARK    6  A    between atoms: O4_32  and  C29_33 
REMARK    7  A    between atoms: C33_38  and  O6_39 
REMARK    8  A    between atoms: O6_39  and  C34_40 
REMARK    9  A    between atoms: C36_43  and  O14_57 
REMARK   10  A    between atoms: C37_44  and  O9_47 
REMARK   11  A    between atoms: O9_47  and  C39_48 
REMARK   12  A    between atoms: C41_51  and  C43_55 
REMARK   13  A    between atoms: O14_57  and  C44_58 
REMARK   14  A    between atoms: C50_71  and  C59_87 
REMARK   15  A    between atoms: C51_72  and  O24_77 
REMARK   16  A    between atoms: O24_77  and  C54_78 
ROOT
HETATM    1  C1  UNL     1       9.141  -1.110  -6.458  1.00  0.00     0.158 C 
HETATM    2  C2  UNL     1       9.126   0.359  -6.921  1.00  0.00     0.180 C 
HETATM    3  C3  UNL     1       9.302   1.436  -5.829  1.00  0.00     0.035 C 
HETATM    4  C4  UNL     1       9.033   0.930  -4.389  1.00  0.00     0.003 C 
HETATM    5  C5  UNL     1      10.056  -0.250  -4.220  1.00  0.00     0.012 C 
HETATM    6  C6  UNL     1      10.251  -1.278  -5.391  1.00  0.00     0.106 C 
HETATM    7  C7  UNL     1      10.329  -2.757  -4.941  1.00  0.00     0.013 C 
HETATM    8  C9  UNL     1      10.026  -0.839  -2.800  1.00  0.00     0.001 C 
HETATM    9  C10 UNL     1      10.288   0.229  -1.723  1.00  0.00     0.000 C 
HETATM   10  C11 UNL     1       9.359   1.463  -1.810  1.00  0.00     0.004 C 
HETATM   11  C12 UNL     1       9.370   1.995  -3.279  1.00  0.00     0.005 C 
HETATM   12  C13 UNL     1       8.632   3.350  -3.393  1.00  0.00     0.025 C 
HETATM   13  C14 UNL     1       8.225   3.983  -2.082  1.00  0.00    -0.035 C 
HETATM   14  C15 UNL     1       8.701   3.644  -0.868  1.00  0.00    -0.049 C 
HETATM   15  C16 UNL     1       9.806   2.604  -0.806  1.00  0.00     0.017 C 
HETATM   16  C17 UNL     1      11.116   3.318  -1.233  1.00  0.00     0.004 C 
HETATM   17  C18 UNL     1      10.053   2.066   0.629  1.00  0.00     0.037 C 
HETATM   18  C19 UNL     1       9.768   3.009   1.799  1.00  0.00     0.162 C 
HETATM   19  C20 UNL     1       8.379   3.670   1.715  1.00  0.00     0.110 C 
HETATM   20  C21 UNL     1       8.245   4.419   0.363  1.00  0.00     0.029 C 
HETATM   21  C22 UNL     1       8.898   5.817   0.333  1.00  0.00     0.005 C 
HETATM   22  C23 UNL     1       8.496   6.748   1.493  1.00  0.00     0.000 C 
HETATM   23  C24 UNL     1       8.737   6.017   2.825  1.00  0.00     0.001 C 
HETATM   24  C25 UNL     1       8.082   4.631   2.894  1.00  0.00     0.012 C 
HETATM   25  C26 UNL     1       9.377   8.017   1.452  1.00  0.00     0.000 C 
HETATM   26  C27 UNL     1       7.026   7.198   1.363  1.00  0.00     0.000 C 
HETATM   27  O19 UNL     1      10.808   3.947   1.905  1.00  0.00    -0.223 OA
HETATM   28  C47 UNL     1       7.941   0.981  -1.410  1.00  0.00     0.000 C 
HETATM   29  C48 UNL     1       7.515   0.624  -4.315  1.00  0.00     0.000 C 
HETATM   30  O20 UNL     1       7.962   0.609  -7.678  1.00  0.00    -0.221 OA
ENDROOT
BRANCH  19  31
HETATM   31  C28 UNL     1       7.301   2.557   1.842  1.00  0.00     0.276 C 
HETATM   32  O18 UNL     1       6.515   2.267   0.970  1.00  0.00    -0.264 OA
BRANCH  31  33
HETATM   33  O4  UNL     1       7.406   1.876   3.026  1.00  0.00    -0.273 OA
BRANCH  33  34
HETATM   34  C29 UNL     1       7.545   0.468   3.068  1.00  0.00     0.273 C 
HETATM   35  O5  UNL     1       7.444  -0.075   1.778  1.00  0.00    -0.326 OA
HETATM   36  C30 UNL     1       7.909  -1.400   1.704  1.00  0.00     0.181 C 
HETATM   37  C31 UNL     1       7.172  -2.307   2.676  1.00  0.00     0.214 C 
HETATM   38  C32 UNL     1       7.095  -1.685   4.057  1.00  0.00     0.217 C 
HETATM   39  O17 UNL     1       5.858  -2.534   2.225  1.00  0.00    -0.218 OA
HETATM   40  C33 UNL     1       6.559  -0.254   3.969  1.00  0.00     0.207 C 
HETATM   41  O16 UNL     1       6.261  -2.479   4.861  1.00  0.00    -0.218 OA
BRANCH  40  42
HETATM   42  O6  UNL     1       6.531   0.285   5.259  1.00  0.00    -0.324 OA
BRANCH  42  43
HETATM   43  C34 UNL     1       5.314   0.930   5.602  1.00  0.00     0.270 C 
HETATM   44  O7  UNL     1       5.762   1.945   6.475  1.00  0.00    -0.329 OA
HETATM   45  C35 UNL     1       4.727   2.723   7.008  1.00  0.00     0.148 C 
HETATM   46  C36 UNL     1       3.747   1.878   7.822  1.00  0.00     0.181 C 
HETATM   47  C46 UNL     1       4.066   3.607   5.946  1.00  0.00     0.035 C 
HETATM   48  C37 UNL     1       3.256   0.644   7.066  1.00  0.00     0.183 C 
HETATM   49  C38 UNL     1       4.407  -0.033   6.334  1.00  0.00     0.238 C 
HETATM   50  O8  UNL     1       3.885  -0.989   5.444  1.00  0.00    -0.215 OA
BRANCH  46  51
HETATM   51  O14 UNL     1       4.355   1.492   9.024  1.00  0.00    -0.299 OA
BRANCH  51  52
HETATM   52  C44 UNL     1       3.537   1.069  10.031  1.00  0.00     0.273 C 
HETATM   53  C45 UNL     1       4.361   0.697  11.247  1.00  0.00     0.106 C 
HETATM   54  O15 UNL     1       2.330   0.990   9.966  1.00  0.00    -0.264 OA
ENDBRANCH  51  52
ENDBRANCH  46  51
BRANCH  48  55
HETATM   55  O9  UNL     1       2.220   1.018   6.197  1.00  0.00    -0.326 OA
BRANCH  55  56
HETATM   56  C39 UNL     1       1.133   0.116   6.215  1.00  0.00     0.270 C 
HETATM   57  O10 UNL     1       0.375   0.401   5.058  1.00  0.00    -0.326 OA
HETATM   58  C40 UNL     1      -0.974   0.539   5.436  1.00  0.00     0.181 C 
HETATM   59  C41 UNL     1      -1.116  -0.017   6.842  1.00  0.00     0.217 C 
HETATM   60  C42 UNL     1       0.237   0.340   7.415  1.00  0.00     0.241 C 
HETATM   61  O12 UNL     1      -1.211  -1.415   6.795  1.00  0.00    -0.218 OA
HETATM   62  O11 UNL     1       0.564  -0.510   8.489  1.00  0.00    -0.215 OA
BRANCH  59  63
HETATM   63  C43 UNL     1      -2.315   0.512   7.600  1.00  0.00     0.218 C 
HETATM   64  O13 UNL     1      -2.333  -0.061   8.891  1.00  0.00    -0.218 OA
ENDBRANCH  59  63
ENDBRANCH  55  56
ENDBRANCH  48  55
ENDBRANCH  42  43
ENDBRANCH  40  42
ENDBRANCH  33  34
ENDBRANCH  31  33
ENDBRANCH  19  31
BRANCH   6  65
HETATM   65  C8  UNL     1      11.614  -1.083  -6.092  1.00  0.00     0.187 C 
HETATM   66  O2  UNL     1      12.659  -1.067  -5.239  1.00  0.00    -0.647 OA
HETATM   67  O3  UNL     1      11.812  -1.022  -7.281  1.00  0.00    -0.647 OA
ENDBRANCH   6  65
BRANCH   1  68
HETATM   68  O1  UNL     1       7.903  -1.434  -5.896  1.00  0.00    -0.328 OA
BRANCH  68  69
HETATM   69  C49 UNL     1       7.329  -2.704  -6.112  1.00  0.00     0.270 C 
HETATM   70  O21 UNL     1       6.585  -2.607  -7.305  1.00  0.00    -0.326 OA
HETATM   71  C50 UNL     1       5.835  -3.763  -7.595  1.00  0.00     0.181 C 
HETATM   72  C51 UNL     1       4.850  -4.125  -6.471  1.00  0.00     0.181 C 
HETATM   73  C52 UNL     1       5.535  -4.131  -5.114  1.00  0.00     0.217 C 
HETATM   74  C53 UNL     1       6.365  -2.885  -4.964  1.00  0.00     0.241 C 
HETATM   75  O23 UNL     1       4.608  -4.091  -4.053  1.00  0.00    -0.218 OA
HETATM   76  O22 UNL     1       7.055  -2.981  -3.744  1.00  0.00    -0.215 OA
BRANCH  71  77
HETATM   77  C59 UNL     1       5.130  -3.476  -8.922  1.00  0.00     0.214 C 
HETATM   78  O29 UNL     1       4.314  -4.550  -9.350  1.00  0.00    -0.218 OA
ENDBRANCH  71  77
BRANCH  72  79
HETATM   79  O24 UNL     1       4.324  -5.395  -6.754  1.00  0.00    -0.326 OA
BRANCH  79  80
HETATM   80  C54 UNL     1       3.216  -5.776  -5.973  1.00  0.00     0.270 C 
HETATM   81  O25 UNL     1       3.697  -6.667  -4.989  1.00  0.00    -0.326 OA
HETATM   82  C55 UNL     1       2.672  -7.037  -4.098  1.00  0.00     0.181 C 
HETATM   83  C56 UNL     1       1.559  -7.754  -4.847  1.00  0.00     0.215 C 
HETATM   84  C57 UNL     1       1.056  -6.915  -6.006  1.00  0.00     0.220 C 
HETATM   85  O28 UNL     1       0.478  -8.012  -3.985  1.00  0.00    -0.218 OA
HETATM   86  C58 UNL     1       2.241  -6.514  -6.859  1.00  0.00     0.241 C 
HETATM   87  O27 UNL     1       0.149  -7.663  -6.773  1.00  0.00    -0.218 OA
HETATM   88  O26 UNL     1       1.827  -5.662  -7.896  1.00  0.00    -0.215 OA
ENDBRANCH  79  80
ENDBRANCH  72  79
ENDBRANCH  68  69
ENDBRANCH   1  68
TORSDOF 16
