REMARK  5 active torsions:
REMARK  status: ('A' for Active; 'I' for Inactive)
REMARK    1  A    between atoms: C4_5  and  C5_6 
REMARK    2  A    between atoms: C14_15  and  O4_19 
REMARK    3  A    between atoms: O4_19  and  C16_20 
REMARK    4  A    between atoms: C16_20  and  C17_22 
REMARK    5  A    between atoms: C17_22  and  C18_23 
ROOT
HETATM    1  C5  UNL     1      -2.049  -1.302   1.276  1.00  0.00     0.036 C 
HETATM    2  C6  UNL     1      -1.464  -2.729   1.488  1.00  0.00     0.033 C 
HETATM    3  C7  UNL     1       0.062  -2.641   1.368  1.00  0.00     0.127 C 
HETATM    4  C8  UNL     1       0.375  -1.240   1.847  1.00  0.00     0.061 C 
HETATM    5  C9  UNL     1      -0.807  -0.378   1.382  1.00  0.00     0.065 C 
HETATM    6  C10 UNL     1      -0.589   0.720   2.407  1.00  0.00     0.247 C 
HETATM    7  C11 UNL     1       0.607   1.583   2.046  1.00  0.00     0.206 C 
HETATM    8  C12 UNL     1       1.905   0.766   1.920  1.00  0.00     0.039 C 
HETATM    9  C13 UNL     1       1.710  -0.666   1.342  1.00  0.00     0.045 C 
HETATM   10  C14 UNL     1       1.775  -0.864  -0.178  1.00  0.00     0.210 C 
HETATM   11  C15 UNL     1       1.442  -2.296  -0.608  1.00  0.00     0.300 C 
HETATM   12  O2  UNL     1       0.457  -2.942   0.066  1.00  0.00    -0.302 OA
HETATM   13  O3  UNL     1       1.937  -2.769  -1.610  1.00  0.00    -0.262 OA
HETATM   14  C21 UNL     1       3.056   1.607   1.349  1.00  0.00     0.003 C 
HETATM   15  O7  UNL     1       0.321   2.267   0.851  1.00  0.00    -0.218 OA
HETATM   16  O8  UNL     1      -1.719   1.528   2.598  1.00  0.00    -0.193 OA
HETATM   17  O9  UNL     1      -0.361   0.115   3.643  1.00  0.00    -0.331 OA
HETATM   18  C22 UNL     1       0.234  -1.129   3.376  1.00  0.00     0.147 C 
HETATM   19  C23 UNL     1      -3.144  -1.014   2.322  1.00  0.00     0.003 C 
ENDROOT
BRANCH   1  20
HETATM   20  C4  UNL     1      -2.661  -1.259  -0.150  1.00  0.00     0.143 A 
HETATM   21  C1  UNL     1      -3.339   0.021  -0.592  1.00  0.00    -0.011 A 
HETATM   22  C2  UNL     1      -4.631  -0.220  -0.840  1.00  0.00     0.062 A 
HETATM   23  C24 UNL     1      -2.656   1.339  -0.799  1.00  0.00     0.029 C 
HETATM   24  C3  UNL     1      -4.824  -1.541  -0.626  1.00  0.00     0.296 A 
HETATM   25  O1  UNL     1      -3.701  -2.221  -0.250  1.00  0.00    -0.297 OA
HETATM   26  O10 UNL     1      -5.899  -2.079  -0.774  1.00  0.00    -0.259 OA
ENDBRANCH   1  20
BRANCH  10  27
HETATM   27  O4  UNL     1       3.047  -0.499  -0.659  1.00  0.00    -0.292 OA
BRANCH  27  28
HETATM   28  C16 UNL     1       3.343   0.140  -1.835  1.00  0.00     0.300 C 
HETATM   29  O5  UNL     1       4.505   0.262  -2.166  1.00  0.00    -0.262 OA
BRANCH  28  30
HETATM   30  C17 UNL     1       2.239   0.819  -2.678  1.00  0.00     0.203 C 
HETATM   31  C20 UNL     1       1.418  -0.220  -3.446  1.00  0.00     0.043 C 
HETATM   32  O6  UNL     1       1.376   1.610  -1.889  1.00  0.00    -0.216 OA
BRANCH  30  33
HETATM   33  C18 UNL     1       2.907   1.797  -3.669  1.00  0.00     0.040 C 
HETATM   34  C19 UNL     1       1.949   2.634  -4.532  1.00  0.00     0.003 C 
ENDBRANCH  30  33
ENDBRANCH  28  30
ENDBRANCH  27  28
ENDBRANCH  10  27
TORSDOF 5
