REMARK  3 active torsions:
REMARK  status: ('A' for Active; 'I' for Inactive)
REMARK    1  A    between atoms: C10_10  and  C15_17 
REMARK    2  A    between atoms: C10_10  and  C17_20 
REMARK    3  A    between atoms: C17_20  and  O4_21 
ROOT
HETATM    1  C1  UNL     1      -0.666   0.489  -3.319  1.00  0.00     0.203 C 
HETATM    2  C2  UNL     1      -1.421  -0.618  -3.155  1.00  0.00     0.032 C 
HETATM    3  C3  UNL     1      -1.621  -1.137  -1.934  1.00  0.00    -0.041 C 
HETATM    4  C4  UNL     1      -0.965  -0.513  -0.708  1.00  0.00     0.023 C 
HETATM    5  C5  UNL     1      -0.903   1.036  -0.801  1.00  0.00     0.045 C 
HETATM    6  C6  UNL     1      -0.087   1.161  -2.096  1.00  0.00     0.213 C 
HETATM    7  C7  UNL     1       1.102   0.477  -1.447  1.00  0.00     0.209 C 
HETATM    8  C8  UNL     1       0.579  -0.784  -0.688  1.00  0.00     0.039 C 
HETATM    9  C9  UNL     1       1.036  -0.720   0.807  1.00  0.00     0.018 C 
HETATM   10  C10 UNL     1       0.246   0.447   1.446  1.00  0.00     0.060 C 
HETATM   11  C11 UNL     1      -1.109  -0.170   1.798  1.00  0.00     0.127 C 
HETATM   12  C12 UNL     1      -1.696  -0.898   0.588  1.00  0.00     0.034 C 
HETATM   13  O1  UNL     1      -1.007  -1.056   2.870  1.00  0.00    -0.304 OA
HETATM   14  C13 UNL     1       0.017  -1.951   2.897  1.00  0.00     0.272 C 
HETATM   15  C14 UNL     1       0.886  -2.003   1.649  1.00  0.00     0.096 C 
HETATM   16  O2  UNL     1       0.194  -2.704   3.831  1.00  0.00    -0.264 OA
HETATM   17  C15 UNL     1       0.052   1.525   0.346  1.00  0.00     0.068 C 
HETATM   18  C16 UNL     1       1.365   1.543  -0.413  1.00  0.00     0.181 C 
HETATM   19  O3  UNL     1       2.388   2.179  -0.333  1.00  0.00    -0.293 OA
HETATM   20  C19 UNL     1       1.034  -2.067  -1.402  1.00  0.00     0.003 C 
HETATM   21  O5  UNL     1       2.209   0.315  -2.288  1.00  0.00    -0.215 OA
HETATM   22  O6  UNL     1       0.185   2.499  -2.448  1.00  0.00    -0.215 OA
HETATM   23  C20 UNL     1      -2.248   1.767  -0.840  1.00  0.00     0.004 C 
HETATM   24  C21 UNL     1      -2.443  -2.398  -1.786  1.00  0.00     0.026 C 
HETATM   25  O7  UNL     1      -0.454   1.021  -4.385  1.00  0.00    -0.289 OA
ENDROOT
BRANCH  10  26
HETATM   26  C17 UNL     1       0.910   1.048   2.701  1.00  0.00     0.145 C 
BRANCH  26  27
HETATM   27  O4  UNL     1       2.143   1.635   2.378  1.00  0.00    -0.351 OA
HETATM   28  C18 UNL     1       2.785   2.204   3.498  1.00  0.00     0.174 C 
ENDBRANCH  26  27
ENDBRANCH  10  26
TORSDOF 3
