REMARK  7 active torsions:
REMARK  status: ('A' for Active; 'I' for Inactive)
REMARK    1  A    between atoms: C2_2  and  O2_11 
REMARK    2  A    between atoms: C5_5  and  C7_7 
REMARK    3  A    between atoms: C8_8  and  C9_9 
REMARK    4  A    between atoms: O2_11  and  C10_12 
REMARK    5  A    between atoms: C10_12  and  C11_13 
REMARK    6  A    between atoms: C11_13  and  C12_14 
REMARK    7  A    between atoms: C12_14  and  C14_16 
ROOT
HETATM    1  C1  UNL     1      -0.765   1.614   0.455  1.00  0.00     0.024 A 
HETATM    2  C2  UNL     1      -0.329   0.341   0.474  1.00  0.00     0.094 A 
HETATM    3  C3  UNL     1      -1.294  -0.595   0.415  1.00  0.00     0.024 A 
HETATM    4  C4  UNL     1      -2.598  -0.274   0.382  1.00  0.00     0.002 A 
HETATM    5  C5  UNL     1      -3.031   1.004   0.382  1.00  0.00    -0.000 A 
HETATM    6  C6  UNL     1      -2.066   1.940   0.417  1.00  0.00     0.002 A 
ENDROOT
BRANCH   2   7
HETATM    7  O2  UNL     1       1.023   0.096   0.480  1.00  0.00    -0.331 OA
BRANCH   7   8
HETATM    8  C10 UNL     1       1.479  -1.165   0.060  1.00  0.00     0.149 C 
BRANCH   8   9
HETATM    9  C11 UNL     1       3.008  -1.142  -0.002  1.00  0.00     0.035 C 
BRANCH   9  10
HETATM   10  C12 UNL     1       3.626  -2.471  -0.485  1.00  0.00     0.036 C 
HETATM   11  C13 UNL     1       3.355  -2.710  -1.982  1.00  0.00     0.003 C 
BRANCH  10  12
HETATM   12  C14 UNL     1       5.137  -2.504  -0.236  1.00  0.00     0.182 C 
HETATM   13  O3  UNL     1       5.406  -2.526   1.152  1.00  0.00    -0.221 OA
ENDBRANCH  10  12
ENDBRANCH   9  10
ENDBRANCH   8   9
ENDBRANCH   7   8
ENDBRANCH   2   7
BRANCH   5  14
HETATM   14  C7  UNL     1      -4.361   1.233   0.335  1.00  0.00    -0.002 C 
HETATM   15  C8  UNL     1      -5.085   2.367   0.311  1.00  0.00     0.009 C 
BRANCH  15  16
HETATM   16  C9  UNL     1      -4.627   3.799   0.332  1.00  0.00     0.209 C 
HETATM   17  O1  UNL     1      -5.736   4.692   0.316  1.00  0.00    -0.215 OA
ENDBRANCH  15  16
ENDBRANCH   5  14
TORSDOF 7
