REMARK  14 active torsions:
REMARK  status: ('A' for Active; 'I' for Inactive)
REMARK    1  A    between atoms: C4_4  and  C28_36 
REMARK    2  A    between atoms: C6_6  and  O1_7 
REMARK    3  A    between atoms: O1_7  and  C7_8 
REMARK    4  A    between atoms: C9_11  and  C16_20 
REMARK    5  A    between atoms: C12_14  and  O3_15 
REMARK    6  A    between atoms: O3_15  and  C13_16 
REMARK    7  A    between atoms: C16_20  and  C17_21 
REMARK    8  A    between atoms: C17_21  and  C18_22 
REMARK    9  A    between atoms: C17_21  and  O7_28 
REMARK   10  A    between atoms: O7_28  and  C22_29 
REMARK   11  A    between atoms: C22_29  and  C23_31 
REMARK   12  A    between atoms: C23_31  and  C25_33 
REMARK   13  A    between atoms: C28_36  and  O9_37 
REMARK   14  A    between atoms: O9_37  and  C29_38 
ROOT
HETATM    1  C1  UNL     1      -3.388  -1.050   0.331  1.00  0.00     0.033 C 
HETATM    2  C2  UNL     1      -3.573  -2.348  -0.449  1.00  0.00     0.033 C 
HETATM    3  C3  UNL     1      -2.351  -3.225  -0.227  1.00  0.00     0.125 A 
HETATM    4  C4  UNL     1      -0.962  -2.611  -0.629  1.00  0.00     0.081 C 
HETATM    5  C5  UNL     1      -0.840  -1.205   0.083  1.00  0.00     0.035 C 
HETATM    6  C6  UNL     1      -2.109  -0.327  -0.104  1.00  0.00     0.124 C 
HETATM    7  C9  UNL     1       0.522  -0.399  -0.060  1.00  0.00     0.005 C 
HETATM    8  C10 UNL     1       1.688  -1.384  -0.393  1.00  0.00     0.003 C 
HETATM    9  C11 UNL     1       1.494  -2.732   0.302  1.00  0.00     0.030 C 
HETATM   10  C12 UNL     1       0.233  -3.487  -0.139  1.00  0.00     0.129 C 
HETATM   11  C15 UNL     1       3.134  -0.895  -0.181  1.00  0.00     0.000 C 
HETATM   12  C27 UNL     1       0.423   0.583  -1.251  1.00  0.00     0.000 C 
HETATM   13  O11 UNL     1      -2.556  -4.712  -0.792  1.00  0.00    -0.354 OA
HETATM   14  C31 UNL     1      -2.565  -4.401   0.578  1.00  0.00     0.169 A 
ENDROOT
BRANCH   7  15
HETATM   15  C16 UNL     1       0.842   0.350   1.287  1.00  0.00     0.035 C 
BRANCH  15  16
HETATM   16  C17 UNL     1       1.101   1.872   1.387  1.00  0.00     0.145 C 
BRANCH  16  17
HETATM   17  C18 UNL     1       2.341   2.361   0.678  1.00  0.00     0.018 A 
HETATM   18  C19 UNL     1       3.737   2.262   1.240  1.00  0.00     0.177 A 
HETATM   19  O5  UNL     1       4.561   2.860   0.247  1.00  0.00    -0.294 OA
HETATM   20  C20 UNL     1       3.699   3.312  -0.713  1.00  0.00     0.296 A 
HETATM   21  C21 UNL     1       2.396   3.038  -0.475  1.00  0.00     0.065 A 
HETATM   22  O6  UNL     1       4.067   3.913  -1.699  1.00  0.00    -0.259 OA
ENDBRANCH  16  17
BRANCH  16  23
HETATM   23  O7  UNL     1       1.214   2.156   2.768  1.00  0.00    -0.300 OA
BRANCH  23  24
HETATM   24  C22 UNL     1       1.196   3.406   3.318  1.00  0.00     0.272 C 
HETATM   25  O8  UNL     1       1.415   3.571   4.500  1.00  0.00    -0.264 OA
BRANCH  24  26
HETATM   26  C23 UNL     1       0.850   4.588   2.414  1.00  0.00     0.086 C 
HETATM   27  C24 UNL     1       1.614   5.853   2.852  1.00  0.00     0.010 C 
BRANCH  26  28
HETATM   28  C25 UNL     1      -0.671   4.823   2.433  1.00  0.00     0.010 C 
HETATM   29  C26 UNL     1      -1.179   5.560   1.186  1.00  0.00     0.001 C 
ENDBRANCH  26  28
ENDBRANCH  24  26
ENDBRANCH  23  24
ENDBRANCH  16  23
ENDBRANCH  15  16
ENDBRANCH   7  15
BRANCH   4  30
HETATM   30  C28 UNL     1      -1.059  -2.528  -2.188  1.00  0.00     0.157 C 
BRANCH  30  31
HETATM   31  O9  UNL     1       0.164  -2.328  -2.833  1.00  0.00    -0.302 OA
BRANCH  31  32
HETATM   32  C29 UNL     1       0.278  -2.225  -4.187  1.00  0.00     0.272 C 
HETATM   33  O10 UNL     1       1.353  -2.082  -4.731  1.00  0.00    -0.264 OA
HETATM   34  C30 UNL     1      -1.018  -2.242  -4.977  1.00  0.00     0.106 C 
ENDBRANCH  31  32
ENDBRANCH  30  31
ENDBRANCH   4  30
BRANCH   6  35
HETATM   35  O1  UNL     1      -2.032   0.843   0.660  1.00  0.00    -0.304 OA
BRANCH  35  36
HETATM   36  C7  UNL     1      -2.809   1.935   0.397  1.00  0.00     0.272 C 
HETATM   37  O2  UNL     1      -2.990   2.807   1.219  1.00  0.00    -0.264 OA
HETATM   38  C8  UNL     1      -3.328   2.084  -1.023  1.00  0.00     0.106 C 
ENDBRANCH  35  36
ENDBRANCH   6  35
BRANCH  10  39
HETATM   39  O3  UNL     1       0.545  -4.455  -1.100  1.00  0.00    -0.304 OA
BRANCH  39  40
HETATM   40  C13 UNL     1       0.980  -5.717  -0.815  1.00  0.00     0.272 C 
HETATM   41  O4  UNL     1       1.224  -6.521  -1.692  1.00  0.00    -0.264 OA
HETATM   42  C14 UNL     1       1.163  -6.085   0.648  1.00  0.00     0.106 C 
ENDBRANCH  39  40
ENDBRANCH  10  39
TORSDOF 14
