REMARK  3 active torsions:
REMARK  status: ('A' for Active; 'I' for Inactive)
REMARK    1  A    between atoms: C15_16  and  C18_19 
REMARK    2  A    between atoms: C18_19  and  C19_20 
REMARK    3  A    between atoms: C21_23  and  C25_27 
ROOT
HETATM    1  C1  UNL     1      -3.977  -1.182  -4.767  1.00  0.00     0.065 C 
HETATM    2  C2  UNL     1      -4.843  -2.287  -4.155  1.00  0.00     0.012 C 
HETATM    3  C3  UNL     1      -4.036  -3.113  -3.142  1.00  0.00     0.022 C 
HETATM    4  C4  UNL     1      -2.773  -2.415  -2.675  1.00  0.00    -0.043 C 
HETATM    5  C5  UNL     1      -2.823  -0.908  -2.449  1.00  0.00     0.066 C 
HETATM    6  C6  UNL     1      -3.528  -0.261  -3.646  1.00  0.00     0.153 C 
HETATM    7  O1  UNL     1      -3.772   0.923  -3.697  1.00  0.00    -0.296 OA
HETATM    8  C7  UNL     1      -1.391  -0.304  -2.311  1.00  0.00     0.013 C 
HETATM    9  C8  UNL     1      -0.536  -1.181  -1.364  1.00  0.00     0.033 C 
HETATM   10  C9  UNL     1      -0.361  -2.584  -1.968  1.00  0.00     0.028 C 
HETATM   11  C10 UNL     1      -1.669  -3.145  -2.442  1.00  0.00    -0.034 C 
HETATM   12  C11 UNL     1       0.806  -0.520  -1.042  1.00  0.00     0.129 C 
HETATM   13  C12 UNL     1       0.635   0.887  -0.426  1.00  0.00     0.052 C 
HETATM   14  C13 UNL     1       0.022   1.778  -1.523  1.00  0.00     0.005 C 
HETATM   15  C14 UNL     1      -1.335   1.216  -1.999  1.00  0.00     0.001 C 
HETATM   16  C15 UNL     1       2.074   1.225   0.068  1.00  0.00     0.131 C 
HETATM   17  C16 UNL     1       2.479  -0.120   0.693  1.00  0.00     0.033 C 
HETATM   18  C17 UNL     1       1.720  -1.239  -0.051  1.00  0.00     0.033 C 
HETATM   19  O5  UNL     1       2.892   1.335  -1.074  1.00  0.00    -0.226 OA
HETATM   20  C27 UNL     1      -0.344   0.891   0.777  1.00  0.00     0.005 C 
HETATM   21  O6  UNL     1       1.512  -0.448  -2.262  1.00  0.00    -0.226 OA
HETATM   22  C28 UNL     1      -3.714  -0.662  -1.210  1.00  0.00     0.011 C 
ENDROOT
BRANCH  16  23
HETATM   23  C18 UNL     1       2.273   2.524   0.914  1.00  0.00     0.056 C 
HETATM   24  C26 UNL     1       3.359   3.455   0.304  1.00  0.00     0.005 C 
BRANCH  23  25
HETATM   25  C19 UNL     1       2.532   2.487   2.450  1.00  0.00     0.131 C 
HETATM   26  O2  UNL     1       3.621   1.687   2.792  1.00  0.00    -0.301 OA
HETATM   27  C20 UNL     1       3.466   0.620   3.631  1.00  0.00     0.294 C 
HETATM   28  C21 UNL     1       2.302   0.220   4.215  1.00  0.00     0.066 C 
HETATM   29  O4  UNL     1       4.437  -0.075   3.851  1.00  0.00    -0.259 OA
HETATM   30  C22 UNL     1       1.209   0.981   4.036  1.00  0.00    -0.038 C 
HETATM   31  C23 UNL     1       1.330   2.324   3.376  1.00  0.00     0.052 C 
HETATM   32  C24 UNL     1      -0.162   0.686   4.600  1.00  0.00     0.026 C 
BRANCH  28  33
HETATM   33  C25 UNL     1       2.302  -1.055   5.034  1.00  0.00     0.213 C 
HETATM   34  O3  UNL     1       3.385  -1.050   5.956  1.00  0.00    -0.215 OA
ENDBRANCH  28  33
ENDBRANCH  23  25
ENDBRANCH  16  23
TORSDOF 3
