REMARK  5 active torsions:
REMARK  status: ('A' for Active; 'I' for Inactive)
REMARK    1  A    between atoms: C3_3  and  C20_24 
REMARK    2  A    between atoms: C7_7  and  C12_13 
REMARK    3  A    between atoms: C12_13  and  C13_14 
REMARK    4  A    between atoms: C13_14  and  C14_15 
REMARK    5  A    between atoms: C20_24  and  O6_26 
ROOT
HETATM    1  C1  UNL     1      -2.673   1.465   0.461  1.00  0.00     0.004 C 
HETATM    2  C2  UNL     1      -3.475   0.165   0.437  1.00  0.00     0.027 C 
HETATM    3  C3  UNL     1      -2.963  -0.828  -0.628  1.00  0.00     0.021 C 
HETATM    4  C4  UNL     1      -1.442  -0.725  -1.013  1.00  0.00     0.048 C 
HETATM    5  C5  UNL     1      -0.670  -0.194   0.235  1.00  0.00     0.006 C 
HETATM    6  C6  UNL     1      -1.181   1.191   0.702  1.00  0.00     0.001 C 
HETATM    7  C7  UNL     1       0.894  -0.355   0.320  1.00  0.00     0.003 C 
HETATM    8  C8  UNL     1       1.269  -1.812  -0.104  1.00  0.00     0.003 C 
HETATM    9  C9  UNL     1       0.599  -2.242  -1.421  1.00  0.00     0.033 C 
HETATM   10  C10 UNL     1      -0.920  -2.142  -1.355  1.00  0.00     0.156 C 
HETATM   11  O1  UNL     1      -1.443  -2.599  -2.583  1.00  0.00    -0.223 OA
HETATM   12  C11 UNL     1       2.780  -2.099  -0.244  1.00  0.00     0.000 C 
HETATM   13  C18 UNL     1       1.666   0.636  -0.578  1.00  0.00     0.000 C 
HETATM   14  C19 UNL     1      -1.252   0.193  -2.240  1.00  0.00     0.007 C 
ENDROOT
BRANCH   7  15
HETATM   15  C12 UNL     1       1.332  -0.167   1.815  1.00  0.00     0.037 C 
BRANCH  15  16
HETATM   16  C13 UNL     1       1.800   1.214   2.294  1.00  0.00     0.173 C 
HETATM   17  O4  UNL     1       1.622   1.294   3.699  1.00  0.00    -0.219 OA
BRANCH  16  18
HETATM   18  C14 UNL     1       3.237   1.554   2.014  1.00  0.00     0.021 A 
HETATM   19  C15 UNL     1       3.688   2.927   1.597  1.00  0.00     0.177 A 
HETATM   20  O2  UNL     1       5.101   2.813   1.487  1.00  0.00    -0.294 OA
HETATM   21  C16 UNL     1       5.387   1.518   1.825  1.00  0.00     0.296 A 
HETATM   22  C17 UNL     1       4.309   0.765   2.144  1.00  0.00     0.065 A 
HETATM   23  O3  UNL     1       6.518   1.081   1.846  1.00  0.00    -0.259 OA
ENDBRANCH  16  18
ENDBRANCH  15  16
ENDBRANCH   7  15
BRANCH   3  24
HETATM   24  C20 UNL     1      -3.930  -1.328  -1.711  1.00  0.00     0.288 C 
HETATM   25  O5  UNL     1      -3.986  -2.519  -1.944  1.00  0.00    -0.260 OA
BRANCH  24  26
HETATM   26  O6  UNL     1      -4.740  -0.465  -2.388  1.00  0.00    -0.296 OA
HETATM   27  C21 UNL     1      -4.678   0.934  -2.313  1.00  0.00     0.185 C 
ENDBRANCH  24  26
ENDBRANCH   3  24
TORSDOF 5
