REMARK  8 active torsions:
REMARK  status: ('A' for Active; 'I' for Inactive)
REMARK    1  A    between atoms: C3_3  and  C25_30 
REMARK    2  A    between atoms: C4_4  and  C19_22 
REMARK    3  A    between atoms: C7_7  and  C12_13 
REMARK    4  A    between atoms: C12_13  and  C13_14 
REMARK    5  A    between atoms: C13_14  and  C14_15 
REMARK    6  A    between atoms: C19_22  and  O4_23 
REMARK    7  A    between atoms: O4_23  and  C20_24 
REMARK    8  A    between atoms: C20_24  and  C21_25 
ROOT
HETATM    1  C1  UNL     1       0.214   0.881  -3.432  1.00  0.00     0.003 C 
HETATM    2  C2  UNL     1      -0.174   2.319  -3.088  1.00  0.00     0.033 C 
HETATM    3  C3  UNL     1      -1.298   2.427  -2.033  1.00  0.00     0.162 C 
HETATM    4  C4  UNL     1      -1.270   1.253  -0.959  1.00  0.00     0.084 C 
HETATM    5  C5  UNL     1       0.227   0.787  -0.851  1.00  0.00     0.007 C 
HETATM    6  C6  UNL     1       0.655   0.109  -2.176  1.00  0.00     0.000 C 
HETATM    7  C7  UNL     1       0.822   0.102   0.443  1.00  0.00     0.001 C 
HETATM    8  C8  UNL     1       0.178   0.745   1.712  1.00  0.00     0.003 C 
HETATM    9  C9  UNL     1      -1.349   0.878   1.610  1.00  0.00     0.033 C 
HETATM   10  C10 UNL     1      -1.726   1.759   0.424  1.00  0.00     0.157 C 
HETATM   11  O1  UNL     1      -3.111   2.019   0.430  1.00  0.00    -0.223 OA
HETATM   12  C11 UNL     1       0.530   0.092   3.062  1.00  0.00     0.000 C 
HETATM   13  C18 UNL     1       0.624  -1.428   0.428  1.00  0.00     0.000 C 
HETATM   14  O7  UNL     1      -2.512   2.402  -2.743  1.00  0.00    -0.223 OA
ENDROOT
BRANCH   7  15
HETATM   15  C12 UNL     1       2.371   0.389   0.491  1.00  0.00     0.004 C 
BRANCH  15  16
HETATM   16  C13 UNL     1       3.314  -0.693   1.051  1.00  0.00     0.025 C 
BRANCH  16  17
HETATM   17  C14 UNL     1       4.752  -0.258   1.073  1.00  0.00    -0.009 A 
HETATM   18  C15 UNL     1       5.268   0.890   1.897  1.00  0.00     0.175 A 
HETATM   19  O2  UNL     1       6.665   0.904   1.634  1.00  0.00    -0.294 OA
HETATM   20  C16 UNL     1       6.881  -0.123   0.755  1.00  0.00     0.296 A 
HETATM   21  C17 UNL     1       5.772  -0.819   0.413  1.00  0.00     0.062 A 
HETATM   22  O3  UNL     1       7.980  -0.395   0.321  1.00  0.00    -0.259 OA
ENDBRANCH  16  17
ENDBRANCH  15  16
ENDBRANCH   7  15
BRANCH   4  23
HETATM   23  C19 UNL     1      -2.248   0.132  -1.441  1.00  0.00     0.157 C 
BRANCH  23  24
HETATM   24  O4  UNL     1      -2.453  -0.883  -0.501  1.00  0.00    -0.298 OA
BRANCH  24  25
HETATM   25  C20 UNL     1      -2.674  -2.176  -0.902  1.00  0.00     0.291 C 
HETATM   26  O5  UNL     1      -2.619  -2.453  -2.082  1.00  0.00    -0.260 OA
BRANCH  25  27
HETATM   27  C21 UNL     1      -2.957  -3.151   0.012  1.00  0.00     0.037 C 
HETATM   28  C22 UNL     1      -3.136  -4.423  -0.398  1.00  0.00    -0.025 C 
HETATM   29  C23 UNL     1      -3.403  -5.630   0.466  1.00  0.00     0.030 C 
HETATM   30  C24 UNL     1      -3.056  -2.744   1.468  1.00  0.00     0.036 C 
ENDBRANCH  25  27
ENDBRANCH  24  25
ENDBRANCH  23  24
ENDBRANCH   4  23
BRANCH   3  31
HETATM   31  C25 UNL     1      -1.232   3.872  -1.519  1.00  0.00     0.213 C 
HETATM   32  O6  UNL     1      -2.441   4.225  -0.873  1.00  0.00    -0.218 OA
ENDBRANCH   3  31
TORSDOF 8
