REMARK  6 active torsions:
REMARK  status: ('A' for Active; 'I' for Inactive)
REMARK    1  A    between atoms: C1_1  and  O2_15 
REMARK    2  A    between atoms: C4_4  and  C8_8 
REMARK    3  A    between atoms: C8_8  and  C9_9 
REMARK    4  A    between atoms: C9_9  and  C10_10 
REMARK    5  A    between atoms: O2_15  and  C14_16 
REMARK    6  A    between atoms: C15_18  and  C19_25 
ROOT
HETATM    1  C1  UNL     1      -0.581   0.712  -1.123  1.00  0.00     0.118 C 
HETATM    2  C2  UNL     1      -0.625  -0.793  -1.409  1.00  0.00     0.030 C 
HETATM    3  C3  UNL     1       0.339  -1.679  -0.585  1.00  0.00     0.002 C 
HETATM    4  C4  UNL     1       1.789  -1.102  -0.613  1.00  0.00     0.001 C 
HETATM    5  C5  UNL     1       1.878   0.430  -0.376  1.00  0.00     0.002 C 
HETATM    6  C6  UNL     1       0.865   1.204  -1.233  1.00  0.00     0.030 C 
HETATM    7  C7  UNL     1       1.907   0.893   1.091  1.00  0.00     0.000 C 
HETATM    8  C12 UNL     1       0.253  -3.120  -1.154  1.00  0.00     0.000 C 
HETATM    9  C13 UNL     1      -0.165  -1.838   0.869  1.00  0.00     0.000 C 
ENDROOT
BRANCH   1  10
HETATM   10  O2  UNL     1      -1.189   0.977   0.114  1.00  0.00    -0.332 OA
BRANCH  10  11
HETATM   11  C14 UNL     1      -1.550   2.327   0.329  1.00  0.00     0.270 C 
HETATM   12  O3  UNL     1      -1.216   2.674   1.658  1.00  0.00    -0.326 OA
HETATM   13  C15 UNL     1      -2.102   2.263   2.665  1.00  0.00     0.184 C 
HETATM   14  C16 UNL     1      -3.535   2.676   2.362  1.00  0.00     0.215 C 
HETATM   15  C17 UNL     1      -3.999   2.217   0.996  1.00  0.00     0.220 C 
HETATM   16  O6  UNL     1      -3.630   4.083   2.425  1.00  0.00    -0.218 OA
HETATM   17  C18 UNL     1      -2.984   2.640  -0.049  1.00  0.00     0.241 C 
HETATM   18  O5  UNL     1      -4.168   0.821   0.975  1.00  0.00    -0.218 OA
HETATM   19  O4  UNL     1      -3.094   4.036  -0.221  1.00  0.00    -0.215 OA
BRANCH  13  20
HETATM   20  C19 UNL     1      -1.960   0.797   3.049  1.00  0.00     0.214 C 
HETATM   21  O7  UNL     1      -0.697   0.559   3.637  1.00  0.00    -0.218 OA
ENDBRANCH  13  20
ENDBRANCH  10  11
ENDBRANCH   1  10
BRANCH   4  22
HETATM   22  C8  UNL     1       2.598  -1.474  -1.889  1.00  0.00     0.008 C 
BRANCH  22  23
HETATM   23  C9  UNL     1       3.565  -2.653  -1.677  1.00  0.00     0.065 C 
BRANCH  23  24
HETATM   24  C10 UNL     1       4.472  -2.950  -2.861  1.00  0.00     0.151 C 
HETATM   25  C11 UNL     1       5.531  -4.016  -2.646  1.00  0.00     0.072 C 
HETATM   26  O1  UNL     1       4.365  -2.376  -3.921  1.00  0.00    -0.296 OA
ENDBRANCH  23  24
ENDBRANCH  22  23
ENDBRANCH   4  22
TORSDOF 6
