REMARK  5 active torsions:
REMARK  status: ('A' for Active; 'I' for Inactive)
REMARK    1  A    between atoms: C4_4  and  O3_17 
REMARK    2  A    between atoms: C9_9  and  C11_11 
REMARK    3  A    between atoms: C11_11  and  C12_12 
REMARK    4  A    between atoms: O3_17  and  C15_18 
REMARK    5  A    between atoms: C16_20  and  C20_27 
ROOT
HETATM    1  C1  UNL     1      -3.846   0.778  -0.783  1.00  0.00     0.004 C 
HETATM    2  C2  UNL     1      -3.366  -0.623  -0.421  1.00  0.00     0.025 C 
HETATM    3  C3  UNL     1      -1.987  -0.853  -0.989  1.00  0.00    -0.016 C 
HETATM    4  C4  UNL     1      -0.873   0.188  -0.701  1.00  0.00     0.128 C 
HETATM    5  C5  UNL     1      -1.421   1.655  -0.607  1.00  0.00     0.030 C 
HETATM    6  C6  UNL     1      -2.889   1.761  -0.116  1.00  0.00     0.003 C 
HETATM    7  C7  UNL     1      -1.310   2.343  -1.991  1.00  0.00     0.008 C 
HETATM    8  C8  UNL     1       0.149   2.578  -2.413  1.00  0.00     0.026 C 
HETATM    9  C9  UNL     1       0.960   1.268  -2.411  1.00  0.00    -0.018 C 
HETATM   10  C10 UNL     1       0.141   0.064  -1.879  1.00  0.00     0.000 C 
HETATM   11  C14 UNL     1      -0.645   2.529   0.417  1.00  0.00     0.003 C 
HETATM   12  C21 UNL     1      -1.765  -2.033  -1.598  1.00  0.00    -0.006 C 
ENDROOT
BRANCH   4  13
HETATM   13  O3  UNL     1      -0.394  -0.197   0.579  1.00  0.00    -0.326 OA
BRANCH  13  14
HETATM   14  C15 UNL     1       0.994  -0.296   0.790  1.00  0.00     0.270 C 
HETATM   15  O4  UNL     1       1.412  -1.622   0.543  1.00  0.00    -0.326 OA
HETATM   16  C16 UNL     1       1.104  -2.576   1.526  1.00  0.00     0.184 C 
HETATM   17  C17 UNL     1       1.539  -2.143   2.919  1.00  0.00     0.215 C 
HETATM   18  C18 UNL     1       1.078  -0.745   3.280  1.00  0.00     0.220 C 
HETATM   19  O7  UNL     1       2.948  -2.177   2.992  1.00  0.00    -0.218 OA
HETATM   20  C19 UNL     1       1.424   0.205   2.153  1.00  0.00     0.241 C 
HETATM   21  O6  UNL     1      -0.310  -0.725   3.509  1.00  0.00    -0.218 OA
HETATM   22  O5  UNL     1       2.822   0.392   2.119  1.00  0.00    -0.215 OA
BRANCH  16  23
HETATM   23  C20 UNL     1      -0.332  -3.075   1.427  1.00  0.00     0.214 C 
HETATM   24  O8  UNL     1      -0.493  -4.245   2.204  1.00  0.00    -0.218 OA
ENDBRANCH  16  23
ENDBRANCH  13  14
ENDBRANCH   4  13
BRANCH   9  25
HETATM   25  C11 UNL     1       2.422   1.296  -1.963  1.00  0.00     0.060 C 
HETATM   26  C13 UNL     1       2.917   2.193  -1.090  1.00  0.00     0.006 C 
BRANCH  25  27
HETATM   27  C12 UNL     1       3.276   0.354  -2.462  1.00  0.00     0.210 C 
HETATM   28  O1  UNL     1       2.897  -0.592  -3.351  1.00  0.00    -0.644 OA
HETATM   29  O2  UNL     1       4.441   0.313  -2.133  1.00  0.00    -0.644 OA
ENDBRANCH  25  27
ENDBRANCH   9  25
TORSDOF 5
