REMARK  5 active torsions:
REMARK  status: ('A' for Active; 'I' for Inactive)
REMARK    1  A    between atoms: C1_1  and  C29_36 
REMARK    2  A    between atoms: C5_5  and  C14_17 
REMARK    3  A    between atoms: C6_6  and  C7_7 
REMARK    4  A    between atoms: C7_7  and  C8_9 
REMARK    5  A    between atoms: C20_25  and  C22_27 
ROOT
HETATM    1  C1  UNL     1      -2.357  -0.670   2.499  1.00  0.00     0.050 C 
HETATM    2  C2  UNL     1      -2.076   0.164   3.764  1.00  0.00     0.030 C 
HETATM    3  C3  UNL     1      -0.618   0.523   3.931  1.00  0.00    -0.047 C 
HETATM    4  C4  UNL     1       0.275   0.465   2.928  1.00  0.00    -0.026 C 
HETATM    5  C5  UNL     1      -0.020  -0.031   1.535  1.00  0.00     0.067 C 
HETATM    6  C6  UNL     1      -1.530  -0.171   1.300  1.00  0.00     0.007 C 
HETATM    7  C28 UNL     1      -0.224   1.012   5.305  1.00  0.00     0.026 C 
ENDROOT
BRANCH   5   8
HETATM    8  C14 UNL     1       0.760   0.778   0.494  1.00  0.00     0.011 A 
HETATM    9  C15 UNL     1       1.949   0.274   0.095  1.00  0.00     0.000 A 
HETATM   10  C16 UNL     1       2.696   0.955  -0.776  1.00  0.00     0.025 A 
HETATM   11  C17 UNL     1       2.307   2.134  -1.255  1.00  0.00     0.102 A 
HETATM   12  C21 UNL     1       3.881   0.739  -1.353  1.00  0.00     0.027 A 
HETATM   13  C18 UNL     1       1.132   2.646  -0.874  1.00  0.00     0.052 A 
HETATM   14  O5  UNL     1       3.139   2.604  -2.027  1.00  0.00    -0.307 OA
HETATM   15  C19 UNL     1       0.346   1.969  -0.011  1.00  0.00     0.130 A 
HETATM   16  O4  UNL     1      -0.837   2.545   0.345  1.00  0.00    -0.190 OA
HETATM   17  C20 UNL     1       4.095   1.822  -2.127  1.00  0.00     0.100 A 
BRANCH  17  18
HETATM   18  C22 UNL     1       5.170   2.068  -2.906  1.00  0.00     0.027 A 
HETATM   19  C23 UNL     1       5.263   3.211  -3.614  1.00  0.00     0.029 A 
HETATM   20  C24 UNL     1       6.319   3.498  -4.395  1.00  0.00     0.133 A 
HETATM   21  C25 UNL     1       7.310   2.596  -4.468  1.00  0.00     0.055 A 
HETATM   22  O7  UNL     1       6.392   4.663  -5.094  1.00  0.00    -0.190 OA
HETATM   23  C26 UNL     1       7.268   1.440  -3.790  1.00  0.00     0.133 A 
HETATM   24  C27 UNL     1       6.195   1.200  -3.018  1.00  0.00     0.029 A 
HETATM   25  O6  UNL     1       8.281   0.535  -3.877  1.00  0.00    -0.190 OA
ENDBRANCH  17  18
ENDBRANCH   5   8
BRANCH   6  26
HETATM   26  C7  UNL     1      -1.920  -0.666  -0.097  1.00  0.00     0.191 C 
HETATM   27  O1  UNL     1      -2.317   0.247  -0.793  1.00  0.00    -0.287 OA
BRANCH  26  28
HETATM   28  C8  UNL     1      -1.860  -1.937  -0.603  1.00  0.00     0.064 A 
HETATM   29  C9  UNL     1      -2.312  -2.115  -1.864  1.00  0.00     0.007 A 
HETATM   30  C10 UNL     1      -2.313  -3.309  -2.474  1.00  0.00     0.028 A 
HETATM   31  C11 UNL     1      -1.855  -4.399  -1.844  1.00  0.00     0.133 A 
HETATM   32  C12 UNL     1      -1.403  -4.220  -0.596  1.00  0.00     0.055 A 
HETATM   33  O3  UNL     1      -1.839  -5.626  -2.431  1.00  0.00    -0.190 OA
HETATM   34  C13 UNL     1      -1.393  -3.033   0.040  1.00  0.00     0.136 A 
HETATM   35  O2  UNL     1      -0.882  -3.041   1.297  1.00  0.00    -0.190 OA
ENDBRANCH  26  28
ENDBRANCH   6  26
BRANCH   1  36
HETATM   36  C29 UNL     1      -3.838  -0.758   2.137  1.00  0.00     0.007 A 
HETATM   37  C30 UNL     1      -4.404  -1.975   2.033  1.00  0.00     0.000 A 
HETATM   38  C31 UNL     1      -5.692  -2.131   1.696  1.00  0.00     0.027 A 
HETATM   39  C32 UNL     1      -6.468  -1.065   1.450  1.00  0.00     0.133 A 
HETATM   40  C33 UNL     1      -5.894   0.143   1.548  1.00  0.00     0.054 A 
HETATM   41  O9  UNL     1      -7.777  -1.194   1.100  1.00  0.00    -0.190 OA
HETATM   42  C34 UNL     1      -4.605   0.327   1.886  1.00  0.00     0.129 A 
HETATM   43  O8  UNL     1      -4.130   1.603   1.933  1.00  0.00    -0.190 OA
ENDBRANCH   1  36
TORSDOF 5
