REMARK  5 active torsions:
REMARK  status: ('A' for Active; 'I' for Inactive)
REMARK    1  A    between atoms: C2_2  and  C14_17 
REMARK    2  A    between atoms: C5_5  and  C13_15 
REMARK    3  A    between atoms: C10_10  and  C11_11 
REMARK    4  A    between atoms: C14_17  and  C15_18 
REMARK    5  A    between atoms: C16_19  and  C17_20 
ROOT
HETATM    1  C1  UNL     1       0.066   0.606  -1.044  1.00  0.00     0.036 C 
HETATM    2  C2  UNL     1       1.031   0.986   0.119  1.00  0.00     0.027 C 
HETATM    3  C3  UNL     1       2.147   1.843  -0.531  1.00  0.00    -0.026 C 
HETATM    4  C4  UNL     1       1.860   3.007  -1.449  1.00  0.00    -0.004 C 
HETATM    5  C5  UNL     1       0.790   3.444  -2.142  1.00  0.00     0.045 C 
HETATM    6  C6  UNL     1      -0.464   2.915  -2.143  1.00  0.00     0.172 C 
HETATM    7  C7  UNL     1      -0.933   1.757  -1.288  1.00  0.00     0.070 C 
HETATM    8  C8  UNL     1      -2.269   1.120  -1.710  1.00  0.00     0.030 C 
HETATM    9  C9  UNL     1      -2.130  -0.294  -1.223  1.00  0.00    -0.044 C 
HETATM   10  C10 UNL     1      -0.846  -0.612  -0.983  1.00  0.00     0.013 C 
HETATM   11  C12 UNL     1      -3.341  -1.185  -1.315  1.00  0.00     0.026 C 
HETATM   12  O2  UNL     1      -1.297   3.433  -2.854  1.00  0.00    -0.292 OA
HETATM   13  C20 UNL     1       0.425   1.838   1.266  1.00  0.00     0.005 C 
ENDROOT
BRANCH   2  14
HETATM   14  C14 UNL     1       1.760  -0.208   0.799  1.00  0.00     0.030 C 
BRANCH  14  15
HETATM   15  C15 UNL     1       0.931  -1.082   1.711  1.00  0.00    -0.028 C 
HETATM   16  C16 UNL     1       1.277  -2.336   2.040  1.00  0.00    -0.001 C 
BRANCH  16  17
HETATM   17  C17 UNL     1       0.469  -3.215   2.970  1.00  0.00     0.145 C 
HETATM   18  C18 UNL     1       1.232  -4.501   3.299  1.00  0.00     0.038 C 
HETATM   19  O4  UNL     1       0.245  -2.531   4.186  1.00  0.00    -0.222 OA
HETATM   20  C19 UNL     1      -0.891  -3.545   2.351  1.00  0.00     0.038 C 
ENDBRANCH  16  17
ENDBRANCH  14  15
ENDBRANCH   2  14
BRANCH  10  21
HETATM   21  C11 UNL     1      -0.463  -1.907  -0.866  1.00  0.00     0.229 C 
HETATM   22  O1  UNL     1       0.684  -2.276  -0.829  1.00  0.00    -0.283 OA
ENDBRANCH  10  21
BRANCH   5  23
HETATM   23  C13 UNL     1       0.975   4.661  -3.040  1.00  0.00     0.212 C 
HETATM   24  O3  UNL     1       0.541   4.361  -4.361  1.00  0.00    -0.215 OA
ENDBRANCH   5  23
TORSDOF 5
