REMARK  4 active torsions:
REMARK  status: ('A' for Active; 'I' for Inactive)
REMARK    1  A    between atoms: C18_20  and  C22_25 
REMARK    2  A    between atoms: C22_25  and  C23_26 
REMARK    3  A    between atoms: C22_25  and  O5_30 
REMARK    4  A    between atoms: O5_30  and  C26_31 
ROOT
HETATM    1  C1  UNL     1      -2.403  -2.078  -3.812  1.00  0.00     0.065 C 
HETATM    2  C2  UNL     1      -3.713  -2.813  -3.559  1.00  0.00     0.150 C 
HETATM    3  C3  UNL     1      -4.027  -3.412  -2.184  1.00  0.00     0.051 C 
HETATM    4  C4  UNL     1      -3.117  -2.778  -1.101  1.00  0.00     0.007 C 
HETATM    5  C5  UNL     1      -2.653  -1.321  -1.343  1.00  0.00     0.003 C 
HETATM    6  C6  UNL     1      -1.747  -1.380  -2.605  1.00  0.00     0.008 C 
HETATM    7  C7  UNL     1      -1.828  -0.801  -0.103  1.00  0.00     0.031 C 
HETATM    8  C8  UNL     1      -1.194  -1.888   0.838  1.00  0.00     0.006 C 
HETATM    9  C9  UNL     1      -2.427  -2.614   1.431  1.00  0.00     0.000 C 
HETATM   10  C10 UNL     1      -3.469  -3.070   0.372  1.00  0.00     0.000 C 
HETATM   11  C11 UNL     1      -0.216  -1.191   1.867  1.00  0.00     0.018 C 
HETATM   12  C12 UNL     1      -0.467   0.297   1.982  1.00  0.00    -0.048 C 
HETATM   13  C13 UNL     1      -1.872   0.774   2.002  1.00  0.00     0.054 C 
HETATM   14  C14 UNL     1      -2.538   0.336   0.699  1.00  0.00     0.156 C 
HETATM   15  O1  UNL     1      -3.874   0.040   1.038  1.00  0.00    -0.223 OA
HETATM   16  C15 UNL     1       0.646   1.038   1.989  1.00  0.00    -0.023 C 
HETATM   17  C16 UNL     1       1.875   0.195   1.924  1.00  0.00     0.134 C 
HETATM   18  C17 UNL     1       1.270  -1.102   1.382  1.00  0.00     0.038 C 
HETATM   19  O2  UNL     1       2.789   0.751   1.022  1.00  0.00    -0.350 OA
HETATM   20  C18 UNL     1       3.331   1.973   1.439  1.00  0.00     0.176 C 
HETATM   21  C19 UNL     1       2.295   2.801   2.228  1.00  0.00     0.185 C 
HETATM   22  C20 UNL     1       0.824   2.524   1.888  1.00  0.00     0.053 C 
HETATM   23  C21 UNL     1       0.420   3.005   0.486  1.00  0.00     0.007 C 
HETATM   24  O3  UNL     1       2.533   4.184   2.137  1.00  0.00    -0.220 OA
HETATM   25  C28 UNL     1      -0.246  -1.816   3.275  1.00  0.00     0.004 C 
HETATM   26  C29 UNL     1      -0.330  -3.023   0.206  1.00  0.00     0.000 C 
HETATM   27  C30 UNL     1      -3.808  -0.373  -1.761  1.00  0.00     0.000 C 
HETATM   28  C31 UNL     1      -3.742  -4.929  -2.335  1.00  0.00     0.007 C 
HETATM   29  C32 UNL     1      -5.532  -3.266  -1.876  1.00  0.00     0.007 C 
HETATM   30  O7  UNL     1      -4.488  -2.958  -4.480  1.00  0.00    -0.296 OA
ENDROOT
BRANCH  20  31
HETATM   31  C22 UNL     1       3.980   2.666   0.222  1.00  0.00     0.181 C 
BRANCH  31  32
HETATM   32  C23 UNL     1       4.908   1.811  -0.670  1.00  0.00     0.155 C 
HETATM   33  C24 UNL     1       4.253   0.589  -1.329  1.00  0.00     0.036 C 
HETATM   34  C25 UNL     1       5.521   2.653  -1.803  1.00  0.00     0.036 C 
HETATM   35  O4  UNL     1       5.966   1.365   0.137  1.00  0.00    -0.223 OA
ENDBRANCH  31  32
BRANCH  31  36
HETATM   36  O5  UNL     1       4.749   3.739   0.703  1.00  0.00    -0.299 OA
BRANCH  36  37
HETATM   37  C26 UNL     1       4.538   4.990   0.202  1.00  0.00     0.273 C 
HETATM   38  C27 UNL     1       5.401   5.994   0.938  1.00  0.00     0.106 C 
HETATM   39  O6  UNL     1       3.784   5.272  -0.702  1.00  0.00    -0.264 OA
ENDBRANCH  36  37
ENDBRANCH  31  36
ENDBRANCH  20  31
TORSDOF 4
