REMARK  9 active torsions:
REMARK  status: ('A' for Active; 'I' for Inactive)
REMARK    1  A    between atoms: N2_13  and  C22_29 
REMARK    2  A    between atoms: C11_14  and  C12_15 
REMARK    3  A    between atoms: C12_15  and  C13_16 
REMARK    4  A    between atoms: C13_16  and  C14_17 
REMARK    5  A    between atoms: C13_16  and  C17_21 
REMARK    6  A    between atoms: C14_17  and  C15_18 
REMARK    7  A    between atoms: C17_21  and  C20_25 
REMARK    8  A    between atoms: C18_22  and  O3_23 
REMARK    9  A    between atoms: C20_25  and  O5_27 
ROOT
HETATM    1  C1  UNL     1      -3.756  -0.215  -1.120  1.00  0.00     0.030 A 
HETATM    2  C2  UNL     1      -3.926  -1.569  -0.461  1.00  0.00     0.032 A 
HETATM    3  C3  UNL     1      -2.736  -2.481  -0.424  1.00  0.00    -0.007 A 
HETATM    4  C4  UNL     1      -1.575  -2.050  -0.988  1.00  0.00     0.070 A 
HETATM    5  C5  UNL     1      -1.391  -0.726  -1.601  1.00  0.00    -0.004 A 
HETATM    6  C6  UNL     1      -2.411   0.162  -1.665  1.00  0.00    -0.028 A 
HETATM    7  C7  UNL     1       0.023  -0.539  -2.115  1.00  0.00     0.090 A 
HETATM    8  C8  UNL     1       0.600  -1.920  -1.759  1.00  0.00     0.260 A 
HETATM    9  N1  UNL     1      -0.336  -2.732  -1.098  1.00  0.00    -0.241 NA
HETATM   10  O1  UNL     1       1.815  -2.324  -2.044  1.00  0.00    -0.196 OA
HETATM   11  C9  UNL     1       0.090  -0.351  -3.641  1.00  0.00     0.035 C 
HETATM   12  C10 UNL     1       0.611   1.073  -3.859  1.00  0.00     0.105 C 
HETATM   13  N2  UNL     1       1.296   1.422  -2.627  1.00  0.00    -0.314 N 
HETATM   14  C11 UNL     1       0.742   0.686  -1.492  1.00  0.00     0.093 C 
ENDROOT
BRANCH  14  15
HETATM   15  C12 UNL     1       1.705   0.358  -0.333  1.00  0.00     0.035 C 
BRANCH  15  16
HETATM   16  C13 UNL     1       0.981  -0.043   0.968  1.00  0.00     0.089 C 
BRANCH  16  17
HETATM   17  C14 UNL     1       1.978  -0.405   2.064  1.00  0.00     0.154 C 
HETATM   18  O2  UNL     1       2.380   0.438   2.835  1.00  0.00    -0.296 OA
BRANCH  17  19
HETATM   19  C15 UNL     1       2.427  -1.854   2.171  1.00  0.00     0.065 C 
HETATM   20  C16 UNL     1       1.559  -2.635   3.164  1.00  0.00     0.008 C 
ENDBRANCH  17  19
ENDBRANCH  16  17
BRANCH  16  21
HETATM   21  C17 UNL     1      -0.050   0.947   1.501  1.00  0.00     0.072 C 
HETATM   22  C18 UNL     1      -1.218   0.508   2.029  1.00  0.00     0.118 C 
BRANCH  22  23
HETATM   23  O3  UNL     1      -1.526  -0.819   2.123  1.00  0.00    -0.326 OA
HETATM   24  C19 UNL     1      -2.177  -1.192   3.315  1.00  0.00     0.181 C 
ENDBRANCH  22  23
BRANCH  21  25
HETATM   25  C20 UNL     1       0.201   2.419   1.530  1.00  0.00     0.294 C 
HETATM   26  O4  UNL     1      -0.698   3.163   1.915  1.00  0.00    -0.259 OA
BRANCH  25  27
HETATM   27  O5  UNL     1       1.383   2.955   1.119  1.00  0.00    -0.296 OA
HETATM   28  C21 UNL     1       1.537   4.351   1.206  1.00  0.00     0.185 C 
ENDBRANCH  25  27
ENDBRANCH  21  25
ENDBRANCH  16  21
ENDBRANCH  15  16
ENDBRANCH  14  15
BRANCH  13  29
HETATM   29  C22 UNL     1       2.176   2.467  -2.544  1.00  0.00     0.313 C 
HETATM   30  O6  UNL     1       2.518   3.095  -3.517  1.00  0.00    -0.262 OA
ENDBRANCH  13  29
TORSDOF 9
