REMARK  1 active torsions:
REMARK  status: ('A' for Active; 'I' for Inactive)
REMARK    1  A    between atoms: C1_1  and  O4_18 
ROOT
HETATM    1  C1  UNL     1      -2.028   0.673   0.381  1.00  0.00     0.098 C 
HETATM    2  C2  UNL     1      -2.624  -0.552   0.072  1.00  0.00     0.049 C 
HETATM    3  C3  UNL     1      -1.905  -1.721  -0.204  1.00  0.00     0.107 A 
HETATM    4  C4  UNL     1      -0.508  -1.656  -0.076  1.00  0.00     0.045 A 
HETATM    5  C5  UNL     1       0.150  -0.483   0.350  1.00  0.00     0.098 C 
HETATM    6  C6  UNL     1      -0.633   0.659   0.579  1.00  0.00     0.044 C 
HETATM    7  C7  UNL     1       0.063   1.846   1.090  1.00  0.00     0.002 C 
HETATM    8  C8  UNL     1       1.403   1.883   0.999  1.00  0.00     0.001 C 
HETATM    9  C9  UNL     1       2.153   0.772   0.303  1.00  0.00     0.117 C 
HETATM   10  O1  UNL     1       1.514  -0.464   0.480  1.00  0.00    -0.332 OA
HETATM   11  C10 UNL     1       3.567   0.641   0.878  1.00  0.00     0.035 C 
HETATM   12  C11 UNL     1       2.227   1.084  -1.197  1.00  0.00     0.035 C 
HETATM   13  C12 UNL     1       0.265  -2.866  -0.361  1.00  0.00     0.009 A 
HETATM   14  C13 UNL     1      -0.381  -3.992  -0.731  1.00  0.00     0.069 A 
HETATM   15  C14 UNL     1      -1.857  -3.969  -0.832  1.00  0.00     0.300 A 
HETATM   16  O2  UNL     1      -2.588  -2.853  -0.558  1.00  0.00    -0.273 OA
HETATM   17  O3  UNL     1      -2.422  -5.005  -1.175  1.00  0.00    -0.259 OA
ENDROOT
BRANCH   1  18
HETATM   18  O4  UNL     1      -2.803   1.755   0.708  1.00  0.00    -0.328 OA
HETATM   19  C15 UNL     1      -3.055   2.609  -0.384  1.00  0.00     0.181 C 
ENDBRANCH   1  18
TORSDOF 1
