REMARK  0 active torsions:
REMARK  status: ('A' for Active; 'I' for Inactive)
ROOT
HETATM    1  C1  UNL     1      -2.664   0.809  -0.612  1.00  0.00     0.000 C 
HETATM    2  C2  UNL     1      -2.493  -0.570  -1.262  1.00  0.00     0.000 C 
HETATM    3  C3  UNL     1      -1.062  -1.165  -1.147  1.00  0.00     0.004 C 
HETATM    4  C4  UNL     1      -0.267  -0.473   0.003  1.00  0.00     0.024 C 
HETATM    5  C5  UNL     1      -0.191   1.081  -0.047  1.00  0.00     0.032 C 
HETATM    6  C6  UNL     1      -1.408   1.657  -0.820  1.00  0.00     0.003 C 
HETATM    7  C7  UNL     1      -0.232   1.651   1.396  1.00  0.00     0.153 C 
HETATM    8  C8  UNL     1       0.387   0.817   2.521  1.00  0.00     0.037 C 
HETATM    9  C9  UNL     1       1.808   0.308   2.272  1.00  0.00     0.024 C 
HETATM   10  C10 UNL     1       1.991  -0.747   1.204  1.00  0.00    -0.048 C 
HETATM   11  C11 UNL     1       1.100  -1.076   0.252  1.00  0.00    -0.035 C 
HETATM   12  C12 UNL     1       3.351  -1.413   1.237  1.00  0.00     0.026 C 
HETATM   13  O1  UNL     1       0.329   2.944   1.435  1.00  0.00    -0.223 OA
HETATM   14  C13 UNL     1       1.074   1.581  -0.789  1.00  0.00     0.003 C 
HETATM   15  C14 UNL     1      -0.359  -1.069  -2.522  1.00  0.00     0.000 C 
HETATM   16  C15 UNL     1      -1.229  -2.680  -0.845  1.00  0.00     0.000 C 
ENDROOT
TORSDOF 0
