REMARK  2 active torsions:
REMARK  status: ('A' for Active; 'I' for Inactive)
REMARK    1  A    between atoms: C2_2  and  C3_3 
REMARK    2  A    between atoms: C3_3  and  C4_4 
ROOT
HETATM    1  C3  UNL     1       0.140  -0.460  -0.001  1.00  0.00     0.062 C 
ENDROOT
BRANCH   1   2
HETATM    2  C2  UNL     1      -1.192   0.247   0.001  1.00  0.00    -0.023 C 
HETATM    3  C1  UNL     1      -2.362  -0.408   0.000  1.00  0.00    -0.005 C 
ENDBRANCH   1   2
BRANCH   1   4
HETATM    4  C4  UNL     1       1.319   0.507  -0.002  1.00  0.00     0.187 C 
HETATM    5  O1  UNL     1       2.527  -0.227  -0.013  1.00  0.00    -0.220 OA
ENDBRANCH   1   4
TORSDOF 2
