REMARK  0 active torsions:
REMARK  status: ('A' for Active; 'I' for Inactive)
ROOT
HETATM    1  C1  UNL     1      -3.248  -2.572  -0.331  1.00  0.00     0.027 C 
HETATM    2  C2  UNL     1      -3.285  -1.181  -0.512  1.00  0.00     0.131 C 
HETATM    3  C3  UNL     1      -2.062  -0.503  -0.549  1.00  0.00     0.027 C 
HETATM    4  C4  UNL     1      -0.883  -1.260  -0.547  1.00  0.00    -0.002 C 
HETATM    5  C5  UNL     1      -0.822  -2.621  -0.295  1.00  0.00    -0.022 C 
HETATM    6  C6  UNL     1      -2.051  -3.283  -0.195  1.00  0.00    -0.002 C 
HETATM    7  C7  UNL     1       0.515  -3.310  -0.127  1.00  0.00     0.029 C 
HETATM    8  C8  UNL     1       1.805  -2.447  -0.205  1.00  0.00     0.038 C 
HETATM    9  C9  UNL     1       2.166  -1.469   0.937  1.00  0.00     0.155 C 
HETATM   10  C10 UNL     1       1.903   0.052   0.847  1.00  0.00     0.066 C 
HETATM   11  C11 UNL     1       2.648   0.857  -0.231  1.00  0.00     0.155 C 
HETATM   12  C12 UNL     1       2.415   2.382  -0.200  1.00  0.00     0.038 C 
HETATM   13  C13 UNL     1       1.304   2.991  -1.089  1.00  0.00     0.029 C 
HETATM   14  C14 UNL     1      -0.089   2.644  -0.618  1.00  0.00    -0.022 C 
HETATM   15  C15 UNL     1      -0.742   3.401   0.360  1.00  0.00    -0.002 C 
HETATM   16  C16 UNL     1      -1.951   2.960   0.895  1.00  0.00     0.027 C 
HETATM   17  C17 UNL     1      -2.513   1.729   0.533  1.00  0.00     0.131 C 
HETATM   18  C18 UNL     1      -1.852   0.967  -0.443  1.00  0.00     0.027 C 
HETATM   19  C19 UNL     1      -0.738   1.511  -1.105  1.00  0.00    -0.002 C 
HETATM   20  O1  UNL     1      -3.557   1.251   1.259  1.00  0.00    -0.190 OA
HETATM   21  O2  UNL     1       2.380   0.376  -1.523  1.00  0.00    -0.223 OA
HETATM   22  O3  UNL     1       1.578  -1.943   2.127  1.00  0.00    -0.223 OA
HETATM   23  O4  UNL     1      -4.466  -0.512  -0.571  1.00  0.00    -0.190 OA
ENDROOT
TORSDOF 0
