REMARK  14 active torsions:
REMARK  status: ('A' for Active; 'I' for Inactive)
REMARK    1  A    between atoms: C5_5  and  C7_7 
REMARK    2  A    between atoms: C7_7  and  C8_8 
REMARK    3  A    between atoms: C8_8  and  C9_9 
REMARK    4  A    between atoms: C9_9  and  C10_11 
REMARK    5  A    between atoms: C10_11  and  C11_12 
REMARK    6  A    between atoms: C11_12  and  C12_13 
REMARK    7  A    between atoms: C11_12  and  O4_23 
REMARK    8  A    between atoms: C12_13  and  C13_14 
REMARK    9  A    between atoms: C13_14  and  C14_15 
REMARK   10  A    between atoms: O4_23  and  C20_24 
REMARK   11  A    between atoms: C24_29  and  O6_30 
REMARK   12  A    between atoms: O6_30  and  C25_31 
REMARK   13  A    between atoms: C25_31  and  C26_32 
REMARK   14  A    between atoms: C26_32  and  C28_34 
ROOT
HETATM    1  C11 UNL     1      -0.245   0.181  -0.220  1.00  0.00     0.126 C 
ENDROOT
BRANCH   1   2
HETATM    2  C10 UNL     1       1.230  -0.259  -0.130  1.00  0.00     0.094 C 
BRANCH   2   3
HETATM    3  C9  UNL     1       2.240   0.866   0.067  1.00  0.00     0.153 C 
HETATM    4  O1  UNL     1       1.883   2.005   0.273  1.00  0.00    -0.296 OA
BRANCH   3   5
HETATM    5  C8  UNL     1       3.734   0.591  -0.051  1.00  0.00     0.069 C 
BRANCH   5   6
HETATM    6  C7  UNL     1       4.184  -0.877  -0.068  1.00  0.00     0.034 C 
BRANCH   6   7
HETATM    7  C5  UNL     1       5.684  -1.104  -0.059  1.00  0.00    -0.020 A 
HETATM    8  C4  UNL     1       6.188  -2.366   0.272  1.00  0.00    -0.002 A 
HETATM    9  C3  UNL     1       7.562  -2.606   0.295  1.00  0.00     0.029 A 
HETATM   10  C2  UNL     1       8.482  -1.600  -0.011  1.00  0.00     0.156 A 
HETATM   11  C1  UNL     1       7.998  -0.330  -0.348  1.00  0.00     0.156 A 
HETATM   12  O10 UNL     1       9.817  -1.852   0.018  1.00  0.00    -0.188 OA
HETATM   13  C6  UNL     1       6.617  -0.107  -0.367  1.00  0.00     0.025 A 
HETATM   14  O11 UNL     1       8.857   0.679  -0.652  1.00  0.00    -0.188 OA
ENDBRANCH   6   7
ENDBRANCH   5   6
ENDBRANCH   3   5
ENDBRANCH   2   3
ENDBRANCH   1   2
BRANCH   1  15
HETATM   15  C12 UNL     1      -0.459   1.162  -1.388  1.00  0.00     0.035 C 
BRANCH  15  16
HETATM   16  C13 UNL     1      -1.583   0.748  -2.354  1.00  0.00     0.029 C 
BRANCH  16  17
HETATM   17  C14 UNL     1      -1.779   1.613  -3.583  1.00  0.00    -0.020 A 
HETATM   18  C15 UNL     1      -2.685   1.200  -4.566  1.00  0.00    -0.002 A 
HETATM   19  C16 UNL     1      -2.901   1.966  -5.712  1.00  0.00     0.029 A 
HETATM   20  C17 UNL     1      -2.216   3.166  -5.915  1.00  0.00     0.156 A 
HETATM   21  C18 UNL     1      -1.301   3.592  -4.946  1.00  0.00     0.156 A 
HETATM   22  O3  UNL     1      -2.413   3.929  -7.022  1.00  0.00    -0.188 OA
HETATM   23  C19 UNL     1      -1.101   2.818  -3.799  1.00  0.00     0.025 A 
HETATM   24  O2  UNL     1      -0.624   4.755  -5.126  1.00  0.00    -0.188 OA
ENDBRANCH  16  17
ENDBRANCH  15  16
ENDBRANCH   1  15
BRANCH   1  25
HETATM   25  O4  UNL     1      -0.602   0.692   1.040  1.00  0.00    -0.331 OA
BRANCH  25  26
HETATM   26  C20 UNL     1      -1.949   1.098   1.183  1.00  0.00     0.267 C 
HETATM   27  O5  UNL     1      -1.891   2.510   1.222  1.00  0.00    -0.326 OA
HETATM   28  C21 UNL     1      -3.161   3.091   1.377  1.00  0.00     0.181 C 
HETATM   29  C22 UNL     1      -3.772   2.655   2.696  1.00  0.00     0.214 C 
HETATM   30  C23 UNL     1      -3.879   1.146   2.732  1.00  0.00     0.217 C 
HETATM   31  O9  UNL     1      -5.063   3.194   2.839  1.00  0.00    -0.218 OA
HETATM   32  C24 UNL     1      -2.510   0.534   2.480  1.00  0.00     0.213 C 
HETATM   33  O8  UNL     1      -4.367   0.755   3.991  1.00  0.00    -0.218 OA
BRANCH  32  34
HETATM   34  O6  UNL     1      -2.668  -0.845   2.321  1.00  0.00    -0.296 OA
BRANCH  34  35
HETATM   35  C25 UNL     1      -2.031  -1.717   3.147  1.00  0.00     0.272 C 
HETATM   36  O7  UNL     1      -1.388  -1.411   4.125  1.00  0.00    -0.264 OA
BRANCH  35  37
HETATM   37  C26 UNL     1      -2.210  -3.134   2.611  1.00  0.00     0.086 C 
HETATM   38  C27 UNL     1      -1.260  -4.130   3.297  1.00  0.00     0.010 C 
BRANCH  37  39
HETATM   39  C28 UNL     1      -3.680  -3.594   2.703  1.00  0.00     0.010 C 
HETATM   40  C29 UNL     1      -4.090  -4.481   1.520  1.00  0.00     0.001 C 
ENDBRANCH  37  39
ENDBRANCH  35  37
ENDBRANCH  34  35
ENDBRANCH  32  34
ENDBRANCH  25  26
ENDBRANCH   1  25
TORSDOF 14
