REMARK  1 active torsions:
REMARK  status: ('A' for Active; 'I' for Inactive)
REMARK    1  A    between atoms: C13_15  and  C15_18 
ROOT
HETATM    1  C1  UNL     1      -2.343   0.080   0.179  1.00  0.00     0.048 A 
HETATM    2  C2  UNL     1      -1.162   0.814   0.396  1.00  0.00     0.138 A 
HETATM    3  C3  UNL     1       0.062   0.138   0.259  1.00  0.00     0.087 A 
HETATM    4  C4  UNL     1       0.124  -1.218  -0.106  1.00  0.00     0.107 A 
HETATM    5  C5  UNL     1      -1.084  -1.889  -0.304  1.00  0.00     0.049 A 
HETATM    6  C6  UNL     1      -2.336  -1.269  -0.205  1.00  0.00     0.098 A 
HETATM    7  O1  UNL     1      -3.477  -1.999  -0.403  1.00  0.00    -0.331 OA
HETATM    8  C7  UNL     1      -4.644  -1.556   0.237  1.00  0.00     0.117 C 
HETATM    9  C8  UNL     1      -4.750  -0.048   0.249  1.00  0.00     0.001 C 
HETATM   10  C9  UNL     1      -3.654   0.729   0.267  1.00  0.00     0.002 C 
HETATM   11  C10 UNL     1      -5.833  -2.159  -0.519  1.00  0.00     0.035 C 
HETATM   12  C11 UNL     1      -4.640  -2.063   1.685  1.00  0.00     0.035 C 
HETATM   13  O2  UNL     1       1.299  -1.903  -0.213  1.00  0.00    -0.305 OA
HETATM   14  C12 UNL     1       2.430  -1.173  -0.415  1.00  0.00     0.126 C 
HETATM   15  C13 UNL     1       2.559   0.128  -0.075  1.00  0.00     0.064 C 
HETATM   16  C14 UNL     1       1.361   0.832   0.462  1.00  0.00     0.201 C 
HETATM   17  O3  UNL     1       1.451   1.907   1.045  1.00  0.00    -0.286 OA
HETATM   18  O5  UNL     1      -1.243   2.135   0.713  1.00  0.00    -0.190 OA
ENDROOT
BRANCH  15  19
HETATM   19  C15 UNL     1       3.824   0.873  -0.286  1.00  0.00     0.005 A 
HETATM   20  C16 UNL     1       5.067   0.233  -0.170  1.00  0.00     0.002 A 
HETATM   21  C17 UNL     1       6.261   0.931  -0.357  1.00  0.00     0.027 A 
HETATM   22  C18 UNL     1       6.269   2.294  -0.668  1.00  0.00     0.131 A 
HETATM   23  C19 UNL     1       5.030   2.928  -0.802  1.00  0.00     0.027 A 
HETATM   24  O4  UNL     1       7.438   2.963  -0.843  1.00  0.00    -0.190 OA
HETATM   25  C20 UNL     1       3.832   2.235  -0.623  1.00  0.00     0.002 A 
ENDBRANCH  15  19
TORSDOF 1
