REMARK  2 active torsions:
REMARK  status: ('A' for Active; 'I' for Inactive)
REMARK    1  A    between atoms: C16_18  and  C17_19 
REMARK    2  A    between atoms: C17_19  and  O1_20 
ROOT
HETATM    1  C1  UNL     1      -4.241  -1.199   0.124  1.00  0.00     0.196 A 
HETATM    2  C2  UNL     1      -4.093  -2.642   0.459  1.00  0.00     0.044 A 
HETATM    3  C3  UNL     1      -2.883  -3.236   0.557  1.00  0.00     0.022 A 
HETATM    4  C4  UNL     1      -1.685  -2.432   0.338  1.00  0.00     0.074 A 
HETATM    5  C5  UNL     1      -1.798  -1.034  -0.051  1.00  0.00     0.002 A 
HETATM    6  C6  UNL     1      -2.999  -0.434  -0.159  1.00  0.00     0.039 A 
HETATM    7  C7  UNL     1      -0.441  -0.459  -0.338  1.00  0.00     0.079 C 
HETATM    8  C8  UNL     1       0.431  -1.608   0.260  1.00  0.00     0.279 C 
HETATM    9  N1  UNL     1      -0.464  -2.808   0.435  1.00  0.00    -0.244 NA
HETATM   10  N2  UNL     1       1.453  -1.872  -0.744  1.00  0.00     0.158 N 
HETATM   11  C9  UNL     1       0.735  -1.775  -2.003  1.00  0.00     0.253 C 
HETATM   12  C10 UNL     1      -0.165  -0.542  -1.857  1.00  0.00     0.044 C 
HETATM   13  C11 UNL     1       2.596  -0.966  -0.680  1.00  0.00     0.274 C 
HETATM   14  C12 UNL     1       2.231   0.511  -0.549  1.00  0.00    -0.015 C 
HETATM   15  C13 UNL     1       1.379   0.932   0.641  1.00  0.00     0.030 C 
HETATM   16  C14 UNL     1       1.677   0.027   1.848  1.00  0.00     0.009 C 
HETATM   17  C15 UNL     1       0.986  -1.335   1.677  1.00  0.00     0.055 C 
HETATM   18  C16 UNL     1      -0.142   0.877   0.365  1.00  0.00     0.098 C 
HETATM   19  C19 UNL     1       2.690   1.385  -1.467  1.00  0.00    -0.032 C 
HETATM   20  C20 UNL     1       2.455   2.871  -1.532  1.00  0.00     0.030 C 
HETATM   21  O3  UNL     1      -5.342  -0.663   0.068  1.00  0.00    -0.287 OA
ENDROOT
BRANCH  18  22
HETATM   22  C17 UNL     1      -0.705   2.132  -0.304  1.00  0.00     0.272 C 
HETATM   23  O2  UNL     1      -0.818   2.225  -1.507  1.00  0.00    -0.264 OA
BRANCH  22  24
HETATM   24  O1  UNL     1      -1.098   3.158   0.509  1.00  0.00    -0.299 OA
HETATM   25  C18 UNL     1      -1.045   3.094   1.914  1.00  0.00     0.184 C 
ENDBRANCH  22  24
ENDBRANCH  18  22
TORSDOF 2
