REMARK  1 active torsions:
REMARK  status: ('A' for Active; 'I' for Inactive)
REMARK    1  A    between atoms: C16_18  and  C20_23 
ROOT
HETATM    1  C1  UNL     1      -5.178  -1.657  -1.167  1.00  0.00     0.002 A 
HETATM    2  C2  UNL     1      -3.969  -2.318  -1.230  1.00  0.00     0.017 A 
HETATM    3  C3  UNL     1      -2.791  -1.530  -1.295  1.00  0.00     0.059 A 
HETATM    4  C4  UNL     1      -2.859  -0.129  -1.284  1.00  0.00     0.013 A 
HETATM    5  C5  UNL     1      -4.107   0.540  -1.212  1.00  0.00     0.001 A 
HETATM    6  C6  UNL     1      -5.247  -0.235  -1.159  1.00  0.00     0.000 A 
HETATM    7  C7  UNL     1      -1.527   0.380  -1.368  1.00  0.00    -0.005 A 
HETATM    8  C8  UNL     1      -0.657  -0.681  -1.446  1.00  0.00     0.064 A 
HETATM    9  N1  UNL     1      -1.445  -1.815  -1.381  1.00  0.00    -0.328 N 
HETATM   10  C9  UNL     1      -0.890  -3.171  -1.435  1.00  0.00     0.130 C 
HETATM   11  C10 UNL     1       0.828  -0.460  -1.530  1.00  0.00     0.257 C 
HETATM   12  N2  UNL     1       1.048   0.859  -2.114  1.00  0.00     0.141 N 
HETATM   13  C11 UNL     1       0.480   1.894  -1.253  1.00  0.00     0.227 C 
HETATM   14  C12 UNL     1      -1.065   1.805  -1.380  1.00  0.00     0.061 C 
HETATM   15  C13 UNL     1       0.932   1.851   0.227  1.00  0.00     0.066 C 
HETATM   16  C14 UNL     1       0.860   0.443   0.843  1.00  0.00     0.033 C 
HETATM   17  C15 UNL     1       1.439  -0.600  -0.124  1.00  0.00     0.044 C 
HETATM   18  C16 UNL     1       1.487   0.452   2.220  1.00  0.00     0.030 C 
HETATM   19  C17 UNL     1       2.244   1.488   2.638  1.00  0.00     0.071 C 
HETATM   20  O1  UNL     1       2.570   2.565   1.859  1.00  0.00    -0.335 OA
HETATM   21  C18 UNL     1       2.320   2.436   0.486  1.00  0.00     0.151 C 
HETATM   22  C19 UNL     1       2.790   1.573   4.050  1.00  0.00     0.058 C 
HETATM   23  C22 UNL     1       2.421   1.072  -2.535  1.00  0.00     0.286 C 
ENDROOT
BRANCH  18  24
HETATM   24  C20 UNL     1       1.124  -0.629   3.208  1.00  0.00     0.171 C 
HETATM   25  C21 UNL     1       1.470  -2.062   2.867  1.00  0.00     0.077 C 
HETATM   26  O2  UNL     1       0.558  -0.362   4.258  1.00  0.00    -0.292 OA
ENDBRANCH  18  24
TORSDOF 1
