REMARK  3 active torsions:
REMARK  status: ('A' for Active; 'I' for Inactive)
REMARK    1  A    between atoms: C13_15  and  C19_22 
REMARK    2  A    between atoms: C14_16  and  C16_18 
REMARK    3  A    between atoms: C16_18  and  C17_19 
ROOT
HETATM    1  C1  UNL     1      -5.369  -1.718  -0.089  1.00  0.00     0.002 A 
HETATM    2  C2  UNL     1      -4.213  -2.468  -0.135  1.00  0.00     0.017 A 
HETATM    3  C3  UNL     1      -2.990  -1.778  -0.345  1.00  0.00     0.059 A 
HETATM    4  C4  UNL     1      -2.965  -0.385  -0.501  1.00  0.00     0.013 A 
HETATM    5  C5  UNL     1      -4.161   0.375  -0.453  1.00  0.00     0.001 A 
HETATM    6  C6  UNL     1      -5.344  -0.303  -0.248  1.00  0.00     0.000 A 
HETATM    7  C7  UNL     1      -1.608   0.012  -0.702  1.00  0.00    -0.005 A 
HETATM    8  C8  UNL     1      -0.808  -1.107  -0.675  1.00  0.00     0.064 A 
HETATM    9  N1  UNL     1      -1.673  -2.166  -0.458  1.00  0.00    -0.328 N 
HETATM   10  C9  UNL     1      -1.212  -3.553  -0.354  1.00  0.00     0.130 C 
HETATM   11  C10 UNL     1       0.685  -1.047  -0.866  1.00  0.00     0.257 C 
HETATM   12  N2  UNL     1       1.046   0.212  -1.503  1.00  0.00     0.141 N 
HETATM   13  C11 UNL     1       0.473   1.337  -0.759  1.00  0.00     0.227 C 
HETATM   14  C12 UNL     1      -1.064   1.391  -0.914  1.00  0.00     0.061 C 
HETATM   15  C13 UNL     1       0.864   1.259   0.744  1.00  0.00     0.065 C 
HETATM   16  C14 UNL     1       1.962   0.204   1.002  1.00  0.00     0.014 C 
HETATM   17  C15 UNL     1       1.433  -1.152   0.480  1.00  0.00     0.040 C 
HETATM   18  C20 UNL     1       0.725   0.228  -2.922  1.00  0.00     0.286 C 
ENDROOT
BRANCH  16  19
HETATM   19  C16 UNL     1       3.350   0.576   0.434  1.00  0.00     0.065 C 
BRANCH  19  20
HETATM   20  C17 UNL     1       4.201   1.448   1.349  1.00  0.00     0.151 C 
HETATM   21  O1  UNL     1       4.519   2.572   1.035  1.00  0.00    -0.296 OA
HETATM   22  C18 UNL     1       4.680   0.846   2.658  1.00  0.00     0.072 C 
ENDBRANCH  19  20
ENDBRANCH  16  19
BRANCH  15  23
HETATM   23  C19 UNL     1       1.203   2.627   1.342  1.00  0.00     0.184 C 
HETATM   24  O2  UNL     1       0.069   3.469   1.314  1.00  0.00    -0.221 OA
ENDBRANCH  15  23
TORSDOF 3
