REMARK  2 active torsions:
REMARK  status: ('A' for Active; 'I' for Inactive)
REMARK    1  A    between atoms: C7_8  and  C23_28 
REMARK    2  A    between atoms: C12_13  and  C17_20 
ROOT
HETATM    1  C1  UNL     1       2.343   1.264  -2.219  1.00  0.00     0.054 C 
HETATM    2  C2  UNL     1       2.395  -0.122  -2.311  1.00  0.00     0.133 C 
HETATM    3  C3  UNL     1       1.599  -0.823  -1.411  1.00  0.00     0.023 C 
HETATM    4  C4  UNL     1       0.759  -0.221  -0.463  1.00  0.00    -0.015 C 
HETATM    5  C5  UNL     1       0.598   1.182  -0.511  1.00  0.00     0.006 C 
HETATM    6  C6  UNL     1       1.468   1.918  -1.348  1.00  0.00     0.129 C 
HETATM    7  O1  UNL     1       1.498   3.279  -1.368  1.00  0.00    -0.190 OA
HETATM    8  C7  UNL     1      -0.419   1.970   0.320  1.00  0.00     0.081 C 
HETATM    9  C8  UNL     1      -1.694   1.227   0.745  1.00  0.00     0.182 C 
HETATM   10  C9  UNL     1      -1.393   0.366   1.937  1.00  0.00     0.009 A 
HETATM   11  C10 UNL     1      -0.517  -0.696   1.766  1.00  0.00     0.005 A 
HETATM   12  C11 UNL     1       0.084  -1.201   0.485  1.00  0.00     0.078 C 
HETATM   13  C12 UNL     1       1.077  -2.239   1.111  1.00  0.00     0.152 C 
HETATM   14  O2  UNL     1       0.669  -2.502   2.454  1.00  0.00    -0.329 OA
HETATM   15  C13 UNL     1      -0.193  -1.508   2.846  1.00  0.00     0.093 A 
HETATM   16  C14 UNL     1      -0.708  -1.294   4.122  1.00  0.00     0.051 A 
HETATM   17  C15 UNL     1      -1.584  -0.220   4.321  1.00  0.00     0.133 A 
HETATM   18  C16 UNL     1      -1.901   0.594   3.225  1.00  0.00     0.025 A 
HETATM   19  O3  UNL     1      -2.116   0.036   5.546  1.00  0.00    -0.190 OA
HETATM   20  O5  UNL     1      -2.728   2.151   1.048  1.00  0.00    -0.218 OA
HETATM   21  O7  UNL     1       3.216  -0.766  -3.181  1.00  0.00    -0.190 OA
ENDROOT
BRANCH   8  22
HETATM   22  C23 UNL     1      -0.916   3.188  -0.445  1.00  0.00    -0.015 A 
HETATM   23  C24 UNL     1      -0.797   4.475   0.091  1.00  0.00    -0.002 A 
HETATM   24  C25 UNL     1      -1.258   5.589  -0.612  1.00  0.00     0.027 A 
HETATM   25  C26 UNL     1      -1.872   5.457  -1.860  1.00  0.00     0.131 A 
HETATM   26  C27 UNL     1      -2.025   4.166  -2.374  1.00  0.00     0.027 A 
HETATM   27  O6  UNL     1      -2.316   6.541  -2.550  1.00  0.00    -0.190 OA
HETATM   28  C28 UNL     1      -1.560   3.049  -1.679  1.00  0.00    -0.002 A 
ENDBRANCH   8  22
BRANCH  13  29
HETATM   29  C17 UNL     1       1.221  -3.548   0.368  1.00  0.00     0.006 A 
HETATM   30  C18 UNL     1       2.471  -3.985  -0.086  1.00  0.00     0.000 A 
HETATM   31  C19 UNL     1       2.600  -5.183  -0.791  1.00  0.00     0.027 A 
HETATM   32  C20 UNL     1       1.492  -5.991  -1.058  1.00  0.00     0.131 A 
HETATM   33  C21 UNL     1       0.250  -5.567  -0.574  1.00  0.00     0.027 A 
HETATM   34  O4  UNL     1       1.612  -7.155  -1.747  1.00  0.00    -0.190 OA
HETATM   35  C22 UNL     1       0.114  -4.369   0.129  1.00  0.00     0.000 A 
ENDBRANCH  13  29
TORSDOF 2
