REMARK  9 active torsions:
REMARK  status: ('A' for Active; 'I' for Inactive)
REMARK    1  A    between atoms: C3_4  and  C5_6 
REMARK    2  A    between atoms: C5_6  and  C6_8 
REMARK    3  A    between atoms: C6_8  and  C7_9 
REMARK    4  A    between atoms: C8_10  and  C9_11 
REMARK    5  A    between atoms: C11_15  and  O8_28 
REMARK    6  A    between atoms: C17_21  and  C18_22 
REMARK    7  A    between atoms: C18_22  and  O6_24 
REMARK    8  A    between atoms: O8_28  and  C21_29 
REMARK    9  A    between atoms: C22_31  and  C26_38 
ROOT
HETATM    1  C7  UNL     1       0.968   0.928   1.539  1.00  0.00     0.038 C 
HETATM    2  C8  UNL     1       1.768   0.285   0.364  1.00  0.00     0.206 C 
HETATM    3  C10 UNL     1       1.287  -1.152   0.112  1.00  0.00     0.071 C 
HETATM    4  C11 UNL     1      -0.160  -1.214  -0.395  1.00  0.00     0.124 C 
HETATM    5  C12 UNL     1      -1.159  -0.588   0.632  1.00  0.00     0.060 C 
HETATM    6  C13 UNL     1      -0.584   0.703   1.320  1.00  0.00     0.008 C 
HETATM    7  C14 UNL     1      -1.453   1.212   2.495  1.00  0.00     0.000 C 
HETATM    8  C15 UNL     1      -2.763   0.484   2.837  1.00  0.00     0.003 C 
HETATM    9  C16 UNL     1      -2.820  -1.028   2.550  1.00  0.00     0.040 C 
HETATM   10  C17 UNL     1      -1.705  -1.630   1.680  1.00  0.00     0.205 C 
HETATM   11  O7  UNL     1      -2.380  -2.635   0.917  1.00  0.00    -0.216 OA
HETATM   12  C20 UNL     1      -2.406  -0.108  -0.199  1.00  0.00     0.005 C 
HETATM   13  O14 UNL     1       3.134   0.181   0.736  1.00  0.00    -0.215 OA
HETATM   14  C27 UNL     1       1.476   0.299   2.863  1.00  0.00     0.003 C 
ENDROOT
BRANCH   4  15
HETATM   15  O8  UNL     1      -0.080  -0.508  -1.601  1.00  0.00    -0.331 OA
BRANCH  15  16
HETATM   16  C21 UNL     1      -0.769  -0.959  -2.737  1.00  0.00     0.270 C 
HETATM   17  O9  UNL     1      -0.131  -2.119  -3.219  1.00  0.00    -0.326 OA
HETATM   18  C22 UNL     1      -0.735  -2.606  -4.395  1.00  0.00     0.184 C 
HETATM   19  C23 UNL     1      -0.712  -1.543  -5.495  1.00  0.00     0.215 C 
HETATM   20  C24 UNL     1      -1.307  -0.234  -5.010  1.00  0.00     0.220 C 
HETATM   21  O12 UNL     1      -1.460  -1.931  -6.621  1.00  0.00    -0.218 OA
HETATM   22  C25 UNL     1      -0.578   0.150  -3.749  1.00  0.00     0.241 C 
HETATM   23  O11 UNL     1      -1.123   0.763  -5.982  1.00  0.00    -0.218 OA
HETATM   24  O10 UNL     1      -1.072   1.363  -3.238  1.00  0.00    -0.215 OA
BRANCH  18  25
HETATM   25  C26 UNL     1       0.003  -3.883  -4.780  1.00  0.00     0.214 C 
HETATM   26  O13 UNL     1      -0.706  -4.597  -5.772  1.00  0.00    -0.218 OA
ENDBRANCH  18  25
ENDBRANCH  15  16
ENDBRANCH   4  15
BRANCH   2  27
HETATM   27  C9  UNL     1       1.758   1.105  -0.938  1.00  0.00     0.214 C 
HETATM   28  O3  UNL     1       2.842   0.803  -1.678  1.00  0.00    -0.646 OA
HETATM   29  O4  UNL     1       0.944   1.903  -1.341  1.00  0.00    -0.646 OA
ENDBRANCH   2  27
BRANCH  10  30
HETATM   30  C18 UNL     1      -0.664  -2.550   2.357  1.00  0.00     0.300 C 
HETATM   31  O5  UNL     1      -0.180  -3.393   1.628  1.00  0.00    -0.262 OA
BRANCH  30  32
HETATM   32  O6  UNL     1      -0.383  -2.576   3.690  1.00  0.00    -0.297 OA
HETATM   33  C19 UNL     1      -0.785  -1.652   4.663  1.00  0.00     0.185 C 
ENDBRANCH  30  32
ENDBRANCH  10  30
BRANCH   1  34
HETATM   34  C6  UNL     1       1.312   2.461   1.557  1.00  0.00     0.041 C 
BRANCH  34  35
HETATM   35  C5  UNL     1       1.226   3.287   2.848  1.00  0.00     0.176 C 
HETATM   36  O2  UNL     1       0.762   4.587   2.510  1.00  0.00    -0.218 OA
BRANCH  35  37
HETATM   37  C3  UNL     1       2.509   3.453   3.619  1.00  0.00     0.035 A 
HETATM   38  C2  UNL     1       3.741   2.918   3.384  1.00  0.00     0.121 A 
HETATM   39  O1  UNL     1       4.653   3.359   4.298  1.00  0.00    -0.303 OA
HETATM   40  C1  UNL     1       3.982   4.208   5.125  1.00  0.00     0.122 A 
HETATM   41  C4  UNL     1       2.673   4.300   4.763  1.00  0.00     0.027 A 
ENDBRANCH  35  37
ENDBRANCH  34  35
ENDBRANCH   1  34
TORSDOF 9
