REMARK  1 active torsions:
REMARK  status: ('A' for Active; 'I' for Inactive)
REMARK    1  A    between atoms: C12_12  and  O2_16 
ROOT
HETATM    1  C1  UNL     1      -0.227   3.870   0.448  1.00  0.00     0.119 A 
HETATM    2  C2  UNL     1      -1.351   3.171   0.611  1.00  0.00     0.119 A 
HETATM    3  C3  UNL     1      -1.351   1.839   0.486  1.00  0.00     0.022 A 
HETATM    4  C4  UNL     1      -0.212   1.187   0.169  1.00  0.00    -0.021 A 
HETATM    5  C5  UNL     1       0.928   1.903   0.030  1.00  0.00    -0.021 A 
HETATM    6  C6  UNL     1       0.920   3.245   0.164  1.00  0.00     0.022 A 
HETATM    7  C7  UNL     1       2.252   1.246  -0.281  1.00  0.00     0.064 C 
HETATM    8  C8  UNL     1       2.276  -0.280  -0.140  1.00  0.00     0.242 C 
HETATM    9  C9  UNL     1       0.998  -0.826  -0.717  1.00  0.00    -0.007 C 
HETATM   10  C10 UNL     1      -0.220  -0.340   0.030  1.00  0.00     0.040 C 
HETATM   11  C11 UNL     1      -1.482  -0.802  -0.723  1.00  0.00     0.045 C 
HETATM   12  C12 UNL     1      -1.403  -2.212  -1.302  1.00  0.00     0.177 C 
HETATM   13  C13 UNL     1      -0.115  -2.413  -2.099  1.00  0.00     0.199 C 
HETATM   14  C14 UNL     1       0.992  -1.741  -1.698  1.00  0.00     0.034 C 
HETATM   15  O1  UNL     1      -0.040  -3.225  -2.993  1.00  0.00    -0.289 OA
HETATM   16  C16 UNL     1      -0.071  -0.935   1.443  1.00  0.00     0.043 C 
HETATM   17  C17 UNL     1       1.267  -0.487   2.067  1.00  0.00     0.251 C 
HETATM   18  N1  UNL     1       2.437  -0.758   1.236  1.00  0.00     0.141 N 
HETATM   19  C18 UNL     1       2.772  -2.178   1.257  1.00  0.00     0.286 C 
HETATM   20  O3  UNL     1      -2.298   3.904   0.879  1.00  0.00    -0.300 OA
HETATM   21  C19 UNL     1      -1.806   5.246   0.897  1.00  0.00     0.304 A 
HETATM   22  O4  UNL     1      -0.419   5.073   0.603  1.00  0.00    -0.300 OA
ENDROOT
BRANCH  12  23
HETATM   23  O2  UNL     1      -2.576  -2.426  -2.063  1.00  0.00    -0.346 OA
HETATM   24  C15 UNL     1      -2.947  -3.784  -2.171  1.00  0.00     0.175 C 
ENDBRANCH  12  23
TORSDOF 1
