REMARK  12 active torsions:
REMARK  status: ('A' for Active; 'I' for Inactive)
REMARK    1  A    between atoms: C5_5  and  C7_7 
REMARK    2  A    between atoms: C7_7  and  C8_8 
REMARK    3  A    between atoms: C8_8  and  C9_9 
REMARK    4  A    between atoms: C8_8  and  N2_30 
REMARK    5  A    between atoms: C9_9  and  C10_11 
REMARK    6  A    between atoms: C10_11  and  C11_12 
REMARK    7  A    between atoms: C11_12  and  C12_13 
REMARK    8  A    between atoms: C12_13  and  C13_14 
REMARK    9  A    between atoms: C12_13  and  N1_21 
REMARK   10  A    between atoms: C13_14  and  C14_15 
REMARK       I    between atoms: N1_21  and  C20_22 
REMARK   11  A    between atoms: C20_22  and  C21_24 
REMARK       I    between atoms: N2_30  and  C27_31 
REMARK   12  A    between atoms: C27_31  and  C28_33 
ROOT
HETATM    1  C9  UNL     1       0.002   0.704  -1.720  1.00  0.00     0.173 C 
HETATM    2  O1  UNL     1      -0.952   0.030  -2.040  1.00  0.00    -0.294 OA
ENDROOT
BRANCH   1   3
HETATM    3  C8  UNL     1       0.674   1.552  -2.798  1.00  0.00     0.168 C 
BRANCH   3   4
HETATM    4  C7  UNL     1       1.698   0.697  -3.575  1.00  0.00     0.058 C 
BRANCH   4   5
HETATM    5  C5  UNL     1       2.833   0.219  -2.694  1.00  0.00    -0.020 A 
HETATM    6  C4  UNL     1       2.931  -1.068  -2.316  1.00  0.00    -0.004 A 
HETATM    7  C3  UNL     1       3.932  -1.481  -1.523  1.00  0.00    -0.000 A 
HETATM    8  C2  UNL     1       4.857  -0.607  -1.099  1.00  0.00    -0.000 A 
HETATM    9  C1  UNL     1       4.776   0.678  -1.475  1.00  0.00    -0.000 A 
HETATM   10  C6  UNL     1       3.772   1.083  -2.267  1.00  0.00    -0.004 A 
ENDBRANCH   4   5
ENDBRANCH   3   4
BRANCH   3  11
HETATM   11  N2  UNL     1      -0.338   2.028  -3.755  1.00  0.00    -0.228 NA
HETATM   12  C27 UNL     1      -0.723   3.318  -4.003  1.00  0.00     0.275 C 
HETATM   13  O3  UNL     1      -1.226   3.493  -5.089  1.00  0.00    -0.266 OA
BRANCH  12  14
HETATM   14  C28 UNL     1      -0.381   4.395  -3.240  1.00  0.00     0.058 A 
HETATM   15  C29 UNL     1      -0.234   5.602  -3.824  1.00  0.00     0.005 A 
HETATM   16  C30 UNL     1       0.105   6.686  -3.107  1.00  0.00     0.000 A 
HETATM   17  C31 UNL     1       0.284   6.587  -1.782  1.00  0.00     0.000 A 
HETATM   18  C32 UNL     1       0.106   5.402  -1.182  1.00  0.00     0.000 A 
HETATM   19  C33 UNL     1      -0.230   4.321  -1.904  1.00  0.00     0.005 A 
ENDBRANCH  12  14
ENDBRANCH   3  11
ENDBRANCH   1   3
BRANCH   1  20
HETATM   20  C10 UNL     1       0.542   0.699  -0.297  1.00  0.00     0.069 C 
BRANCH  20  21
HETATM   21  C11 UNL     1       0.731  -0.720   0.279  1.00  0.00     0.033 C 
BRANCH  21  22
HETATM   22  C12 UNL     1      -0.204  -1.133   1.442  1.00  0.00     0.111 C 
BRANCH  22  23
HETATM   23  C13 UNL     1      -1.704  -1.083   1.076  1.00  0.00     0.051 C 
BRANCH  23  24
HETATM   24  C14 UNL     1      -2.317  -2.416   0.692  1.00  0.00    -0.020 A 
HETATM   25  C15 UNL     1      -3.325  -2.947   1.412  1.00  0.00    -0.004 A 
HETATM   26  C16 UNL     1      -3.867  -4.130   1.087  1.00  0.00    -0.000 A 
HETATM   27  C17 UNL     1      -3.412  -4.807   0.023  1.00  0.00    -0.000 A 
HETATM   28  C18 UNL     1      -2.417  -4.288  -0.712  1.00  0.00    -0.000 A 
HETATM   29  C19 UNL     1      -1.880  -3.104  -0.378  1.00  0.00    -0.004 A 
ENDBRANCH  23  24
ENDBRANCH  22  23
BRANCH  22  30
HETATM   30  N1  UNL     1       0.095  -0.252   2.580  1.00  0.00    -0.236 NA
HETATM   31  C20 UNL     1      -0.115  -0.444   3.920  1.00  0.00     0.275 C 
HETATM   32  O2  UNL     1       0.242   0.508   4.577  1.00  0.00    -0.266 OA
BRANCH  31  33
HETATM   33  C21 UNL     1      -0.658  -1.501   4.601  1.00  0.00     0.058 A 
HETATM   34  C22 UNL     1      -0.759  -1.423   5.948  1.00  0.00     0.005 A 
HETATM   35  C23 UNL     1      -1.283  -2.410   6.693  1.00  0.00     0.000 A 
HETATM   36  C24 UNL     1      -1.733  -3.529   6.111  1.00  0.00     0.000 A 
HETATM   37  C25 UNL     1      -1.648  -3.637   4.779  1.00  0.00     0.000 A 
HETATM   38  C26 UNL     1      -1.120  -2.640   4.050  1.00  0.00     0.005 A 
ENDBRANCH  31  33
ENDBRANCH  22  30
ENDBRANCH  21  22
ENDBRANCH  20  21
ENDBRANCH   1  20
TORSDOF 12
