REMARK  0 active torsions:
REMARK  status: ('A' for Active; 'I' for Inactive)
ROOT
HETATM    1  C1  UNL     1      -2.939  -0.071  -3.887  1.00  0.00     0.006 C 
HETATM    2  C2  UNL     1      -3.310  -0.671  -2.522  1.00  0.00     0.041 C 
HETATM    3  C3  UNL     1      -2.297  -1.636  -1.915  1.00  0.00     0.142 C 
HETATM    4  C4  UNL     1      -1.078  -0.928  -1.383  1.00  0.00    -0.023 C 
HETATM    5  C5  UNL     1      -0.697   0.442  -1.900  1.00  0.00     0.048 C 
HETATM    6  C6  UNL     1      -0.416   0.494  -3.412  1.00  0.00     0.130 C 
HETATM    7  C7  UNL     1      -1.463  -0.209  -4.294  1.00  0.00     0.031 C 
HETATM    8  O1  UNL     1       0.809  -0.150  -3.660  1.00  0.00    -0.226 OA
HETATM    9  C8  UNL     1      -0.264   1.957  -3.856  1.00  0.00     0.033 C 
HETATM   10  C9  UNL     1       0.515   0.800  -1.011  1.00  0.00     0.010 C 
HETATM   11  C10 UNL     1       0.896  -0.438  -0.172  1.00  0.00     0.023 C 
HETATM   12  C11 UNL     1      -0.202  -1.415  -0.490  1.00  0.00    -0.050 C 
HETATM   13  C12 UNL     1      -0.176  -2.805   0.083  1.00  0.00     0.026 C 
HETATM   14  C13 UNL     1       1.056   0.074   1.282  1.00  0.00     0.054 C 
HETATM   15  C14 UNL     1       1.470   1.550   1.045  1.00  0.00     0.030 C 
HETATM   16  C15 UNL     1       0.282   1.842   0.093  1.00  0.00     0.005 C 
HETATM   17  C16 UNL     1      -0.917   1.456   0.977  1.00  0.00     0.028 C 
HETATM   18  C17 UNL     1      -0.194   0.608   2.029  1.00  0.00     0.095 C 
HETATM   19  O2  UNL     1       0.312   1.478   3.009  1.00  0.00    -0.364 OA
HETATM   20  C18 UNL     1       1.320   2.228   2.405  1.00  0.00     0.093 C 
HETATM   21  C19 UNL     1       2.612   2.199   3.242  1.00  0.00     0.027 C 
HETATM   22  C20 UNL     1       3.152   0.844   3.715  1.00  0.00     0.005 C 
HETATM   23  C21 UNL     1       3.299  -0.175   2.583  1.00  0.00     0.037 C 
HETATM   24  C22 UNL     1       1.963  -0.781   2.177  1.00  0.00     0.127 C 
HETATM   25  O3  UNL     1       2.272  -2.029   1.628  1.00  0.00    -0.304 OA
HETATM   26  C23 UNL     1       3.483  -2.474   2.047  1.00  0.00     0.271 C 
HETATM   27  C24 UNL     1       4.084  -1.434   2.973  1.00  0.00     0.089 C 
HETATM   28  C25 UNL     1       5.602  -1.294   2.831  1.00  0.00     0.011 C 
HETATM   29  O4  UNL     1       3.987  -3.527   1.725  1.00  0.00    -0.264 OA
HETATM   30  C26 UNL     1       0.919   3.710   2.301  1.00  0.00     0.030 C 
HETATM   31  C27 UNL     1      -1.160  -0.377   2.679  1.00  0.00     0.030 C 
HETATM   32  O5  UNL     1      -3.021  -2.339  -0.934  1.00  0.00    -0.300 OA
HETATM   33  C28 UNL     1      -4.350  -2.345  -1.222  1.00  0.00     0.272 C 
HETATM   34  C29 UNL     1      -4.575  -1.536  -2.487  1.00  0.00     0.089 C 
HETATM   35  C30 UNL     1      -5.878  -0.732  -2.483  1.00  0.00     0.011 C 
HETATM   36  O6  UNL     1      -5.202  -2.898  -0.563  1.00  0.00    -0.264 OA
ENDROOT
TORSDOF 0
