REMARK  15 active torsions:
REMARK  status: ('A' for Active; 'I' for Inactive)
REMARK    1  A    between atoms: C5_5  and  C8_10 
REMARK    2  A    between atoms: C6_6  and  C7_7 
REMARK    3  A    between atoms: C8_10  and  C9_11 
REMARK    4  A    between atoms: C9_11  and  C10_12 
REMARK    5  A    between atoms: C10_12  and  C11_13 
REMARK    6  A    between atoms: C11_13  and  C12_14 
REMARK    7  A    between atoms: C12_14  and  C13_15 
REMARK    8  A    between atoms: C13_15  and  C14_16 
REMARK    9  A    between atoms: C14_16  and  C15_17 
REMARK   10  A    between atoms: C15_17  and  C16_18 
REMARK   11  A    between atoms: C16_18  and  C17_19 
REMARK   12  A    between atoms: C17_19  and  C18_20 
REMARK   13  A    between atoms: C18_20  and  C19_21 
REMARK   14  A    between atoms: C19_21  and  C20_22 
REMARK   15  A    between atoms: C20_22  and  C21_23 
ROOT
HETATM    1  C10 UNL     1      -0.573  -1.303  -1.615  1.00  0.00     0.000 C 
ENDROOT
BRANCH   1   2
HETATM    2  C9  UNL     1       0.938  -1.212  -1.891  1.00  0.00     0.005 C 
BRANCH   2   3
HETATM    3  C8  UNL     1       1.624  -2.575  -2.103  1.00  0.00     0.027 C 
BRANCH   3   4
HETATM    4  C5  UNL     1       2.837  -2.781  -1.199  1.00  0.00    -0.014 A 
HETATM    5  C4  UNL     1       2.608  -3.569  -0.129  1.00  0.00    -0.004 A 
HETATM    6  C3  UNL     1       3.563  -3.850   0.761  1.00  0.00     0.002 A 
HETATM    7  C2  UNL     1       4.777  -3.325   0.575  1.00  0.00     0.028 A 
HETATM    8  C1  UNL     1       5.053  -2.522  -0.468  1.00  0.00     0.137 A 
HETATM    9  C6  UNL     1       4.076  -2.248  -1.373  1.00  0.00     0.086 A 
HETATM   10  O3  UNL     1       6.344  -2.079  -0.540  1.00  0.00    -0.190 OA
BRANCH   9  11
HETATM   11  C7  UNL     1       4.358  -1.429  -2.433  1.00  0.00     0.213 C 
HETATM   12  O1  UNL     1       3.499  -1.067  -3.408  1.00  0.00    -0.644 OA
HETATM   13  O2  UNL     1       5.447  -0.924  -2.586  1.00  0.00    -0.644 OA
ENDBRANCH   9  11
ENDBRANCH   3   4
ENDBRANCH   2   3
ENDBRANCH   1   2
BRANCH   1  14
HETATM   14  C11 UNL     1      -1.193   0.103  -1.583  1.00  0.00     0.000 C 
BRANCH  14  15
HETATM   15  C12 UNL     1      -2.663   0.122  -1.133  1.00  0.00     0.000 C 
BRANCH  15  16
HETATM   16  C13 UNL     1      -3.194   1.565  -1.097  1.00  0.00     0.000 C 
BRANCH  16  17
HETATM   17  C14 UNL     1      -4.540   1.719  -0.368  1.00  0.00     0.000 C 
BRANCH  17  18
HETATM   18  C15 UNL     1      -4.830   3.171   0.059  1.00  0.00     0.000 C 
BRANCH  18  19
HETATM   19  C16 UNL     1      -4.322   3.596   1.454  1.00  0.00     0.000 C 
BRANCH  19  20
HETATM   20  C17 UNL     1      -2.795   3.619   1.662  1.00  0.00     0.000 C 
BRANCH  20  21
HETATM   21  C18 UNL     1      -2.227   2.278   2.158  1.00  0.00     0.000 C 
BRANCH  21  22
HETATM   22  C19 UNL     1      -0.705   2.161   1.977  1.00  0.00     0.000 C 
BRANCH  22  23
HETATM   23  C20 UNL     1      -0.211   0.735   2.273  1.00  0.00     0.000 C 
BRANCH  23  24
HETATM   24  C21 UNL     1       1.290   0.565   1.992  1.00  0.00     0.000 C 
HETATM   25  C22 UNL     1       1.746  -0.885   2.202  1.00  0.00     0.000 C 
ENDBRANCH  23  24
ENDBRANCH  22  23
ENDBRANCH  21  22
ENDBRANCH  20  21
ENDBRANCH  19  20
ENDBRANCH  18  19
ENDBRANCH  17  18
ENDBRANCH  16  17
ENDBRANCH  15  16
ENDBRANCH  14  15
ENDBRANCH   1  14
TORSDOF 15
