REMARK  4 active torsions:
REMARK  status: ('A' for Active; 'I' for Inactive)
REMARK    1  A    between atoms: C2_2  and  C16_20 
REMARK    2  A    between atoms: C7_8  and  C10_12 
REMARK    3  A    between atoms: C17_21  and  C18_22 
REMARK    4  A    between atoms: C18_22  and  O6_24 
ROOT
HETATM    1  C1  UNL     1      -2.237   0.082  -0.018  1.00  0.00     0.135 A 
HETATM    2  C2  UNL     1      -1.797   1.361   0.009  1.00  0.00     0.051 A 
HETATM    3  C3  UNL     1      -0.454   1.582   0.019  1.00  0.00     0.138 A 
HETATM    4  C4  UNL     1       0.420   0.544   0.004  1.00  0.00     0.087 A 
HETATM    5  C5  UNL     1      -0.015  -0.727  -0.024  1.00  0.00     0.107 A 
HETATM    6  C6  UNL     1      -1.341  -0.914  -0.034  1.00  0.00     0.052 A 
HETATM    7  O1  UNL     1       0.799  -1.821  -0.042  1.00  0.00    -0.307 OA
HETATM    8  C7  UNL     1       2.149  -1.610  -0.023  1.00  0.00     0.103 A 
HETATM    9  C8  UNL     1       2.594  -0.340   0.004  1.00  0.00     0.067 A 
HETATM   10  C9  UNL     1       1.770   0.742   0.017  1.00  0.00     0.202 A 
HETATM   11  O2  UNL     1       2.304   1.831   0.039  1.00  0.00    -0.286 OA
HETATM   12  O4  UNL     1       0.044   2.855   0.057  1.00  0.00    -0.190 OA
HETATM   13  O7  UNL     1      -3.546  -0.289  -0.036  1.00  0.00    -0.190 OA
ENDROOT
BRANCH   8  14
HETATM   14  C10 UNL     1       2.986  -2.681  -0.033  1.00  0.00     0.023 A 
HETATM   15  C11 UNL     1       2.461  -3.925  -0.060  1.00  0.00     0.004 A 
HETATM   16  C12 UNL     1       3.222  -5.030  -0.070  1.00  0.00     0.028 A 
HETATM   17  C13 UNL     1       4.561  -4.957  -0.051  1.00  0.00     0.131 A 
HETATM   18  C14 UNL     1       5.099  -3.728  -0.024  1.00  0.00     0.028 A 
HETATM   19  O3  UNL     1       5.343  -6.070  -0.060  1.00  0.00    -0.190 OA
HETATM   20  C15 UNL     1       4.334  -2.624  -0.015  1.00  0.00     0.004 A 
ENDBRANCH   8  14
BRANCH   2  21
HETATM   21  C16 UNL     1      -2.639   2.424   0.020  1.00  0.00     0.010 C 
HETATM   22  C17 UNL     1      -3.984   2.504   0.032  1.00  0.00     0.068 C 
BRANCH  22  23
HETATM   23  C18 UNL     1      -4.666   3.686   0.040  1.00  0.00     0.296 C 
HETATM   24  O5  UNL     1      -5.878   3.639   0.052  1.00  0.00    -0.259 OA
BRANCH  23  25
HETATM   25  O6  UNL     1      -4.035   4.901   0.032  1.00  0.00    -0.296 OA
HETATM   26  C19 UNL     1      -4.845   6.052   0.035  1.00  0.00     0.185 C 
ENDBRANCH  23  25
ENDBRANCH  22  23
ENDBRANCH   2  21
TORSDOF 4
