REMARK  5 active torsions:
REMARK  status: ('A' for Active; 'I' for Inactive)
REMARK    1  A    between atoms: C16_16  and  C19_19 
REMARK    2  A    between atoms: C19_19  and  C20_20 
REMARK    3  A    between atoms: C20_20  and  C21_21 
REMARK    4  A    between atoms: C21_21  and  C22_22 
REMARK    5  A    between atoms: C23_23  and  C24_24 
ROOT
HETATM    1  C1  UNL     1      -3.420  -2.367  -2.988  1.00  0.00     0.033 C 
HETATM    2  C2  UNL     1      -4.267  -2.647  -1.750  1.00  0.00     0.152 C 
HETATM    3  C3  UNL     1      -3.472  -2.601  -0.425  1.00  0.00     0.029 C 
HETATM    4  C4  UNL     1      -2.233  -1.648  -0.545  1.00  0.00     0.007 C 
HETATM    5  C5  UNL     1      -2.410  -0.456  -1.520  1.00  0.00     0.004 C 
HETATM    6  C6  UNL     1      -2.633  -1.042  -2.940  1.00  0.00     0.003 C 
HETATM    7  C7  UNL     1      -1.149   0.469  -1.514  1.00  0.00     0.019 C 
HETATM    8  C8  UNL     1       0.178  -0.254  -1.528  1.00  0.00    -0.046 C 
HETATM    9  C9  UNL     1       0.238  -1.569  -1.283  1.00  0.00    -0.034 C 
HETATM   10  C10 UNL     1      -0.941  -2.416  -0.908  1.00  0.00     0.025 C 
HETATM   11  C11 UNL     1       1.413   0.603  -1.770  1.00  0.00     0.030 C 
HETATM   12  C12 UNL     1       1.412   1.803  -0.829  1.00  0.00    -0.050 C 
HETATM   13  C13 UNL     1       0.091   2.527  -0.665  1.00  0.00     0.018 C 
HETATM   14  C14 UNL     1      -1.026   1.501  -0.373  1.00  0.00     0.008 C 
HETATM   15  C15 UNL     1      -0.022   3.699   0.318  1.00  0.00     0.004 C 
HETATM   16  C16 UNL     1       2.641   2.040  -0.330  1.00  0.00    -0.052 C 
HETATM   17  C17 UNL     1       3.655   1.079  -0.906  1.00  0.00     0.022 C 
HETATM   18  C18 UNL     1       2.744  -0.070  -1.354  1.00  0.00     0.012 C 
HETATM   19  C27 UNL     1       1.497   1.038  -3.244  1.00  0.00     0.008 C 
HETATM   20  C28 UNL     1      -3.624   0.447  -1.187  1.00  0.00     0.000 C 
HETATM   21  C29 UNL     1      -4.414  -2.130   0.715  1.00  0.00     0.003 C 
HETATM   22  C30 UNL     1      -3.055  -4.029   0.017  1.00  0.00     0.003 C 
HETATM   23  O3  UNL     1      -4.916  -3.887  -1.918  1.00  0.00    -0.224 OA
ENDROOT
BRANCH  16  24
HETATM   24  C19 UNL     1       3.130   3.065   0.669  1.00  0.00     0.018 C 
HETATM   25  C26 UNL     1       4.187   3.986   0.041  1.00  0.00     0.004 C 
BRANCH  24  26
HETATM   26  C20 UNL     1       3.653   2.393   1.958  1.00  0.00     0.009 C 
BRANCH  26  27
HETATM   27  C21 UNL     1       2.651   1.382   2.546  1.00  0.00     0.026 C 
BRANCH  27  28
HETATM   28  C22 UNL     1       3.173   0.685   3.779  1.00  0.00    -0.024 C 
HETATM   29  C23 UNL     1       2.661  -0.387   4.415  1.00  0.00     0.038 C 
HETATM   30  C25 UNL     1       3.376  -0.940   5.634  1.00  0.00     0.037 C 
BRANCH  29  31
HETATM   31  C24 UNL     1       1.517  -1.011   4.016  1.00  0.00     0.206 C 
HETATM   32  O1  UNL     1       1.118  -1.970   4.637  1.00  0.00    -0.644 OA
HETATM   33  O2  UNL     1       0.746  -0.650   2.967  1.00  0.00    -0.644 OA
ENDBRANCH  29  31
ENDBRANCH  27  28
ENDBRANCH  26  27
ENDBRANCH  24  26
ENDBRANCH  16  24
TORSDOF 5
