REMARK  7 active torsions:
REMARK  status: ('A' for Active; 'I' for Inactive)
REMARK    1  A    between atoms: C2_2  and  O3_33 
REMARK    2  A    between atoms: C16_16  and  C19_19 
REMARK    3  A    between atoms: C19_19  and  C20_20 
REMARK    4  A    between atoms: C20_20  and  C21_21 
REMARK    5  A    between atoms: C21_21  and  C22_22 
REMARK    6  A    between atoms: C23_23  and  C24_24 
REMARK    7  A    between atoms: O3_33  and  C31_34 
ROOT
HETATM    1  C1  UNL     1      -4.128  -1.305  -0.775  1.00  0.00     0.030 C 
HETATM    2  C2  UNL     1      -4.210  -2.816  -0.984  1.00  0.00     0.124 C 
HETATM    3  C3  UNL     1      -2.848  -3.535  -0.832  1.00  0.00     0.026 C 
HETATM    4  C4  UNL     1      -2.159  -3.083   0.498  1.00  0.00     0.007 C 
HETATM    5  C5  UNL     1      -2.116  -1.561   0.812  1.00  0.00     0.004 C 
HETATM    6  C6  UNL     1      -3.534  -0.982   0.600  1.00  0.00     0.003 C 
HETATM    7  C7  UNL     1      -1.045  -0.845  -0.053  1.00  0.00     0.022 C 
HETATM    8  C8  UNL     1       0.280  -1.573  -0.113  1.00  0.00    -0.049 C 
HETATM    9  C9  UNL     1       0.370  -2.855   0.281  1.00  0.00    -0.035 C 
HETATM   10  C10 UNL     1      -0.775  -3.700   0.761  1.00  0.00     0.025 C 
HETATM   11  C11 UNL     1       1.529  -0.811  -0.564  1.00  0.00     0.018 C 
HETATM   12  C12 UNL     1       1.317   0.612  -1.164  1.00  0.00     0.022 C 
HETATM   13  C13 UNL     1      -0.030   1.215  -0.825  1.00  0.00    -0.044 C 
HETATM   14  C14 UNL     1      -0.764   0.613   0.344  1.00  0.00     0.026 C 
HETATM   15  C15 UNL     1      -0.615   2.153  -1.589  1.00  0.00    -0.009 C 
HETATM   16  C16 UNL     1       2.531   1.433  -0.657  1.00  0.00     0.004 C 
HETATM   17  C17 UNL     1       2.671   0.937   0.786  1.00  0.00     0.001 C 
HETATM   18  C18 UNL     1       2.441  -0.577   0.670  1.00  0.00     0.004 C 
HETATM   19  C27 UNL     1       2.275  -1.649  -1.634  1.00  0.00     0.004 C 
HETATM   20  C28 UNL     1      -1.771  -1.345   2.310  1.00  0.00     0.000 C 
HETATM   21  C29 UNL     1      -3.162  -5.059  -0.756  1.00  0.00     0.002 C 
HETATM   22  C30 UNL     1      -1.973  -3.346  -2.092  1.00  0.00     0.002 C 
ENDROOT
BRANCH  16  23
HETATM   23  C19 UNL     1       2.496   2.960  -0.881  1.00  0.00     0.001 C 
HETATM   24  C26 UNL     1       2.712   3.257  -2.382  1.00  0.00     0.000 C 
BRANCH  23  25
HETATM   25  C20 UNL     1       3.548   3.757  -0.074  1.00  0.00     0.005 C 
BRANCH  25  26
HETATM   26  C21 UNL     1       3.067   4.239   1.309  1.00  0.00     0.026 C 
BRANCH  26  27
HETATM   27  C22 UNL     1       4.082   5.148   1.965  1.00  0.00    -0.024 C 
HETATM   28  C23 UNL     1       4.510   5.232   3.240  1.00  0.00     0.038 C 
HETATM   29  C25 UNL     1       5.547   6.285   3.594  1.00  0.00     0.037 C 
BRANCH  28  30
HETATM   30  C24 UNL     1       4.066   4.439   4.254  1.00  0.00     0.206 C 
HETATM   31  O1  UNL     1       4.511   4.602   5.368  1.00  0.00    -0.644 OA
HETATM   32  O2  UNL     1       3.142   3.462   4.154  1.00  0.00    -0.644 OA
ENDBRANCH  28  30
ENDBRANCH  26  27
ENDBRANCH  25  26
ENDBRANCH  23  25
ENDBRANCH  16  23
BRANCH   2  33
HETATM   33  O3  UNL     1      -4.759  -3.066  -2.249  1.00  0.00    -0.304 OA
BRANCH  33  34
HETATM   34  C31 UNL     1      -6.088  -3.340  -2.348  1.00  0.00     0.272 C 
HETATM   35  C32 UNL     1      -6.464  -3.562  -3.799  1.00  0.00     0.106 C 
HETATM   36  O4  UNL     1      -6.867  -3.397  -1.424  1.00  0.00    -0.264 OA
ENDBRANCH  33  34
ENDBRANCH   2  33
TORSDOF 7
