REMARK  5 active torsions:
REMARK  status: ('A' for Active; 'I' for Inactive)
REMARK    1  A    between atoms: C2_2  and  O5_30 
REMARK    2  A    between atoms: C5_5  and  C7_8 
REMARK    3  A    between atoms: C8_9  and  O3_22 
REMARK    4  A    between atoms: C12_13  and  O2_14 
REMARK    5  A    between atoms: C23_27  and  O4_28 
ROOT
HETATM    1  C7  UNL     1       0.644   0.033   0.611  1.00  0.00     0.047 C 
HETATM    2  C8  UNL     1       1.643  -0.544  -0.102  1.00  0.00     0.097 C 
HETATM    3  C9  UNL     1       2.853   0.081  -0.139  1.00  0.00     0.032 C 
HETATM    4  C10 UNL     1       3.032   1.161   0.654  1.00  0.00    -0.015 C 
HETATM    5  C11 UNL     1       2.033   1.658   1.396  1.00  0.00     0.020 C 
HETATM    6  C12 UNL     1       0.817   1.099   1.419  1.00  0.00     0.096 C 
HETATM    7  C14 UNL     1       4.370   1.849   0.746  1.00  0.00     0.051 C 
HETATM    8  C15 UNL     1       5.057   1.732  -0.605  1.00  0.00     0.107 C 
HETATM    9  N1  UNL     1       4.988   0.339  -1.074  1.00  0.00    -0.277 NA
HETATM   10  C16 UNL     1       3.904  -0.302  -0.910  1.00  0.00     0.056 C 
HETATM   11  C17 UNL     1       3.999  -1.587  -1.718  1.00  0.00     0.052 C 
HETATM   12  C18 UNL     1       4.453   2.673  -1.659  1.00  0.00     0.027 C 
ENDROOT
BRANCH   1  13
HETATM   13  C5  UNL     1      -0.612  -0.458   0.558  1.00  0.00     0.029 A 
HETATM   14  C4  UNL     1      -1.585   0.100  -0.194  1.00  0.00     0.006 A 
HETATM   15  C3  UNL     1      -2.857  -0.371  -0.171  1.00  0.00     0.045 A 
HETATM   16  C20 UNL     1      -1.277   1.155  -0.972  1.00  0.00     0.000 A 
HETATM   17  C2  UNL     1      -3.123  -1.467   0.589  1.00  0.00     0.098 A 
HETATM   18  C23 UNL     1      -3.828   0.244  -0.904  1.00  0.00     0.096 A 
HETATM   19  C1  UNL     1      -2.147  -1.937   1.387  1.00  0.00     0.052 A 
HETATM   20  C6  UNL     1      -0.895  -1.470   1.395  1.00  0.00     0.133 A 
HETATM   21  O1  UNL     1       0.029  -2.000   2.245  1.00  0.00    -0.190 OA
HETATM   22  C22 UNL     1      -3.471   1.309  -1.649  1.00  0.00     0.024 A 
HETATM   23  C21 UNL     1      -2.215   1.764  -1.701  1.00  0.00     0.002 A 
BRANCH  17  24
HETATM   24  O5  UNL     1      -4.365  -2.039   0.737  1.00  0.00    -0.328 OA
HETATM   25  C25 UNL     1      -4.582  -3.143  -0.114  1.00  0.00     0.181 C 
ENDBRANCH  17  24
BRANCH  18  26
HETATM   26  O4  UNL     1      -5.131  -0.200  -0.870  1.00  0.00    -0.328 OA
HETATM   27  C24 UNL     1      -6.142   0.503  -1.556  1.00  0.00     0.181 C 
ENDBRANCH  18  26
ENDBRANCH   1  13
BRANCH   2  28
HETATM   28  O3  UNL     1       1.332  -1.582  -0.953  1.00  0.00    -0.328 OA
HETATM   29  C19 UNL     1       1.361  -2.883  -0.408  1.00  0.00     0.181 C 
ENDBRANCH   2  28
BRANCH   6  30
HETATM   30  O2  UNL     1      -0.211   1.689   2.115  1.00  0.00    -0.328 OA
HETATM   31  C13 UNL     1      -0.207   1.416   3.497  1.00  0.00     0.181 C 
ENDBRANCH   6  30
TORSDOF 5
