REMARK  5 active torsions:
REMARK  status: ('A' for Active; 'I' for Inactive)
REMARK    1  A    between atoms: C2_2  and  O5_25 
REMARK    2  A    between atoms: C3_3  and  C19_22 
REMARK    3  A    between atoms: C7_7  and  C12_12 
REMARK    4  A    between atoms: C12_12  and  C13_13 
REMARK    5  A    between atoms: O5_25  and  S1_26 
ROOT
HETATM    1  C1  UNL     1       0.797  -1.576   1.973  1.00  0.00     0.031 C 
HETATM    2  C2  UNL     1      -0.402  -2.488   1.697  1.00  0.00     0.140 C 
HETATM    3  C3  UNL     1      -1.530  -1.791   0.891  1.00  0.00     0.057 C 
HETATM    4  C4  UNL     1      -0.882  -1.116  -0.365  1.00  0.00     0.005 C 
HETATM    5  C5  UNL     1       0.371  -0.203  -0.173  1.00  0.00     0.004 C 
HETATM    6  C6  UNL     1       1.388  -1.012   0.673  1.00  0.00     0.003 C 
HETATM    7  C7  UNL     1       1.019   0.113  -1.571  1.00  0.00     0.023 C 
HETATM    8  C8  UNL     1       0.254  -0.575  -2.687  1.00  0.00    -0.044 C 
HETATM    9  C9  UNL     1      -1.227  -0.289  -2.743  1.00  0.00     0.022 C 
HETATM   10  C10 UNL     1      -1.862  -0.449  -1.351  1.00  0.00     0.004 C 
HETATM   11  C11 UNL     1       0.854  -1.386  -3.574  1.00  0.00    -0.009 C 
HETATM   12  C18 UNL     1       0.065   1.112   0.579  1.00  0.00     0.000 C 
HETATM   13  C20 UNL     1      -2.496  -2.912   0.405  1.00  0.00     0.005 C 
ENDROOT
BRANCH   7  14
HETATM   14  C12 UNL     1       1.202   1.583  -2.010  1.00  0.00     0.030 C 
BRANCH  14  15
HETATM   15  C13 UNL     1       2.279   2.343  -1.276  1.00  0.00    -0.022 C 
HETATM   16  C14 UNL     1       2.220   3.655  -1.004  1.00  0.00     0.069 A 
HETATM   17  C15 UNL     1       3.192   4.364  -0.385  1.00  0.00     0.294 A 
HETATM   18  C17 UNL     1       1.109   4.614  -1.327  1.00  0.00     0.209 A 
HETATM   19  O1  UNL     1       2.917   5.687  -0.223  1.00  0.00    -0.295 OA
HETATM   20  O3  UNL     1       4.232   3.877   0.005  1.00  0.00    -0.259 OA
HETATM   21  C16 UNL     1       1.638   5.930  -0.763  1.00  0.00     0.190 A 
HETATM   22  O2  UNL     1       0.917   4.716  -2.725  1.00  0.00    -0.216 OA
ENDBRANCH  14  15
ENDBRANCH   7  14
BRANCH   3  23
HETATM   23  C19 UNL     1      -2.343  -0.812   1.760  1.00  0.00     0.185 C 
HETATM   24  O4  UNL     1      -3.310  -1.474   2.554  1.00  0.00    -0.221 OA
ENDBRANCH   3  23
BRANCH   2  25
HETATM   25  O5  UNL     1      -0.900  -2.981   2.910  1.00  0.00    -0.240 OA
BRANCH  25  26
HETATM   26  S1  UNL     1      -0.466  -4.522   3.372  1.00  0.00     0.252 S 
HETATM   27  O6  UNL     1      -1.390  -4.985   4.673  1.00  0.00    -0.572 OA
HETATM   28  O7  UNL     1      -0.920  -5.487   2.385  1.00  0.00    -0.572 OA
HETATM   29  O8  UNL     1       0.950  -4.575   3.688  1.00  0.00    -0.572 OA
ENDBRANCH  25  26
ENDBRANCH   2  25
TORSDOF 5
