REMARK  7 active torsions:
REMARK  status: ('A' for Active; 'I' for Inactive)
REMARK    1  A    between atoms: C7_7  and  O6_27 
REMARK    2  A    between atoms: C10_10  and  C11_11 
REMARK    3  A    between atoms: C13_13  and  O3_21 
REMARK    4  A    between atoms: C14_14  and  O2_19 
REMARK    5  A    between atoms: C15_15  and  O1_17 
REMARK    6  A    between atoms: O6_27  and  C22_28 
REMARK    7  A    between atoms: C22_28  and  C23_30 
ROOT
HETATM    1  C1  UNL     1      -3.260   0.927   0.982  1.00  0.00     0.119 A 
HETATM    2  C2  UNL     1      -3.443  -0.386   0.832  1.00  0.00     0.119 A 
HETATM    3  C3  UNL     1      -2.400  -1.220   0.860  1.00  0.00     0.022 A 
HETATM    4  C4  UNL     1      -1.160  -0.728   1.057  1.00  0.00    -0.018 A 
HETATM    5  C5  UNL     1      -0.965   0.606   1.220  1.00  0.00     0.004 A 
HETATM    6  C6  UNL     1      -2.033   1.428   1.165  1.00  0.00     0.024 A 
HETATM    7  C7  UNL     1       0.419   1.231   1.438  1.00  0.00     0.149 C 
HETATM    8  C8  UNL     1       1.538   0.215   1.220  1.00  0.00     0.072 C 
HETATM    9  C9  UNL     1       1.156  -1.126   1.825  1.00  0.00     0.100 C 
HETATM   10  C10 UNL     1      -0.012  -1.729   1.044  1.00  0.00     0.054 C 
HETATM   11  C20 UNL     1       2.499  -1.820   1.891  1.00  0.00     0.272 C 
HETATM   12  O4  UNL     1       3.459  -0.855   1.981  1.00  0.00    -0.302 OA
HETATM   13  C21 UNL     1       2.896   0.433   1.871  1.00  0.00     0.155 C 
HETATM   14  O5  UNL     1       2.695  -3.014   1.915  1.00  0.00    -0.264 OA
HETATM   15  O8  UNL     1      -4.629  -0.658   0.668  1.00  0.00    -0.300 OA
HETATM   16  C27 UNL     1      -5.356   0.571   0.710  1.00  0.00     0.304 A 
HETATM   17  O9  UNL     1      -4.323   1.537   0.919  1.00  0.00    -0.300 OA
ENDROOT
BRANCH  10  18
HETATM   18  C11 UNL     1       0.332  -2.126  -0.386  1.00  0.00    -0.014 A 
HETATM   19  C12 UNL     1       0.751  -3.363  -0.678  1.00  0.00     0.022 A 
HETATM   20  C13 UNL     1       1.055  -3.739  -1.932  1.00  0.00     0.118 A 
HETATM   21  C14 UNL     1       1.043  -2.828  -2.937  1.00  0.00     0.138 A 
HETATM   22  C15 UNL     1       0.607  -1.566  -2.682  1.00  0.00     0.118 A 
HETATM   23  C16 UNL     1       0.260  -1.268  -1.414  1.00  0.00     0.022 A 
BRANCH  20  24
HETATM   24  O3  UNL     1       1.521  -5.015  -2.148  1.00  0.00    -0.326 OA
HETATM   25  C19 UNL     1       0.499  -5.947  -2.425  1.00  0.00     0.181 C 
ENDBRANCH  20  24
BRANCH  21  26
HETATM   26  O2  UNL     1       1.453  -3.314  -4.163  1.00  0.00    -0.324 OA
HETATM   27  C18 UNL     1       1.414  -2.536  -5.335  1.00  0.00     0.182 C 
ENDBRANCH  21  26
BRANCH  22  28
HETATM   28  O1  UNL     1       0.572  -0.618  -3.679  1.00  0.00    -0.326 OA
HETATM   29  C17 UNL     1       0.395   0.744  -3.359  1.00  0.00     0.181 C 
ENDBRANCH  22  28
ENDBRANCH  10  18
BRANCH   7  30
HETATM   30  O6  UNL     1       0.645   2.286   0.551  1.00  0.00    -0.297 OA
BRANCH  30  31
HETATM   31  C22 UNL     1       0.575   3.640   0.756  1.00  0.00     0.292 C 
HETATM   32  O7  UNL     1       0.871   4.254  -0.254  1.00  0.00    -0.260 OA
BRANCH  31  33
HETATM   33  C23 UNL     1       0.268   4.471   1.807  1.00  0.00     0.037 C 
HETATM   34  C24 UNL     1       0.408   5.963   1.464  1.00  0.00     0.036 C 
HETATM   35  C25 UNL     1      -0.128   4.234   3.076  1.00  0.00    -0.025 C 
HETATM   36  C26 UNL     1      -0.456   3.033   3.920  1.00  0.00     0.030 C 
ENDBRANCH  31  33
ENDBRANCH  30  31
ENDBRANCH   7  30
TORSDOF 7
