REMARK  4 active torsions:
REMARK  status: ('A' for Active; 'I' for Inactive)
REMARK    1  A    between atoms: C1_1  and  C11_14 
REMARK    2  A    between atoms: C2_2  and  O3_12 
REMARK    3  A    between atoms: C11_14  and  C12_15 
REMARK    4  A    between atoms: C12_15  and  C13_16 
ROOT
HETATM    1  C1  UNL     1      -0.117   0.829   0.156  1.00  0.00     0.033 A 
HETATM    2  C2  UNL     1      -1.265   0.550  -0.499  1.00  0.00     0.095 A 
HETATM    3  C3  UNL     1      -2.345   1.297  -0.199  1.00  0.00     0.049 A 
HETATM    4  C4  UNL     1      -2.331   2.341   0.648  1.00  0.00     0.105 A 
HETATM    5  C5  UNL     1      -1.163   2.627   1.254  1.00  0.00     0.023 A 
HETATM    6  C6  UNL     1      -0.081   1.869   1.008  1.00  0.00     0.002 A 
HETATM    7  C7  UNL     1      -1.108   3.669   2.102  1.00  0.00     0.007 A 
HETATM    8  C8  UNL     1      -2.195   4.417   2.341  1.00  0.00     0.069 A 
HETATM    9  C9  UNL     1      -3.365   4.113   1.726  1.00  0.00     0.300 A 
HETATM   10  O1  UNL     1      -3.475   3.059   0.867  1.00  0.00    -0.273 OA
HETATM   11  O2  UNL     1      -4.335   4.806   1.956  1.00  0.00    -0.259 OA
ENDROOT
BRANCH   1  12
HETATM   12  C11 UNL     1       1.139   0.007  -0.084  1.00  0.00     0.209 C 
HETATM   13  O6  UNL     1       1.510   0.087  -1.448  1.00  0.00    -0.216 OA
BRANCH  12  14
HETATM   14  C12 UNL     1       1.017  -1.442   0.396  1.00  0.00     0.214 C 
HETATM   15  O5  UNL     1       1.271  -1.435   1.784  1.00  0.00    -0.218 OA
BRANCH  14  16
HETATM   16  C13 UNL     1       1.924  -2.463  -0.307  1.00  0.00     0.158 C 
HETATM   17  C14 UNL     1       1.276  -2.987  -1.598  1.00  0.00     0.036 C 
HETATM   18  O4  UNL     1       3.134  -1.838  -0.649  1.00  0.00    -0.223 OA
HETATM   19  C15 UNL     1       2.251  -3.670   0.581  1.00  0.00     0.036 C 
ENDBRANCH  14  16
ENDBRANCH  12  14
ENDBRANCH   1  12
BRANCH   2  20
HETATM   20  O3  UNL     1      -1.377  -0.519  -1.353  1.00  0.00    -0.328 OA
HETATM   21  C10 UNL     1      -1.515  -0.174  -2.713  1.00  0.00     0.181 C 
ENDBRANCH   2  20
TORSDOF 4
