REMARK  2 active torsions:
REMARK  status: ('A' for Active; 'I' for Inactive)
REMARK    1  A    between atoms: C1_1  and  C11_14 
REMARK    2  A    between atoms: C2_2  and  O3_12 
ROOT
HETATM    1  C1  UNL     1       1.012  -0.879   0.431  1.00  0.00     0.065 A 
HETATM    2  C2  UNL     1       0.031  -1.329  -0.385  1.00  0.00     0.099 A 
HETATM    3  C3  UNL     1      -1.048  -0.534  -0.531  1.00  0.00     0.049 A 
HETATM    4  C4  UNL     1      -1.173   0.694   0.002  1.00  0.00     0.105 A 
HETATM    5  C5  UNL     1      -0.159   1.137   0.766  1.00  0.00     0.023 A 
HETATM    6  C6  UNL     1       0.911   0.350   0.975  1.00  0.00     0.007 A 
HETATM    7  C7  UNL     1      -0.248   2.359   1.320  1.00  0.00     0.007 A 
HETATM    8  C8  UNL     1      -1.327   3.127   1.115  1.00  0.00     0.069 A 
HETATM    9  C9  UNL     1      -2.344   2.665   0.344  1.00  0.00     0.300 A 
HETATM   10  O1  UNL     1      -2.304   1.429  -0.233  1.00  0.00    -0.273 OA
HETATM   11  O2  UNL     1      -3.309   3.381   0.171  1.00  0.00    -0.259 OA
ENDROOT
BRANCH   1  12
HETATM   12  C11 UNL     1       2.120  -1.620   0.711  1.00  0.00     0.236 C 
HETATM   13  O4  UNL     1       2.376  -2.725   0.294  1.00  0.00    -0.283 OA
ENDBRANCH   1  12
BRANCH   2  14
HETATM   14  O3  UNL     1       0.005  -2.587  -0.937  1.00  0.00    -0.328 OA
HETATM   15  C10 UNL     1       0.537  -2.651  -2.241  1.00  0.00     0.181 C 
ENDBRANCH   2  14
TORSDOF 2
