REMARK  8 active torsions:
REMARK  status: ('A' for Active; 'I' for Inactive)
REMARK    1  A    between atoms: C2_2  and  O10_45 
REMARK    2  A    between atoms: C8_10  and  O8_36 
REMARK    3  A    between atoms: C11_13  and  O6_25 
REMARK    4  A    between atoms: C14_16  and  O5_23 
REMARK    5  A    between atoms: O6_25  and  C20_26 
REMARK    6  A    between atoms: C20_26  and  C21_28 
REMARK    7  A    between atoms: O8_36  and  C29_37 
REMARK    8  A    between atoms: C29_37  and  C30_38 
ROOT
HETATM    1  C1  UNL     1      -2.259   2.295   0.413  1.00  0.00     0.141 A 
HETATM    2  C2  UNL     1      -1.972   1.073  -0.076  1.00  0.00     0.118 A 
HETATM    3  C3  UNL     1      -0.648   0.794  -0.185  1.00  0.00     0.024 A 
HETATM    4  C4  UNL     1       0.336   1.671   0.126  1.00  0.00     0.009 A 
HETATM    5  C5  UNL     1      -0.009   2.888   0.584  1.00  0.00     0.025 A 
HETATM    6  C6  UNL     1      -1.304   3.179   0.724  1.00  0.00     0.121 A 
HETATM    7  O1  UNL     1      -1.772   4.238   1.134  1.00  0.00    -0.299 OA
HETATM    8  C7  UNL     1      -3.190   4.109   1.118  1.00  0.00     0.304 A 
HETATM    9  O2  UNL     1      -3.367   2.782   0.628  1.00  0.00    -0.298 OA
HETATM   10  C8  UNL     1       1.824   1.358  -0.076  1.00  0.00     0.147 C 
HETATM   11  C9  UNL     1       2.455   0.522   1.065  1.00  0.00     0.035 C 
HETATM   12  C10 UNL     1       1.433   0.105   2.151  1.00  0.00     0.035 C 
HETATM   13  C11 UNL     1       0.465  -1.008   1.704  1.00  0.00     0.147 C 
HETATM   14  C12 UNL     1       0.309  -1.284   0.210  1.00  0.00     0.009 A 
HETATM   15  C13 UNL     1      -0.300  -0.426  -0.639  1.00  0.00     0.024 A 
HETATM   16  C14 UNL     1      -0.571  -0.718  -1.939  1.00  0.00     0.118 A 
HETATM   17  C15 UNL     1      -0.162  -1.933  -2.352  1.00  0.00     0.141 A 
HETATM   18  C16 UNL     1       0.461  -2.790  -1.534  1.00  0.00     0.121 A 
HETATM   19  C17 UNL     1       0.699  -2.485  -0.257  1.00  0.00     0.025 A 
HETATM   20  O3  UNL     1       0.749  -3.843  -2.096  1.00  0.00    -0.299 OA
HETATM   21  C18 UNL     1       0.298  -3.741  -3.442  1.00  0.00     0.304 A 
HETATM   22  O4  UNL     1      -0.272  -2.434  -3.469  1.00  0.00    -0.298 OA
HETATM   23  C27 UNL     1       2.068  -0.319   3.495  1.00  0.00     0.003 C 
HETATM   24  C28 UNL     1       3.619   1.317   1.702  1.00  0.00     0.003 C 
ENDROOT
BRANCH  10  25
HETATM   25  O8  UNL     1       2.015   0.827  -1.370  1.00  0.00    -0.296 OA
BRANCH  25  26
HETATM   26  C29 UNL     1       3.265   0.695  -1.914  1.00  0.00     0.296 C 
HETATM   27  O9  UNL     1       4.236   0.679  -1.189  1.00  0.00    -0.259 OA
BRANCH  26  28
HETATM   28  C30 UNL     1       3.470   0.688  -3.265  1.00  0.00     0.063 A 
HETATM   29  C31 UNL     1       4.709   0.579  -3.784  1.00  0.00     0.005 A 
HETATM   30  C32 UNL     1       4.900   0.584  -5.113  1.00  0.00     0.000 A 
HETATM   31  C33 UNL     1       3.854   0.701  -5.945  1.00  0.00     0.000 A 
HETATM   32  C34 UNL     1       2.617   0.806  -5.439  1.00  0.00     0.000 A 
HETATM   33  C35 UNL     1       2.428   0.796  -4.110  1.00  0.00     0.005 A 
ENDBRANCH  26  28
ENDBRANCH  25  26
ENDBRANCH  10  25
BRANCH   2  34
HETATM   34  O10 UNL     1      -2.892   0.086  -0.363  1.00  0.00    -0.326 OA
HETATM   35  C36 UNL     1      -4.212   0.186   0.113  1.00  0.00     0.181 C 
ENDBRANCH   2  34
BRANCH  13  36
HETATM   36  O6  UNL     1      -0.782  -0.745   2.312  1.00  0.00    -0.296 OA
BRANCH  36  37
HETATM   37  C20 UNL     1      -1.674  -1.764   2.502  1.00  0.00     0.296 C 
HETATM   38  O7  UNL     1      -1.453  -2.845   1.998  1.00  0.00    -0.259 OA
BRANCH  37  39
HETATM   39  C21 UNL     1      -2.771  -1.604   3.297  1.00  0.00     0.063 A 
HETATM   40  C22 UNL     1      -3.630  -2.619   3.517  1.00  0.00     0.005 A 
HETATM   41  C23 UNL     1      -4.699  -2.450   4.312  1.00  0.00     0.000 A 
HETATM   42  C24 UNL     1      -4.926  -1.265   4.896  1.00  0.00     0.000 A 
HETATM   43  C25 UNL     1      -4.081  -0.247   4.678  1.00  0.00     0.000 A 
HETATM   44  C26 UNL     1      -3.012  -0.416   3.885  1.00  0.00     0.005 A 
ENDBRANCH  37  39
ENDBRANCH  36  37
ENDBRANCH  13  36
BRANCH  16  45
HETATM   45  O5  UNL     1      -1.179   0.237  -2.727  1.00  0.00    -0.326 OA
HETATM   46  C19 UNL     1      -1.469  -0.024  -4.078  1.00  0.00     0.181 C 
ENDBRANCH  16  45
TORSDOF 8
