REMARK  5 active torsions:
REMARK  status: ('A' for Active; 'I' for Inactive)
REMARK    1  A    between atoms: C3_3  and  C4_4 
REMARK    2  A    between atoms: C5_5  and  C6_6 
REMARK    3  A    between atoms: C7_7  and  C8_8 
REMARK    4  A    between atoms: C9_10  and  C10_11 
REMARK    5  A    between atoms: C11_12  and  C12_14 
ROOT
HETATM    1  C1  UNL     1       5.114  -5.841  -2.086  1.00  0.00     0.091 C 
HETATM    2  C2  UNL     1       4.243  -4.803  -1.514  1.00  0.00    -0.077 C 
HETATM    3  C3  UNL     1       3.512  -3.961  -1.036  1.00  0.00    -0.013 C 
ENDROOT
BRANCH   3   4
HETATM    4  C4  UNL     1       2.774  -3.128  -0.555  1.00  0.00    -0.001 C 
HETATM    5  C5  UNL     1       2.025  -2.308  -0.070  1.00  0.00    -0.001 C 
BRANCH   5   6
HETATM    6  C6  UNL     1       1.266  -1.500   0.420  1.00  0.00    -0.011 C 
HETATM    7  C7  UNL     1       0.498  -0.702   0.913  1.00  0.00    -0.046 C 
BRANCH   7   8
HETATM    8  C8  UNL     1      -0.490   0.299   1.541  1.00  0.00     0.209 A 
HETATM    9  O1  UNL     1       0.133   1.702   1.603  1.00  0.00    -0.338 OA
HETATM   10  C9  UNL     1      -1.004   1.255   0.662  1.00  0.00     0.186 A 
BRANCH  10  11
HETATM   11  C10 UNL     1      -2.218   2.071   0.971  1.00  0.00     0.177 A 
HETATM   12  C11 UNL     1      -2.740   3.028   0.087  1.00  0.00     0.167 A 
HETATM   13  O2  UNL     1      -3.346   1.613   0.023  1.00  0.00    -0.347 OA
BRANCH  12  14
HETATM   14  C12 UNL     1      -3.684   3.937   0.715  1.00  0.00     0.005 C 
HETATM   15  C13 UNL     1      -3.860   5.186   0.260  1.00  0.00    -0.002 C 
ENDBRANCH  12  14
ENDBRANCH  10  11
ENDBRANCH   7   8
ENDBRANCH   5   6
ENDBRANCH   3   4
TORSDOF 5
