REMARK  3 active torsions:
REMARK  status: ('A' for Active; 'I' for Inactive)
REMARK    1  A    between atoms: C5_5  and  C9_9 
REMARK    2  A    between atoms: C9_9  and  C10_10 
REMARK    3  A    between atoms: C10_10  and  C11_11 
ROOT
HETATM    1  C1  UNL     1      -1.965  -0.047  -1.496  1.00  0.00     0.065 C 
HETATM    2  C2  UNL     1      -2.091  -1.558  -1.591  1.00  0.00     0.153 C 
HETATM    3  C3  UNL     1      -1.197  -2.358  -0.660  1.00  0.00     0.094 C 
HETATM    4  C4  UNL     1       0.220  -1.821  -0.726  1.00  0.00     0.127 A 
HETATM    5  C5  UNL     1       0.409  -0.308  -0.612  1.00  0.00     0.028 C 
HETATM    6  C6  UNL     1      -0.502   0.435  -1.631  1.00  0.00     0.009 C 
HETATM    7  C7  UNL     1      -0.025   0.144  -3.075  1.00  0.00     0.001 C 
HETATM    8  C8  UNL     1      -0.457   1.967  -1.447  1.00  0.00     0.001 C 
HETATM    9  C13 UNL     1       1.319  -2.698  -0.440  1.00  0.00     0.170 A 
HETATM   10  O2  UNL     1       1.137  -2.529  -1.825  1.00  0.00    -0.354 OA
HETATM   11  O3  UNL     1      -2.883  -2.093  -2.333  1.00  0.00    -0.296 OA
ENDROOT
BRANCH   5  12
HETATM   12  C9  UNL     1       0.243   0.125   0.866  1.00  0.00     0.005 C 
BRANCH  12  13
HETATM   13  C10 UNL     1       1.309   1.123   1.350  1.00  0.00     0.033 C 
BRANCH  13  14
HETATM   14  C11 UNL     1       1.062   1.682   2.753  1.00  0.00     0.152 C 
HETATM   15  C12 UNL     1       0.945   0.616   3.839  1.00  0.00     0.036 C 
HETATM   16  O1  UNL     1      -0.113   2.459   2.746  1.00  0.00    -0.224 OA
ENDBRANCH  13  14
ENDBRANCH  12  13
ENDBRANCH   5  12
TORSDOF 3
