REMARK  1 active torsions:
REMARK  status: ('A' for Active; 'I' for Inactive)
REMARK    1  A    between atoms: C4_4  and  O5_19 
ROOT
HETATM    1  C1  UNL     1      -0.870   1.115  -0.722  1.00  0.00     0.057 C 
HETATM    2  C2  UNL     1      -2.353   1.378  -0.767  1.00  0.00    -0.026 C 
HETATM    3  C3  UNL     1      -3.087   0.288  -0.529  1.00  0.00    -0.001 C 
HETATM    4  C4  UNL     1      -2.260  -0.954  -0.287  1.00  0.00     0.151 C 
HETATM    5  C5  UNL     1      -0.846  -0.443  -0.681  1.00  0.00     0.067 C 
HETATM    6  C6  UNL     1       0.347  -1.059   0.040  1.00  0.00     0.132 C 
HETATM    7  C7  UNL     1       1.688  -0.435  -0.370  1.00  0.00     0.058 C 
HETATM    8  C8  UNL     1       2.114   0.706   0.556  1.00  0.00     0.043 C 
HETATM    9  C9  UNL     1       1.342   2.002   0.310  1.00  0.00     0.181 C 
HETATM   10  C10 UNL     1      -0.188   1.976   0.361  1.00  0.00     0.158 C 
HETATM   11  O1  UNL     1      -0.546   3.306   0.054  1.00  0.00    -0.223 OA
HETATM   12  C11 UNL     1      -0.691   1.742   1.787  1.00  0.00     0.036 C 
HETATM   13  O2  UNL     1       1.717   2.530  -0.943  1.00  0.00    -0.221 OA
HETATM   14  C12 UNL     1       2.578  -1.648  -0.398  1.00  0.00     0.043 C 
HETATM   15  C13 UNL     1       1.766  -2.730  -0.362  1.00  0.00     0.292 C 
HETATM   16  O3  UNL     1       0.448  -2.439  -0.201  1.00  0.00    -0.301 OA
HETATM   17  O4  UNL     1       2.160  -3.872  -0.466  1.00  0.00    -0.260 OA
HETATM   18  C14 UNL     1       3.912  -1.690  -0.510  1.00  0.00     0.001 C 
HETATM   19  C15 UNL     1      -2.474  -1.381   1.167  1.00  0.00     0.038 C 
ENDROOT
BRANCH   4  20
HETATM   20  O5  UNL     1      -2.727  -1.942  -1.184  1.00  0.00    -0.190 OA
HETATM   21  O6  UNL     1      -2.030  -3.191  -0.850  1.00  0.00    -0.035 OA
ENDBRANCH   4  20
TORSDOF 1
