REMARK  3 active torsions:
REMARK  status: ('A' for Active; 'I' for Inactive)
REMARK    1  A    between atoms: C13_14  and  C15_17 
REMARK    2  A    between atoms: C15_17  and  C16_18 
REMARK    3  A    between atoms: C16_18  and  C17_19 
ROOT
HETATM    1  C1  UNL     1      -5.482  -2.803   0.038  1.00  0.00     0.000 A 
HETATM    2  C2  UNL     1      -5.058  -4.069   0.139  1.00  0.00     0.000 A 
HETATM    3  C3  UNL     1      -3.742  -4.323   0.202  1.00  0.00     0.003 A 
HETATM    4  C4  UNL     1      -2.838  -3.322   0.170  1.00  0.00     0.042 A 
HETATM    5  C5  UNL     1      -3.262  -2.053   0.070  1.00  0.00     0.042 A 
HETATM    6  C6  UNL     1      -4.586  -1.805   0.003  1.00  0.00     0.003 A 
HETATM    7  C7  UNL     1      -2.368  -1.030   0.033  1.00  0.00     0.198 A 
HETATM    8  C8  UNL     1      -1.027  -1.291   0.111  1.00  0.00     0.069 A 
HETATM    9  C9  UNL     1      -0.605  -2.572   0.209  1.00  0.00     0.070 A 
HETATM   10  C10 UNL     1      -1.509  -3.596   0.234  1.00  0.00     0.198 A 
HETATM   11  O1  UNL     1      -1.180  -4.759   0.305  1.00  0.00    -0.286 OA
HETATM   12  C11 UNL     1       0.720  -2.845   0.272  1.00  0.00     0.145 A 
HETATM   13  C12 UNL     1       1.585  -1.813   0.231  1.00  0.00     0.085 A 
HETATM   14  C13 UNL     1       1.193  -0.527   0.129  1.00  0.00     0.034 A 
HETATM   15  C14 UNL     1      -0.133  -0.268   0.076  1.00  0.00     0.135 A 
HETATM   16  O2  UNL     1      -0.524   1.037   0.027  1.00  0.00    -0.190 OA
HETATM   17 CL1  UNL     1       3.284  -2.196   0.324  1.00  0.00    -0.080 Cl
HETATM   18  O3  UNL     1       1.236  -4.105   0.408  1.00  0.00    -0.189 OA
HETATM   19  O4  UNL     1      -2.818   0.088  -0.081  1.00  0.00    -0.286 OA
ENDROOT
BRANCH  14  20
HETATM   20  C15 UNL     1       2.280   0.556   0.088  1.00  0.00    -0.018 C 
BRANCH  20  21
HETATM   21  C16 UNL     1       1.976   2.047  -0.147  1.00  0.00     0.051 C 
BRANCH  21  22
HETATM   22  C17 UNL     1       3.227   2.893  -0.228  1.00  0.00    -0.030 C 
HETATM   23  C18 UNL     1       3.245   4.234  -0.334  1.00  0.00    -0.048 C 
HETATM   24  C19 UNL     1       4.543   5.006  -0.372  1.00  0.00     0.026 C 
HETATM   25  C20 UNL     1       2.001   5.086  -0.409  1.00  0.00     0.026 C 
ENDBRANCH  21  22
ENDBRANCH  20  21
ENDBRANCH  14  20
TORSDOF 3
