REMARK  2 active torsions:
REMARK  status: ('A' for Active; 'I' for Inactive)
REMARK    1  A    between atoms: C12_13  and  O4_19 
REMARK    2  A    between atoms: C14_15  and  O2_16 
ROOT
HETATM    1  C1  UNL     1      -4.523  -1.155   0.165  1.00  0.00     0.000 A 
HETATM    2  C2  UNL     1      -4.126  -2.426   0.022  1.00  0.00     0.000 A 
HETATM    3  C3  UNL     1      -2.817  -2.705  -0.060  1.00  0.00     0.003 A 
HETATM    4  C4  UNL     1      -1.895  -1.724  -0.001  1.00  0.00     0.042 A 
HETATM    5  C5  UNL     1      -2.290  -0.446   0.142  1.00  0.00     0.042 A 
HETATM    6  C6  UNL     1      -3.609  -0.175   0.223  1.00  0.00     0.003 A 
HETATM    7  C7  UNL     1      -1.382   0.567   0.202  1.00  0.00     0.198 A 
HETATM    8  C8  UNL     1      -0.051   0.272   0.117  1.00  0.00     0.067 A 
HETATM    9  C9  UNL     1       0.327  -1.012  -0.024  1.00  0.00     0.046 A 
HETATM   10  C10 UNL     1      -0.574  -2.030  -0.087  1.00  0.00     0.196 A 
HETATM   11  O1  UNL     1      -0.218  -3.182  -0.214  1.00  0.00    -0.287 OA
HETATM   12  C11 UNL     1       1.636  -1.300  -0.097  1.00  0.00     0.030 A 
HETATM   13  C12 UNL     1       2.610  -0.377  -0.018  1.00  0.00     0.121 A 
HETATM   14  C13 UNL     1       2.211   0.905   0.129  1.00  0.00     0.175 A 
HETATM   15  C14 UNL     1       0.898   1.241   0.154  1.00  0.00     0.124 A 
HETATM   16  O3  UNL     1       3.119   1.914   0.247  1.00  0.00    -0.186 OA
HETATM   17  O5  UNL     1      -1.795   1.700   0.322  1.00  0.00    -0.286 OA
ENDROOT
BRANCH  13  18
HETATM   18  O4  UNL     1       3.903  -0.851  -0.085  1.00  0.00    -0.326 OA
HETATM   19  C16 UNL     1       5.012   0.010  -0.008  1.00  0.00     0.181 C 
ENDBRANCH  13  18
BRANCH  15  20
HETATM   20  O2  UNL     1       0.598   2.572   0.349  1.00  0.00    -0.326 OA
HETATM   21  C15 UNL     1       0.417   3.304  -0.844  1.00  0.00     0.181 C 
ENDBRANCH  15  20
TORSDOF 2
