REMARK  3 active torsions:
REMARK  status: ('A' for Active; 'I' for Inactive)
REMARK    1  A    between atoms: C7_8  and  C10_11 
REMARK    2  A    between atoms: C12_13  and  C16_18 
REMARK    3  A    between atoms: C16_18  and  C17_19 
ROOT
HETATM    1  C10 UNL     1       0.667  -0.245  -1.047  1.00  0.00     0.005 A 
HETATM    2  C11 UNL     1       1.339   0.085   0.069  1.00  0.00    -0.004 A 
HETATM    3  C12 UNL     1       2.381   0.937   0.058  1.00  0.00     0.007 A 
HETATM    4  C13 UNL     1       2.784   1.478  -1.109  1.00  0.00     0.127 A 
HETATM    5  C14 UNL     1       2.117   1.147  -2.228  1.00  0.00     0.027 A 
HETATM    6  C15 UNL     1       1.075   0.304  -2.203  1.00  0.00     0.000 A 
HETATM    7  O2  UNL     1       3.827   2.349  -1.182  1.00  0.00    -0.191 OA
ENDROOT
BRANCH   1   8
HETATM    8  C7  UNL     1      -0.528  -1.182  -1.004  1.00  0.00     0.144 C 
HETATM    9  O1  UNL     1      -1.673  -0.490  -1.440  1.00  0.00    -0.329 OA
HETATM   10  C5  UNL     1      -2.811  -1.231  -1.624  1.00  0.00     0.092 A 
HETATM   11  C4  UNL     1      -2.818  -2.578  -1.708  1.00  0.00     0.000 A 
HETATM   12  C6  UNL     1      -3.999  -0.599  -1.672  1.00  0.00     0.051 A 
HETATM   13  C3  UNL     1      -3.981  -3.232  -1.867  1.00  0.00    -0.000 A 
HETATM   14  C9  UNL     1      -1.528  -3.360  -1.639  1.00  0.00     0.031 C 
HETATM   15  C2  UNL     1      -5.145  -2.570  -1.928  1.00  0.00     0.027 A 
HETATM   16  C1  UNL     1      -5.173  -1.232  -1.828  1.00  0.00     0.133 A 
HETATM   17  O3  UNL     1      -6.342  -0.537  -1.876  1.00  0.00    -0.190 OA
HETATM   18  C8  UNL     1      -0.327  -2.433  -1.855  1.00  0.00     0.040 C 
ENDBRANCH   1   8
BRANCH   3  19
HETATM   19  C16 UNL     1       3.063   1.276   1.370  1.00  0.00     0.054 C 
BRANCH  19  20
HETATM   20  C17 UNL     1       2.134   2.036   2.283  1.00  0.00    -0.030 C 
HETATM   21  C18 UNL     1       2.357   2.300   3.583  1.00  0.00    -0.048 C 
HETATM   22  C19 UNL     1       1.350   3.061   4.414  1.00  0.00     0.026 C 
HETATM   23  C20 UNL     1       3.602   1.881   4.326  1.00  0.00     0.026 C 
ENDBRANCH  19  20
ENDBRANCH   3  19
TORSDOF 3
