REMARK  0 active torsions:
REMARK  status: ('A' for Active; 'I' for Inactive)
ROOT
HETATM    1  C1  UNL     1      -5.083  -0.931  -2.349  1.00  0.00     0.067 C 
HETATM    2  C2  UNL     1      -6.100  -1.564  -1.390  1.00  0.00     0.043 C 
HETATM    3  C3  UNL     1      -5.404  -2.560  -0.463  1.00  0.00     0.180 C 
HETATM    4  C4  UNL     1      -3.916  -2.264  -0.310  1.00  0.00     0.151 A 
HETATM    5  C5  UNL     1      -3.450  -0.808  -0.288  1.00  0.00     0.079 C 
HETATM    6  C6  UNL     1      -3.978  -0.195  -1.601  1.00  0.00     0.152 C 
HETATM    7  O1  UNL     1      -3.530   0.837  -2.052  1.00  0.00    -0.296 OA
HETATM    8  C7  UNL     1      -1.905  -0.635  -0.205  1.00  0.00     0.009 C 
HETATM    9  C8  UNL     1      -1.212  -1.538  -1.234  1.00  0.00     0.003 C 
HETATM   10  C9  UNL     1      -1.596  -3.019  -1.078  1.00  0.00     0.032 C 
HETATM   11  C10 UNL     1      -3.019  -3.335  -0.651  1.00  0.00     0.143 A 
HETATM   12  O2  UNL     1      -3.177  -3.199   0.742  1.00  0.00    -0.354 OA
HETATM   13  C11 UNL     1       0.314  -1.299  -1.283  1.00  0.00     0.003 C 
HETATM   14  C12 UNL     1       1.065  -1.444   0.072  1.00  0.00     0.005 C 
HETATM   15  C13 UNL     1       0.059  -1.530   1.256  1.00  0.00     0.000 C 
HETATM   16  C14 UNL     1      -1.242  -0.716   1.185  1.00  0.00     0.001 C 
HETATM   17  C15 UNL     1       1.981  -0.176   0.210  1.00  0.00     0.058 C 
HETATM   18  C16 UNL     1       1.211   0.865  -0.609  1.00  0.00     0.120 C 
HETATM   19  C17 UNL     1       0.662   0.107  -1.814  1.00  0.00     0.030 C 
HETATM   20  O3  UNL     1       1.916   1.995  -1.026  1.00  0.00    -0.335 OA
HETATM   21  C18 UNL     1       3.001   2.370  -0.220  1.00  0.00     0.226 C 
HETATM   22  C19 UNL     1       4.029   1.239  -0.193  1.00  0.00     0.231 C 
HETATM   23  C20 UNL     1       3.467  -0.196  -0.198  1.00  0.00     0.162 C 
HETATM   24  O4  UNL     1       3.570  -0.660  -1.522  1.00  0.00    -0.223 OA
HETATM   25  C21 UNL     1       4.378  -1.095   0.654  1.00  0.00     0.036 C 
HETATM   26  O5  UNL     1       4.927   1.469   0.867  1.00  0.00    -0.215 OA
HETATM   27  O6  UNL     1       3.584   3.406  -0.990  1.00  0.00    -0.278 OA
HETATM   28  C22 UNL     1       3.778   4.561  -0.321  1.00  0.00     0.273 C 
HETATM   29  C23 UNL     1       3.233   4.417   1.077  1.00  0.00     0.091 C 
HETATM   30  C24 UNL     1       2.623   3.004   1.130  1.00  0.00     0.064 C 
HETATM   31  C25 UNL     1       1.141   3.120   1.528  1.00  0.00     0.006 C 
HETATM   32  C26 UNL     1       4.304   4.682   2.141  1.00  0.00     0.011 C 
HETATM   33  O7  UNL     1       4.307   5.548  -0.780  1.00  0.00    -0.264 OA
HETATM   34  C27 UNL     1       1.836  -2.784   0.104  1.00  0.00     0.000 C 
HETATM   35  C28 UNL     1      -4.118   0.014   0.838  1.00  0.00     0.010 C 
HETATM   36  O8  UNL     1      -6.028  -2.556   0.809  1.00  0.00    -0.221 OA
ENDROOT
TORSDOF 0
