REMARK  5 active torsions:
REMARK  status: ('A' for Active; 'I' for Inactive)
REMARK    1  A    between atoms: C3_3  and  C15_17 
REMARK    2  A    between atoms: C5_5  and  C7_7 
REMARK    3  A    between atoms: C8_8  and  C9_9 
REMARK    4  A    between atoms: C15_17  and  C16_18 
REMARK    5  A    between atoms: C16_18  and  C17_20 
ROOT
HETATM    1  C1  UNL     1       0.754   0.314  -2.228  1.00  0.00     0.027 A 
HETATM    2  C2  UNL     1       1.210  -0.838  -1.710  1.00  0.00     0.127 A 
HETATM    3  C3  UNL     1       0.404  -1.513  -0.868  1.00  0.00     0.006 A 
HETATM    4  C4  UNL     1      -0.817  -1.022  -0.583  1.00  0.00    -0.002 A 
HETATM    5  C5  UNL     1      -1.266   0.155  -1.058  1.00  0.00    -0.000 A 
HETATM    6  C6  UNL     1      -0.459   0.797  -1.922  1.00  0.00     0.002 A 
HETATM    7  O5  UNL     1       2.460  -1.279  -2.020  1.00  0.00    -0.191 OA
ENDROOT
BRANCH   5   8
HETATM    8  C7  UNL     1      -2.503   0.579  -0.724  1.00  0.00    -0.000 C 
HETATM    9  C8  UNL     1      -3.091   1.784  -0.847  1.00  0.00     0.000 C 
BRANCH   9  10
HETATM   10  C9  UNL     1      -2.559   3.025  -0.889  1.00  0.00     0.004 A 
HETATM   11  C10 UNL     1      -3.352   4.077  -1.175  1.00  0.00     0.028 A 
HETATM   12  C11 UNL     1      -2.902   5.343  -1.193  1.00  0.00     0.133 A 
HETATM   13  C12 UNL     1      -1.614   5.559  -0.882  1.00  0.00     0.055 A 
HETATM   14  O2  UNL     1      -3.722   6.385  -1.500  1.00  0.00    -0.190 OA
HETATM   15  C13 UNL     1      -0.789   4.554  -0.551  1.00  0.00     0.133 A 
HETATM   16  C14 UNL     1      -1.288   3.307  -0.546  1.00  0.00     0.028 A 
HETATM   17  O1  UNL     1       0.505   4.784  -0.201  1.00  0.00    -0.190 OA
ENDBRANCH   9  10
ENDBRANCH   5   8
BRANCH   3  18
HETATM   18  C15 UNL     1       0.841  -2.815  -0.218  1.00  0.00     0.064 C 
BRANCH  18  19
HETATM   19  C16 UNL     1       1.604  -2.524   1.078  1.00  0.00     0.184 C 
HETATM   20  O3  UNL     1       2.861  -1.991   0.739  1.00  0.00    -0.221 OA
BRANCH  19  21
HETATM   21  C17 UNL     1       1.781  -3.718   2.018  1.00  0.00     0.155 C 
HETATM   22  C18 UNL     1       2.588  -3.320   3.260  1.00  0.00     0.036 C 
HETATM   23  C19 UNL     1       2.424  -4.928   1.340  1.00  0.00     0.036 C 
HETATM   24  O4  UNL     1       0.506  -4.103   2.465  1.00  0.00    -0.223 OA
ENDBRANCH  19  21
ENDBRANCH  18  19
ENDBRANCH   3  18
TORSDOF 5
