REMARK  3 active torsions:
REMARK  status: ('A' for Active; 'I' for Inactive)
REMARK    1  A    between atoms: C9_9  and  O2_13 
REMARK    2  A    between atoms: O2_13  and  C12_14 
REMARK    3  A    between atoms: C12_14  and  C13_16 
ROOT
HETATM    1  C1  UNL     1      -1.516  -0.583  -0.334  1.00  0.00     0.043 C 
HETATM    2  C2  UNL     1      -3.034  -0.861  -0.258  1.00  0.00     0.070 C 
HETATM    3  C3  UNL     1      -3.165  -2.200   0.430  1.00  0.00     0.178 C 
HETATM    4  C4  UNL     1      -1.887  -3.012   0.268  1.00  0.00     0.180 C 
HETATM    5  C5  UNL     1      -0.911  -2.011  -0.381  1.00  0.00     0.066 C 
HETATM    6  C6  UNL     1       0.540  -2.159   0.048  1.00  0.00     0.132 C 
HETATM    7  C7  UNL     1       1.459  -1.088  -0.542  1.00  0.00     0.058 C 
HETATM    8  C8  UNL     1       1.596   0.109   0.400  1.00  0.00     0.040 C 
HETATM    9  C9  UNL     1       0.383   1.051   0.354  1.00  0.00     0.152 C 
HETATM   10  C10 UNL     1      -1.008   0.465   0.690  1.00  0.00     0.153 C 
HETATM   11  C11 UNL     1      -1.127   0.016   2.148  1.00  0.00     0.036 C 
HETATM   12  O1  UNL     1      -1.878   1.571   0.557  1.00  0.00    -0.224 OA
HETATM   13  C16 UNL     1       2.697  -1.898  -0.818  1.00  0.00     0.043 C 
HETATM   14  C17 UNL     1       2.342  -3.201  -0.730  1.00  0.00     0.292 C 
HETATM   15  O4  UNL     1       1.061  -3.410  -0.319  1.00  0.00    -0.301 OA
HETATM   16  O5  UNL     1       3.088  -4.121  -0.988  1.00  0.00    -0.260 OA
HETATM   17  C18 UNL     1       3.912  -1.450  -1.159  1.00  0.00     0.001 C 
HETATM   18  C19 UNL     1      -1.502  -3.627   1.612  1.00  0.00     0.041 C 
HETATM   19  O6  UNL     1      -2.104  -4.079  -0.634  1.00  0.00    -0.218 OA
HETATM   20  O7  UNL     1      -4.140  -2.544   1.057  1.00  0.00    -0.293 OA
ENDROOT
BRANCH   9  21
HETATM   21  O2  UNL     1       0.667   2.114   1.229  1.00  0.00    -0.302 OA
BRANCH  21  22
HETATM   22  C12 UNL     1       0.723   3.438   0.898  1.00  0.00     0.271 C 
HETATM   23  O3  UNL     1       0.973   4.275   1.740  1.00  0.00    -0.264 OA
BRANCH  22  24
HETATM   24  C13 UNL     1       0.475   3.848  -0.555  1.00  0.00     0.086 C 
HETATM   25  C14 UNL     1       0.066   5.332  -0.646  1.00  0.00     0.010 C 
HETATM   26  C15 UNL     1       1.732   3.629  -1.416  1.00  0.00     0.010 C 
ENDBRANCH  22  24
ENDBRANCH  21  22
ENDBRANCH   9  21
TORSDOF 3
