REMARK  3 active torsions:
REMARK  status: ('A' for Active; 'I' for Inactive)
REMARK    1  A    between atoms: C6_6  and  C7_7 
REMARK    2  A    between atoms: C7_7  and  C8_8 
REMARK    3  A    between atoms: C12_13  and  C15_16 
ROOT
HETATM    1  C1  UNL     1      -2.872  -1.360  -1.018  1.00  0.00     0.129 A 
HETATM    2  C2  UNL     1      -2.882  -2.692  -0.856  1.00  0.00     0.027 A 
HETATM    3  C3  UNL     1      -1.789  -3.337  -0.436  1.00  0.00    -0.000 A 
HETATM    4  C4  UNL     1      -0.660  -2.662  -0.168  1.00  0.00     0.000 A 
HETATM    5  C5  UNL     1      -0.616  -1.323  -0.329  1.00  0.00     0.089 A 
HETATM    6  C6  UNL     1      -1.736  -0.685  -0.742  1.00  0.00     0.029 A 
HETATM    7  O1  UNL     1       0.509  -0.586  -0.054  1.00  0.00    -0.329 OA
HETATM    8  C12 UNL     1       1.544  -1.198   0.676  1.00  0.00     0.146 C 
HETATM    9  C13 UNL     1       1.819  -2.591   0.120  1.00  0.00     0.040 C 
HETATM   10  C14 UNL     1       0.553  -3.432   0.300  1.00  0.00     0.031 C 
HETATM   11  O4  UNL     1      -4.001  -0.718  -1.430  1.00  0.00    -0.190 OA
ENDROOT
BRANCH   8  12
HETATM   12  C15 UNL     1       2.805  -0.346   0.625  1.00  0.00     0.031 A 
HETATM   13  C16 UNL     1       3.549  -0.132   1.730  1.00  0.00     0.131 A 
HETATM   14  C17 UNL     1       4.658   0.622   1.627  1.00  0.00     0.054 A 
HETATM   15  O3  UNL     1       3.211  -0.662   2.937  1.00  0.00    -0.190 OA
HETATM   16  C18 UNL     1       5.063   1.175   0.472  1.00  0.00     0.133 A 
HETATM   17  C19 UNL     1       4.312   0.946  -0.616  1.00  0.00     0.027 A 
HETATM   18  O2  UNL     1       6.190   1.931   0.399  1.00  0.00    -0.190 OA
HETATM   19  C20 UNL     1       3.204   0.197  -0.539  1.00  0.00     0.002 A 
ENDBRANCH   8  12
BRANCH   6  20
HETATM   20  C7  UNL     1      -1.742   0.827  -0.910  1.00  0.00     0.056 C 
BRANCH  20  21
HETATM   21  C8  UNL     1      -2.663   1.457   0.105  1.00  0.00    -0.030 C 
HETATM   22  C9  UNL     1      -3.345   2.606  -0.043  1.00  0.00    -0.048 C 
HETATM   23  C10 UNL     1      -4.259   3.119   1.046  1.00  0.00     0.026 C 
HETATM   24  C11 UNL     1      -3.265   3.496  -1.260  1.00  0.00     0.026 C 
ENDBRANCH  20  21
ENDBRANCH   6  20
TORSDOF 3
