REMARK  3 active torsions:
REMARK  status: ('A' for Active; 'I' for Inactive)
REMARK    1  A    between atoms: O1_2  and  C2_3 
REMARK    2  A    between atoms: C6_8  and  C8_10 
REMARK    3  A    between atoms: C8_10  and  C9_11 
ROOT
HETATM    1  C2  UNL     1       1.372   1.300  -0.250  1.00  0.00     0.119 A 
HETATM    2  C3  UNL     1       0.872   2.551  -0.172  1.00  0.00     0.153 A 
HETATM    3  O2  UNL     1       1.686   3.637  -0.297  1.00  0.00    -0.188 OA
HETATM    4  C4  UNL     1      -0.442   2.732   0.030  1.00  0.00     0.029 A 
HETATM    5  C5  UNL     1      -1.280   1.694   0.157  1.00  0.00     0.005 A 
HETATM    6  C6  UNL     1      -0.815   0.434   0.085  1.00  0.00     0.039 A 
HETATM    7  C7  UNL     1       0.506   0.272  -0.125  1.00  0.00     0.029 A 
ENDROOT
BRANCH   6   8
HETATM    8  C8  UNL     1      -1.687  -0.607   0.221  1.00  0.00     0.203 C 
HETATM    9  O4  UNL     1      -2.873  -0.415   0.382  1.00  0.00    -0.289 OA
BRANCH   8  10
HETATM   10  C9  UNL     1      -1.202  -2.058   0.196  1.00  0.00     0.213 C 
HETATM   11  C10 UNL     1      -2.327  -3.091   0.231  1.00  0.00     0.044 C 
HETATM   12  O3  UNL     1      -0.354  -2.291   1.309  1.00  0.00    -0.215 OA
ENDBRANCH   8  10
ENDBRANCH   6   8
BRANCH   1  13
HETATM   13  O1  UNL     1       2.724   1.169  -0.475  1.00  0.00    -0.326 OA
HETATM   14  C1  UNL     1       3.270  -0.111  -0.698  1.00  0.00     0.181 C 
ENDBRANCH   1  13
TORSDOF 3
