REMARK  3 active torsions:
REMARK  status: ('A' for Active; 'I' for Inactive)
REMARK    1  A    between atoms: C6_6  and  C7_7 
REMARK    2  A    between atoms: C7_7  and  C8_8 
REMARK    3  A    between atoms: C12_13  and  C15_18 
ROOT
HETATM    1  C1  UNL     1      -1.775  -0.928  -0.158  1.00  0.00     0.094 A 
HETATM    2  C2  UNL     1      -1.755  -2.271  -0.272  1.00  0.00     0.047 A 
HETATM    3  C3  UNL     1      -0.603  -2.956  -0.444  1.00  0.00     0.138 A 
HETATM    4  C4  UNL     1       0.565  -2.273  -0.445  1.00  0.00     0.085 A 
HETATM    5  C5  UNL     1       0.575  -0.926  -0.314  1.00  0.00     0.098 A 
HETATM    6  C6  UNL     1      -0.597  -0.271  -0.171  1.00  0.00     0.027 A 
HETATM    7  O1  UNL     1       1.730  -0.185  -0.266  1.00  0.00    -0.326 OA
HETATM    8  C12 UNL     1       2.849  -0.854   0.233  1.00  0.00     0.181 C 
HETATM    9  C13 UNL     1       3.046  -2.103  -0.590  1.00  0.00     0.245 C 
HETATM   10  C14 UNL     1       1.758  -2.920  -0.609  1.00  0.00     0.210 C 
HETATM   11  O2  UNL     1       1.883  -4.108  -0.804  1.00  0.00    -0.288 OA
HETATM   12  O3  UNL     1       4.136  -2.807  -0.021  1.00  0.00    -0.212 OA
HETATM   13  O5  UNL     1      -0.672  -4.319  -0.543  1.00  0.00    -0.190 OA
HETATM   14  C21 UNL     1      -2.931  -2.929  -0.243  1.00  0.00     0.002 C 
HETATM   15  C22 UNL     1      -4.072  -2.299   0.060  1.00  0.00     0.001 C 
HETATM   16  C23 UNL     1      -4.059  -0.863   0.502  1.00  0.00     0.117 C 
HETATM   17  O6  UNL     1      -2.931  -0.206   0.006  1.00  0.00    -0.332 OA
HETATM   18  C24 UNL     1      -5.293  -0.124  -0.023  1.00  0.00     0.035 C 
HETATM   19  C25 UNL     1      -4.019  -0.809   2.034  1.00  0.00     0.035 C 
ENDROOT
BRANCH   8  20
HETATM   20  C15 UNL     1       4.097   0.006   0.183  1.00  0.00     0.008 A 
HETATM   21  C16 UNL     1       4.985  -0.015   1.192  1.00  0.00     0.000 A 
HETATM   22  C17 UNL     1       6.096   0.735   1.147  1.00  0.00     0.027 A 
HETATM   23  C18 UNL     1       6.363   1.527   0.095  1.00  0.00     0.131 A 
HETATM   24  C19 UNL     1       5.479   1.536  -0.916  1.00  0.00     0.027 A 
HETATM   25  O4  UNL     1       7.489   2.289   0.048  1.00  0.00    -0.190 OA
HETATM   26  C20 UNL     1       4.366   0.787  -0.877  1.00  0.00     0.000 A 
ENDBRANCH   8  20
BRANCH   6  27
HETATM   27  C7  UNL     1      -0.598   1.247  -0.002  1.00  0.00     0.056 C 
BRANCH  27  28
HETATM   28  C8  UNL     1      -1.620   1.960  -0.853  1.00  0.00    -0.030 C 
HETATM   29  C9  UNL     1      -2.363   3.022  -0.490  1.00  0.00    -0.048 C 
HETATM   30  C10 UNL     1      -3.393   3.608  -1.426  1.00  0.00     0.026 C 
HETATM   31  C11 UNL     1      -2.268   3.722   0.845  1.00  0.00     0.026 C 
ENDBRANCH  27  28
ENDBRANCH   6  27
TORSDOF 3
