REMARK  2 active torsions:
REMARK  status: ('A' for Active; 'I' for Inactive)
REMARK    1  A    between atoms: C5_5  and  C23_27 
REMARK    2  A    between atoms: C15_16  and  C18_19 
ROOT
HETATM    1  C1  UNL     1      -3.994  -0.828  -2.328  1.00  0.00     0.034 C 
HETATM    2  C2  UNL     1      -4.697  -1.761  -1.355  1.00  0.00     0.155 C 
HETATM    3  C3  UNL     1      -3.719  -2.730  -0.688  1.00  0.00     0.064 C 
HETATM    4  C4  UNL     1      -2.298  -2.170  -0.465  1.00  0.00     0.136 C 
HETATM    5  C5  UNL     1      -2.294  -0.632  -0.344  1.00  0.00     0.084 C 
HETATM    6  C6  UNL     1      -2.870  -0.020  -1.655  1.00  0.00     0.012 C 
HETATM    7  C7  UNL     1      -0.861  -0.061  -0.090  1.00  0.00     0.014 C 
HETATM    8  C8  UNL     1       0.282  -1.042  -0.425  1.00  0.00     0.029 C 
HETATM    9  C9  UNL     1      -0.049  -1.811  -1.711  1.00  0.00     0.005 C 
HETATM   10  C10 UNL     1      -1.330  -2.651  -1.561  1.00  0.00     0.031 C 
HETATM   11  C11 UNL     1       1.671  -0.381  -0.425  1.00  0.00     0.129 C 
HETATM   12  C12 UNL     1       1.979   0.422   0.865  1.00  0.00     0.058 C 
HETATM   13  C13 UNL     1       0.765   1.274   1.283  1.00  0.00     0.155 C 
HETATM   14  C14 UNL     1      -0.567   0.523   1.304  1.00  0.00     0.034 C 
HETATM   15  O1  UNL     1       0.967   1.851   2.552  1.00  0.00    -0.223 OA
HETATM   16  C15 UNL     1       3.157   1.319   0.400  1.00  0.00     0.026 C 
HETATM   17  C16 UNL     1       2.812   1.719  -1.043  1.00  0.00     0.007 C 
HETATM   18  C17 UNL     1       1.942   0.578  -1.595  1.00  0.00     0.031 C 
HETATM   19  C22 UNL     1       2.415  -0.492   2.032  1.00  0.00     0.005 C 
HETATM   20  O4  UNL     1       2.613  -1.422  -0.544  1.00  0.00    -0.226 OA
HETATM   21  O6  UNL     1      -1.846  -2.702   0.759  1.00  0.00    -0.226 OA
HETATM   22  O7  UNL     1      -5.691  -2.489  -2.039  1.00  0.00    -0.223 OA
ENDROOT
BRANCH  16  23
HETATM   23  C18 UNL     1       3.533   2.465   1.299  1.00  0.00    -0.009 A 
HETATM   24  C19 UNL     1       4.310   2.388   2.386  1.00  0.00     0.062 A 
HETATM   25  C20 UNL     1       4.361   3.629   2.923  1.00  0.00     0.296 A 
HETATM   26  O2  UNL     1       3.645   4.575   2.243  1.00  0.00    -0.294 OA
HETATM   27  O3  UNL     1       4.993   3.882   3.925  1.00  0.00    -0.259 OA
HETATM   28  C21 UNL     1       3.063   3.888   1.143  1.00  0.00     0.175 A 
ENDBRANCH  16  23
BRANCH   5  29
HETATM   29  C23 UNL     1      -3.193  -0.252   0.839  1.00  0.00     0.209 C 
HETATM   30  O5  UNL     1      -4.016   0.632   0.794  1.00  0.00    -0.288 OA
ENDBRANCH   5  29
TORSDOF 2
