REMARK  4 active torsions:
REMARK  status: ('A' for Active; 'I' for Inactive)
REMARK    1  A    between atoms: C2_2  and  O5_28 
REMARK    2  A    between atoms: C15_16  and  C18_19 
REMARK    3  A    between atoms: O5_28  and  C24_29 
REMARK    4  A    between atoms: C27_33  and  O8_36 
ROOT
HETATM    1  C1  UNL     1      -1.104  -0.478  -1.370  1.00  0.00     0.030 C 
HETATM    2  C2  UNL     1      -1.936  -0.885  -0.157  1.00  0.00     0.118 C 
HETATM    3  C3  UNL     1      -1.046  -1.250   1.042  1.00  0.00     0.030 C 
HETATM    4  C4  UNL     1       0.393  -0.694   0.969  1.00  0.00     0.003 C 
HETATM    5  C5  UNL     1       0.447   0.722   0.356  1.00  0.00     0.003 C 
HETATM    6  C6  UNL     1      -0.145   0.688  -1.083  1.00  0.00     0.003 C 
HETATM    7  C7  UNL     1       1.913   1.252   0.346  1.00  0.00     0.032 C 
HETATM    8  C8  UNL     1       3.009   0.178   0.302  1.00  0.00     0.031 C 
HETATM    9  C9  UNL     1       2.538  -1.081  -0.431  1.00  0.00     0.003 C 
HETATM   10  C10 UNL     1       1.351  -1.714   0.310  1.00  0.00     0.000 C 
HETATM   11  C11 UNL     1       4.315   0.796  -0.233  1.00  0.00     0.129 C 
HETATM   12  C12 UNL     1       4.625   2.235   0.311  1.00  0.00     0.057 C 
HETATM   13  C13 UNL     1       3.635   2.788   1.363  1.00  0.00     0.145 A 
HETATM   14  C14 UNL     1       2.365   2.203   1.449  1.00  0.00     0.142 A 
HETATM   15  O1  UNL     1       2.441   3.611   0.848  1.00  0.00    -0.354 OA
HETATM   16  C15 UNL     1       4.924   3.104  -0.955  1.00  0.00     0.026 C 
HETATM   17  C16 UNL     1       5.321   2.076  -2.027  1.00  0.00     0.007 C 
HETATM   18  C17 UNL     1       4.379   0.899  -1.762  1.00  0.00     0.031 C 
HETATM   19  C22 UNL     1       5.979   2.201   1.095  1.00  0.00     0.005 C 
HETATM   20  O4  UNL     1       5.330  -0.111   0.129  1.00  0.00    -0.226 OA
HETATM   21  C23 UNL     1      -0.427   1.701   1.184  1.00  0.00     0.000 C 
ENDROOT
BRANCH   2  22
HETATM   22  O5  UNL     1      -2.756  -1.956  -0.542  1.00  0.00    -0.332 OA
BRANCH  22  23
HETATM   23  C24 UNL     1      -3.789  -2.263   0.370  1.00  0.00     0.270 C 
HETATM   24  O6  UNL     1      -4.777  -1.273   0.205  1.00  0.00    -0.329 OA
HETATM   25  C25 UNL     1      -5.860  -1.472   1.071  1.00  0.00     0.151 C 
HETATM   26  C26 UNL     1      -6.511  -2.816   0.778  1.00  0.00     0.209 C 
HETATM   27  C30 UNL     1      -6.834  -0.307   0.884  1.00  0.00     0.035 C 
HETATM   28  C27 UNL     1      -5.519  -3.971   0.885  1.00  0.00     0.183 C 
HETATM   29  O9  UNL     1      -7.556  -3.062   1.689  1.00  0.00    -0.218 OA
HETATM   30  C28 UNL     1      -4.335  -3.624  -0.006  1.00  0.00     0.238 C 
HETATM   31  O7  UNL     1      -3.279  -4.538   0.153  1.00  0.00    -0.215 OA
BRANCH  28  32
HETATM   32  O8  UNL     1      -6.205  -5.122   0.471  1.00  0.00    -0.349 OA
HETATM   33  C29 UNL     1      -5.671  -6.330   0.967  1.00  0.00     0.174 C 
ENDBRANCH  28  32
ENDBRANCH  22  23
ENDBRANCH   2  22
BRANCH  16  34
HETATM   34  C18 UNL     1       3.868   4.068  -1.440  1.00  0.00    -0.009 A 
HETATM   35  C19 UNL     1       2.836   3.817  -2.513  1.00  0.00     0.175 A 
HETATM   36  O2  UNL     1       2.099   5.029  -2.594  1.00  0.00    -0.294 OA
HETATM   37  C20 UNL     1       2.670   5.859  -1.671  1.00  0.00     0.296 A 
HETATM   38  C21 UNL     1       3.709   5.320  -0.992  1.00  0.00     0.062 A 
HETATM   39  O3  UNL     1       2.284   6.992  -1.482  1.00  0.00    -0.259 OA
ENDBRANCH  16  34
TORSDOF 4
