REMARK  2 active torsions:
REMARK  status: ('A' for Active; 'I' for Inactive)
REMARK    1  A    between atoms: C15_17  and  C18_20 
REMARK    2  A    between atoms: C18_20  and  C19_21 
ROOT
HETATM    1  C1  UNL     1      -6.111  -1.403   0.263  1.00  0.00     0.036 C 
HETATM    2  C2  UNL     1      -6.267  -2.599   0.845  1.00  0.00     0.013 C 
HETATM    3  C3  UNL     1      -5.250  -3.212   1.757  1.00  0.00     0.193 C 
HETATM    4  C4  UNL     1      -3.943  -2.464   1.687  1.00  0.00    -0.006 C 
HETATM    5  C5  UNL     1      -4.004  -0.953   1.565  1.00  0.00     0.073 C 
HETATM    6  C6  UNL     1      -5.052  -0.587   0.496  1.00  0.00     0.175 C 
HETATM    7  O1  UNL     1      -4.984   0.441  -0.140  1.00  0.00    -0.291 OA
HETATM    8  C7  UNL     1      -2.600  -0.417   1.168  1.00  0.00     0.013 C 
HETATM    9  C8  UNL     1      -1.446  -1.000   2.012  1.00  0.00     0.035 C 
HETATM   10  C9  UNL     1      -1.419  -2.522   1.867  1.00  0.00     0.174 C 
HETATM   11  C10 UNL     1      -2.789  -3.139   1.802  1.00  0.00     0.001 C 
HETATM   12  O2  UNL     1      -0.799  -3.116   2.996  1.00  0.00    -0.219 OA
HETATM   13  C11 UNL     1      -0.102  -0.216   1.864  1.00  0.00     0.003 C 
HETATM   14  C12 UNL     1       0.056   0.758   0.651  1.00  0.00     0.003 C 
HETATM   15  C13 UNL     1      -1.268   1.459   0.260  1.00  0.00     0.000 C 
HETATM   16  C14 UNL     1      -2.430   1.111   1.194  1.00  0.00     0.001 C 
HETATM   17  C15 UNL     1       0.626  -0.189  -0.449  1.00  0.00     0.030 C 
HETATM   18  C16 UNL     1       1.522  -1.198   0.296  1.00  0.00     0.003 C 
HETATM   19  C17 UNL     1       1.188  -1.055   1.786  1.00  0.00     0.000 C 
HETATM   20  C27 UNL     1       1.044   1.886   1.037  1.00  0.00     0.000 C 
HETATM   21  C28 UNL     1      -4.499  -0.335   2.889  1.00  0.00     0.012 C 
HETATM   22  O6  UNL     1      -5.704  -3.241   3.105  1.00  0.00    -0.214 OA
ENDROOT
BRANCH  17  23
HETATM   23  C18 UNL     1       1.213   0.350  -1.780  1.00  0.00     0.152 C 
HETATM   24  O5  UNL     1       0.357   1.367  -2.234  1.00  0.00    -0.224 OA
HETATM   25  C26 UNL     1       1.122  -0.750  -2.853  1.00  0.00     0.035 C 
BRANCH  23  26
HETATM   26  C19 UNL     1       2.649   0.924  -1.715  1.00  0.00     0.152 C 
HETATM   27  O3  UNL     1       3.593  -0.095  -1.862  1.00  0.00    -0.302 OA
HETATM   28  C20 UNL     1       4.837   0.068  -2.383  1.00  0.00     0.271 C 
HETATM   29  C21 UNL     1       5.323   1.483  -2.681  1.00  0.00     0.086 C 
HETATM   30  O4  UNL     1       5.570  -0.882  -2.562  1.00  0.00    -0.264 OA
HETATM   31  C22 UNL     1       4.319   2.618  -2.449  1.00  0.00     0.012 C 
HETATM   32  C25 UNL     1       6.645   1.751  -1.938  1.00  0.00     0.010 C 
HETATM   33  C23 UNL     1       2.914   2.067  -2.693  1.00  0.00     0.033 C 
HETATM   34  C24 UNL     1       4.585   3.841  -3.344  1.00  0.00     0.001 C 
ENDBRANCH  23  26
ENDBRANCH  17  23
TORSDOF 2
