REMARK  3 active torsions:
REMARK  status: ('A' for Active; 'I' for Inactive)
REMARK    1  A    between atoms: C1_1  and  O7_23 
REMARK    2  A    between atoms: C7_8  and  C11_14 
REMARK    3  A    between atoms: C8_9  and  O3_12 
ROOT
HETATM    1  C1  UNL     1      -3.162  -1.821   1.498  1.00  0.00     0.098 A 
HETATM    2  C2  UNL     1      -2.697  -2.941   0.918  1.00  0.00     0.052 A 
HETATM    3  C3  UNL     1      -1.560  -3.000   0.201  1.00  0.00     0.138 A 
HETATM    4  C4  UNL     1      -0.835  -1.868   0.046  1.00  0.00     0.085 A 
HETATM    5  C5  UNL     1      -1.245  -0.716   0.623  1.00  0.00     0.101 A 
HETATM    6  C6  UNL     1      -2.398  -0.731   1.317  1.00  0.00     0.049 A 
HETATM    7  O1  UNL     1      -0.591   0.483   0.502  1.00  0.00    -0.326 OA
HETATM    8  C7  UNL     1       0.169   0.629  -0.666  1.00  0.00     0.178 C 
HETATM    9  C8  UNL     1       1.118  -0.554  -0.780  1.00  0.00     0.208 C 
HETATM   10  C9  UNL     1       0.334  -1.863  -0.657  1.00  0.00     0.207 C 
HETATM   11  O2  UNL     1       0.818  -2.849  -1.165  1.00  0.00    -0.288 OA
HETATM   12  O6  UNL     1      -1.242  -4.210  -0.346  1.00  0.00    -0.190 OA
ENDROOT
BRANCH   8  13
HETATM   13  C11 UNL     1       0.930   1.945  -0.654  1.00  0.00     0.010 A 
HETATM   14  C12 UNL     1       0.874   2.791  -1.697  1.00  0.00     0.000 A 
HETATM   15  C13 UNL     1       1.570   3.937  -1.686  1.00  0.00     0.029 A 
HETATM   16  C14 UNL     1       2.343   4.270  -0.640  1.00  0.00     0.156 A 
HETATM   17  C15 UNL     1       2.411   3.433   0.411  1.00  0.00     0.156 A 
HETATM   18  O5  UNL     1       3.058   5.428  -0.623  1.00  0.00    -0.188 OA
HETATM   19  C16 UNL     1       1.705   2.290   0.389  1.00  0.00     0.028 A 
HETATM   20  O4  UNL     1       3.191   3.750   1.479  1.00  0.00    -0.188 OA
ENDBRANCH   8  13
BRANCH   9  21
HETATM   21  O3  UNL     1       1.800  -0.435  -2.015  1.00  0.00    -0.343 OA
HETATM   22  C10 UNL     1       3.116  -0.940  -1.984  1.00  0.00     0.175 C 
ENDBRANCH   9  21
BRANCH   1  23
HETATM   23  O7  UNL     1      -4.313  -1.719   2.241  1.00  0.00    -0.328 OA
HETATM   24  C17 UNL     1      -5.051  -2.888   2.514  1.00  0.00     0.181 C 
ENDBRANCH   1  23
TORSDOF 3
