REMARK  2 active torsions:
REMARK  status: ('A' for Active; 'I' for Inactive)
REMARK    1  A    between atoms: C1_1  and  O4_23 
REMARK    2  A    between atoms: C11_12  and  C14_15 
ROOT
HETATM    1  C1  UNL     1      -4.148  -0.326  -0.755  1.00  0.00     0.119 A 
HETATM    2  C2  UNL     1      -4.218  -1.669  -0.660  1.00  0.00     0.153 A 
HETATM    3  C3  UNL     1      -3.087  -2.386  -0.571  1.00  0.00     0.025 A 
HETATM    4  C4  UNL     1      -1.868  -1.823  -0.564  1.00  0.00    -0.024 A 
HETATM    5  C5  UNL     1      -1.775  -0.482  -0.632  1.00  0.00    -0.018 A 
HETATM    6  C6  UNL     1      -2.917   0.222  -0.748  1.00  0.00     0.022 A 
HETATM    7  C7  UNL     1      -0.436   0.241  -0.649  1.00  0.00     0.071 C 
HETATM    8  C8  UNL     1       0.789  -0.659  -0.438  1.00  0.00     0.124 C 
HETATM    9  C9  UNL     1       0.577  -2.012  -1.110  1.00  0.00     0.035 C 
HETATM   10  C10 UNL     1      -0.646  -2.709  -0.507  1.00  0.00     0.029 C 
HETATM   11  O1  UNL     1       1.035  -0.878   0.923  1.00  0.00    -0.350 OA
HETATM   12  C11 UNL     1       1.419   0.301   1.611  1.00  0.00     0.159 C 
HETATM   13  C12 UNL     1       0.441   1.417   1.370  1.00  0.00     0.003 C 
HETATM   14  C13 UNL     1      -0.399   1.394   0.328  1.00  0.00    -0.021 C 
HETATM   15  O3  UNL     1      -5.422  -2.307  -0.673  1.00  0.00    -0.188 OA
ENDROOT
BRANCH  12  16
HETATM   16  C14 UNL     1       2.860   0.692   1.325  1.00  0.00     0.009 A 
HETATM   17  C15 UNL     1       3.870   0.050   1.938  1.00  0.00     0.001 A 
HETATM   18  C16 UNL     1       5.149   0.379   1.701  1.00  0.00     0.027 A 
HETATM   19  C17 UNL     1       5.471   1.356   0.837  1.00  0.00     0.131 A 
HETATM   20  C18 UNL     1       4.462   1.987   0.214  1.00  0.00     0.027 A 
HETATM   21  O2  UNL     1       6.765   1.696   0.592  1.00  0.00    -0.190 OA
HETATM   22  C19 UNL     1       3.182   1.663   0.450  1.00  0.00     0.001 A 
ENDBRANCH  12  16
BRANCH   1  23
HETATM   23  O4  UNL     1      -5.324   0.379  -0.877  1.00  0.00    -0.326 OA
HETATM   24  C20 UNL     1      -5.269   1.770  -1.095  1.00  0.00     0.181 C 
ENDBRANCH   1  23
TORSDOF 2
