REMARK  5 active torsions:
REMARK  status: ('A' for Active; 'I' for Inactive)
REMARK    1  A    between atoms: C2_2  and  O4_22 
REMARK    2  A    between atoms: C4_4  and  C7_7 
REMARK    3  A    between atoms: C10_11  and  C11_12 
REMARK    4  A    between atoms: C13_15  and  C16_18 
REMARK    5  A    between atoms: C17_19  and  C18_20 
ROOT
HETATM    1  C7  UNL     1      -0.816  -0.551   0.768  1.00  0.00     0.150 A 
HETATM    2  O1  UNL     1       0.052  -1.688   0.761  1.00  0.00    -0.329 OA
HETATM    3  C8  UNL     1       1.229  -1.345   0.839  1.00  0.00     0.090 A 
HETATM    4  C9  UNL     1       1.407  -0.023   0.892  1.00  0.00     0.005 A 
HETATM    5  C10 UNL     1       0.092   0.701   0.825  1.00  0.00     0.089 A 
HETATM    6  C12 UNL     1       2.635   0.507   0.973  1.00  0.00    -0.002 A 
HETATM    7  C13 UNL     1       3.721  -0.293   1.006  1.00  0.00    -0.000 A 
HETATM    8  C14 UNL     1       3.515  -1.628   0.951  1.00  0.00     0.002 A 
HETATM    9  C15 UNL     1       2.286  -2.165   0.868  1.00  0.00     0.024 A 
ENDROOT
BRANCH   1  10
HETATM   10  C4  UNL     1      -1.726  -0.569  -0.442  1.00  0.00     0.008 A 
HETATM   11  C3  UNL     1      -3.058  -0.440  -0.331  1.00  0.00     0.024 A 
HETATM   12  C2  UNL     1      -3.913  -0.461  -1.375  1.00  0.00     0.119 A 
HETATM   13  C1  UNL     1      -3.375  -0.612  -2.608  1.00  0.00     0.153 A 
HETATM   14  C6  UNL     1      -2.042  -0.738  -2.730  1.00  0.00     0.029 A 
HETATM   15  O5  UNL     1      -4.112  -0.650  -3.752  1.00  0.00    -0.188 OA
HETATM   16  C5  UNL     1      -1.220  -0.719  -1.674  1.00  0.00     0.000 A 
BRANCH  12  17
HETATM   17  O4  UNL     1      -5.249  -0.316  -1.070  1.00  0.00    -0.326 OA
HETATM   18  C19 UNL     1      -6.223  -0.252  -2.084  1.00  0.00     0.181 C 
ENDBRANCH  12  17
ENDBRANCH   1  10
BRANCH   5  19
HETATM   19  C11 UNL     1      -0.157   1.599   2.030  1.00  0.00     0.190 C 
HETATM   20  O2  UNL     1      -1.431   2.195   1.907  1.00  0.00    -0.220 OA
ENDBRANCH   5  19
BRANCH   7  21
HETATM   21  C16 UNL     1       4.989   0.166   1.085  1.00  0.00     0.003 C 
HETATM   22  C17 UNL     1       5.393   1.448   1.153  1.00  0.00     0.045 C 
BRANCH  22  23
HETATM   23  C18 UNL     1       6.699   1.811   1.231  1.00  0.00     0.234 C 
HETATM   24  O3  UNL     1       7.050   2.966   1.294  1.00  0.00    -0.283 OA
ENDBRANCH  22  23
ENDBRANCH   7  21
TORSDOF 5
