REMARK  2 active torsions:
REMARK  status: ('A' for Active; 'I' for Inactive)
REMARK    1  A    between atoms: C9_11  and  C10_12 
REMARK    2  A    between atoms: C12_14  and  O4_19 
ROOT
HETATM    1  C1  UNL     1       4.796  -1.630  -2.311  1.00  0.00     0.133 A 
HETATM    2  C2  UNL     1       4.972  -0.297  -2.201  1.00  0.00     0.028 A 
HETATM    3  C3  UNL     1       4.028   0.519  -1.699  1.00  0.00     0.007 A 
HETATM    4  C4  UNL     1       2.892  -0.063  -1.305  1.00  0.00     0.064 A 
HETATM    5  C5  UNL     1       2.680  -1.372  -1.411  1.00  0.00     0.105 A 
HETATM    6  C6  UNL     1       3.628  -2.173  -1.913  1.00  0.00     0.052 A 
HETATM    7  O1  UNL     1       1.558  -1.657  -1.001  1.00  0.00    -0.304 OA
HETATM    8  C7  UNL     1       0.990  -0.638  -0.572  1.00  0.00     0.139 A 
HETATM    9  C8  UNL     1       1.772   0.465  -0.767  1.00  0.00     0.220 A 
HETATM   10  O2  UNL     1       1.597   1.646  -0.590  1.00  0.00    -0.284 OA
HETATM   11  C9  UNL     1      -0.247  -0.742  -0.044  1.00  0.00     0.028 C 
HETATM   12  O5  UNL     1       5.777  -2.423  -2.823  1.00  0.00    -0.190 OA
ENDROOT
BRANCH  11  13
HETATM   13  C10 UNL     1      -1.115   0.100   0.557  1.00  0.00     0.004 A 
HETATM   14  C11 UNL     1      -2.374  -0.326   0.795  1.00  0.00     0.026 A 
HETATM   15  C12 UNL     1      -3.353   0.390   1.389  1.00  0.00     0.119 A 
HETATM   16  C13 UNL     1      -3.033   1.631   1.820  1.00  0.00     0.153 A 
HETATM   17  C14 UNL     1      -1.780   2.072   1.620  1.00  0.00     0.029 A 
HETATM   18  O3  UNL     1      -3.904   2.464   2.451  1.00  0.00    -0.188 OA
HETATM   19  C15 UNL     1      -0.843   1.333   1.012  1.00  0.00     0.002 A 
BRANCH  15  20
HETATM   20  O4  UNL     1      -4.573  -0.236   1.529  1.00  0.00    -0.326 OA
HETATM   21  C16 UNL     1      -5.582   0.318   2.338  1.00  0.00     0.181 C 
ENDBRANCH  15  20
ENDBRANCH  11  13
TORSDOF 2
