REMARK  1 active torsions:
REMARK  status: ('A' for Active; 'I' for Inactive)
REMARK    1  A    between atoms: C15_17  and  C21_25 
ROOT
HETATM    1  C1  UNL     1      -4.267  -2.478  -0.838  1.00  0.00     0.034 C 
HETATM    2  C2  UNL     1      -4.609  -3.526  -0.076  1.00  0.00    -0.019 C 
HETATM    3  C3  UNL     1      -4.030  -3.785   1.282  1.00  0.00     0.048 C 
HETATM    4  C4  UNL     1      -2.750  -2.999   1.429  1.00  0.00    -0.038 C 
HETATM    5  C5  UNL     1      -2.787  -1.550   0.971  1.00  0.00     0.071 C 
HETATM    6  C6  UNL     1      -3.392  -1.517  -0.445  1.00  0.00     0.175 C 
HETATM    7  O1  UNL     1      -3.125  -0.629  -1.224  1.00  0.00    -0.291 OA
HETATM    8  C7  UNL     1      -1.357  -0.923   0.964  1.00  0.00     0.018 C 
HETATM    9  C8  UNL     1      -0.521  -1.349   2.196  1.00  0.00     0.034 C 
HETATM   10  C9  UNL     1      -0.347  -2.875   2.147  1.00  0.00     0.028 C 
HETATM   11  C10 UNL     1      -1.657  -3.578   1.947  1.00  0.00    -0.034 C 
HETATM   12  C11 UNL     1       0.819  -0.596   2.321  1.00  0.00     0.134 C 
HETATM   13  C12 UNL     1       1.195   0.140   1.036  1.00  0.00     0.085 C 
HETATM   14  C13 UNL     1       0.105   1.161   0.749  1.00  0.00     0.190 C 
HETATM   15  C14 UNL     1      -1.316   0.613   0.862  1.00  0.00     0.057 C 
HETATM   16  O2  UNL     1       0.298   1.745  -0.508  1.00  0.00    -0.332 OA
HETATM   17  C15 UNL     1       1.617   2.070  -0.871  1.00  0.00     0.173 C 
HETATM   18  C16 UNL     1       2.671   2.031   0.254  1.00  0.00     0.156 C 
HETATM   19  C17 UNL     1       2.279   1.142   1.437  1.00  0.00     0.065 C 
HETATM   20  C18 UNL     1       1.345   1.758   2.472  1.00  0.00     0.123 C 
HETATM   21  C19 UNL     1       0.869   0.570   3.325  1.00  0.00     0.060 C 
HETATM   22  O3  UNL     1       0.272   2.191   1.697  1.00  0.00    -0.337 OA
HETATM   23  C20 UNL     1       3.053   3.442   0.717  1.00  0.00     0.036 C 
HETATM   24  O4  UNL     1       3.857   1.468  -0.254  1.00  0.00    -0.223 OA
HETATM   25  O7  UNL     1       1.853  -1.494   2.636  1.00  0.00    -0.226 OA
HETATM   26  C27 UNL     1      -3.760  -0.766   1.879  1.00  0.00     0.012 C 
ENDROOT
BRANCH  17  27
HETATM   27  C21 UNL     1       1.991   1.278  -2.135  1.00  0.00     0.154 C 
HETATM   28  O5  UNL     1       3.143   1.837  -2.700  1.00  0.00    -0.302 OA
HETATM   29  C22 UNL     1       3.054   1.997  -4.042  1.00  0.00     0.271 C 
HETATM   30  C23 UNL     1       1.754   1.389  -4.519  1.00  0.00     0.089 C 
HETATM   31  O6  UNL     1       3.901   2.519  -4.731  1.00  0.00    -0.264 OA
HETATM   32  C24 UNL     1       0.925   1.275  -3.235  1.00  0.00     0.040 C 
HETATM   33  C26 UNL     1       1.072   2.206  -5.622  1.00  0.00     0.011 C 
HETATM   34  C25 UNL     1       0.024   0.032  -3.228  1.00  0.00     0.003 C 
ENDBRANCH  17  27
TORSDOF 1
