REMARK  5 active torsions:
REMARK  status: ('A' for Active; 'I' for Inactive)
REMARK    1  A    between atoms: C15_15  and  C18_18 
REMARK    2  A    between atoms: C18_18  and  C19_19 
REMARK    3  A    between atoms: C19_19  and  C20_20 
REMARK    4  A    between atoms: C20_20  and  C21_21 
REMARK    5  A    between atoms: C22_22  and  C23_23 
ROOT
HETATM    1  C1  UNL     1      -4.667   0.487  -3.135  1.00  0.00     0.065 C 
HETATM    2  C2  UNL     1      -4.716  -0.865  -3.815  1.00  0.00     0.150 C 
HETATM    3  C3  UNL     1      -3.733  -1.924  -3.308  1.00  0.00     0.052 C 
HETATM    4  C4  UNL     1      -3.837  -1.998  -1.755  1.00  0.00     0.010 C 
HETATM    5  C5  UNL     1      -3.832  -0.650  -0.979  1.00  0.00     0.015 C 
HETATM    6  C6  UNL     1      -4.862   0.302  -1.631  1.00  0.00     0.011 C 
HETATM    7  C7  UNL     1      -2.414  -0.092  -0.865  1.00  0.00    -0.053 C 
HETATM    8  C8  UNL     1      -1.358  -0.922  -0.738  1.00  0.00    -0.053 C 
HETATM    9  C9  UNL     1      -1.456  -2.424  -0.877  1.00  0.00     0.021 C 
HETATM   10  C10 UNL     1      -2.867  -2.984  -1.083  1.00  0.00     0.005 C 
HETATM   11  C11 UNL     1       0.037  -0.354  -0.556  1.00  0.00     0.015 C 
HETATM   12  C12 UNL     1      -0.004   0.905   0.364  1.00  0.00     0.004 C 
HETATM   13  C13 UNL     1      -0.839   1.942  -0.403  1.00  0.00     0.005 C 
HETATM   14  C14 UNL     1      -2.258   1.410  -0.682  1.00  0.00     0.021 C 
HETATM   15  C15 UNL     1       1.504   1.211   0.599  1.00  0.00     0.000 C 
HETATM   16  C16 UNL     1       2.099  -0.215   0.705  1.00  0.00     0.000 C 
HETATM   17  C17 UNL     1       1.056  -1.224   0.194  1.00  0.00     0.004 C 
HETATM   18  C26 UNL     1      -0.681   0.630   1.731  1.00  0.00     0.000 C 
HETATM   19  C27 UNL     1       0.591  -0.138  -1.989  1.00  0.00     0.004 C 
HETATM   20  C28 UNL     1      -4.310  -0.850   0.486  1.00  0.00     0.004 C 
HETATM   21  C29 UNL     1      -4.115  -3.279  -3.953  1.00  0.00     0.007 C 
HETATM   22  C30 UNL     1      -2.354  -1.526  -3.865  1.00  0.00     0.007 C 
HETATM   23  O3  UNL     1      -5.479  -1.060  -4.735  1.00  0.00    -0.296 OA
ENDROOT
BRANCH  15  24
HETATM   24  C18 UNL     1       1.945   2.153   1.751  1.00  0.00     0.000 C 
HETATM   25  C25 UNL     1       1.314   3.555   1.612  1.00  0.00     0.000 C 
BRANCH  24  26
HETATM   26  C19 UNL     1       3.483   2.344   1.870  1.00  0.00     0.005 C 
BRANCH  26  27
HETATM   27  C20 UNL     1       4.259   1.188   2.527  1.00  0.00     0.026 C 
BRANCH  27  28
HETATM   28  C21 UNL     1       5.660   1.538   2.971  1.00  0.00    -0.024 C 
HETATM   29  C22 UNL     1       6.530   0.740   3.622  1.00  0.00     0.038 C 
HETATM   30  C24 UNL     1       7.902   1.264   3.994  1.00  0.00     0.037 C 
BRANCH  29  31
HETATM   31  C23 UNL     1       6.240  -0.544   3.970  1.00  0.00     0.206 C 
HETATM   32  O1  UNL     1       7.132  -1.324   4.625  1.00  0.00    -0.644 OA
HETATM   33  O2  UNL     1       5.185  -1.083   3.725  1.00  0.00    -0.644 OA
ENDBRANCH  29  31
ENDBRANCH  27  28
ENDBRANCH  26  27
ENDBRANCH  24  26
ENDBRANCH  15  24
TORSDOF 5
