REMARK  2 active torsions:
REMARK  status: ('A' for Active; 'I' for Inactive)
REMARK    1  A    between atoms: C3_3  and  C15_16 
REMARK    2  A    between atoms: C10_11  and  C11_12 
ROOT
HETATM    1  C1  UNL     1      -1.605   1.280  -1.222  1.00  0.00     0.038 C 
HETATM    2  C2  UNL     1      -2.261  -0.108  -1.215  1.00  0.00     0.032 C 
HETATM    3  C3  UNL     1      -2.036  -1.028  -0.031  1.00  0.00     0.016 C 
HETATM    4  C4  UNL     1      -1.007  -0.954   0.834  1.00  0.00    -0.027 C 
HETATM    5  C5  UNL     1       0.191  -0.043   0.814  1.00  0.00     0.024 C 
HETATM    6  C6  UNL     1      -0.096   1.478   0.858  1.00  0.00     0.032 C 
HETATM    7  C7  UNL     1      -1.397   1.908   0.155  1.00  0.00     0.153 C 
HETATM    8  O1  UNL     1      -2.528   1.653   0.955  1.00  0.00    -0.223 OA
HETATM    9  C8  UNL     1       1.123   2.107   0.131  1.00  0.00     0.003 C 
HETATM   10  C9  UNL     1       2.084   0.962  -0.214  1.00  0.00     0.000 C 
HETATM   11  C10 UNL     1       1.212  -0.303  -0.313  1.00  0.00     0.004 C 
HETATM   12  C14 UNL     1      -0.120   1.969   2.323  1.00  0.00     0.003 C 
ENDROOT
BRANCH  11  13
HETATM   13  C11 UNL     1       2.045  -1.603  -0.231  1.00  0.00     0.000 C 
HETATM   14  C12 UNL     1       3.025  -1.699  -1.417  1.00  0.00     0.000 C 
HETATM   15  C13 UNL     1       1.182  -2.877  -0.207  1.00  0.00     0.000 C 
ENDBRANCH  11  13
BRANCH   3  16
HETATM   16  C15 UNL     1      -2.964  -2.004   0.166  1.00  0.00     0.230 C 
HETATM   17  O2  UNL     1      -2.954  -2.832   1.046  1.00  0.00    -0.283 OA
ENDBRANCH   3  16
TORSDOF 2
