REMARK  9 active torsions:
REMARK  status: ('A' for Active; 'I' for Inactive)
REMARK    1  A    between atoms: C4_4  and  C16_19 
REMARK    2  A    between atoms: C5_6  and  O2_7 
REMARK    3  A    between atoms: O2_7  and  C6_8 
REMARK    4  A    between atoms: C6_8  and  C7_9 
REMARK    5  A    between atoms: C7_9  and  C8_10 
REMARK    6  A    between atoms: C8_10  and  C9_11 
REMARK    7  A    between atoms: C16_19  and  O4_20 
REMARK    8  A    between atoms: O4_20  and  C17_21 
REMARK    9  A    between atoms: C19_24  and  C21_27 
ROOT
HETATM    1  C1  UNL     1       1.649  -0.682  -1.521  1.00  0.00     0.241 C 
HETATM    2  C2  UNL     1       1.441   0.541  -2.391  1.00  0.00     0.220 C 
HETATM    3  C3  UNL     1       0.445   1.464  -1.707  1.00  0.00     0.215 C 
HETATM    4  C4  UNL     1       0.554   1.423  -0.182  1.00  0.00     0.180 C 
HETATM    5  O1  UNL     1       1.846   1.044   0.197  1.00  0.00    -0.326 OA
HETATM    6  C5  UNL     1       2.085  -0.315  -0.112  1.00  0.00     0.270 C 
HETATM    7  O9  UNL     1      -0.851   1.053  -2.080  1.00  0.00    -0.218 OA
HETATM    8  O10 UNL     1       2.670   1.201  -2.583  1.00  0.00    -0.218 OA
HETATM    9  O11 UNL     1       0.420  -1.366  -1.445  1.00  0.00    -0.215 OA
ENDROOT
BRANCH   6  10
HETATM   10  O2  UNL     1       3.473  -0.518   0.011  1.00  0.00    -0.332 OA
BRANCH  10  11
HETATM   11  C6  UNL     1       3.903  -0.784   1.318  1.00  0.00     0.118 C 
HETATM   12  C15 UNL     1       5.369  -0.330   1.391  1.00  0.00     0.032 C 
BRANCH  11  13
HETATM   13  C7  UNL     1       3.805  -2.283   1.657  1.00  0.00     0.034 C 
BRANCH  13  14
HETATM   14  C8  UNL     1       2.448  -2.829   2.147  1.00  0.00     0.029 C 
BRANCH  14  15
HETATM   15  C9  UNL     1       1.427  -3.301   1.125  1.00  0.00    -0.022 A 
HETATM   16  C10 UNL     1       1.767  -4.093   0.094  1.00  0.00    -0.002 A 
HETATM   17  C11 UNL     1       0.843  -4.548  -0.768  1.00  0.00     0.027 A 
HETATM   18  C12 UNL     1      -0.456  -4.233  -0.636  1.00  0.00     0.131 A 
HETATM   19  C13 UNL     1      -0.797  -3.440   0.394  1.00  0.00     0.027 A 
HETATM   20  O3  UNL     1      -1.384  -4.707  -1.510  1.00  0.00    -0.190 OA
HETATM   21  C14 UNL     1       0.125  -2.985   1.256  1.00  0.00    -0.002 A 
ENDBRANCH  14  15
ENDBRANCH  13  14
ENDBRANCH  11  13
ENDBRANCH  10  11
ENDBRANCH   6  10
BRANCH   4  22
HETATM   22  C16 UNL     1       0.192   2.752   0.475  1.00  0.00     0.177 C 
BRANCH  22  23
HETATM   23  O4  UNL     1      -1.196   2.968   0.376  1.00  0.00    -0.326 OA
BRANCH  23  24
HETATM   24  C17 UNL     1      -1.943   2.356   1.411  1.00  0.00     0.270 C 
HETATM   25  O5  UNL     1      -2.319   3.408   2.272  1.00  0.00    -0.326 OA
HETATM   26  C18 UNL     1      -3.629   3.814   1.944  1.00  0.00     0.181 C 
HETATM   27  C19 UNL     1      -4.116   2.995   0.754  1.00  0.00     0.217 C 
HETATM   28  C20 UNL     1      -3.222   1.777   0.870  1.00  0.00     0.241 C 
HETATM   29  O8  UNL     1      -5.456   2.621   0.936  1.00  0.00    -0.218 OA
HETATM   30  O6  UNL     1      -2.999   1.111  -0.347  1.00  0.00    -0.215 OA
BRANCH  27  31
HETATM   31  C21 UNL     1      -4.044   3.741  -0.567  1.00  0.00     0.218 C 
HETATM   32  O7  UNL     1      -5.054   4.730  -0.560  1.00  0.00    -0.218 OA
ENDBRANCH  27  31
ENDBRANCH  23  24
ENDBRANCH  22  23
ENDBRANCH   4  22
TORSDOF 9
