REMARK  7 active torsions:
REMARK  status: ('A' for Active; 'I' for Inactive)
REMARK    1  A    between atoms: C1_1  and  O10_46 
REMARK    2  A    between atoms: C4_4  and  C36_41 
REMARK    3  A    between atoms: C5_6  and  O2_7 
REMARK    4  A    between atoms: O2_7  and  C6_8 
REMARK    5  A    between atoms: C27_29  and  C30_32 
REMARK    6  A    between atoms: O10_46  and  C37_47 
REMARK    7  A    between atoms: C39_50  and  C41_53 
ROOT
HETATM    1  C6  UNL     1      11.694 -20.809  -0.541  1.00  0.00     0.118 C 
HETATM    2  C7  UNL     1      12.001 -20.512   0.919  1.00  0.00     0.030 C 
HETATM    3  C8  UNL     1      13.125 -19.453   1.019  1.00  0.00     0.006 C 
HETATM    4  C9  UNL     1      14.187 -19.457  -0.134  1.00  0.00     0.018 C 
HETATM    5  C10 UNL     1      14.223 -20.916  -0.684  1.00  0.00     0.006 C 
HETATM    6  C11 UNL     1      12.881 -21.505  -1.247  1.00  0.00     0.025 C 
HETATM    7  C12 UNL     1      12.721 -21.328  -2.776  1.00  0.00     0.002 C 
HETATM    8  C13 UNL     1      12.889 -23.037  -1.004  1.00  0.00     0.002 C 
HETATM    9  C14 UNL     1      15.446 -21.177  -1.580  1.00  0.00     0.001 C 
HETATM   10  C15 UNL     1      16.771 -20.817  -0.889  1.00  0.00     0.004 C 
HETATM   11  C16 UNL     1      16.857 -19.337  -0.446  1.00  0.00     0.021 C 
HETATM   12  C17 UNL     1      15.602 -19.071   0.439  1.00  0.00    -0.006 C 
HETATM   13  C18 UNL     1      15.691 -17.694   1.099  1.00  0.00     0.187 C 
HETATM   14  C19 UNL     1      16.875 -17.033   1.157  1.00  0.00     0.033 C 
HETATM   15  C20 UNL     1      18.070 -17.513   0.758  1.00  0.00    -0.042 C 
HETATM   16  C21 UNL     1      18.156 -18.995   0.387  1.00  0.00     0.018 C 
HETATM   17  C22 UNL     1      19.468 -19.357  -0.358  1.00  0.00     0.004 C 
HETATM   18  C23 UNL     1      20.272 -18.164  -0.872  1.00  0.00     0.001 C 
HETATM   19  C24 UNL     1      20.614 -17.153   0.236  1.00  0.00     0.004 C 
HETATM   20  C25 UNL     1      19.293 -16.588   0.826  1.00  0.00     0.019 C 
HETATM   21  C26 UNL     1      18.990 -15.236   0.128  1.00  0.00     0.014 C 
HETATM   22  C27 UNL     1      20.051 -14.133   0.370  1.00  0.00     0.079 C 
HETATM   23  C28 UNL     1      21.466 -14.743   0.380  1.00  0.00     0.010 C 
HETATM   24  C29 UNL     1      21.494 -16.050  -0.416  1.00  0.00     0.001 C 
HETATM   25  C31 UNL     1      19.778 -13.426   1.716  1.00  0.00     0.011 C 
HETATM   26  C32 UNL     1      21.472 -17.814   1.341  1.00  0.00     0.000 C 
HETATM   27  C33 UNL     1      18.208 -19.748   1.749  1.00  0.00     0.004 C 
HETATM   28  O5  UNL     1      14.708 -17.144   1.544  1.00  0.00    -0.287 OA
HETATM   29  C34 UNL     1      16.904 -18.454  -1.721  1.00  0.00     0.004 C 
HETATM   30  C35 UNL     1      13.787 -18.404  -1.200  1.00  0.00     0.004 C 
ENDROOT
BRANCH   1  31
HETATM   31  O2  UNL     1      10.423 -21.317  -0.845  1.00  0.00    -0.332 OA
BRANCH  31  32
HETATM   32  C5  UNL     1       9.894 -22.392  -0.101  1.00  0.00     0.267 C 
HETATM   33  C1  UNL     1       9.065 -23.263  -1.039  1.00  0.00     0.207 C 
HETATM   34  C2  UNL     1       7.701 -22.675  -1.389  1.00  0.00     0.217 C 
HETATM   35  C3  UNL     1       7.026 -21.941  -0.239  1.00  0.00     0.223 C 
HETATM   36  O9  UNL     1       7.900 -21.731  -2.422  1.00  0.00    -0.218 OA
HETATM   37  C4  UNL     1       7.996 -21.105   0.585  1.00  0.00     0.237 C 
HETATM   38  O8  UNL     1       6.369 -22.849   0.613  1.00  0.00    -0.217 OA
HETATM   39  O1  UNL     1       9.134 -21.855   0.958  1.00  0.00    -0.318 OA
BRANCH  33  40
HETATM   40  O10 UNL     1       9.121 -24.639  -0.752  1.00  0.00    -0.324 OA
BRANCH  40  41
HETATM   41  C37 UNL     1       8.330 -25.132   0.299  1.00  0.00     0.270 C 
HETATM   42  O11 UNL     1       7.037 -25.372  -0.222  1.00  0.00    -0.326 OA
HETATM   43  C38 UNL     1       6.904 -26.751  -0.425  1.00  0.00     0.181 C 
HETATM   44  C39 UNL     1       7.629 -27.364   0.756  1.00  0.00     0.217 C 
HETATM   45  C40 UNL     1       8.866 -26.483   0.748  1.00  0.00     0.241 C 
HETATM   46  O14 UNL     1       7.948 -28.701   0.490  1.00  0.00    -0.218 OA
HETATM   47  O12 UNL     1       9.477 -26.407   2.010  1.00  0.00    -0.215 OA
BRANCH  44  48
HETATM   48  C41 UNL     1       6.822 -27.316   2.041  1.00  0.00     0.218 C 
HETATM   49  O13 UNL     1       5.670 -28.116   1.868  1.00  0.00    -0.218 OA
ENDBRANCH  44  48
ENDBRANCH  40  41
ENDBRANCH  33  40
BRANCH  37  50
HETATM   50  C36 UNL     1       8.307 -19.689   0.094  1.00  0.00     0.217 C 
HETATM   51  O6  UNL     1       7.553 -19.316  -0.956  1.00  0.00    -0.646 OA
HETATM   52  O7  UNL     1       9.082 -18.908   0.596  1.00  0.00    -0.646 OA
ENDBRANCH  37  50
ENDBRANCH  31  32
ENDBRANCH   1  31
BRANCH  22  53
HETATM   53  C30 UNL     1      19.972 -13.106  -0.766  1.00  0.00     0.184 C 
HETATM   54  O3  UNL     1      20.584 -11.945  -0.464  1.00  0.00    -0.647 OA
HETATM   55  O4  UNL     1      19.463 -13.259  -1.851  1.00  0.00    -0.647 OA
ENDBRANCH  22  53
TORSDOF 7
