REMARK  4 active torsions:
REMARK  status: ('A' for Active; 'I' for Inactive)
REMARK    1  A    between atoms: C1_1  and  C2_2 
REMARK    2  A    between atoms: C4_5  and  C12_16 
REMARK    3  A    between atoms: C6_7  and  C8_10 
REMARK    4  A    between atoms: C8_10  and  C9_11 
ROOT
HETATM    1  C2  UNL     1       1.931   0.221  -0.111  1.00  0.00     0.093 A 
HETATM    2  C3  UNL     1       2.404  -0.948   0.369  1.00  0.00     0.141 A 
HETATM    3  O1  UNL     1       3.754  -1.152   0.431  1.00  0.00    -0.190 OA
HETATM    4  C4  UNL     1       1.520  -1.883   0.776  1.00  0.00     0.093 A 
HETATM    5  C5  UNL     1       0.185  -1.662   0.705  1.00  0.00     0.141 A 
HETATM    6  C6  UNL     1      -0.287  -0.484   0.212  1.00  0.00     0.089 A 
HETATM    7  C7  UNL     1       0.602   0.456  -0.190  1.00  0.00     0.141 A 
HETATM    8  O2  UNL     1       0.164   1.619  -0.734  1.00  0.00    -0.190 OA
HETATM    9  O4  UNL     1      -0.639  -2.639   1.194  1.00  0.00    -0.190 OA
ENDROOT
BRANCH   6  10
HETATM   10  C8  UNL     1      -1.646  -0.281   0.119  1.00  0.00     0.192 C 
HETATM   11  O3  UNL     1      -2.407  -1.193   0.360  1.00  0.00    -0.287 OA
BRANCH  10  12
HETATM   12  C9  UNL     1      -2.454   0.971  -0.288  1.00  0.00    -0.004 C 
HETATM   13  C10 UNL     1      -2.196   2.281   0.479  1.00  0.00     0.030 C 
HETATM   14  C11 UNL     1      -2.661   1.131  -1.804  1.00  0.00     0.030 C 
ENDBRANCH  10  12
ENDBRANCH   6  10
BRANCH   4  15
HETATM   15  C12 UNL     1       1.994  -3.068   1.265  1.00  0.00     0.238 C 
HETATM   16  O5  UNL     1       1.373  -4.027   1.661  1.00  0.00    -0.283 OA
ENDBRANCH   4  15
BRANCH   1  17
HETATM   17  C1  UNL     1       2.839   1.163  -0.505  1.00  0.00     0.238 C 
HETATM   18  O6  UNL     1       2.598   2.263  -0.937  1.00  0.00    -0.283 OA
ENDBRANCH   1  17
TORSDOF 4
