REMARK  0 active torsions:
REMARK  status: ('A' for Active; 'I' for Inactive)
ROOT
HETATM    1  C1  UNL     1      -5.003  -0.883   0.228  1.00  0.00     0.304 A 
HETATM    2  O1  UNL     1      -4.090  -1.914  -0.151  1.00  0.00    -0.300 OA
HETATM    3  C2  UNL     1      -2.959  -1.440  -0.088  1.00  0.00     0.119 A 
HETATM    4  C3  UNL     1      -2.985  -0.164   0.304  1.00  0.00     0.119 A 
HETATM    5  O2  UNL     1      -4.135   0.220   0.499  1.00  0.00    -0.300 OA
HETATM    6  C4  UNL     1      -1.854   0.539   0.434  1.00  0.00     0.022 A 
HETATM    7  C5  UNL     1      -0.677  -0.064   0.178  1.00  0.00    -0.015 A 
HETATM    8  C6  UNL     1      -0.655  -1.343  -0.258  1.00  0.00     0.009 A 
HETATM    9  C7  UNL     1      -1.800  -2.041  -0.381  1.00  0.00     0.024 A 
HETATM   10  C8  UNL     1       0.654  -2.006  -0.637  1.00  0.00     0.277 C 
HETATM   11  N1  UNL     1       1.743  -1.047  -0.769  1.00  0.00     0.143 N 
HETATM   12  C9  UNL     1       1.839  -0.252   0.444  1.00  0.00     0.232 C 
HETATM   13  C10 UNL     1       0.631   0.695   0.279  1.00  0.00     0.093 C 
HETATM   14  C11 UNL     1       0.708   1.772   1.328  1.00  0.00    -0.021 C 
HETATM   15  C12 UNL     1       1.831   2.495   1.278  1.00  0.00    -0.001 C 
HETATM   16  C13 UNL     1       2.772   2.059   0.185  1.00  0.00     0.139 C 
HETATM   17  C14 UNL     1       3.135   0.596   0.462  1.00  0.00     0.068 C 
HETATM   18  O3  UNL     1       2.086   2.142  -1.044  1.00  0.00    -0.352 OA
HETATM   19  C15 UNL     1       1.030   1.213  -1.115  1.00  0.00     0.158 C 
HETATM   20  C16 UNL     1       1.503  -0.068  -1.825  1.00  0.00     0.281 C 
ENDROOT
TORSDOF 0
