REMARK  4 active torsions:
REMARK  status: ('A' for Active; 'I' for Inactive)
REMARK    1  A    between atoms: C7_7  and  O1_8 
REMARK    2  A    between atoms: O1_8  and  C8_9 
REMARK    3  A    between atoms: C8_9  and  C9_10 
REMARK    4  A    between atoms: C9_10  and  C10_11 
ROOT
HETATM    1  O1  UNL     1      -0.050   0.774  -0.723  1.00  0.00    -0.301 OA
ENDROOT
BRANCH   1   2
HETATM    2  C7  UNL     1      -1.443   0.611  -0.705  1.00  0.00     0.129 C 
HETATM    3  C1  UNL     1      -1.908  -0.246   0.491  1.00  0.00     0.066 C 
HETATM    4  C2  UNL     1      -3.183   0.253   1.197  1.00  0.00     0.251 C 
HETATM    5  C3  UNL     1      -4.469   0.190   0.370  1.00  0.00     0.176 A 
HETATM    6  N1  UNL     1      -3.124   1.683   1.449  1.00  0.00     0.140 N 
HETATM    7  C4  UNL     1      -4.560   1.415  -0.301  1.00  0.00     0.176 A 
HETATM    8  O3  UNL     1      -4.228   0.179  -1.144  1.00  0.00    -0.350 OA
HETATM    9  C5  UNL     1      -3.325   2.218   0.113  1.00  0.00     0.251 C 
HETATM   10  C6  UNL     1      -2.076   2.018  -0.766  1.00  0.00     0.066 C 
HETATM   11  C17 UNL     1      -1.962   2.163   2.170  1.00  0.00     0.285 C 
ENDBRANCH   1   2
BRANCH   1  12
HETATM   12  C8  UNL     1       0.788  -0.316  -0.736  1.00  0.00     0.296 C 
HETATM   13  O2  UNL     1       0.260  -1.389  -0.914  1.00  0.00    -0.259 OA
BRANCH  12  14
HETATM   14  C9  UNL     1       2.141  -0.183  -0.524  1.00  0.00     0.063 C 
HETATM   15  C16 UNL     1       2.538   1.100  -0.358  1.00  0.00     0.005 C 
BRANCH  14  16
HETATM   16  C10 UNL     1       3.024  -1.225  -0.473  1.00  0.00     0.005 A 
HETATM   17  C11 UNL     1       2.696  -2.534  -0.589  1.00  0.00     0.000 A 
HETATM   18  C12 UNL     1       3.579  -3.543  -0.525  1.00  0.00     0.000 A 
HETATM   19  C13 UNL     1       4.880  -3.296  -0.338  1.00  0.00     0.000 A 
HETATM   20  C14 UNL     1       5.260  -2.020  -0.220  1.00  0.00     0.000 A 
HETATM   21  C15 UNL     1       4.352  -1.032  -0.286  1.00  0.00     0.000 A 
ENDBRANCH  14  16
ENDBRANCH  12  14
ENDBRANCH   1  12
TORSDOF 4
