REMARK  12 active torsions:
REMARK  status: ('A' for Active; 'I' for Inactive)
REMARK    1  A    between atoms: C1_1  and  C7_8 
REMARK    2  A    between atoms: C7_8  and  C8_9 
REMARK    3  A    between atoms: C8_9  and  C9_10 
REMARK    4  A    between atoms: C9_10  and  C10_11 
REMARK    5  A    between atoms: C10_11  and  C11_12 
REMARK    6  A    between atoms: C11_12  and  C12_13 
REMARK    7  A    between atoms: C12_13  and  C13_14 
REMARK    8  A    between atoms: C13_14  and  C14_15 
REMARK    9  A    between atoms: C14_15  and  C15_16 
REMARK   10  A    between atoms: C15_16  and  C16_17 
REMARK   11  A    between atoms: C16_17  and  C17_18 
REMARK   12  A    between atoms: C17_18  and  C18_19 
ROOT
HETATM    1  C13 UNL     1      -0.189   1.229  -0.795  1.00  0.00     0.000 C 
ENDROOT
BRANCH   1   2
HETATM    2  C12 UNL     1      -1.117   0.231  -0.085  1.00  0.00     0.000 C 
BRANCH   2   3
HETATM    3  C11 UNL     1      -0.524  -1.187  -0.065  1.00  0.00     0.000 C 
BRANCH   3   4
HETATM    4  C10 UNL     1      -1.499  -2.221   0.520  1.00  0.00     0.000 C 
BRANCH   4   5
HETATM    5  C9  UNL     1      -0.808  -3.573   0.766  1.00  0.00     0.000 C 
BRANCH   5   6
HETATM    6  C8  UNL     1      -1.792  -4.657   1.244  1.00  0.00     0.005 C 
BRANCH   6   7
HETATM    7  C7  UNL     1      -1.062  -5.953   1.623  1.00  0.00     0.028 C 
BRANCH   7   8
HETATM    8  C1  UNL     1      -1.818  -7.197   2.075  1.00  0.00     0.003 A 
HETATM    9  C2  UNL     1      -1.045  -8.253   2.404  1.00  0.00    -0.002 A 
HETATM   10  C3  UNL     1      -1.553  -9.423   2.814  1.00  0.00    -0.000 A 
HETATM   11  C4  UNL     1      -2.881  -9.558   2.905  1.00  0.00     0.002 A 
HETATM   12  C5  UNL     1      -3.660  -8.517   2.583  1.00  0.00     0.027 A 
HETATM   13  C6  UNL     1      -3.160  -7.338   2.166  1.00  0.00     0.127 A 
HETATM   14  O1  UNL     1      -4.046  -6.348   1.876  1.00  0.00    -0.191 OA
ENDBRANCH   7   8
ENDBRANCH   6   7
ENDBRANCH   5   6
ENDBRANCH   4   5
ENDBRANCH   3   4
ENDBRANCH   2   3
ENDBRANCH   1   2
BRANCH   1  15
HETATM   15  C14 UNL     1      -0.597   2.688  -0.537  1.00  0.00     0.001 C 
BRANCH  15  16
HETATM   16  C15 UNL     1       0.216   3.675  -1.391  1.00  0.00     0.008 C 
BRANCH  16  17
HETATM   17  C16 UNL     1       0.064   5.126  -0.899  1.00  0.00     0.069 C 
BRANCH  17  18
HETATM   18  C17 UNL     1       0.737   6.131  -1.831  1.00  0.00     0.177 C 
HETATM   19  O5  UNL     1      -0.051   6.601  -2.624  1.00  0.00    -0.291 OA
BRANCH  18  20
HETATM   20  C18 UNL     1       2.058   6.497  -1.818  1.00  0.00     0.086 A 
HETATM   21  C19 UNL     1       2.468   7.434  -2.712  1.00  0.00     0.138 A 
HETATM   22  C20 UNL     1       3.756   7.817  -2.737  1.00  0.00     0.055 A 
HETATM   23  O4  UNL     1       1.645   8.040  -3.618  1.00  0.00    -0.190 OA
HETATM   24  C21 UNL     1       4.680   7.313  -1.913  1.00  0.00     0.135 A 
HETATM   25  C22 UNL     1       4.252   6.396  -1.038  1.00  0.00     0.055 A 
HETATM   26  O3  UNL     1       5.982   7.703  -1.960  1.00  0.00    -0.190 OA
HETATM   27  C23 UNL     1       2.974   5.983  -0.959  1.00  0.00     0.138 A 
HETATM   28  O2  UNL     1       2.730   5.025  -0.023  1.00  0.00    -0.190 OA
ENDBRANCH  18  20
ENDBRANCH  17  18
ENDBRANCH  16  17
ENDBRANCH  15  16
ENDBRANCH   1  15
TORSDOF 12
