REMARK  14 active torsions:
REMARK  status: ('A' for Active; 'I' for Inactive)
REMARK    1  A    between atoms: C1_1  and  C9_12 
REMARK    2  A    between atoms: C6_6  and  O1_7 
REMARK    3  A    between atoms: O1_7  and  C7_8 
REMARK    4  A    between atoms: C9_12  and  C10_13 
REMARK    5  A    between atoms: C10_13  and  C11_14 
REMARK    6  A    between atoms: C11_14  and  C12_15 
REMARK    7  A    between atoms: C12_15  and  C13_16 
REMARK    8  A    between atoms: C13_16  and  C14_17 
REMARK    9  A    between atoms: C14_17  and  C15_18 
REMARK   10  A    between atoms: C15_18  and  C16_19 
REMARK   11  A    between atoms: C16_19  and  C17_20 
REMARK   12  A    between atoms: C17_20  and  C18_21 
REMARK   13  A    between atoms: C18_21  and  C19_22 
REMARK   14  A    between atoms: C19_22  and  C20_23 
ROOT
HETATM    1  C13 UNL     1       0.013  -0.709  -0.355  1.00  0.00     0.000 C 
ENDROOT
BRANCH   1   2
HETATM    2  C12 UNL     1      -0.904  -1.750   0.305  1.00  0.00     0.000 C 
BRANCH   2   3
HETATM    3  C11 UNL     1      -0.228  -3.128   0.408  1.00  0.00     0.000 C 
BRANCH   3   4
HETATM    4  C10 UNL     1      -1.200  -4.187   0.958  1.00  0.00     0.005 C 
BRANCH   4   5
HETATM    5  C9  UNL     1      -0.527  -5.551   1.175  1.00  0.00     0.030 C 
BRANCH   5   6
HETATM    6  C1  UNL     1      -1.281  -6.716   1.820  1.00  0.00     0.026 A 
HETATM    7  C2  UNL     1      -0.520  -7.762   2.222  1.00  0.00     0.129 A 
HETATM    8  C3  UNL     1      -1.097  -8.832   2.790  1.00  0.00     0.027 A 
HETATM    9  O3  UNL     1       0.834  -7.767   2.060  1.00  0.00    -0.190 OA
HETATM   10  C4  UNL     1      -2.422  -8.886   2.958  1.00  0.00     0.004 A 
HETATM   11  C5  UNL     1      -3.166  -7.850   2.555  1.00  0.00     0.025 A 
HETATM   12  C6  UNL     1      -2.624  -6.747   2.000  1.00  0.00     0.101 A 
BRANCH  12  13
HETATM   13  O1  UNL     1      -3.435  -5.720   1.599  1.00  0.00    -0.277 OA
BRANCH  13  14
HETATM   14  C7  UNL     1      -4.384  -5.265   2.462  1.00  0.00     0.277 C 
HETATM   15  C8  UNL     1      -5.380  -4.393   1.725  1.00  0.00     0.107 C 
HETATM   16  O2  UNL     1      -4.399  -5.471   3.655  1.00  0.00    -0.264 OA
ENDBRANCH  13  14
ENDBRANCH  12  13
ENDBRANCH   5   6
ENDBRANCH   4   5
ENDBRANCH   3   4
ENDBRANCH   2   3
ENDBRANCH   1   2
BRANCH   1  17
HETATM   17  C14 UNL     1      -0.592   0.703  -0.309  1.00  0.00     0.000 C 
BRANCH  17  18
HETATM   18  C15 UNL     1       0.262   1.710  -1.095  1.00  0.00     0.000 C 
BRANCH  18  19
HETATM   19  C16 UNL     1      -0.211   3.159  -0.895  1.00  0.00     0.001 C 
BRANCH  19  20
HETATM   20  C17 UNL     1       0.574   4.134  -1.786  1.00  0.00     0.008 C 
BRANCH  20  21
HETATM   21  C18 UNL     1       0.258   5.605  -1.464  1.00  0.00     0.069 C 
BRANCH  21  22
HETATM   22  C19 UNL     1       1.073   6.557  -2.338  1.00  0.00     0.177 C 
HETATM   23  O7  UNL     1       0.454   6.908  -3.321  1.00  0.00    -0.291 OA
BRANCH  22  24
HETATM   24  C20 UNL     1       2.349   6.990  -2.085  1.00  0.00     0.086 A 
HETATM   25  C21 UNL     1       2.915   7.856  -2.965  1.00  0.00     0.138 A 
HETATM   26  C22 UNL     1       4.164   8.305  -2.753  1.00  0.00     0.055 A 
HETATM   27  O6  UNL     1       2.292   8.322  -4.087  1.00  0.00    -0.190 OA
HETATM   28  C23 UNL     1       4.900   7.936  -1.699  1.00  0.00     0.135 A 
HETATM   29  C24 UNL     1       4.322   7.082  -0.848  1.00  0.00     0.055 A 
HETATM   30  O5  UNL     1       6.167   8.391  -1.504  1.00  0.00    -0.190 OA
HETATM   31  C25 UNL     1       3.073   6.607  -1.002  1.00  0.00     0.138 A 
HETATM   32  O4  UNL     1       2.665   5.724  -0.049  1.00  0.00    -0.190 OA
ENDBRANCH  22  24
ENDBRANCH  21  22
ENDBRANCH  20  21
ENDBRANCH  19  20
ENDBRANCH  18  19
ENDBRANCH  17  18
ENDBRANCH   1  17
TORSDOF 14
