REMARK  17 active torsions:
REMARK  status: ('A' for Active; 'I' for Inactive)
REMARK    1  A    between atoms: C1_1  and  O7_35 
REMARK    2  A    between atoms: C5_5  and  C7_8 
REMARK    3  A    between atoms: C7_8  and  C8_9 
REMARK    4  A    between atoms: C8_9  and  C9_10 
REMARK    5  A    between atoms: C9_10  and  C10_11 
REMARK    6  A    between atoms: C10_11  and  C11_12 
REMARK    7  A    between atoms: C11_12  and  C12_13 
REMARK    8  A    between atoms: C12_13  and  C13_14 
REMARK    9  A    between atoms: C13_14  and  C14_15 
REMARK   10  A    between atoms: C15_16  and  C16_17 
REMARK   11  A    between atoms: C16_17  and  C17_18 
REMARK   12  A    between atoms: C17_18  and  C18_19 
REMARK   13  A    between atoms: C18_19  and  C19_20 
REMARK   14  A    between atoms: C19_20  and  C20_21 
REMARK   15  A    between atoms: C20_21  and  C21_22 
REMARK   16  A    between atoms: C21_22  and  C22_23 
REMARK   17  A    between atoms: C22_23  and  C23_24 
ROOT
HETATM    1  C13 UNL     1      -1.082  -2.236   1.239  1.00  0.00     0.026 C 
ENDROOT
BRANCH   1   2
HETATM    2  C12 UNL     1      -2.220  -1.245   0.953  1.00  0.00     0.005 C 
BRANCH   2   3
HETATM    3  C11 UNL     1      -1.720   0.152   0.540  1.00  0.00     0.000 C 
BRANCH   3   4
HETATM    4  C10 UNL     1      -2.869   1.136   0.256  1.00  0.00     0.000 C 
BRANCH   4   5
HETATM    5  C9  UNL     1      -3.631   0.811  -1.042  1.00  0.00     0.000 C 
BRANCH   5   6
HETATM    6  C8  UNL     1      -5.163   0.906  -0.922  1.00  0.00     0.005 C 
BRANCH   6   7
HETATM    7  C7  UNL     1      -5.755  -0.064   0.118  1.00  0.00     0.032 C 
BRANCH   7   8
HETATM    8  C5  UNL     1      -7.235  -0.338  -0.100  1.00  0.00     0.047 A 
HETATM    9  C4  UNL     1      -7.661  -1.548  -0.514  1.00  0.00     0.169 A 
HETATM   10  C3  UNL     1      -8.987  -1.774  -0.704  1.00  0.00     0.223 A 
HETATM   11  O5  UNL     1      -6.821  -2.590  -0.772  1.00  0.00    -0.187 OA
HETATM   12  C2  UNL     1      -9.834  -0.745  -0.470  1.00  0.00     0.072 A 
HETATM   13  O6  UNL     1      -9.410  -2.845  -1.078  1.00  0.00    -0.284 OA
HETATM   14  C1  UNL     1      -9.449   0.472  -0.048  1.00  0.00     0.136 A 
HETATM   15  C6  UNL     1      -8.114   0.674   0.138  1.00  0.00     0.216 A 
HETATM   16  O1  UNL     1      -7.684   1.740   0.517  1.00  0.00    -0.285 OA
BRANCH  14  17
HETATM   17  O7  UNL     1     -10.425   1.434   0.102  1.00  0.00    -0.325 OA
HETATM   18  C29 UNL     1     -10.089   2.800   0.142  1.00  0.00     0.181 C 
ENDBRANCH  14  17
ENDBRANCH   7   8
ENDBRANCH   6   7
ENDBRANCH   5   6
ENDBRANCH   4   5
ENDBRANCH   3   4
ENDBRANCH   2   3
ENDBRANCH   1   2
BRANCH   1  19
HETATM   19  C14 UNL     1      -0.246  -2.478   0.007  1.00  0.00    -0.031 C 
HETATM   20  C15 UNL     1       0.967  -1.965  -0.252  1.00  0.00    -0.031 C 
BRANCH  20  21
HETATM   21  C16 UNL     1       1.757  -1.033   0.633  1.00  0.00     0.026 C 
BRANCH  21  22
HETATM   22  C17 UNL     1       2.250   0.199  -0.142  1.00  0.00     0.005 C 
BRANCH  22  23
HETATM   23  C18 UNL     1       3.067   1.138   0.762  1.00  0.00     0.000 C 
BRANCH  23  24
HETATM   24  C19 UNL     1       3.777   2.252  -0.030  1.00  0.00     0.000 C 
BRANCH  24  25
HETATM   25  C20 UNL     1       5.081   2.736   0.631  1.00  0.00     0.000 C 
BRANCH  25  26
HETATM   26  C21 UNL     1       6.345   1.979   0.171  1.00  0.00     0.005 C 
BRANCH  26  27
HETATM   27  C22 UNL     1       6.302   0.466   0.434  1.00  0.00     0.029 C 
BRANCH  27  28
HETATM   28  C23 UNL     1       7.506  -0.379   0.060  1.00  0.00     0.007 A 
HETATM   29  C24 UNL     1       7.481  -1.703   0.323  1.00  0.00     0.152 A 
HETATM   30  C25 UNL     1       8.530  -2.478  -0.005  1.00  0.00     0.158 A 
HETATM   31  O4  UNL     1       6.401  -2.284   0.915  1.00  0.00    -0.188 OA
HETATM   32  C26 UNL     1       9.599  -1.921  -0.595  1.00  0.00     0.057 A 
HETATM   33  O3  UNL     1       8.490  -3.812   0.263  1.00  0.00    -0.188 OA
HETATM   34  C27 UNL     1       9.655  -0.609  -0.870  1.00  0.00     0.133 A 
HETATM   35  C28 UNL     1       8.595   0.141  -0.533  1.00  0.00     0.025 A 
HETATM   36  O2  UNL     1      10.742  -0.055  -1.472  1.00  0.00    -0.190 OA
ENDBRANCH  27  28
ENDBRANCH  26  27
ENDBRANCH  25  26
ENDBRANCH  24  25
ENDBRANCH  23  24
ENDBRANCH  22  23
ENDBRANCH  21  22
ENDBRANCH  20  21
ENDBRANCH   1  19
TORSDOF 17
