REMARK  3 active torsions:
REMARK  status: ('A' for Active; 'I' for Inactive)
REMARK    1  A    between atoms: C9_10  and  C12_14 
REMARK    2  A    between atoms: C12_14  and  C13_15 
REMARK    3  A    between atoms: C13_15  and  O1_16 
ROOT
HETATM    1  C1  UNL     1      -3.292   2.750   0.518  1.00  0.00     0.000 A 
HETATM    2  C2  UNL     1      -3.833   1.519   0.594  1.00  0.00     0.002 A 
HETATM    3  C3  UNL     1      -3.055   0.423   0.641  1.00  0.00     0.019 A 
HETATM    4  C4  UNL     1      -1.730   0.600   0.609  1.00  0.00     0.081 A 
HETATM    5  C5  UNL     1      -1.191   1.827   0.531  1.00  0.00     0.019 A 
HETATM    6  C6  UNL     1      -1.959   2.921   0.485  1.00  0.00     0.002 A 
HETATM    7  C7  UNL     1       0.134   1.643   0.511  1.00  0.00     0.022 A 
HETATM    8  C8  UNL     1       0.341   0.322   0.580  1.00  0.00     0.097 A 
HETATM    9  N1  UNL     1      -0.789  -0.253   0.638  1.00  0.00    -0.244 NA
HETATM   10  C9  UNL     1       1.585  -0.176   0.572  1.00  0.00     0.109 A 
HETATM   11  N2  UNL     1       2.578   0.612   0.489  1.00  0.00    -0.244 NA
HETATM   12  C10 UNL     1       2.388   1.866   0.428  1.00  0.00     0.099 A 
HETATM   13  C11 UNL     1       1.185   2.466   0.435  1.00  0.00     0.022 A 
ENDROOT
BRANCH  10  14
HETATM   14  C12 UNL     1       1.872  -1.661   0.634  1.00  0.00     0.223 C 
HETATM   15  O2  UNL     1       3.118  -1.935   1.254  1.00  0.00    -0.214 OA
BRANCH  14  16
HETATM   16  C13 UNL     1       1.860  -2.286  -0.754  1.00  0.00     0.181 C 
BRANCH  16  17
HETATM   17  O1  UNL     1       0.571  -2.157  -1.302  1.00  0.00    -0.348 OA
HETATM   18  C14 UNL     1       0.477  -2.713  -2.595  1.00  0.00     0.174 C 
ENDBRANCH  16  17
ENDBRANCH  14  16
ENDBRANCH  10  14
TORSDOF 3
