REMARK  9 active torsions:
REMARK  status: ('A' for Active; 'I' for Inactive)
REMARK    1  A    between atoms: C15_15  and  C20_22 
REMARK    2  A    between atoms: C16_16  and  O1_18 
REMARK    3  A    between atoms: O1_18  and  C18_19 
REMARK    4  A    between atoms: C20_22  and  C22_24 
REMARK    5  A    between atoms: C22_24  and  C23_25 
REMARK    6  A    between atoms: C23_25  and  C24_26 
REMARK    7  A    between atoms: C24_26  and  C25_27 
REMARK    8  A    between atoms: C24_26  and  O3_30 
REMARK    9  A    between atoms: O3_30  and  C28_31 
ROOT
HETATM    1  C1  UNL     1      -4.767  -1.644  -5.108  1.00  0.00     0.065 C 
HETATM    2  C2  UNL     1      -5.763  -2.080  -4.040  1.00  0.00     0.150 C 
HETATM    3  C3  UNL     1      -5.234  -2.947  -2.887  1.00  0.00     0.051 C 
HETATM    4  C4  UNL     1      -3.747  -2.560  -2.661  1.00  0.00     0.006 C 
HETATM    5  C5  UNL     1      -3.481  -1.095  -3.002  1.00  0.00     0.001 A 
HETATM    6  C6  UNL     1      -3.587  -0.855  -4.508  1.00  0.00     0.008 C 
HETATM    7  C7  UNL     1      -2.591  -0.266  -2.086  1.00  0.00     0.000 A 
HETATM    8  C8  UNL     1      -2.217  -0.782  -0.687  1.00  0.00     0.000 C 
HETATM    9  C9  UNL     1      -2.927  -2.089  -0.272  1.00  0.00     0.000 C 
HETATM   10  C10 UNL     1      -3.062  -3.114  -1.401  1.00  0.00     0.000 C 
HETATM   11  C11 UNL     1      -0.693  -0.725  -0.420  1.00  0.00     0.002 C 
HETATM   12  C12 UNL     1      -0.150   0.729  -0.657  1.00  0.00     0.002 C 
HETATM   13  C13 UNL     1      -0.238   0.941  -2.181  1.00  0.00     0.000 C 
HETATM   14  C14 UNL     1      -1.687   0.814  -2.698  1.00  0.00     0.000 C 
HETATM   15  C15 UNL     1       1.267   0.678  -0.004  1.00  0.00     0.028 C 
HETATM   16  C16 UNL     1       1.010  -0.181   1.258  1.00  0.00     0.124 C 
HETATM   17  C17 UNL     1      -0.292  -0.966   1.046  1.00  0.00     0.030 C 
HETATM   18  C30 UNL     1      -0.959   1.850   0.047  1.00  0.00     0.000 C 
HETATM   19  C31 UNL     1       0.001  -1.820  -1.270  1.00  0.00     0.000 C 
HETATM   20  C32 UNL     1      -4.082   0.012  -2.177  1.00  0.00     0.000 A 
HETATM   21  C33 UNL     1      -5.366  -4.419  -3.337  1.00  0.00     0.007 C 
HETATM   22  C34 UNL     1      -6.134  -2.757  -1.649  1.00  0.00     0.007 C 
HETATM   23  O5  UNL     1      -6.934  -1.788  -4.136  1.00  0.00    -0.296 OA
ENDROOT
BRANCH  15  24
HETATM   24  C20 UNL     1       2.114   1.966   0.222  1.00  0.00     0.002 C 
HETATM   25  C21 UNL     1       2.229   2.824  -1.058  1.00  0.00     0.000 C 
BRANCH  24  26
HETATM   26  C22 UNL     1       3.572   1.700   0.703  1.00  0.00     0.003 C 
BRANCH  26  27
HETATM   27  C23 UNL     1       3.755   1.388   2.196  1.00  0.00     0.035 C 
BRANCH  27  28
HETATM   28  C24 UNL     1       5.194   1.478   2.720  1.00  0.00     0.143 C 
BRANCH  28  29
HETATM   29  C25 UNL     1       5.797   2.865   2.588  1.00  0.00    -0.017 C 
HETATM   30  C26 UNL     1       6.944   3.068   1.920  1.00  0.00    -0.007 C 
HETATM   31  C27 UNL     1       5.071   4.013   3.249  1.00  0.00     0.029 C 
ENDBRANCH  28  29
BRANCH  28  32
HETATM   32  O3  UNL     1       5.166   1.068   4.068  1.00  0.00    -0.300 OA
BRANCH  32  33
HETATM   33  C28 UNL     1       6.341   0.720   4.655  1.00  0.00     0.273 C 
HETATM   34  C29 UNL     1       6.094   0.296   6.089  1.00  0.00     0.106 C 
HETATM   35  O4  UNL     1       7.423   0.734   4.114  1.00  0.00    -0.264 OA
ENDBRANCH  32  33
ENDBRANCH  28  32
ENDBRANCH  27  28
ENDBRANCH  26  27
ENDBRANCH  24  26
ENDBRANCH  15  24
BRANCH  16  36
HETATM   36  O1  UNL     1       0.882   0.620   2.398  1.00  0.00    -0.304 OA
BRANCH  36  37
HETATM   37  C18 UNL     1       0.857  -0.003   3.607  1.00  0.00     0.272 C 
HETATM   38  C19 UNL     1       0.721   1.020   4.716  1.00  0.00     0.106 C 
HETATM   39  O2  UNL     1       0.940  -1.198   3.778  1.00  0.00    -0.264 OA
ENDBRANCH  36  37
ENDBRANCH  16  36
TORSDOF 9
