REMARK  2 active torsions:
REMARK  status: ('A' for Active; 'I' for Inactive)
REMARK    1  A    between atoms: C2_2  and  O5_26 
REMARK    2  A    between atoms: C3_3  and  O4_24 
ROOT
HETATM    1  C1  UNL     1      -3.619  -0.476   0.167  1.00  0.00     0.026 A 
HETATM    2  C2  UNL     1      -3.554  -0.449  -1.173  1.00  0.00     0.116 A 
HETATM    3  C3  UNL     1      -2.338  -0.273  -1.751  1.00  0.00     0.119 A 
HETATM    4  C4  UNL     1      -1.220  -0.046  -1.003  1.00  0.00     0.063 A 
HETATM    5  C5  UNL     1      -1.339   0.012   0.348  1.00  0.00     0.003 A 
HETATM    6  C6  UNL     1      -2.537  -0.227   0.907  1.00  0.00     0.002 A 
HETATM    7  C7  UNL     1      -0.305   0.564   1.312  1.00  0.00     0.009 C 
HETATM    8  C8  UNL     1       0.255  -0.270   2.479  1.00  0.00     0.277 C 
HETATM    9  N1  UNL     1       0.985  -1.504   2.232  1.00  0.00     0.148 N 
HETATM   10  C9  UNL     1       2.280  -1.393   1.557  1.00  0.00     0.277 C 
HETATM   11  C10 UNL     1       2.628  -0.012   1.012  1.00  0.00     0.013 A 
HETATM   12  C11 UNL     1       2.204   0.423  -0.201  1.00  0.00     0.003 A 
HETATM   13  C12 UNL     1       1.303  -0.422  -1.066  1.00  0.00     0.042 C 
HETATM   14  C13 UNL     1      -0.018   0.094  -1.653  1.00  0.00     0.198 C 
HETATM   15  O1  UNL     1       0.093   0.344  -2.834  1.00  0.00    -0.286 OA
HETATM   16  C14 UNL     1       2.568   1.635  -0.662  1.00  0.00     0.026 A 
HETATM   17  C15 UNL     1       3.356   2.409   0.093  1.00  0.00     0.119 A 
HETATM   18  C16 UNL     1       3.775   1.988   1.289  1.00  0.00     0.119 A 
HETATM   19  C17 UNL     1       3.421   0.786   1.756  1.00  0.00     0.024 A 
HETATM   20  O2  UNL     1       4.486   2.828   1.834  1.00  0.00    -0.300 OA
HETATM   21  C18 UNL     1       4.586   3.942   0.946  1.00  0.00     0.304 A 
HETATM   22  O3  UNL     1       3.784   3.531  -0.163  1.00  0.00    -0.300 OA
HETATM   23  C19 UNL     1       0.138  -2.558   1.698  1.00  0.00     0.286 C 
ENDROOT
BRANCH   2  24
HETATM   24  O5  UNL     1      -4.642  -0.679  -1.986  1.00  0.00    -0.326 OA
HETATM   25  C21 UNL     1      -5.814  -1.227  -1.428  1.00  0.00     0.181 C 
ENDBRANCH   2  24
BRANCH   3  26
HETATM   26  O4  UNL     1      -2.333  -0.268  -3.131  1.00  0.00    -0.326 OA
HETATM   27  C20 UNL     1      -2.091  -1.531  -3.714  1.00  0.00     0.181 C 
ENDBRANCH   3  26
TORSDOF 2
