REMARK  0 active torsions:
REMARK  status: ('A' for Active; 'I' for Inactive)
ROOT
HETATM    1  C1  UNL     1       0.578   1.905  -0.706  1.00  0.00     0.116 A 
HETATM    2  C2  UNL     1      -0.711   1.175  -0.718  1.00  0.00     0.125 A 
HETATM    3  C3  UNL     1      -0.851  -0.333  -0.468  1.00  0.00     0.074 C 
HETATM    4  C4  UNL     1      -0.215  -0.868   0.810  1.00  0.00     0.135 C 
HETATM    5  C5  UNL     1       1.307  -0.985   0.689  1.00  0.00     0.056 C 
HETATM    6  C6  UNL     1       2.052   0.333   0.873  1.00  0.00     0.009 C 
HETATM    7  C7  UNL     1       1.911   1.248  -0.358  1.00  0.00     0.030 C 
HETATM    8  C8  UNL     1       1.573  -2.114   1.648  1.00  0.00     0.043 C 
HETATM    9  C9  UNL     1       0.393  -2.765   1.784  1.00  0.00     0.292 C 
HETATM   10  O1  UNL     1      -0.662  -2.146   1.183  1.00  0.00    -0.300 OA
HETATM   11  O2  UNL     1       0.268  -3.808   2.389  1.00  0.00    -0.260 OA
HETATM   12  C10 UNL     1       2.733  -2.485   2.203  1.00  0.00     0.001 C 
HETATM   13  C11 UNL     1      -2.359  -0.456  -0.565  1.00  0.00    -0.044 C 
HETATM   14  C12 UNL     1      -2.928   0.636  -1.093  1.00  0.00    -0.032 C 
HETATM   15  C13 UNL     1      -1.944   1.716  -1.436  1.00  0.00     0.055 C 
HETATM   16  C14 UNL     1      -3.118  -1.712  -0.246  1.00  0.00     0.026 C 
HETATM   17  O3  UNL     1      -0.329   1.997   0.405  1.00  0.00    -0.358 OA
HETATM   18  C15 UNL     1       0.696   3.169  -1.549  1.00  0.00     0.032 C 
ENDROOT
TORSDOF 0
