REMARK  14 active torsions:
REMARK  status: ('A' for Active; 'I' for Inactive)
REMARK    1  A    between atoms: C1_1  and  C29_48 
REMARK    2  A    between atoms: C3_3  and  O14_31 
REMARK    3  A    between atoms: C4_4  and  C5_6 
REMARK    4  A    between atoms: C4_4  and  O3_8 
REMARK    5  A    between atoms: O3_8  and  C6_9 
REMARK    6  A    between atoms: C9_12  and  O6_17 
REMARK    7  A    between atoms: C10_13  and  C11_14 
REMARK    8  A    between atoms: O6_17  and  C12_18 
REMARK    9  A    between atoms: C16_22  and  C17_23 
REMARK   10  A    between atoms: O14_31  and  C18_32 
REMARK   11  A    between atoms: C18_32  and  C19_33 
REMARK   12  A    between atoms: C20_34  and  C21_35 
REMARK   13  A    between atoms: C22_36  and  O17_44 
REMARK   14  A    between atoms: C25_39  and  O15_41 
ROOT
HETATM    1  C1  UNL     1      -2.369  -0.328  -4.305  1.00  0.00     0.184 C 
HETATM    2  C2  UNL     1      -2.054  -1.808  -4.190  1.00  0.00     0.214 C 
HETATM    3  C3  UNL     1      -0.700  -1.854  -3.497  1.00  0.00     0.211 C 
HETATM    4  C4  UNL     1      -0.317  -0.389  -3.292  1.00  0.00     0.249 C 
HETATM    5  O1  UNL     1      -1.162   0.357  -4.130  1.00  0.00    -0.328 OA
HETATM    6  O19 UNL     1      -1.942  -2.377  -5.475  1.00  0.00    -0.218 OA
ENDROOT
BRANCH   4   7
HETATM    7  C5  UNL     1       1.141  -0.160  -3.662  1.00  0.00     0.241 C 
HETATM    8  O2  UNL     1       1.960  -0.926  -2.801  1.00  0.00    -0.215 OA
ENDBRANCH   4   7
BRANCH   4   9
HETATM    9  O3  UNL     1      -0.575  -0.011  -1.960  1.00  0.00    -0.304 OA
BRANCH   9  10
HETATM   10  C6  UNL     1      -0.371   1.352  -1.634  1.00  0.00     0.272 C 
HETATM   11  C7  UNL     1       0.576   1.422  -0.459  1.00  0.00     0.241 C 
HETATM   12  C8  UNL     1       0.625   2.814   0.137  1.00  0.00     0.217 C 
HETATM   13  O13 UNL     1       0.136   0.504   0.515  1.00  0.00    -0.215 OA
HETATM   14  C9  UNL     1      -0.782   3.354   0.345  1.00  0.00     0.181 C 
HETATM   15  O12 UNL     1       1.344   3.663  -0.725  1.00  0.00    -0.218 OA
HETATM   16  C10 UNL     1      -1.699   3.134  -0.862  1.00  0.00     0.181 C 
HETATM   17  O5  UNL     1      -1.660   1.798  -1.278  1.00  0.00    -0.326 OA
BRANCH  14  18
HETATM   18  O6  UNL     1      -0.794   4.718   0.648  1.00  0.00    -0.326 OA
BRANCH  18  19
HETATM   19  C12 UNL     1      -0.136   5.101   1.836  1.00  0.00     0.270 C 
HETATM   20  C13 UNL     1      -0.919   6.262   2.403  1.00  0.00     0.241 C 
HETATM   21  C14 UNL     1      -0.158   6.952   3.518  1.00  0.00     0.220 C 
HETATM   22  O11 UNL     1      -1.164   7.164   1.348  1.00  0.00    -0.215 OA
HETATM   23  C15 UNL     1       1.264   7.245   3.074  1.00  0.00     0.215 C 
HETATM   24  O10 UNL     1      -0.141   6.114   4.649  1.00  0.00    -0.218 OA
HETATM   25  C16 UNL     1       1.947   6.064   2.394  1.00  0.00     0.184 C 
HETATM   26  O9  UNL     1       1.230   8.331   2.173  1.00  0.00    -0.218 OA
HETATM   27  O8  UNL     1       1.135   5.524   1.390  1.00  0.00    -0.326 OA
BRANCH  25  28
HETATM   28  C17 UNL     1       2.469   4.999   3.349  1.00  0.00     0.214 C 
HETATM   29  O7  UNL     1       3.177   4.017   2.619  1.00  0.00    -0.218 OA
ENDBRANCH  25  28
ENDBRANCH  18  19
ENDBRANCH  14  18
BRANCH  16  30
HETATM   30  C11 UNL     1      -1.541   4.087  -2.045  1.00  0.00     0.214 C 
HETATM   31  O4  UNL     1      -1.996   5.385  -1.708  1.00  0.00    -0.218 OA
ENDBRANCH  16  30
ENDBRANCH   9  10
ENDBRANCH   4   9
BRANCH   3  32
HETATM   32  O14 UNL     1      -0.777  -2.557  -2.286  1.00  0.00    -0.293 OA
BRANCH  32  33
HETATM   33  C18 UNL     1      -0.076  -3.721  -2.120  1.00  0.00     0.296 C 
HETATM   34  O18 UNL     1       0.514  -4.218  -3.056  1.00  0.00    -0.259 OA
BRANCH  33  35
HETATM   35  C19 UNL     1      -0.029  -4.322  -0.897  1.00  0.00     0.068 C 
HETATM   36  C20 UNL     1       0.670  -5.441  -0.625  1.00  0.00     0.007 C 
BRANCH  36  37
HETATM   37  C21 UNL     1       0.769  -6.109   0.549  1.00  0.00     0.025 A 
HETATM   38  C22 UNL     1       1.605  -7.175   0.641  1.00  0.00     0.096 A 
HETATM   39  C23 UNL     1       1.708  -7.767   1.848  1.00  0.00     0.054 A 
HETATM   40  C24 UNL     1       1.002  -7.400   2.927  1.00  0.00     0.155 A 
HETATM   41  C25 UNL     1       0.108  -6.404   2.812  1.00  0.00     0.119 A 
HETATM   42  O16 UNL     1       1.164  -8.027   4.124  1.00  0.00    -0.188 OA
HETATM   43  C26 UNL     1       0.059  -5.752   1.637  1.00  0.00     0.028 A 
BRANCH  38  44
HETATM   44  O17 UNL     1       2.352  -7.566  -0.451  1.00  0.00    -0.328 OA
HETATM   45  C28 UNL     1       3.328  -8.572  -0.306  1.00  0.00     0.181 C 
ENDBRANCH  38  44
BRANCH  41  46
HETATM   46  O15 UNL     1      -0.605  -5.982   3.905  1.00  0.00    -0.326 OA
HETATM   47  C27 UNL     1      -1.804  -6.697   4.108  1.00  0.00     0.181 C 
ENDBRANCH  41  46
ENDBRANCH  36  37
ENDBRANCH  33  35
ENDBRANCH  32  33
ENDBRANCH   3  32
BRANCH   1  48
HETATM   48  C29 UNL     1      -3.421   0.140  -3.308  1.00  0.00     0.214 C 
HETATM   49  O20 UNL     1      -4.674  -0.424  -3.637  1.00  0.00    -0.218 OA
ENDBRANCH   1  48
TORSDOF 14
