REMARK  0 active torsions:
REMARK  status: ('A' for Active; 'I' for Inactive)
ROOT
HETATM    1  C1  UNL     1      -1.067   2.430  -0.036  1.00  0.00     0.119 A 
HETATM    2  C2  UNL     1      -1.217   1.089  -0.072  1.00  0.00     0.119 A 
HETATM    3  C3  UNL     1      -0.167   0.241  -0.029  1.00  0.00     0.026 A 
HETATM    4  C4  UNL     1       1.000   0.891   0.038  1.00  0.00     0.030 A 
HETATM    5  C5  UNL     1       1.167   2.212   0.070  1.00  0.00     0.068 A 
HETATM    6  C6  UNL     1       0.125   3.047   0.036  1.00  0.00     0.032 A 
HETATM    7  C7  UNL     1       2.499   2.437   0.141  1.00  0.00     0.300 A 
HETATM    8  O1  UNL     1       3.124   1.165   0.145  1.00  0.00    -0.273 OA
HETATM    9  C8  UNL     1       2.212   0.339   0.088  1.00  0.00     0.103 A 
HETATM   10  C9  UNL     1       2.286  -0.996   0.074  1.00  0.00     0.025 A 
HETATM   11  C10 UNL     1       1.140  -1.708   0.010  1.00  0.00     0.002 A 
HETATM   12  C11 UNL     1      -0.082  -1.111  -0.039  1.00  0.00     0.002 A 
HETATM   13  C12 UNL     1      -1.164  -1.913  -0.091  1.00  0.00     0.000 A 
HETATM   14  C13 UNL     1      -1.060  -3.251  -0.103  1.00  0.00     0.000 A 
HETATM   15  C14 UNL     1       0.147  -3.827  -0.061  1.00  0.00     0.000 A 
HETATM   16  C15 UNL     1       1.238  -3.051  -0.003  1.00  0.00     0.000 A 
HETATM   17  O2  UNL     1       3.070   3.499   0.203  1.00  0.00    -0.259 OA
HETATM   18  O3  UNL     1      -2.411   0.800  -0.144  1.00  0.00    -0.300 OA
HETATM   19  C16 UNL     1      -3.166   2.011  -0.132  1.00  0.00     0.304 A 
HETATM   20  O4  UNL     1      -2.151   3.006  -0.076  1.00  0.00    -0.300 OA
ENDROOT
TORSDOF 0
