REMARK  4 active torsions:
REMARK  status: ('A' for Active; 'I' for Inactive)
REMARK    1  A    between atoms: N1_8  and  O2_19 
REMARK    2  A    between atoms: C15_16  and  O1_17 
REMARK    3  A    between atoms: O2_19  and  C17_20 
REMARK    4  A    between atoms: C18_22  and  C22_29 
ROOT
HETATM    1  C1  UNL     1      -0.569   4.628   0.492  1.00  0.00     0.119 A 
HETATM    2  C2  UNL     1       0.718   4.354   0.189  1.00  0.00     0.119 A 
HETATM    3  C3  UNL     1       1.185   3.092   0.069  1.00  0.00     0.026 A 
HETATM    4  C4  UNL     1       0.232   2.186   0.307  1.00  0.00     0.025 A 
HETATM    5  C5  UNL     1      -1.037   2.436   0.619  1.00  0.00     0.062 A 
HETATM    6  C6  UNL     1      -1.500   3.685   0.719  1.00  0.00     0.031 A 
HETATM    7  C7  UNL     1      -1.629   1.231   0.776  1.00  0.00     0.284 A 
HETATM    8  N1  UNL     1      -0.749   0.326   0.576  1.00  0.00    -0.179 N 
HETATM    9  C8  UNL     1       0.372   0.862   0.284  1.00  0.00     0.091 A 
HETATM   10  C9  UNL     1       1.587   0.383  -0.001  1.00  0.00     0.022 A 
HETATM   11  C10 UNL     1       2.603   1.237  -0.266  1.00  0.00     0.024 A 
HETATM   12  C11 UNL     1       2.403   2.585  -0.237  1.00  0.00     0.004 A 
HETATM   13  C12 UNL     1       3.444   3.387  -0.534  1.00  0.00     0.000 A 
HETATM   14  C13 UNL     1       4.639   2.885  -0.867  1.00  0.00     0.002 A 
HETATM   15  C14 UNL     1       4.811   1.560  -0.887  1.00  0.00     0.024 A 
HETATM   16  C15 UNL     1       3.824   0.713  -0.542  1.00  0.00     0.094 A 
HETATM   17  O8  UNL     1      -2.791   1.039   1.048  1.00  0.00    -0.265 OA
HETATM   18  O9  UNL     1       1.349   5.401   0.048  1.00  0.00    -0.300 OA
HETATM   19  C23 UNL     1       0.453   6.493   0.245  1.00  0.00     0.304 A 
HETATM   20  O10 UNL     1      -0.775   5.838   0.539  1.00  0.00    -0.300 OA
ENDROOT
BRANCH   8  21
HETATM   21  O2  UNL     1      -0.859  -0.939   0.931  1.00  0.00    -0.220 OA
BRANCH  21  22
HETATM   22  C17 UNL     1      -1.740  -1.714   0.145  1.00  0.00     0.295 C 
HETATM   23  O3  UNL     1      -2.445  -2.496   1.087  1.00  0.00    -0.325 OA
HETATM   24  C18 UNL     1      -3.398  -3.334   0.485  1.00  0.00     0.184 C 
HETATM   25  C19 UNL     1      -2.701  -4.295  -0.472  1.00  0.00     0.215 C 
HETATM   26  C20 UNL     1      -1.906  -3.525  -1.508  1.00  0.00     0.220 C 
HETATM   27  O6  UNL     1      -3.634  -5.096  -1.154  1.00  0.00    -0.218 OA
HETATM   28  C21 UNL     1      -0.950  -2.597  -0.792  1.00  0.00     0.243 C 
HETATM   29  O5  UNL     1      -1.187  -4.427  -2.309  1.00  0.00    -0.218 OA
HETATM   30  O4  UNL     1      -0.282  -1.800  -1.737  1.00  0.00    -0.215 OA
BRANCH  24  31
HETATM   31  C22 UNL     1      -4.144  -4.080   1.583  1.00  0.00     0.214 C 
HETATM   32  O7  UNL     1      -4.867  -3.166   2.384  1.00  0.00    -0.218 OA
ENDBRANCH  24  31
ENDBRANCH  21  22
ENDBRANCH   8  21
BRANCH  16  33
HETATM   33  O1  UNL     1       4.059  -0.639  -0.638  1.00  0.00    -0.328 OA
HETATM   34  C16 UNL     1       4.612  -1.204   0.530  1.00  0.00     0.181 C 
ENDBRANCH  16  33
TORSDOF 4
