REMARK  2 active torsions:
REMARK  status: ('A' for Active; 'I' for Inactive)
REMARK    1  A    between atoms: C10_11  and  O2_12 
REMARK    2  A    between atoms: O2_12  and  C11_13 
ROOT
HETATM    1  C1  UNL     1      -0.547   1.605  -0.139  1.00  0.00     0.032 C 
HETATM    2  C2  UNL     1      -0.552   0.074  -0.109  1.00  0.00     0.146 C 
HETATM    3  C3  UNL     1      -0.305  -0.410  -1.542  1.00  0.00     0.039 C 
HETATM    4  C4  UNL     1       0.684   0.515  -2.297  1.00  0.00     0.003 C 
HETATM    5  C5  UNL     1       1.602   1.376  -1.409  1.00  0.00     0.000 C 
HETATM    6  C6  UNL     1       0.834   2.226  -0.375  1.00  0.00     0.003 C 
HETATM    7  C7  UNL     1       0.699   3.691  -0.823  1.00  0.00     0.000 C 
HETATM    8  C8  UNL     1       0.091  -1.890  -1.476  1.00  0.00     0.089 C 
HETATM    9  C9  UNL     1       1.427  -1.997  -0.776  1.00  0.00     0.273 C 
HETATM   10  O1  UNL     1       1.497  -1.304   0.389  1.00  0.00    -0.273 OA
HETATM   11  C10 UNL     1       0.415  -0.555   0.909  1.00  0.00     0.274 C 
HETATM   12  O4  UNL     1       2.354  -2.649  -1.206  1.00  0.00    -0.264 OA
HETATM   13  C13 UNL     1       0.069  -2.584  -2.849  1.00  0.00     0.011 C 
HETATM   14  O5  UNL     1      -1.877  -0.192   0.260  1.00  0.00    -0.354 OA
HETATM   15  C14 UNL     1      -2.274   0.763   1.220  1.00  0.00     0.142 C 
HETATM   16  C15 UNL     1      -1.297   1.938   1.149  1.00  0.00     0.035 C 
ENDROOT
BRANCH  11  17
HETATM   17  O2  UNL     1      -0.236  -1.484   1.760  1.00  0.00    -0.273 OA
BRANCH  17  18
HETATM   18  C11 UNL     1       0.303  -1.729   2.986  1.00  0.00     0.274 C 
HETATM   19  C12 UNL     1      -0.570  -2.698   3.757  1.00  0.00     0.106 C 
HETATM   20  O3  UNL     1       1.316  -1.223   3.412  1.00  0.00    -0.264 OA
ENDBRANCH  17  18
ENDBRANCH  11  17
TORSDOF 2
