REMARK  0 active torsions:
REMARK  status: ('A' for Active; 'I' for Inactive)
ROOT
HETATM    1  C1  UNL     1       1.570   0.997   5.073  1.00  0.00     0.055 C 
HETATM    2  C2  UNL     1       0.723   0.579   3.874  1.00  0.00     0.125 A 
HETATM    3  C3  UNL     1       0.926   1.549   2.706  1.00  0.00     0.073 C 
HETATM    4  C4  UNL     1       1.447   2.749   3.472  1.00  0.00    -0.044 C 
HETATM    5  C5  UNL     1       1.800   2.438   4.727  1.00  0.00    -0.032 C 
HETATM    6  C6  UNL     1       1.700   4.096   2.856  1.00  0.00     0.026 C 
HETATM    7  C7  UNL     1      -0.272   1.792   1.788  1.00  0.00     0.131 C 
HETATM    8  C8  UNL     1      -0.484   0.644   0.806  1.00  0.00     0.038 C 
HETATM    9  C9  UNL     1      -1.208  -0.533   1.470  1.00  0.00     0.005 C 
HETATM   10  C10 UNL     1      -0.287  -1.357   2.389  1.00  0.00     0.030 C 
HETATM   11  C11 UNL     1       0.190  -0.794   3.724  1.00  0.00     0.116 A 
HETATM   12  O1  UNL     1      -0.636   0.264   4.239  1.00  0.00    -0.358 OA
HETATM   13  C12 UNL     1       0.600  -1.845   4.747  1.00  0.00     0.032 C 
HETATM   14  C13 UNL     1      -1.070   1.325  -0.449  1.00  0.00     0.086 C 
HETATM   15  C14 UNL     1      -0.598   2.760  -0.248  1.00  0.00     0.271 C 
HETATM   16  O2  UNL     1      -0.099   2.921   0.997  1.00  0.00    -0.304 OA
HETATM   17  O3  UNL     1      -0.627   3.643  -1.075  1.00  0.00    -0.264 OA
HETATM   18  C15 UNL     1      -2.624   1.317  -0.521  1.00  0.00     0.014 C 
HETATM   19  C16 UNL     1      -2.921   0.646  -1.874  1.00  0.00     0.019 C 
HETATM   20  C17 UNL     1      -2.408  -0.771  -1.836  1.00  0.00    -0.050 C 
HETATM   21  C18 UNL     1      -1.068  -0.723  -1.787  1.00  0.00    -0.022 C 
HETATM   22  C19 UNL     1      -0.632   0.737  -1.840  1.00  0.00     0.051 C 
HETATM   23  C20 UNL     1       0.747   1.049  -2.484  1.00  0.00     0.130 C 
HETATM   24  C21 UNL     1       1.110   0.167  -3.704  1.00  0.00     0.031 C 
HETATM   25  C22 UNL     1       1.584  -1.284  -3.495  1.00  0.00     0.010 C 
HETATM   26  C23 UNL     1       0.455  -2.216  -3.059  1.00  0.00     0.059 C 
HETATM   27  C24 UNL     1      -0.086  -1.850  -1.675  1.00  0.00     0.146 C 
HETATM   28  O4  UNL     1      -0.547  -3.019  -1.025  1.00  0.00    -0.297 OA
HETATM   29  C25 UNL     1       0.026  -4.069  -1.671  1.00  0.00     0.292 C 
HETATM   30  C26 UNL     1       0.798  -3.664  -2.860  1.00  0.00     0.043 C 
HETATM   31  C27 UNL     1       1.587  -4.468  -3.592  1.00  0.00     0.001 C 
HETATM   32  O5  UNL     1      -0.112  -5.233  -1.307  1.00  0.00    -0.259 OA
HETATM   33  C28 UNL     1       1.937   1.099  -1.517  1.00  0.00     0.033 C 
HETATM   34  O6  UNL     1       0.673   2.348  -3.032  1.00  0.00    -0.226 OA
HETATM   35  C29 UNL     1      -1.802   1.246  -2.737  1.00  0.00     0.011 C 
HETATM   36  C30 UNL     1      -3.349  -1.937  -1.815  1.00  0.00     0.026 C 
ENDROOT
TORSDOF 0
