REMARK  0 active torsions:
REMARK  status: ('A' for Active; 'I' for Inactive)
ROOT
HETATM    1  C1  UNL     1      -4.278   3.239   3.184  1.00  0.00    -0.032 C 
HETATM    2  C2  UNL     1      -3.856   2.019   2.824  1.00  0.00    -0.044 C 
HETATM    3  C3  UNL     1      -3.151   2.011   1.483  1.00  0.00     0.073 C 
HETATM    4  C4  UNL     1      -3.020   3.524   1.267  1.00  0.00     0.125 A 
HETATM    5  C5  UNL     1      -3.946   4.310   2.187  1.00  0.00     0.055 C 
HETATM    6  C6  UNL     1      -2.490   4.099   0.011  1.00  0.00     0.116 A 
HETATM    7  C7  UNL     1      -1.998   3.190  -1.108  1.00  0.00     0.030 C 
HETATM    8  C8  UNL     1      -0.913   2.139  -0.811  1.00  0.00     0.005 C 
HETATM    9  C9  UNL     1      -1.409   0.924  -0.026  1.00  0.00     0.038 C 
HETATM   10  C10 UNL     1      -1.847   1.215   1.404  1.00  0.00     0.131 C 
HETATM   11  O1  UNL     1      -1.939  -0.046   1.985  1.00  0.00    -0.304 OA
HETATM   12  C11 UNL     1      -1.167  -0.956   1.336  1.00  0.00     0.271 C 
HETATM   13  C12 UNL     1      -0.491  -0.306   0.125  1.00  0.00     0.084 C 
HETATM   14  C13 UNL     1       1.043  -0.123   0.337  1.00  0.00     0.029 C 
HETATM   15  C14 UNL     1       1.577  -1.549   0.001  1.00  0.00     0.038 C 
HETATM   16  C15 UNL     1       0.949  -1.572  -1.422  1.00  0.00     0.047 C 
HETATM   17  C16 UNL     1      -0.535  -1.266  -1.096  1.00  0.00     0.016 C 
HETATM   18  C17 UNL     1       1.208  -2.786  -2.326  1.00  0.00     0.130 C 
HETATM   19  C18 UNL     1       2.677  -2.918  -2.765  1.00  0.00     0.031 C 
HETATM   20  C19 UNL     1       3.685  -3.540  -1.783  1.00  0.00     0.009 C 
HETATM   21  C20 UNL     1       3.476  -3.228  -0.300  1.00  0.00     0.056 C 
HETATM   22  C21 UNL     1       3.095  -1.773   0.030  1.00  0.00     0.129 C 
HETATM   23  O2  UNL     1       3.625  -1.471   1.299  1.00  0.00    -0.301 OA
HETATM   24  C22 UNL     1       4.582  -2.389   1.587  1.00  0.00     0.292 C 
HETATM   25  C23 UNL     1       4.686  -3.442   0.565  1.00  0.00     0.043 C 
HETATM   26  C24 UNL     1       5.658  -4.364   0.484  1.00  0.00     0.001 C 
HETATM   27  O3  UNL     1       5.271  -2.345   2.601  1.00  0.00    -0.260 OA
HETATM   28  C25 UNL     1       0.317  -2.727  -3.576  1.00  0.00     0.033 C 
HETATM   29  O4  UNL     1       0.843  -3.951  -1.635  1.00  0.00    -0.226 OA
HETATM   30  C26 UNL     1       1.496  -0.250  -1.924  1.00  0.00    -0.029 C 
HETATM   31  C27 UNL     1       1.592   0.581  -0.882  1.00  0.00    -0.031 C 
HETATM   32  C28 UNL     1       1.480   0.509   1.656  1.00  0.00     0.005 C 
HETATM   33  O5  UNL     1      -1.071  -2.115   1.673  1.00  0.00    -0.264 OA
HETATM   34  C29 UNL     1      -2.937   5.491  -0.411  1.00  0.00     0.032 C 
HETATM   35  O6  UNL     1      -1.687   4.072   1.203  1.00  0.00    -0.358 OA
HETATM   36  C30 UNL     1      -4.186   0.772   3.595  1.00  0.00     0.026 C 
ENDROOT
TORSDOF 0
