REMARK  8 active torsions:
REMARK  status: ('A' for Active; 'I' for Inactive)
REMARK    1  A    between atoms: C6_6  and  C7_7 
REMARK    2  A    between atoms: C7_7  and  C8_8 
REMARK    3  A    between atoms: C12_13  and  C25_27 
REMARK    4  A    between atoms: C13_14  and  C15_17 
REMARK    5  A    between atoms: C15_17  and  C16_18 
REMARK    6  A    between atoms: C17_19  and  C18_20 
REMARK    7  A    between atoms: C18_20  and  C19_21 
REMARK    8  A    between atoms: C19_21  and  C20_22 
ROOT
HETATM    1  C1  UNL     1      -5.215   2.761   0.240  1.00  0.00     0.131 A 
HETATM    2  C2  UNL     1      -4.670   4.019   0.510  1.00  0.00     0.055 A 
HETATM    3  C3  UNL     1      -3.302   4.295   0.506  1.00  0.00     0.138 A 
HETATM    4  C4  UNL     1      -2.443   3.215   0.234  1.00  0.00     0.087 A 
HETATM    5  C5  UNL     1      -2.945   1.944  -0.074  1.00  0.00     0.103 A 
HETATM    6  C6  UNL     1      -4.334   1.714  -0.074  1.00  0.00     0.030 A 
HETATM    7  O1  UNL     1      -2.120   0.909  -0.393  1.00  0.00    -0.307 OA
HETATM    8  C12 UNL     1      -0.795   0.965  -0.078  1.00  0.00     0.101 C 
HETATM    9  C13 UNL     1      -0.156   2.107   0.264  1.00  0.00     0.044 C 
HETATM   10  C14 UNL     1      -0.966   3.361   0.298  1.00  0.00     0.198 C 
HETATM   11  O2  UNL     1      -0.415   4.445   0.457  1.00  0.00    -0.287 OA
HETATM   12  O5  UNL     1      -2.881   5.551   0.816  1.00  0.00    -0.190 OA
HETATM   13  O6  UNL     1      -6.560   2.598   0.364  1.00  0.00    -0.190 OA
ENDROOT
BRANCH   9  14
HETATM   14  C15 UNL     1       1.304   2.273   0.657  1.00  0.00     0.057 C 
BRANCH  14  15
HETATM   15  C16 UNL     1       2.149   1.035   0.802  1.00  0.00    -0.030 C 
HETATM   16  C17 UNL     1       3.296   0.738   0.159  1.00  0.00    -0.048 C 
HETATM   17  C24 UNL     1       3.976   1.636  -0.850  1.00  0.00     0.026 C 
BRANCH  16  18
HETATM   18  C18 UNL     1       3.987  -0.596   0.384  1.00  0.00     0.026 C 
BRANCH  18  19
HETATM   19  C19 UNL     1       5.348  -0.499   1.092  1.00  0.00     0.030 C 
BRANCH  19  20
HETATM   20  C20 UNL     1       6.000  -1.863   1.124  1.00  0.00    -0.034 C 
HETATM   21  C21 UNL     1       7.186  -2.226   0.601  1.00  0.00    -0.048 C 
HETATM   22  C22 UNL     1       7.642  -3.668   0.649  1.00  0.00     0.026 C 
HETATM   23  C23 UNL     1       8.157  -1.301  -0.093  1.00  0.00     0.026 C 
ENDBRANCH  19  20
ENDBRANCH  18  19
ENDBRANCH  16  18
ENDBRANCH  14  15
ENDBRANCH   9  14
BRANCH   8  24
HETATM   24  C25 UNL     1      -0.088  -0.351  -0.188  1.00  0.00     0.048 A 
HETATM   25  C26 UNL     1      -0.484  -1.401   0.645  1.00  0.00     0.006 A 
HETATM   26  C27 UNL     1       0.091  -2.663   0.511  1.00  0.00     0.028 A 
HETATM   27  C28 UNL     1       1.048  -2.912  -0.477  1.00  0.00     0.133 A 
HETATM   28  C29 UNL     1       1.392  -1.859  -1.329  1.00  0.00     0.055 A 
HETATM   29  O4  UNL     1       1.613  -4.139  -0.623  1.00  0.00    -0.190 OA
HETATM   30  C30 UNL     1       0.830  -0.583  -1.220  1.00  0.00     0.135 A 
HETATM   31  O3  UNL     1       1.194   0.422  -2.058  1.00  0.00    -0.190 OA
ENDBRANCH   8  24
BRANCH   6  32
HETATM   32  C7  UNL     1      -4.788   0.293  -0.380  1.00  0.00     0.056 C 
BRANCH  32  33
HETATM   33  C8  UNL     1      -6.218   0.085  -0.804  1.00  0.00    -0.030 C 
HETATM   34  C9  UNL     1      -7.075  -0.837  -0.327  1.00  0.00    -0.048 C 
HETATM   35  C10 UNL     1      -8.501  -0.910  -0.823  1.00  0.00     0.026 C 
HETATM   36  C11 UNL     1      -6.739  -1.885   0.708  1.00  0.00     0.026 C 
ENDBRANCH  32  33
ENDBRANCH   6  32
TORSDOF 8
