REMARK  5 active torsions:
REMARK  status: ('A' for Active; 'I' for Inactive)
REMARK    1  A    between atoms: C2_2  and  O7_28 
REMARK    2  A    between atoms: C7_8  and  C15_17 
REMARK    3  A    between atoms: C8_9  and  C10_12 
REMARK    4  A    between atoms: C10_12  and  C11_13 
REMARK    5  A    between atoms: C18_20  and  O4_24 
ROOT
HETATM    1  C1  UNL     1      -4.080   0.952  -0.424  1.00  0.00     0.049 A 
HETATM    2  C2  UNL     1      -5.037   1.955  -0.230  1.00  0.00     0.098 A 
HETATM    3  C3  UNL     1      -4.534   3.209   0.134  1.00  0.00     0.052 A 
HETATM    4  C4  UNL     1      -3.171   3.474   0.317  1.00  0.00     0.138 A 
HETATM    5  C5  UNL     1      -2.265   2.419   0.106  1.00  0.00     0.087 A 
HETATM    6  C6  UNL     1      -2.705   1.141  -0.262  1.00  0.00     0.107 A 
HETATM    7  O1  UNL     1      -1.866   0.096  -0.496  1.00  0.00    -0.307 OA
HETATM    8  C7  UNL     1      -0.540   0.208  -0.187  1.00  0.00     0.101 C 
HETATM    9  C8  UNL     1       0.039   1.362   0.222  1.00  0.00     0.044 C 
HETATM   10  C9  UNL     1      -0.803   2.592   0.285  1.00  0.00     0.198 C 
HETATM   11  O2  UNL     1      -0.292   3.683   0.509  1.00  0.00    -0.287 OA
HETATM   12  O6  UNL     1      -2.798   4.733   0.676  1.00  0.00    -0.190 OA
ENDROOT
BRANCH   8  13
HETATM   13  C15 UNL     1       0.236  -1.064  -0.304  1.00  0.00     0.050 A 
HETATM   14  C16 UNL     1      -0.247  -2.191   0.367  1.00  0.00     0.033 A 
HETATM   15  C17 UNL     1       0.398  -3.427   0.298  1.00  0.00     0.153 A 
HETATM   16  C18 UNL     1       1.551  -3.568  -0.489  1.00  0.00     0.121 A 
HETATM   17  O5  UNL     1      -0.079  -4.501   0.983  1.00  0.00    -0.188 OA
HETATM   18  C19 UNL     1       2.018  -2.427  -1.156  1.00  0.00     0.054 A 
HETATM   19  C20 UNL     1       1.369  -1.188  -1.116  1.00  0.00     0.135 A 
HETATM   20  O3  UNL     1       1.835  -0.129  -1.827  1.00  0.00    -0.190 OA
BRANCH  16  21
HETATM   21  O4  UNL     1       2.182  -4.787  -0.478  1.00  0.00    -0.326 OA
HETATM   22  C21 UNL     1       3.570  -4.816  -0.711  1.00  0.00     0.181 C 
ENDBRANCH  16  21
ENDBRANCH   8  13
BRANCH   9  23
HETATM   23  C10 UNL     1       1.491   1.571   0.625  1.00  0.00     0.057 C 
BRANCH  23  24
HETATM   24  C11 UNL     1       2.244   0.375   1.143  1.00  0.00    -0.030 C 
HETATM   25  C12 UNL     1       3.536   0.075   0.912  1.00  0.00    -0.048 C 
HETATM   26  C13 UNL     1       4.159  -1.179   1.480  1.00  0.00     0.026 C 
HETATM   27  C14 UNL     1       4.487   0.913   0.089  1.00  0.00     0.026 C 
ENDBRANCH  23  24
ENDBRANCH   9  23
BRANCH   2  28
HETATM   28  O7  UNL     1      -6.362   1.650  -0.423  1.00  0.00    -0.328 OA
HETATM   29  C22 UNL     1      -7.313   2.678  -0.277  1.00  0.00     0.181 C 
ENDBRANCH   2  28
TORSDOF 5
