REMARK  3 active torsions:
REMARK  status: ('A' for Active; 'I' for Inactive)
REMARK    1  A    between atoms: C1_1  and  O7_28 
REMARK    2  A    between atoms: C11_13  and  C19_24 
REMARK    3  A    between atoms: C16_18  and  O4_21 
ROOT
HETATM    1  C1  UNL     1      -5.307   0.174  -0.308  1.00  0.00     0.098 A 
HETATM    2  C2  UNL     1      -5.371  -1.219  -0.200  1.00  0.00     0.052 A 
HETATM    3  C3  UNL     1      -4.252  -2.056  -0.162  1.00  0.00     0.138 A 
HETATM    4  C4  UNL     1      -2.987  -1.446  -0.238  1.00  0.00     0.087 A 
HETATM    5  C5  UNL     1      -2.851  -0.055  -0.354  1.00  0.00     0.107 A 
HETATM    6  C6  UNL     1      -4.017   0.717  -0.388  1.00  0.00     0.049 A 
HETATM    7  O1  UNL     1      -1.646   0.571  -0.465  1.00  0.00    -0.307 OA
HETATM    8  C7  UNL     1      -0.504  -0.112  -0.164  1.00  0.00     0.101 C 
HETATM    9  C8  UNL     1      -0.475  -1.462  -0.053  1.00  0.00     0.040 C 
HETATM   10  C9  UNL     1      -1.734  -2.238  -0.172  1.00  0.00     0.197 C 
HETATM   11  O2  UNL     1      -1.719  -3.465  -0.139  1.00  0.00    -0.287 OA
HETATM   12  C10 UNL     1       0.799  -2.189   0.275  1.00  0.00     0.040 C 
HETATM   13  C11 UNL     1       2.006  -1.531  -0.404  1.00  0.00     0.047 C 
HETATM   14  C12 UNL     1       2.005  -0.035  -0.159  1.00  0.00     0.013 A 
HETATM   15  C13 UNL     1       0.773   0.624   0.007  1.00  0.00     0.046 A 
HETATM   16  C14 UNL     1       0.761   2.009   0.264  1.00  0.00     0.135 A 
HETATM   17  C15 UNL     1       1.974   2.696   0.276  1.00  0.00     0.054 A 
HETATM   18  C16 UNL     1       3.205   2.087   0.006  1.00  0.00     0.121 A 
HETATM   19  C17 UNL     1       3.202   0.702  -0.207  1.00  0.00     0.150 A 
HETATM   20  O3  UNL     1       4.400   0.112  -0.477  1.00  0.00    -0.188 OA
HETATM   21  O5  UNL     1      -0.378   2.693   0.559  1.00  0.00    -0.190 OA
HETATM   22  O6  UNL     1      -4.443  -3.399  -0.046  1.00  0.00    -0.190 OA
ENDROOT
BRANCH  13  23
HETATM   23  C19 UNL     1       3.263  -2.256   0.046  1.00  0.00    -0.040 C 
HETATM   24  C20 UNL     1       4.034  -2.924  -0.827  1.00  0.00    -0.009 C 
HETATM   25  C21 UNL     1       3.613  -2.219   1.516  1.00  0.00     0.027 C 
ENDBRANCH  13  23
BRANCH  18  26
HETATM   26  O4  UNL     1       4.413   2.740  -0.034  1.00  0.00    -0.326 OA
HETATM   27  C18 UNL     1       4.449   4.122   0.230  1.00  0.00     0.181 C 
ENDBRANCH  18  26
BRANCH   1  28
HETATM   28  O7  UNL     1      -6.478   0.890  -0.333  1.00  0.00    -0.328 OA
HETATM   29  C22 UNL     1      -6.406   2.293  -0.436  1.00  0.00     0.181 C 
ENDBRANCH   1  28
TORSDOF 3
