REMARK  7 active torsions:
REMARK  status: ('A' for Active; 'I' for Inactive)
REMARK    1  A    between atoms: C12_14  and  C25_29 
REMARK    2  A    between atoms: C13_15  and  C15_18 
REMARK    3  A    between atoms: C15_18  and  C16_19 
REMARK    4  A    between atoms: C15_18  and  O4_23 
REMARK    5  A    between atoms: O4_23  and  C20_24 
REMARK    6  A    between atoms: C20_24  and  C23_27 
REMARK    7  A    between atoms: C28_32  and  O5_35 
ROOT
HETATM    1  C1  UNL     1       4.227   0.843   0.090  1.00  0.00     0.098 A 
HETATM    2  C2  UNL     1       3.948   2.201  -0.099  1.00  0.00     0.052 A 
HETATM    3  C3  UNL     1       2.656   2.713  -0.233  1.00  0.00     0.138 A 
HETATM    4  C4  UNL     1       1.585   1.797  -0.164  1.00  0.00     0.087 A 
HETATM    5  C5  UNL     1       1.799   0.424  -0.041  1.00  0.00     0.107 A 
HETATM    6  C6  UNL     1       3.129  -0.029   0.065  1.00  0.00     0.045 A 
HETATM    7  C7  UNL     1       3.421  -1.452   0.253  1.00  0.00     0.002 C 
HETATM    8  C8  UNL     1       4.699  -1.858   0.179  1.00  0.00     0.001 C 
HETATM    9  C9  UNL     1       5.809  -0.899  -0.186  1.00  0.00     0.117 C 
HETATM   10  O1  UNL     1       5.524   0.418   0.210  1.00  0.00    -0.331 OA
HETATM   11  C10 UNL     1       7.108  -1.316   0.513  1.00  0.00     0.035 C 
HETATM   12  C11 UNL     1       6.005  -0.931  -1.706  1.00  0.00     0.035 C 
HETATM   13  O2  UNL     1       0.785  -0.479  -0.016  1.00  0.00    -0.307 OA
HETATM   14  C12 UNL     1      -0.538  -0.120  -0.090  1.00  0.00     0.102 A 
HETATM   15  C13 UNL     1      -0.903   1.194  -0.194  1.00  0.00     0.071 A 
HETATM   16  C14 UNL     1       0.173   2.233  -0.245  1.00  0.00     0.200 A 
HETATM   17  O3  UNL     1      -0.106   3.423  -0.360  1.00  0.00    -0.287 OA
HETATM   18  O6  UNL     1       2.502   4.059  -0.366  1.00  0.00    -0.190 OA
ENDROOT
BRANCH  15  19
HETATM   19  C15 UNL     1      -2.312   1.782  -0.245  1.00  0.00     0.170 C 
BRANCH  19  20
HETATM   20  C16 UNL     1      -3.122   1.489  -1.495  1.00  0.00    -0.000 C 
HETATM   21  C17 UNL     1      -2.713   1.269  -2.758  1.00  0.00    -0.045 C 
HETATM   22  C18 UNL     1      -3.712   0.915  -3.838  1.00  0.00     0.026 C 
HETATM   23  C19 UNL     1      -1.286   1.315  -3.243  1.00  0.00     0.026 C 
ENDBRANCH  19  20
BRANCH  19  24
HETATM   24  O4  UNL     1      -3.041   1.428   0.925  1.00  0.00    -0.325 OA
BRANCH  24  25
HETATM   25  C20 UNL     1      -2.564   1.833   2.148  1.00  0.00     0.090 C 
HETATM   26  C21 UNL     1      -2.855   1.072   3.226  1.00  0.00    -0.002 C 
HETATM   27  C22 UNL     1      -2.519   1.329   4.672  1.00  0.00     0.033 C 
BRANCH  25  28
HETATM   28  C23 UNL     1      -1.707   3.036   2.301  1.00  0.00     0.024 C 
HETATM   29  C24 UNL     1      -0.565   3.072   3.006  1.00  0.00     0.002 C 
ENDBRANCH  25  28
ENDBRANCH  24  25
ENDBRANCH  19  24
ENDBRANCH  15  19
BRANCH  14  30
HETATM   30  C25 UNL     1      -1.449  -1.306  -0.048  1.00  0.00     0.023 A 
HETATM   31  C26 UNL     1      -0.863  -2.571   0.176  1.00  0.00     0.004 A 
HETATM   32  C27 UNL     1      -1.584  -3.763   0.172  1.00  0.00     0.024 A 
HETATM   33  C28 UNL     1      -2.966  -3.812  -0.051  1.00  0.00     0.094 A 
HETATM   34  C29 UNL     1      -3.567  -2.564  -0.241  1.00  0.00     0.024 A 
HETATM   35  C30 UNL     1      -2.837  -1.371  -0.240  1.00  0.00     0.004 A 
BRANCH  33  36
HETATM   36  O5  UNL     1      -3.607  -5.024  -0.058  1.00  0.00    -0.328 OA
HETATM   37  C31 UNL     1      -5.002  -5.043  -0.250  1.00  0.00     0.181 C 
ENDBRANCH  33  36
ENDBRANCH  14  30
TORSDOF 7
