REMARK  10 active torsions:
REMARK  status: ('A' for Active; 'I' for Inactive)
REMARK    1  A    between atoms: C3_3  and  O4_10 
REMARK    2  A    between atoms: C4_5  and  C6_8 
REMARK    3  A    between atoms: O4_10  and  C7_11 
REMARK    4  A    between atoms: C9_13  and  O8_20 
REMARK    5  A    between atoms: C10_15  and  C12_18 
REMARK    6  A    between atoms: O8_20  and  C13_21 
REMARK    7  A    between atoms: C31_39  and  C39_47 
REMARK    8  A    between atoms: C39_47  and  O10_49 
REMARK    9  A    between atoms: O10_49  and  C40_50 
REMARK   10  A    between atoms: C41_52  and  C45_59 
ROOT
HETATM    1  C13 UNL     1       2.645   1.703  -3.163  1.00  0.00     0.118 C 
HETATM    2  C14 UNL     1       1.366   2.086  -3.917  1.00  0.00     0.030 C 
HETATM    3  C15 UNL     1       0.060   1.781  -3.151  1.00  0.00     0.003 C 
HETATM    4  C16 UNL     1       0.174   1.722  -1.597  1.00  0.00     0.001 C 
HETATM    5  C17 UNL     1       1.290   2.741  -1.217  1.00  0.00     0.002 C 
HETATM    6  C18 UNL     1       2.712   2.507  -1.837  1.00  0.00     0.025 C 
HETATM    7  C19 UNL     1       3.330   3.899  -2.167  1.00  0.00     0.002 C 
HETATM    8  C20 UNL     1       3.725   1.873  -0.853  1.00  0.00     0.002 C 
HETATM    9  C21 UNL     1       1.310   3.070   0.287  1.00  0.00     0.000 C 
HETATM   10  C22 UNL     1      -0.061   3.518   0.815  1.00  0.00     0.000 C 
HETATM   11  C23 UNL     1      -1.177   2.473   0.577  1.00  0.00     0.004 C 
HETATM   12  C24 UNL     1      -1.190   2.163  -0.949  1.00  0.00     0.005 C 
HETATM   13  C25 UNL     1      -2.364   1.247  -1.343  1.00  0.00     0.025 C 
HETATM   14  C26 UNL     1      -3.659   1.627  -0.696  1.00  0.00    -0.035 C 
HETATM   15  C27 UNL     1      -3.770   2.436   0.369  1.00  0.00    -0.049 C 
HETATM   16  C28 UNL     1      -2.560   3.078   1.021  1.00  0.00     0.018 C 
HETATM   17  C29 UNL     1      -2.747   3.118   2.554  1.00  0.00     0.004 C 
HETATM   18  C30 UNL     1      -4.149   3.510   3.037  1.00  0.00     0.010 C 
HETATM   19  C31 UNL     1      -5.248   2.637   2.398  1.00  0.00     0.082 C 
HETATM   20  C32 UNL     1      -5.157   2.811   0.868  1.00  0.00     0.027 C 
HETATM   21  C33 UNL     1      -5.599   4.201   0.377  1.00  0.00     0.004 C 
HETATM   22  C34 UNL     1      -7.011   4.596   0.867  1.00  0.00     0.000 C 
HETATM   23  C35 UNL     1      -7.098   4.425   2.399  1.00  0.00     0.001 C 
HETATM   24  C36 UNL     1      -6.653   3.039   2.890  1.00  0.00     0.010 C 
HETATM   25  C37 UNL     1      -7.267   6.079   0.512  1.00  0.00     0.000 C 
HETATM   26  C38 UNL     1      -8.102   3.761   0.161  1.00  0.00     0.000 C 
HETATM   27  C46 UNL     1      -0.848   1.231   1.433  1.00  0.00     0.000 C 
HETATM   28  C47 UNL     1       0.499   0.265  -1.177  1.00  0.00     0.000 C 
ENDROOT
BRANCH   1  29
HETATM   29  O8  UNL     1       2.591   0.320  -2.958  1.00  0.00    -0.332 OA
BRANCH  29  30
HETATM   30  C9  UNL     1       3.750  -0.441  -3.207  1.00  0.00     0.270 C 
HETATM   31  C8  UNL     1       3.450  -1.831  -2.683  1.00  0.00     0.238 C 
HETATM   32  C7  UNL     1       4.544  -2.811  -3.050  1.00  0.00     0.186 C 
HETATM   33  O16 UNL     1       3.333  -1.777  -1.283  1.00  0.00    -0.215 OA
HETATM   34  C11 UNL     1       4.783  -2.716  -4.546  1.00  0.00     0.211 C 
HETATM   35  C10 UNL     1       5.017  -1.273  -4.977  1.00  0.00     0.184 C 
HETATM   36  O6  UNL     1       5.905  -3.519  -4.836  1.00  0.00    -0.218 OA
HETATM   37  O5  UNL     1       3.918  -0.483  -4.606  1.00  0.00    -0.326 OA
BRANCH  32  38
HETATM   38  O4  UNL     1       4.132  -4.120  -2.764  1.00  0.00    -0.326 OA
BRANCH  38  39
HETATM   39  C3  UNL     1       4.838  -4.737  -1.713  1.00  0.00     0.270 C 
HETATM   40  C2  UNL     1       4.108  -6.006  -1.345  1.00  0.00     0.241 C 
HETATM   41  C1  UNL     1       4.927  -6.798  -0.349  1.00  0.00     0.220 C 
HETATM   42  O17 UNL     1       2.867  -5.688  -0.767  1.00  0.00    -0.215 OA
HETATM   43  C5  UNL     1       6.320  -7.022  -0.904  1.00  0.00     0.215 C 
HETATM   44  O18 UNL     1       4.306  -8.041  -0.136  1.00  0.00    -0.218 OA
HETATM   45  C4  UNL     1       6.938  -5.712  -1.383  1.00  0.00     0.184 C 
HETATM   46  O2  UNL     1       6.216  -7.937  -1.969  1.00  0.00    -0.218 OA
HETATM   47  O1  UNL     1       6.091  -5.049  -2.282  1.00  0.00    -0.326 OA
BRANCH  45  48
HETATM   48  C6  UNL     1       8.284  -5.905  -2.065  1.00  0.00     0.214 C 
HETATM   49  O3  UNL     1       9.193  -6.508  -1.167  1.00  0.00    -0.218 OA
ENDBRANCH  45  48
ENDBRANCH  38  39
ENDBRANCH  32  38
BRANCH  35  50
HETATM   50  C12 UNL     1       5.204  -1.166  -6.483  1.00  0.00     0.214 C 
HETATM   51  O7  UNL     1       5.552   0.161  -6.825  1.00  0.00    -0.218 OA
ENDBRANCH  35  50
ENDBRANCH  29  30
ENDBRANCH   1  29
BRANCH  19  52
HETATM   52  C39 UNL     1      -5.083   1.138   2.701  1.00  0.00     0.273 C 
HETATM   53  O9  UNL     1      -5.321   0.259   1.906  1.00  0.00    -0.264 OA
BRANCH  52  54
HETATM   54  O10 UNL     1      -4.604   0.890   3.947  1.00  0.00    -0.273 OA
BRANCH  54  55
HETATM   55  C40 UNL     1      -4.267  -0.451   4.259  1.00  0.00     0.276 C 
HETATM   56  O11 UNL     1      -4.003  -0.326   5.645  1.00  0.00    -0.326 OA
HETATM   57  C41 UNL     1      -3.573  -1.520   6.242  1.00  0.00     0.184 C 
HETATM   58  C42 UNL     1      -2.248  -1.942   5.623  1.00  0.00     0.215 C 
HETATM   59  C43 UNL     1      -2.454  -2.168   4.144  1.00  0.00     0.220 C 
HETATM   60  O14 UNL     1      -1.777  -3.145   6.179  1.00  0.00    -0.218 OA
HETATM   61  C44 UNL     1      -3.026  -0.915   3.519  1.00  0.00     0.241 C 
HETATM   62  O13 UNL     1      -1.220  -2.466   3.541  1.00  0.00    -0.218 OA
HETATM   63  O12 UNL     1      -3.284  -1.238   2.173  1.00  0.00    -0.215 OA
BRANCH  57  64
HETATM   64  C45 UNL     1      -3.432  -1.293   7.740  1.00  0.00     0.214 C 
HETATM   65  O15 UNL     1      -4.691  -0.964   8.291  1.00  0.00    -0.218 OA
ENDBRANCH  57  64
ENDBRANCH  54  55
ENDBRANCH  52  54
ENDBRANCH  19  52
TORSDOF 10
