REMARK  6 active torsions:
REMARK  status: ('A' for Active; 'I' for Inactive)
REMARK    1  A    between atoms: C3_3  and  C8_10 
REMARK    2  A    between atoms: C8_10  and  O3_11 
REMARK    3  A    between atoms: O3_11  and  C9_12 
REMARK    4  A    between atoms: C9_12  and  C10_13 
REMARK    5  A    between atoms: C9_12  and  C12_17 
REMARK    6  A    between atoms: C10_13  and  O4_14 
ROOT
HETATM    1  C8  UNL     1       1.346   1.790  -0.184  1.00  0.00     0.300 C 
HETATM    2  O6  UNL     1       1.664   2.969  -0.353  1.00  0.00    -0.259 OA
ENDROOT
BRANCH   1   3
HETATM    3  C3  UNL     1      -0.131   1.585  -0.003  1.00  0.00     0.066 A 
HETATM    4  C2  UNL     1      -0.967   2.717  -0.136  1.00  0.00     0.032 A 
HETATM    5  C1  UNL     1      -2.343   2.566   0.007  1.00  0.00     0.119 A 
HETATM    6  C6  UNL     1      -2.917   1.334   0.291  1.00  0.00     0.119 A 
HETATM    7  O2  UNL     1      -3.346   3.513  -0.096  1.00  0.00    -0.300 OA
HETATM    8  C5  UNL     1      -2.128   0.195   0.422  1.00  0.00     0.026 A 
HETATM    9  O1  UNL     1      -4.285   1.472   0.377  1.00  0.00    -0.300 OA
HETATM   10  C4  UNL     1      -0.747   0.344   0.258  1.00  0.00     0.007 A 
HETATM   11  C7  UNL     1      -4.597   2.847   0.122  1.00  0.00     0.304 A 
ENDBRANCH   1   3
BRANCH   1  12
HETATM   12  O3  UNL     1       2.395   0.905  -0.208  1.00  0.00    -0.272 OA
BRANCH  12  13
HETATM   13  C9  UNL     1       2.317  -0.492  -0.059  1.00  0.00     0.143 C 
BRANCH  13  14
HETATM   14  C10 UNL     1       1.827  -0.919   1.331  1.00  0.00     0.315 C 
HETATM   15  O5  UNL     1       1.580  -0.123   2.209  1.00  0.00    -0.257 OA
BRANCH  14  16
HETATM   16  O4  UNL     1       1.752  -2.264   1.483  1.00  0.00    -0.294 OA
HETATM   17  C11 UNL     1       1.388  -2.737   2.758  1.00  0.00     0.185 C 
ENDBRANCH  14  16
ENDBRANCH  13  14
BRANCH  13  18
HETATM   18  C12 UNL     1       2.011  -1.211  -1.398  1.00  0.00     0.051 C 
HETATM   19  C13 UNL     1       1.673  -2.708  -1.295  1.00  0.00     0.007 C 
HETATM   20  C14 UNL     1       0.994  -0.537  -2.341  1.00  0.00     0.007 C 
ENDBRANCH  13  18
ENDBRANCH  12  13
ENDBRANCH   1  12
TORSDOF 6
