REMARK  22 active torsions:
REMARK  status: ('A' for Active; 'I' for Inactive)
REMARK    1  A    between atoms: C2_2  and  O14_55 
REMARK    2  A    between atoms: C3_3  and  C41_53 
REMARK    3  A    between atoms: C16_16  and  C25_25 
REMARK    4  A    between atoms: C25_25  and  O2_27 
REMARK    5  A    between atoms: O2_27  and  C26_28 
REMARK    6  A    between atoms: C27_30  and  C31_37 
REMARK    7  A    between atoms: C31_37  and  O7_38 
REMARK    8  A    between atoms: O7_38  and  C32_39 
REMARK    9  A    between atoms: C33_41  and  C37_48 
REMARK   10  A    between atoms: O14_55  and  C42_56 
REMARK   11  A    between atoms: C46_61  and  O16_62 
REMARK   12  A    between atoms: O16_62  and  C47_63 
REMARK   13  A    between atoms: C50_67  and  O19_70 
REMARK   14  A    between atoms: O19_70  and  C52_71 
REMARK   15  A    between atoms: C53_73  and  C74_110 
REMARK   16  A    between atoms: C54_74  and  O27_89 
REMARK   17  A    between atoms: C55_75  and  O22_78 
REMARK   18  A    between atoms: O22_78  and  C57_79 
REMARK   19  A    between atoms: O27_89  and  C63_90 
REMARK   20  A    between atoms: C64_92  and  C73_108 
REMARK   21  A    between atoms: C65_93  and  O31_98 
REMARK   22  A    between atoms: O31_98  and  C68_99 
ROOT
HETATM    1  C42 UNL     1      -5.533  -3.190   0.056  1.00  0.00     0.267 C 
HETATM    2  O15 UNL     1      -6.399  -2.839   1.115  1.00  0.00    -0.326 OA
HETATM    3  C43 UNL     1      -6.707  -3.962   1.908  1.00  0.00     0.181 C 
HETATM    4  C44 UNL     1      -5.456  -4.607   2.486  1.00  0.00     0.214 C 
HETATM    5  C45 UNL     1      -4.357  -4.793   1.452  1.00  0.00     0.217 C 
HETATM    6  C46 UNL     1      -4.157  -3.510   0.658  1.00  0.00     0.207 C 
HETATM    7  O39 UNL     1      -3.156  -5.141   2.099  1.00  0.00    -0.218 OA
HETATM    8  O40 UNL     1      -4.959  -3.804   3.531  1.00  0.00    -0.218 OA
ENDROOT
BRANCH   1   9
HETATM    9  O14 UNL     1      -5.513  -2.040  -0.750  1.00  0.00    -0.331 OA
BRANCH   9  10
HETATM   10  C2  UNL     1      -6.256  -1.946  -1.940  1.00  0.00     0.124 C 
HETATM   11  C1  UNL     1      -6.163  -0.469  -2.458  1.00  0.00     0.030 C 
HETATM   12  C6  UNL     1      -4.771  -0.013  -3.049  1.00  0.00     0.006 C 
HETATM   13  C5  UNL     1      -3.636  -0.900  -2.367  1.00  0.00     0.016 C 
HETATM   14  C4  UNL     1      -4.244  -2.406  -3.290  1.00  0.00    -0.045 C 
HETATM   15  C7  UNL     1      -1.820  -0.812  -2.074  1.00  0.00     0.011 C 
HETATM   16  C39 UNL     1      -3.901   0.008  -1.026  1.00  0.00     0.004 C 
HETATM   17  C3  UNL     1      -5.717  -2.863  -3.056  1.00  0.00     0.071 C 
HETATM   18  C10 UNL     1      -3.141  -3.723  -3.822  1.00  0.00    -0.034 C 
HETATM   19  C40 UNL     1      -5.870  -4.375  -2.762  1.00  0.00     0.009 C 
HETATM   20  C9  UNL     1      -1.413  -3.889  -3.381  1.00  0.00     0.029 C 
HETATM   21  C8  UNL     1      -0.645  -2.544  -2.300  1.00  0.00     0.019 C 
HETATM   22  C11 UNL     1       1.218  -2.199  -2.379  1.00  0.00    -0.049 C 
HETATM   23  C38 UNL     1      -0.252  -3.831  -1.349  1.00  0.00     0.004 C 
HETATM   24  C12 UNL     1       1.716  -0.581  -2.254  1.00  0.00    -0.034 C 
HETATM   25  C18 UNL     1       2.323  -3.289  -2.126  1.00  0.00     0.022 C 
HETATM   26  C13 UNL     1       0.899   0.562  -2.230  1.00  0.00    -0.031 C 
HETATM   27  C15 UNL     1       3.262  -0.382  -2.175  1.00  0.00     0.030 C 
HETATM   28  C14 UNL     1      -0.832   0.787  -2.232  1.00  0.00     0.026 C 
HETATM   29  C16 UNL     1       4.203  -1.605  -1.895  1.00  0.00     0.082 C 
HETATM   30  C22 UNL     1       3.675   0.417  -3.440  1.00  0.00     0.005 C 
HETATM   31  C17 UNL     1       3.715  -2.852  -2.649  1.00  0.00     0.014 C 
HETATM   32  C19 UNL     1       5.687  -1.326  -2.265  1.00  0.00     0.010 C 
HETATM   33  C20 UNL     1       5.916  -0.626  -3.603  1.00  0.00     0.001 C 
HETATM   34  C21 UNL     1       5.176   0.717  -3.633  1.00  0.00     0.000 C 
HETATM   35  C23 UNL     1       5.407   1.385  -5.008  1.00  0.00     0.000 C 
HETATM   36  C24 UNL     1       5.731   1.680  -2.564  1.00  0.00     0.000 C 
BRANCH  17  37
HETATM   37  C41 UNL     1      -6.613  -2.656  -4.316  1.00  0.00     0.188 C 
HETATM   38  O13 UNL     1      -6.224  -3.486  -5.394  1.00  0.00    -0.220 OA
ENDBRANCH  17  37
BRANCH  29  39
HETATM   39  C25 UNL     1       4.335  -2.107  -0.441  1.00  0.00     0.273 C 
HETATM   40  O1  UNL     1       5.240  -2.822  -0.069  1.00  0.00    -0.264 OA
BRANCH  39  41
HETATM   41  O2  UNL     1       3.296  -1.773   0.340  1.00  0.00    -0.273 OA
BRANCH  41  42
HETATM   42  C26 UNL     1       3.249  -2.392   1.609  1.00  0.00     0.276 C 
HETATM   43  O3  UNL     1       2.778  -3.706   1.400  1.00  0.00    -0.326 OA
HETATM   44  C27 UNL     1       2.511  -4.388   2.602  1.00  0.00     0.180 C 
HETATM   45  C28 UNL     1       1.470  -3.656   3.444  1.00  0.00     0.215 C 
HETATM   46  C29 UNL     1       1.923  -2.241   3.732  1.00  0.00     0.220 C 
HETATM   47  O6  UNL     1       1.268  -4.307   4.674  1.00  0.00    -0.218 OA
HETATM   48  C30 UNL     1       2.239  -1.626   2.400  1.00  0.00     0.241 C 
HETATM   49  O5  UNL     1       0.878  -1.509   4.325  1.00  0.00    -0.218 OA
HETATM   50  O4  UNL     1       2.664  -0.296   2.545  1.00  0.00    -0.215 OA
BRANCH  44  51
HETATM   51  C31 UNL     1       2.054  -5.811   2.280  1.00  0.00     0.177 C 
BRANCH  51  52
HETATM   52  O7  UNL     1       2.933  -6.718   2.897  1.00  0.00    -0.326 OA
BRANCH  52  53
HETATM   53  C32 UNL     1       2.545  -8.067   2.752  1.00  0.00     0.270 C 
HETATM   54  O8  UNL     1       2.428  -8.500   4.088  1.00  0.00    -0.326 OA
HETATM   55  C33 UNL     1       2.052  -9.848   4.185  1.00  0.00     0.184 C 
HETATM   56  C34 UNL     1       3.097 -10.729   3.511  1.00  0.00     0.215 C 
HETATM   57  C35 UNL     1       3.297 -10.313   2.066  1.00  0.00     0.220 C 
HETATM   58  O11 UNL     1       2.700 -12.078   3.543  1.00  0.00    -0.218 OA
HETATM   59  C36 UNL     1       3.621  -8.835   2.027  1.00  0.00     0.241 C 
HETATM   60  O10 UNL     1       4.360 -11.037   1.497  1.00  0.00    -0.218 OA
HETATM   61  O9  UNL     1       3.676  -8.395   0.692  1.00  0.00    -0.215 OA
BRANCH  55  62
HETATM   62  C37 UNL     1       1.866 -10.184   5.660  1.00  0.00     0.214 C 
HETATM   63  O12 UNL     1       0.861 -11.168   5.812  1.00  0.00    -0.218 OA
ENDBRANCH  55  62
ENDBRANCH  52  53
ENDBRANCH  51  52
ENDBRANCH  44  51
ENDBRANCH  41  42
ENDBRANCH  39  41
ENDBRANCH  29  39
ENDBRANCH   9  10
ENDBRANCH   1   9
BRANCH   6  64
HETATM   64  O16 UNL     1      -3.072  -3.700  -0.241  1.00  0.00    -0.324 OA
BRANCH  64  65
HETATM   65  C47 UNL     1      -2.495  -2.510  -0.788  1.00  0.00     0.270 C 
HETATM   66  O17 UNL     1      -2.559  -2.652  -2.224  1.00  0.00    -0.329 OA
HETATM   67  C48 UNL     1      -1.832  -1.782  -3.612  1.00  0.00     0.151 C 
HETATM   68  C49 UNL     1      -0.410  -1.022  -3.133  1.00  0.00     0.209 C 
HETATM   69  C75 UNL     1      -2.488  -0.903  -4.801  1.00  0.00     0.035 C 
HETATM   70  C50 UNL     1      -0.232  -1.048  -1.093  1.00  0.00     0.186 C 
HETATM   71  O38 UNL     1       0.363  -1.515  -4.282  1.00  0.00    -0.218 OA
HETATM   72  C51 UNL     1      -1.227  -1.998  -0.135  1.00  0.00     0.238 C 
HETATM   73  O18 UNL     1      -1.671  -1.474   1.101  1.00  0.00    -0.215 OA
BRANCH  70  74
HETATM   74  O19 UNL     1      -0.529   0.182  -0.313  1.00  0.00    -0.326 OA
BRANCH  74  75
HETATM   75  C52 UNL     1      -0.145   0.603   0.980  1.00  0.00     0.270 C 
HETATM   76  O20 UNL     1      -1.354   0.970   1.613  1.00  0.00    -0.326 OA
HETATM   77  C53 UNL     1      -1.162   1.488   2.901  1.00  0.00     0.180 C 
HETATM   78  C54 UNL     1      -0.578   2.895   2.773  1.00  0.00     0.177 C 
HETATM   79  C55 UNL     1       0.798   2.731   2.076  1.00  0.00     0.183 C 
HETATM   80  C56 UNL     1       0.693   1.852   0.832  1.00  0.00     0.238 C 
HETATM   81  O21 UNL     1       1.942   1.393   0.375  1.00  0.00    -0.215 OA
BRANCH  77  82
HETATM   82  C74 UNL     1      -2.501   1.451   3.627  1.00  0.00     0.214 C 
HETATM   83  O37 UNL     1      -2.879   0.106   3.854  1.00  0.00    -0.218 OA
ENDBRANCH  77  82
BRANCH  78  84
HETATM   84  O27 UNL     1      -1.554   3.647   2.086  1.00  0.00    -0.326 OA
BRANCH  84  85
HETATM   85  C63 UNL     1      -1.343   5.034   1.963  1.00  0.00     0.270 C 
HETATM   86  O28 UNL     1      -2.209   5.740   2.819  1.00  0.00    -0.326 OA
HETATM   87  C64 UNL     1      -1.930   7.126   2.784  1.00  0.00     0.181 C 
HETATM   88  C65 UNL     1      -1.949   7.738   1.366  1.00  0.00     0.181 C 
HETATM   89  C66 UNL     1      -1.196   6.856   0.374  1.00  0.00     0.217 C 
HETATM   90  C67 UNL     1      -1.689   5.440   0.556  1.00  0.00     0.241 C 
HETATM   91  O30 UNL     1      -1.428   7.181  -0.974  1.00  0.00    -0.218 OA
HETATM   92  O29 UNL     1      -1.070   4.591  -0.372  1.00  0.00    -0.215 OA
BRANCH  87  93
HETATM   93  C73 UNL     1      -2.895   7.852   3.718  1.00  0.00     0.214 C 
HETATM   94  O36 UNL     1      -2.318   7.992   5.002  1.00  0.00    -0.218 OA
ENDBRANCH  87  93
BRANCH  88  95
HETATM   95  O31 UNL     1      -1.386   9.021   1.494  1.00  0.00    -0.326 OA
BRANCH  95  96
HETATM   96  C68 UNL     1      -1.301   9.784   0.313  1.00  0.00     0.270 C 
HETATM   97  O32 UNL     1       0.073   9.735  -0.004  1.00  0.00    -0.326 OA
HETATM   98  C69 UNL     1       0.380  10.457  -1.170  1.00  0.00     0.181 C 
HETATM   99  C70 UNL     1      -0.014  11.916  -1.022  1.00  0.00     0.215 C 
HETATM  100  C71 UNL     1      -1.483  12.028  -0.670  1.00  0.00     0.220 C 
HETATM  101  O35 UNL     1       0.224  12.598  -2.229  1.00  0.00    -0.218 OA
HETATM  102  C72 UNL     1      -1.739  11.204   0.576  1.00  0.00     0.241 C 
HETATM  103  O34 UNL     1      -1.828  13.369  -0.434  1.00  0.00    -0.218 OA
HETATM  104  O33 UNL     1      -3.116  11.203   0.867  1.00  0.00    -0.215 OA
ENDBRANCH  95  96
ENDBRANCH  88  95
ENDBRANCH  84  85
ENDBRANCH  78  84
BRANCH  79 105
HETATM  105  O22 UNL     1       1.302   4.006   1.794  1.00  0.00    -0.326 OA
BRANCH 105 106
HETATM  106  C57 UNL     1       2.593   4.114   1.250  1.00  0.00     0.270 C 
HETATM  107  O23 UNL     1       3.374   4.675   2.274  1.00  0.00    -0.329 OA
HETATM  108  C58 UNL     1       4.720   4.810   1.898  1.00  0.00     0.151 C 
HETATM  109  C59 UNL     1       4.867   5.672   0.648  1.00  0.00     0.212 C 
HETATM  110  C62 UNL     1       5.438   3.457   1.820  1.00  0.00     0.035 C 
HETATM  111  C60 UNL     1       3.920   5.304  -0.478  1.00  0.00     0.220 C 
HETATM  112  O26 UNL     1       4.613   7.015   0.996  1.00  0.00    -0.218 OA
HETATM  113  C61 UNL     1       2.535   5.037   0.058  1.00  0.00     0.241 C 
HETATM  114  O25 UNL     1       4.359   4.142  -1.131  1.00  0.00    -0.218 OA
HETATM  115  O24 UNL     1       1.772   4.435  -0.960  1.00  0.00    -0.215 OA
ENDBRANCH 105 106
ENDBRANCH  79 105
ENDBRANCH  74  75
ENDBRANCH  70  74
ENDBRANCH  64  65
ENDBRANCH   6  64
TORSDOF 22
