REMARK  3 active torsions:
REMARK  status: ('A' for Active; 'I' for Inactive)
REMARK    1  A    between atoms: C2_2  and  O3_12 
REMARK    2  A    between atoms: O3_12  and  C10_13 
REMARK    3  A    between atoms: C10_13  and  C11_14 
ROOT
HETATM    1  C11 UNL     1       0.551  -1.524   0.671  1.00  0.00     0.049 C 
HETATM    2  C12 UNL     1       0.654  -1.499  -0.899  1.00  0.00     0.008 C 
HETATM    3  C13 UNL     1      -0.777  -1.611  -1.502  1.00  0.00     0.034 C 
HETATM    4  C14 UNL     1      -1.594  -2.805  -0.971  1.00  0.00     0.156 C 
HETATM    5  C15 UNL     1      -0.981  -3.566   0.200  1.00  0.00     0.055 C 
HETATM    6  C16 UNL     1      -0.317  -2.657   1.197  1.00  0.00    -0.040 C 
HETATM    7  C17 UNL     1      -0.416  -2.927   2.510  1.00  0.00    -0.009 C 
HETATM    8  O4  UNL     1      -2.867  -2.356  -0.557  1.00  0.00    -0.223 OA
HETATM    9  C18 UNL     1      -0.924  -1.352  -3.037  1.00  0.00     0.031 C 
HETATM   10  C19 UNL     1      -0.239  -0.011  -3.375  1.00  0.00     0.152 C 
HETATM   11  C20 UNL     1       1.210   0.065  -2.903  1.00  0.00     0.033 C 
HETATM   12  C21 UNL     1       1.297  -0.173  -1.389  1.00  0.00     0.003 C 
HETATM   13  O5  UNL     1      -0.278   0.250  -4.759  1.00  0.00    -0.224 OA
HETATM   14  C22 UNL     1      -2.426  -1.217  -3.402  1.00  0.00     0.003 C 
HETATM   15  C23 UNL     1      -0.362  -2.488  -3.923  1.00  0.00     0.003 C 
HETATM   16  C24 UNL     1       1.594  -2.646  -1.360  1.00  0.00     0.001 C 
ENDROOT
BRANCH   1  17
HETATM   17  C10 UNL     1       0.160  -0.188   1.343  1.00  0.00     0.153 C 
BRANCH  17  18
HETATM   18  O3  UNL     1       1.321   0.586   1.518  1.00  0.00    -0.330 OA
BRANCH  18  19
HETATM   19  C2  UNL     1       1.250   1.779   2.190  1.00  0.00     0.096 A 
HETATM   20  C1  UNL     1       2.409   2.260   2.816  1.00  0.00     0.024 A 
HETATM   21  C6  UNL     1       2.417   3.444   3.545  1.00  0.00     0.004 A 
HETATM   22  C5  UNL     1       1.238   4.187   3.688  1.00  0.00     0.023 A 
HETATM   23  C4  UNL     1       0.038   3.733   3.113  1.00  0.00     0.105 A 
HETATM   24  C7  UNL     1       1.240   5.435   4.446  1.00  0.00     0.007 A 
HETATM   25  C3  UNL     1       0.082   2.526   2.399  1.00  0.00     0.049 A 
HETATM   26  O1  UNL     1      -1.146   4.408   3.228  1.00  0.00    -0.273 OA
HETATM   27  C9  UNL     1      -1.135   5.585   3.918  1.00  0.00     0.300 A 
HETATM   28  C8  UNL     1       0.085   6.124   4.560  1.00  0.00     0.069 A 
HETATM   29  O2  UNL     1      -2.170   6.240   4.028  1.00  0.00    -0.259 OA
ENDBRANCH  18  19
ENDBRANCH  17  18
ENDBRANCH   1  17
TORSDOF 3
