REMARK  4 active torsions:
REMARK  status: ('A' for Active; 'I' for Inactive)
REMARK    1  A    between atoms: C6_6  and  C7_7 
REMARK    2  A    between atoms: C10_11  and  C24_35 
REMARK    3  A    between atoms: C17_21  and  C22_31 
REMARK    4  A    between atoms: C19_24  and  C21_28 
ROOT
HETATM    1  C7  UNL     1      -2.886  -1.214  -1.591  1.00  0.00     0.138 C 
HETATM    2  C8  UNL     1      -3.232   0.278  -1.687  1.00  0.00     0.118 C 
HETATM    3  C9  UNL     1      -2.148   1.272  -1.289  1.00  0.00     0.254 C 
HETATM    4  N1  UNL     1      -0.853   0.902  -1.555  1.00  0.00    -0.230 NA
HETATM    5  C10 UNL     1       0.269   1.847  -1.407  1.00  0.00     0.185 C 
HETATM    6  C11 UNL     1       1.503   1.121  -0.874  1.00  0.00     0.261 C 
HETATM    7  N2  UNL     1       2.592   1.796  -0.379  1.00  0.00    -0.282 N 
HETATM    8  C12 UNL     1       3.866   1.024  -0.337  1.00  0.00     0.174 A 
HETATM    9  C13 UNL     1       4.942   1.957   0.256  1.00  0.00     0.061 A 
HETATM   10  C14 UNL     1       4.183   3.243   0.365  1.00  0.00     0.005 A 
HETATM   11  C15 UNL     1       2.892   3.119   0.012  1.00  0.00     0.117 A 
HETATM   12 CL1  UNL     1       1.811   4.449   0.102  1.00  0.00    -0.064 Cl
HETATM   13  C16 UNL     1       3.918  -0.376   0.281  1.00  0.00     0.273 C 
HETATM   14  N3  UNL     1       3.360  -0.591   1.513  1.00  0.00    -0.229 NA
HETATM   15  C17 UNL     1       2.490   0.306   2.286  1.00  0.00     0.186 C 
HETATM   16  C18 UNL     1       1.031  -0.158   2.238  1.00  0.00     0.274 C 
HETATM   17  N4  UNL     1       0.783  -1.211   1.397  1.00  0.00    -0.226 NA
HETATM   18  C19 UNL     1      -0.490  -1.946   1.307  1.00  0.00     0.219 C 
HETATM   19  C20 UNL     1      -0.991  -1.838  -0.128  1.00  0.00     0.277 C 
HETATM   20  N5  UNL     1      -2.304  -1.499  -0.279  1.00  0.00    -0.233 NA
HETATM   21  O1  UNL     1      -0.251  -1.997  -1.069  1.00  0.00    -0.268 OA
HETATM   22  O3  UNL     1       0.191   0.348   2.943  1.00  0.00    -0.268 OA
HETATM   23  O4  UNL     1       4.513  -1.279  -0.255  1.00  0.00    -0.269 OA
HETATM   24  O5  UNL     1       1.510  -0.106  -0.939  1.00  0.00    -0.270 OA
HETATM   25  O6  UNL     1      -2.435   2.352  -0.828  1.00  0.00    -0.270 OA
ENDROOT
BRANCH   1  26
HETATM   26  C6  UNL     1      -4.123  -2.062  -1.804  1.00  0.00     0.000 A 
HETATM   27  C1  UNL     1      -4.833  -2.624  -0.735  1.00  0.00    -0.002 A 
HETATM   28  C2  UNL     1      -5.970  -3.403  -0.961  1.00  0.00    -0.000 A 
HETATM   29  C3  UNL     1      -6.425  -3.623  -2.261  1.00  0.00    -0.000 A 
HETATM   30  C4  UNL     1      -5.736  -3.059  -3.336  1.00  0.00    -0.000 A 
HETATM   31  C5  UNL     1      -4.597  -2.286  -3.103  1.00  0.00    -0.002 A 
ENDBRANCH   1  26
BRANCH  18  32
HETATM   32  C21 UNL     1      -1.555  -1.664   2.369  1.00  0.00     0.216 C 
HETATM   33  O2  UNL     1      -0.994  -1.800   3.659  1.00  0.00    -0.218 OA
ENDBRANCH  18  32
BRANCH   5  34
HETATM   34  C24 UNL     1       0.612   2.510  -2.753  1.00  0.00     0.034 C 
HETATM   35  C25 UNL     1      -0.497   3.437  -3.268  1.00  0.00     0.003 C 
ENDBRANCH   5  34
BRANCH  15  36
HETATM   36  C22 UNL     1       2.965   0.352   3.753  1.00  0.00     0.034 C 
HETATM   37  C23 UNL     1       4.384   0.914   3.909  1.00  0.00     0.003 C 
ENDBRANCH  15  36
TORSDOF 4
