REMARK  3 active torsions:
REMARK  status: ('A' for Active; 'I' for Inactive)
REMARK    1  A    between atoms: C3_3  and  O6_23 
REMARK    2  A    between atoms: C4_4  and  O5_21 
REMARK    3  A    between atoms: C13_14  and  O2_17 
ROOT
HETATM    1  C1  UNL     1      -2.540   1.796   0.003  1.00  0.00     0.007 C 
HETATM    2  C2  UNL     1      -3.712   1.074   0.160  1.00  0.00     0.026 C 
HETATM    3  C3  UNL     1      -3.739  -0.328   0.262  1.00  0.00     0.118 C 
HETATM    4  C4  UNL     1      -2.502  -1.008   0.219  1.00  0.00     0.132 C 
HETATM    5  C5  UNL     1      -1.285  -0.263   0.262  1.00  0.00     0.088 C 
HETATM    6  C6  UNL     1      -1.309   1.126   0.049  1.00  0.00     0.057 C 
HETATM    7  C7  UNL     1      -0.072   1.931  -0.085  1.00  0.00     0.200 C 
HETATM    8  C8  UNL     1       1.249   1.257  -0.030  1.00  0.00     0.082 A 
HETATM    9  C9  UNL     1       1.254  -0.118   0.254  1.00  0.00     0.067 A 
HETATM   10  N1  UNL     1       0.023  -0.790   0.454  1.00  0.00    -0.324 N 
HETATM   11  C10 UNL     1       0.142  -2.113   1.124  1.00  0.00     0.131 C 
HETATM   12  C11 UNL     1       2.500  -0.768   0.273  1.00  0.00     0.047 A 
HETATM   13  C12 UNL     1       3.692  -0.087   0.063  1.00  0.00     0.157 A 
HETATM   14  C13 UNL     1       3.691   1.303  -0.167  1.00  0.00     0.145 A 
HETATM   15  C14 UNL     1       2.457   1.974  -0.243  1.00  0.00     0.160 A 
HETATM   16  O1  UNL     1       2.454   3.319  -0.446  1.00  0.00    -0.188 OA
HETATM   17  O3  UNL     1       4.872  -0.765   0.076  1.00  0.00    -0.188 OA
HETATM   18  O4  UNL     1      -0.181   3.139  -0.289  1.00  0.00    -0.286 OA
ENDROOT
BRANCH   3  19
HETATM   19  O6  UNL     1      -5.003  -0.868   0.360  1.00  0.00    -0.326 OA
HETATM   20  C17 UNL     1      -5.222  -2.239   0.583  1.00  0.00     0.181 C 
ENDBRANCH   3  19
BRANCH   4  21
HETATM   21  O5  UNL     1      -2.476  -2.378   0.202  1.00  0.00    -0.325 OA
HETATM   22  C16 UNL     1      -2.214  -2.917  -1.076  1.00  0.00     0.182 C 
ENDBRANCH   4  21
BRANCH  14  23
HETATM   23  O2  UNL     1       4.935   1.854  -0.381  1.00  0.00    -0.324 OA
HETATM   24  C15 UNL     1       5.088   3.085  -1.044  1.00  0.00     0.182 C 
ENDBRANCH  14  23
TORSDOF 3
