REMARK  2 active torsions:
REMARK  status: ('A' for Active; 'I' for Inactive)
REMARK    1  A    between atoms: C1_1  and  C2_2 
REMARK    2  A    between atoms: C18_19  and  C19_20 
ROOT
HETATM    1  C2  UNL     1      -3.791   0.280   1.465  1.00  0.00     0.127 C 
HETATM    2  C3  UNL     1      -4.384  -0.933   0.780  1.00  0.00     0.279 C 
HETATM    3  O1  UNL     1      -3.436  -2.147   0.961  1.00  0.00    -0.281 OA
HETATM    4  C4  UNL     1      -2.203  -1.619   1.345  1.00  0.00     0.077 C 
HETATM    5  C5  UNL     1      -2.289  -0.099   1.519  1.00  0.00     0.078 C 
HETATM    6  C6  UNL     1      -1.407   0.736   0.618  1.00  0.00    -0.028 C 
HETATM    7  C7  UNL     1      -1.057   0.532  -0.666  1.00  0.00    -0.048 C 
HETATM    8  C8  UNL     1       0.131   1.259  -1.280  1.00  0.00     0.022 C 
HETATM    9  C9  UNL     1       1.390   1.525  -0.413  1.00  0.00     0.009 C 
HETATM   10  C10 UNL     1       2.515   0.463  -0.262  1.00  0.00     0.025 A 
HETATM   11  C11 UNL     1       2.269  -0.833   0.597  1.00  0.00     0.059 A 
HETATM   12  C12 UNL     1       0.819  -0.953   1.067  1.00  0.00     0.012 C 
HETATM   13  C13 UNL     1       0.269  -2.083   1.940  1.00  0.00     0.024 C 
HETATM   14  C14 UNL     1      -1.160  -2.457   1.554  1.00  0.00    -0.025 C 
HETATM   15  C15 UNL     1      -1.335  -3.955   1.397  1.00  0.00     0.028 C 
HETATM   16  C16 UNL     1       2.587  -1.976  -0.368  1.00  0.00     0.172 A 
HETATM   17  C17 UNL     1       3.104  -1.391  -1.617  1.00  0.00     0.029 A 
HETATM   18  C18 UNL     1       3.096  -0.049  -1.566  1.00  0.00    -0.042 A 
HETATM   19  O2  UNL     1       2.469  -3.172  -0.148  1.00  0.00    -0.291 OA
HETATM   20  C22 UNL     1       3.229  -0.923   1.795  1.00  0.00     0.008 C 
HETATM   21  C23 UNL     1      -1.718  -0.472  -1.579  1.00  0.00     0.026 C 
HETATM   22  O3  UNL     1      -5.398  -0.939   0.101  1.00  0.00    -0.264 OA
ENDROOT
BRANCH   1  23
HETATM   23  C1  UNL     1      -4.197   1.597   0.806  1.00  0.00     0.162 C 
HETATM   24  C24 UNL     1      -3.800   2.820   1.630  1.00  0.00     0.036 C 
HETATM   25  O4  UNL     1      -5.601   1.608   0.663  1.00  0.00    -0.223 OA
ENDBRANCH   1  23
BRANCH  18  26
HETATM   26  C19 UNL     1       3.711   0.811  -2.652  1.00  0.00     0.018 C 
HETATM   27  C20 UNL     1       2.691   1.425  -3.622  1.00  0.00     0.004 C 
HETATM   28  C21 UNL     1       4.659   1.877  -2.082  1.00  0.00     0.004 C 
ENDBRANCH  18  26
TORSDOF 2
