REMARK  1 active torsions:
REMARK  status: ('A' for Active; 'I' for Inactive)
REMARK    1  A    between atoms: C18_21  and  C19_22 
ROOT
HETATM    1  C1  UNL     1      -4.169   1.022   0.890  1.00  0.00     0.229 C 
HETATM    2  C2  UNL     1      -3.649  -0.295   1.404  1.00  0.00     0.150 C 
HETATM    3  C3  UNL     1      -4.346  -1.484   0.767  1.00  0.00     0.281 C 
HETATM    4  O1  UNL     1      -3.295  -2.426   0.142  1.00  0.00    -0.281 OA
HETATM    5  C4  UNL     1      -2.063  -1.878   0.531  1.00  0.00     0.076 C 
HETATM    6  C5  UNL     1      -2.234  -0.376   0.784  1.00  0.00     0.090 C 
HETATM    7  C6  UNL     1      -2.438   0.471  -0.506  1.00  0.00     0.142 C 
HETATM    8  O2  UNL     1      -3.731   1.056  -0.431  1.00  0.00    -0.330 OA
HETATM    9  C7  UNL     1      -1.432   1.512  -1.020  1.00  0.00    -0.021 C 
HETATM   10  C8  UNL     1      -0.106   1.576  -0.791  1.00  0.00    -0.028 C 
HETATM   11  C9  UNL     1       0.687   0.673   0.093  1.00  0.00     0.049 C 
HETATM   12  C10 UNL     1       1.895  -0.021  -0.482  1.00  0.00    -0.022 C 
HETATM   13  C11 UNL     1       1.693  -1.448  -0.981  1.00  0.00     0.116 C 
HETATM   14  C12 UNL     1       1.564  -2.437   0.202  1.00  0.00     0.036 C 
HETATM   15  C13 UNL     1       0.382  -2.351   1.199  1.00  0.00     0.026 C 
HETATM   16  C14 UNL     1      -1.000  -2.700   0.670  1.00  0.00    -0.025 C 
HETATM   17  C15 UNL     1      -1.141  -4.174   0.333  1.00  0.00     0.028 C 
HETATM   18  O3  UNL     1       2.746  -1.890  -1.805  1.00  0.00    -0.303 OA
HETATM   19  C16 UNL     1       4.032  -1.491  -1.680  1.00  0.00     0.276 C 
HETATM   20  C17 UNL     1       4.298  -0.405  -0.663  1.00  0.00     0.117 C 
HETATM   21  C18 UNL     1       3.131   0.494  -0.373  1.00  0.00    -0.040 C 
HETATM   22  O4  UNL     1       4.921  -1.945  -2.369  1.00  0.00    -0.264 OA
HETATM   23  C22 UNL     1       0.482  -1.540  -1.926  1.00  0.00     0.035 C 
HETATM   24  C23 UNL     1      -2.025   2.538  -1.971  1.00  0.00     0.029 C 
HETATM   25  O5  UNL     1      -5.557  -1.610   0.653  1.00  0.00    -0.264 OA
HETATM   26  C24 UNL     1      -3.700   2.246   1.655  1.00  0.00     0.065 C 
HETATM   27  O6  UNL     1      -5.579   0.998   0.843  1.00  0.00    -0.195 OA
ENDROOT
BRANCH  21  28
HETATM   28  C19 UNL     1       3.433   1.866   0.213  1.00  0.00     0.018 C 
HETATM   29  C20 UNL     1       4.014   1.731   1.629  1.00  0.00     0.004 C 
HETATM   30  C21 UNL     1       4.342   2.721  -0.686  1.00  0.00     0.004 C 
ENDBRANCH  21  28
TORSDOF 1
