REMARK  3 active torsions:
REMARK  status: ('A' for Active; 'I' for Inactive)
REMARK    1  A    between atoms: C7_7  and  C12_15 
REMARK    2  A    between atoms: C12_15  and  C13_16 
REMARK    3  A    between atoms: C14_17  and  C15_18 
ROOT
HETATM    1  C1  UNL     1      -1.488  -1.160   2.696  1.00  0.00     0.000 C 
HETATM    2  C2  UNL     1      -2.899  -0.803   2.229  1.00  0.00     0.000 C 
HETATM    3  C3  UNL     1      -2.940   0.601   1.574  1.00  0.00     0.003 C 
HETATM    4  C4  UNL     1      -1.586   0.928   0.863  1.00  0.00     0.033 C 
HETATM    5  C5  UNL     1      -0.787  -0.303   0.320  1.00  0.00     0.005 C 
HETATM    6  C6  UNL     1      -0.525  -1.283   1.506  1.00  0.00     0.000 C 
HETATM    7  C7  UNL     1       0.601   0.162  -0.258  1.00  0.00     0.035 C 
HETATM    8  C8  UNL     1       0.552   1.343  -1.255  1.00  0.00     0.157 C 
HETATM    9  C9  UNL     1      -0.237   2.470  -0.604  1.00  0.00     0.210 C 
HETATM   10  C10 UNL     1      -1.632   2.061  -0.176  1.00  0.00     0.185 C 
HETATM   11  O1  UNL     1      -2.217   3.233   0.339  1.00  0.00    -0.221 OA
HETATM   12  O2  UNL     1      -0.328   3.565  -1.481  1.00  0.00    -0.218 OA
HETATM   13  C11 UNL     1       0.072   1.040  -2.680  1.00  0.00     0.036 C 
HETATM   14  O3  UNL     1       1.853   1.855  -1.414  1.00  0.00    -0.223 OA
HETATM   15  C18 UNL     1      -1.573  -1.075  -0.767  1.00  0.00     0.000 C 
HETATM   16  C19 UNL     1      -4.163   0.662   0.634  1.00  0.00     0.000 C 
HETATM   17  C20 UNL     1      -3.207   1.610   2.725  1.00  0.00     0.000 C 
ENDROOT
BRANCH   7  18
HETATM   18  C12 UNL     1       1.523  -0.996  -0.720  1.00  0.00     0.028 C 
BRANCH  18  19
HETATM   19  C13 UNL     1       3.003  -0.722  -0.574  1.00  0.00    -0.030 C 
HETATM   20  C14 UNL     1       4.005  -1.565  -0.912  1.00  0.00    -0.026 C 
HETATM   21  C17 UNL     1       5.438  -1.157  -0.642  1.00  0.00     0.031 C 
BRANCH  20  22
HETATM   22  C15 UNL     1       3.717  -2.887  -1.498  1.00  0.00    -0.005 C 
HETATM   23  C16 UNL     1       4.658  -3.811  -1.774  1.00  0.00    -0.000 C 
ENDBRANCH  20  22
ENDBRANCH  18  19
ENDBRANCH   7  18
TORSDOF 3
