REMARK  5 active torsions:
REMARK  status: ('A' for Active; 'I' for Inactive)
REMARK    1  A    between atoms: C2_2  and  O10_43 
REMARK    2  A    between atoms: C6_6  and  O1_7 
REMARK    3  A    between atoms: C11_12  and  C12_13 
REMARK    4  A    between atoms: C19_20  and  O3_25 
REMARK    5  A    between atoms: C21_22  and  O2_23 
ROOT
HETATM    1  C1  UNL     1       0.117   1.296  -3.599  1.00  0.00     0.048 C 
HETATM    2  C2  UNL     1       1.030   0.464  -2.889  1.00  0.00     0.096 C 
HETATM    3  C3  UNL     1       0.532  -0.125  -1.750  1.00  0.00     0.024 C 
HETATM    4  C4  UNL     1      -0.806   0.076  -1.296  1.00  0.00     0.005 C 
HETATM    5  C5  UNL     1      -1.714   0.762  -2.123  1.00  0.00     0.048 C 
HETATM    6  C6  UNL     1      -1.229   1.422  -3.311  1.00  0.00     0.098 C 
HETATM    7  C8  UNL     1      -3.091   0.839  -1.714  1.00  0.00     0.135 C 
HETATM    8  C9  UNL     1      -3.442   0.409  -0.443  1.00  0.00     0.056 C 
HETATM    9  C10 UNL     1      -2.470  -0.102   0.476  1.00  0.00    -0.015 C 
HETATM   10  C11 UNL     1      -1.184  -0.318   0.031  1.00  0.00    -0.004 C 
HETATM   11  C29 UNL     1      -2.856  -0.370   1.912  1.00  0.00     0.057 C 
HETATM   12  C30 UNL     1      -3.942   0.590   2.389  1.00  0.00     0.138 C 
HETATM   13  C31 UNL     1      -5.162   0.406   1.494  1.00  0.00     0.100 C 
HETATM   14  C32 UNL     1      -4.855   0.540   0.013  1.00  0.00     0.177 C 
HETATM   15  O7  UNL     1      -5.804   0.745  -0.736  1.00  0.00    -0.291 OA
HETATM   16  O8  UNL     1      -4.301   0.229   3.698  1.00  0.00    -0.225 OA
HETATM   17  C33 UNL     1      -3.455   2.040   2.427  1.00  0.00     0.034 C 
HETATM   18  O9  UNL     1      -4.044   1.302  -2.568  1.00  0.00    -0.190 OA
ENDROOT
BRANCH  10  19
HETATM   19  C12 UNL     1      -0.111  -0.829   0.954  1.00  0.00    -0.004 C 
HETATM   20  C13 UNL     1      -0.068  -2.153   1.334  1.00  0.00    -0.015 C 
HETATM   21  C14 UNL     1       1.051  -2.615   2.099  1.00  0.00     0.056 C 
HETATM   22  C27 UNL     1      -1.156  -3.118   0.923  1.00  0.00     0.057 C 
HETATM   23  C15 UNL     1       2.158  -1.812   2.330  1.00  0.00     0.135 C 
HETATM   24  C24 UNL     1       1.052  -4.024   2.589  1.00  0.00     0.177 C 
HETATM   25  C16 UNL     1       2.160  -0.464   1.832  1.00  0.00     0.048 C 
HETATM   26  O4  UNL     1       3.209  -2.282   3.055  1.00  0.00    -0.190 OA
HETATM   27  C17 UNL     1       0.975   0.051   1.279  1.00  0.00     0.005 C 
HETATM   28  C21 UNL     1       3.351   0.348   1.813  1.00  0.00     0.098 C 
HETATM   29  C18 UNL     1       0.905   1.433   0.935  1.00  0.00     0.024 C 
HETATM   30  C19 UNL     1       1.998   2.267   0.985  1.00  0.00     0.096 C 
HETATM   31  C20 UNL     1       3.227   1.643   1.346  1.00  0.00     0.048 C 
HETATM   32  C25 UNL     1      -0.012  -4.979   2.077  1.00  0.00     0.100 C 
HETATM   33  O6  UNL     1       1.856  -4.471   3.400  1.00  0.00    -0.291 OA
HETATM   34  C26 UNL     1      -0.634  -4.541   0.756  1.00  0.00     0.138 C 
HETATM   35  O5  UNL     1      -1.730  -5.379   0.491  1.00  0.00    -0.225 OA
HETATM   36  C28 UNL     1       0.339  -4.662  -0.418  1.00  0.00     0.034 C 
BRANCH  30  37
HETATM   37  O3  UNL     1       1.869   3.554   0.521  1.00  0.00    -0.328 OA
HETATM   38  C23 UNL     1       3.028   4.221   0.078  1.00  0.00     0.181 C 
ENDBRANCH  30  37
BRANCH  28  39
HETATM   39  O2  UNL     1       4.572  -0.220   2.087  1.00  0.00    -0.328 OA
HETATM   40  C22 UNL     1       5.737   0.332   1.520  1.00  0.00     0.181 C 
ENDBRANCH  28  39
ENDBRANCH  10  19
BRANCH   2  41
HETATM   41  O10 UNL     1       2.372   0.353  -3.159  1.00  0.00    -0.328 OA
HETATM   42  C34 UNL     1       2.989   1.400  -3.873  1.00  0.00     0.181 C 
ENDBRANCH   2  41
BRANCH   6  43
HETATM   43  O1  UNL     1      -2.054   2.269  -4.010  1.00  0.00    -0.328 OA
HETATM   44  C7  UNL     1      -1.500   3.252  -4.853  1.00  0.00     0.181 C 
ENDBRANCH   6  43
TORSDOF 5
