REMARK  9 active torsions:
REMARK  status: ('A' for Active; 'I' for Inactive)
REMARK    1  A    between atoms: C9_9  and  C11_12 
REMARK    2  A    between atoms: C11_12  and  C12_13 
REMARK    3  A    between atoms: C16_18  and  C19_22 
REMARK    4  A    between atoms: C20_23  and  O5_29 
REMARK    5  A    between atoms: O5_29  and  C25_30 
REMARK    6  A    between atoms: C28_33  and  C31_36 
REMARK    7  A    between atoms: C40_48  and  C44_52 
REMARK    8  A    between atoms: C44_52  and  C45_53 
REMARK    9  A    between atoms: C45_53  and  C46_54 
ROOT
HETATM    1  C25 UNL     1      -1.893   1.616   2.837  1.00  0.00     0.102 A 
HETATM    2  C26 UNL     1      -1.955   0.553   1.931  1.00  0.00     0.052 A 
HETATM    3  C27 UNL     1      -3.095   0.218   1.186  1.00  0.00     0.131 A 
HETATM    4  C28 UNL     1      -4.263   0.994   1.330  1.00  0.00     0.031 A 
HETATM    5  C29 UNL     1      -4.200   2.075   2.222  1.00  0.00     0.002 A 
HETATM    6  C30 UNL     1      -3.049   2.395   2.939  1.00  0.00     0.025 A 
HETATM    7  O10 UNL     1      -3.000  -0.829   0.321  1.00  0.00    -0.190 OA
ENDROOT
BRANCH   1   8
HETATM    8  O5  UNL     1      -0.763   1.906   3.550  1.00  0.00    -0.307 OA
BRANCH   8   9
HETATM    9  C20 UNL     1      -0.654   1.378   4.812  1.00  0.00     0.100 A 
HETATM   10  C19 UNL     1       0.610   1.278   5.424  1.00  0.00     0.028 A 
HETATM   11  C24 UNL     1       0.712   0.794   6.734  1.00  0.00     0.002 A 
HETATM   12  C23 UNL     1      -0.411   0.377   7.445  1.00  0.00     0.027 A 
HETATM   13  C22 UNL     1      -1.675   0.438   6.860  1.00  0.00     0.133 A 
HETATM   14  C21 UNL     1      -1.762   0.949   5.562  1.00  0.00     0.052 A 
HETATM   15  O4  UNL     1      -2.777   0.038   7.546  1.00  0.00    -0.190 OA
BRANCH  10  16
HETATM   16  C16 UNL     1       1.877   1.712   4.700  1.00  0.00     0.152 C 
HETATM   17  O2  UNL     1       2.933   0.842   5.018  1.00  0.00    -0.329 OA
HETATM   18  C5  UNL     1       4.143   1.121   4.442  1.00  0.00     0.095 C 
HETATM   19  C4  UNL     1       4.478   2.486   3.974  1.00  0.00     0.065 C 
HETATM   20  C6  UNL     1       5.013   0.096   4.223  1.00  0.00     0.019 C 
HETATM   21  C3  UNL     1       5.561   2.765   3.200  1.00  0.00     0.118 C 
HETATM   22  C18 UNL     1       3.542   3.590   4.422  1.00  0.00     0.115 C 
HETATM   23  C2  UNL     1       6.410   1.606   2.789  1.00  0.00     0.105 C 
HETATM   24  O11 UNL     1       5.867   4.002   2.723  1.00  0.00    -0.194 OA
HETATM   25  C1  UNL     1       6.347   0.327   3.583  1.00  0.00     0.076 C 
HETATM   26  O1  UNL     1       7.228  -0.680   3.304  1.00  0.00    -0.339 OA
HETATM   27  C9  UNL     1       6.725  -1.980   3.311  1.00  0.00     0.102 C 
HETATM   28  C8  UNL     1       5.905  -2.205   4.590  1.00  0.00     0.033 C 
HETATM   29  C10 UNL     1       7.930  -2.936   3.345  1.00  0.00     0.030 C 
HETATM   30  C7  UNL     1       4.668  -1.304   4.666  1.00  0.00     0.033 C 
HETATM   31  C17 UNL     1       2.247   3.144   5.073  1.00  0.00     0.089 C 
HETATM   32  O3  UNL     1       3.815   4.872   4.318  1.00  0.00    -0.195 OA
BRANCH  27  33
HETATM   33  C11 UNL     1       5.893  -2.226   2.037  1.00  0.00     0.053 C 
BRANCH  33  34
HETATM   34  C12 UNL     1       6.622  -1.995   0.734  1.00  0.00    -0.032 C 
HETATM   35  C13 UNL     1       6.125  -2.247  -0.490  1.00  0.00    -0.048 C 
HETATM   36  C14 UNL     1       6.931  -1.968  -1.737  1.00  0.00     0.026 C 
HETATM   37  C15 UNL     1       4.745  -2.805  -0.742  1.00  0.00     0.026 C 
ENDBRANCH  33  34
ENDBRANCH  27  33
ENDBRANCH  10  16
ENDBRANCH   8   9
ENDBRANCH   1   8
BRANCH   4  38
HETATM   38  C31 UNL     1      -5.586   0.661   0.630  1.00  0.00     0.153 C 
HETATM   39  C32 UNL     1      -6.587   1.810   0.493  1.00  0.00     0.104 C 
HETATM   40  C33 UNL     1      -5.982   2.897  -0.375  1.00  0.00     0.180 C 
HETATM   41  C34 UNL     1      -5.103   2.397  -1.465  1.00  0.00     0.083 A 
HETATM   42  O9  UNL     1      -6.236   4.077  -0.159  1.00  0.00    -0.291 OA
HETATM   43  C35 UNL     1      -4.921   1.006  -1.582  1.00  0.00     0.101 A 
HETATM   44  C39 UNL     1      -4.524   3.296  -2.377  1.00  0.00     0.138 A 
HETATM   45  O6  UNL     1      -5.421   0.129  -0.659  1.00  0.00    -0.328 OA
HETATM   46  C36 UNL     1      -4.114   0.535  -2.633  1.00  0.00     0.045 A 
HETATM   47  C37 UNL     1      -3.463   1.398  -3.530  1.00  0.00     0.098 A 
HETATM   48  C42 UNL     1      -3.862  -0.896  -2.805  1.00  0.00     0.002 C 
HETATM   49  C38 UNL     1      -3.719   2.765  -3.386  1.00  0.00     0.052 A 
HETATM   50  O8  UNL     1      -2.651   0.970  -4.544  1.00  0.00    -0.331 OA
HETATM   51  C40 UNL     1      -2.752  -0.362  -4.988  1.00  0.00     0.117 C 
HETATM   52  C41 UNL     1      -3.195  -1.308  -3.896  1.00  0.00     0.001 C 
HETATM   53  C43 UNL     1      -1.339  -0.755  -5.444  1.00  0.00     0.035 C 
HETATM   54  O7  UNL     1      -4.703   4.642  -2.303  1.00  0.00    -0.190 OA
BRANCH  51  55
HETATM   55  C44 UNL     1      -3.745  -0.400  -6.167  1.00  0.00     0.037 C 
BRANCH  55  56
HETATM   56  C45 UNL     1      -4.027  -1.790  -6.765  1.00  0.00     0.028 C 
BRANCH  56  57
HETATM   57  C46 UNL     1      -4.870  -1.692  -8.017  1.00  0.00    -0.035 C 
HETATM   58  C47 UNL     1      -4.520  -2.010  -9.277  1.00  0.00    -0.048 C 
HETATM   59  C48 UNL     1      -5.504  -1.865 -10.418  1.00  0.00     0.026 C 
HETATM   60  C49 UNL     1      -3.171  -2.537  -9.709  1.00  0.00     0.026 C 
ENDBRANCH  56  57
ENDBRANCH  55  56
ENDBRANCH  51  55
ENDBRANCH   4  38
TORSDOF 9
