REMARK  10 active torsions:
REMARK  status: ('A' for Active; 'I' for Inactive)
REMARK    1  A    between atoms: C3_3  and  C7_8 
REMARK    2  A    between atoms: C8_9  and  O2_19 
REMARK    3  A    between atoms: C11_12  and  C13_14 
REMARK    4  A    between atoms: C13_14  and  C14_15 
REMARK    5  A    between atoms: C14_15  and  N1_16 
REMARK    6  A    between atoms: C19_22  and  C20_23 
REMARK    7  A    between atoms: C22_25  and  C27_31 
REMARK    8  A    between atoms: C25_28  and  O3_29 
REMARK    9  A    between atoms: C27_31  and  C28_32 
REMARK   10  A    between atoms: C28_32  and  N2_33 
ROOT
HETATM    1  C1  UNL     1      -0.481  -0.300  -0.728  1.00  0.00     0.033 C 
HETATM    2  C2  UNL     1      -0.172  -1.823  -0.807  1.00  0.00     0.007 C 
HETATM    3  C3  UNL     1      -1.338  -2.483  -1.548  1.00  0.00     0.027 C 
HETATM    4  C4  UNL     1      -2.096  -1.345  -2.258  1.00  0.00     0.035 C 
HETATM    5  C5  UNL     1      -1.742  -0.030  -1.556  1.00  0.00     0.127 C 
HETATM    6  O1  UNL     1      -2.783   0.273  -0.658  1.00  0.00    -0.226 OA
HETATM    7  C6  UNL     1      -1.663   1.160  -2.511  1.00  0.00     0.033 C 
HETATM    8  C18 UNL     1       1.155  -1.516  -1.564  1.00  0.00     0.004 C 
HETATM    9  C19 UNL     1       0.922  -0.002  -1.314  1.00  0.00     0.027 C 
HETATM   10  C31 UNL     1       2.396  -2.148  -0.915  1.00  0.00     0.000 C 
HETATM   11  C32 UNL     1       1.199  -1.841  -3.068  1.00  0.00     0.000 C 
ENDROOT
BRANCH   3  12
HETATM   12  C7  UNL     1      -2.265  -3.264  -0.623  1.00  0.00    -0.000 C 
HETATM   13  C8  UNL     1      -2.684  -4.569  -0.946  1.00  0.00     0.090 C 
HETATM   14  C9  UNL     1      -3.668  -5.146  -0.133  1.00  0.00     0.024 C 
HETATM   15  C10 UNL     1      -4.117  -4.543   1.042  1.00  0.00    -0.002 C 
HETATM   16  C11 UNL     1      -3.619  -3.298   1.433  1.00  0.00    -0.020 C 
HETATM   17  C12 UNL     1      -2.693  -2.690   0.581  1.00  0.00    -0.007 C 
BRANCH  13  18
HETATM   18  O2  UNL     1      -2.342  -5.177  -2.126  1.00  0.00    -0.328 OA
HETATM   19  C17 UNL     1      -1.221  -6.024  -2.009  1.00  0.00     0.181 C 
ENDBRANCH  13  18
BRANCH  16  20
HETATM   20  C13 UNL     1      -4.121  -2.643   2.704  1.00  0.00     0.062 C 
BRANCH  20  21
HETATM   21  C14 UNL     1      -4.070  -1.103   2.716  1.00  0.00     0.255 C 
BRANCH  21  22
HETATM   22  N1  UNL     1      -4.853  -0.491   3.788  1.00  0.00     0.142 N 
HETATM   23  C15 UNL     1      -4.807   0.961   3.679  1.00  0.00     0.285 C 
HETATM   24  C16 UNL     1      -4.411  -0.912   5.109  1.00  0.00     0.285 C 
ENDBRANCH  21  22
ENDBRANCH  20  21
ENDBRANCH  16  20
ENDBRANCH   3  12
BRANCH   9  25
HETATM   25  C20 UNL     1       1.881   0.796  -0.445  1.00  0.00    -0.000 A 
HETATM   26  C21 UNL     1       2.539   1.867  -1.068  1.00  0.00    -0.007 A 
HETATM   27  C22 UNL     1       3.407   2.741  -0.407  1.00  0.00    -0.020 A 
HETATM   28  C23 UNL     1       3.635   2.493   0.946  1.00  0.00    -0.002 A 
HETATM   29  C24 UNL     1       2.983   1.439   1.586  1.00  0.00     0.024 A 
HETATM   30  C25 UNL     1       2.105   0.562   0.928  1.00  0.00     0.090 A 
BRANCH  27  31
HETATM   31  C27 UNL     1       4.018   3.893  -1.179  1.00  0.00     0.062 C 
BRANCH  31  32
HETATM   32  C28 UNL     1       4.829   4.922  -0.371  1.00  0.00     0.255 C 
BRANCH  32  33
HETATM   33  N2  UNL     1       5.147   6.142  -1.112  1.00  0.00     0.142 N 
HETATM   34  C29 UNL     1       5.883   7.071  -0.264  1.00  0.00     0.285 C 
HETATM   35  C30 UNL     1       5.892   5.883  -2.334  1.00  0.00     0.285 C 
ENDBRANCH  32  33
ENDBRANCH  31  32
ENDBRANCH  27  31
BRANCH  30  36
HETATM   36  O3  UNL     1       1.448  -0.437   1.601  1.00  0.00    -0.328 OA
HETATM   37  C26 UNL     1       0.984  -0.154   2.901  1.00  0.00     0.181 C 
ENDBRANCH  30  36
ENDBRANCH   9  25
TORSDOF 10
