REMARK  1 active torsions:
REMARK  status: ('A' for Active; 'I' for Inactive)
REMARK    1  A    between atoms: C16_17  and  O1_18 
ROOT
HETATM    1  C1  UNL     1      -1.367   3.193  -0.480  1.00  0.00     0.022 A 
HETATM    2  C2  UNL     1      -2.528   2.454  -0.304  1.00  0.00     0.119 A 
HETATM    3  C3  UNL     1      -2.486   1.092  -0.025  1.00  0.00     0.119 A 
HETATM    4  C4  UNL     1      -1.273   0.409   0.113  1.00  0.00     0.022 A 
HETATM    5  C5  UNL     1      -0.088   1.144  -0.107  1.00  0.00     0.010 A 
HETATM    6  C6  UNL     1      -0.141   2.519  -0.385  1.00  0.00    -0.020 A 
HETATM    7  C7  UNL     1       1.125   3.300  -0.612  1.00  0.00     0.061 C 
HETATM    8  C8  UNL     1       2.362   2.524  -0.152  1.00  0.00     0.255 C 
HETATM    9  N1  UNL     1       2.324   1.168  -0.679  1.00  0.00     0.144 N 
HETATM   10  C9  UNL     1       1.242   0.408  -0.047  1.00  0.00     0.276 C 
HETATM   11  C10 UNL     1       1.015  -0.962  -0.700  1.00  0.00     0.212 C 
HETATM   12  C11 UNL     1      -0.035  -1.730   0.070  1.00  0.00     0.032 C 
HETATM   13  C12 UNL     1      -1.190  -1.025   0.446  1.00  0.00     0.002 C 
HETATM   14  C13 UNL     1      -2.200  -1.690   1.154  1.00  0.00    -0.000 C 
HETATM   15  C14 UNL     1      -2.096  -3.057   1.396  1.00  0.00     0.002 C 
HETATM   16  C15 UNL     1      -0.954  -3.744   0.986  1.00  0.00     0.024 C 
HETATM   17  C16 UNL     1       0.139  -3.085   0.408  1.00  0.00     0.093 C 
HETATM   18  O2  UNL     1       0.525  -0.755  -2.011  1.00  0.00    -0.216 OA
HETATM   19  C18 UNL     1       3.629   0.539  -0.505  1.00  0.00     0.286 C 
HETATM   20  O3  UNL     1      -3.787   0.628   0.068  1.00  0.00    -0.300 OA
HETATM   21  C19 UNL     1      -4.672   1.737  -0.127  1.00  0.00     0.304 A 
HETATM   22  O4  UNL     1      -3.841   2.875  -0.372  1.00  0.00    -0.300 OA
ENDROOT
BRANCH  17  23
HETATM   23  O1  UNL     1       1.216  -3.812  -0.027  1.00  0.00    -0.328 OA
HETATM   24  C17 UNL     1       2.214  -3.970   0.956  1.00  0.00     0.181 C 
ENDBRANCH  17  23
TORSDOF 1
