REMARK  10 active torsions:
REMARK  status: ('A' for Active; 'I' for Inactive)
REMARK    1  A    between atoms: C3_3  and  C7_9 
REMARK    2  A    between atoms: C7_9  and  C8_10 
REMARK    3  A    between atoms: C8_10  and  O3_11 
REMARK    4  A    between atoms: O3_11  and  C9_12 
REMARK    5  A    between atoms: C10_14  and  C24_34 
REMARK    6  A    between atoms: C13_17  and  O5_18 
REMARK    7  A    between atoms: O5_18  and  C14_19 
REMARK    8  A    between atoms: C14_19  and  C15_20 
REMARK    9  A    between atoms: C16_21  and  C17_22 
REMARK   10  A    between atoms: C21_26  and  O6_28 
ROOT
HETATM    1  C9  UNL     1      -0.151  -1.472   2.570  1.00  0.00     0.267 C 
HETATM    2  O4  UNL     1       0.042  -1.749   3.943  1.00  0.00    -0.326 OA
HETATM    3  C10 UNL     1      -0.699  -2.855   4.389  1.00  0.00     0.184 C 
HETATM    4  C11 UNL     1      -0.270  -4.098   3.620  1.00  0.00     0.215 C 
HETATM    5  C12 UNL     1      -0.490  -3.881   2.139  1.00  0.00     0.217 C 
HETATM    6  C13 UNL     1       0.275  -2.645   1.702  1.00  0.00     0.213 C 
HETATM    7  O9  UNL     1      -0.030  -5.011   1.440  1.00  0.00    -0.218 OA
HETATM    8  O10 UNL     1      -1.025  -5.222   4.002  1.00  0.00    -0.218 OA
ENDROOT
BRANCH   6   9
HETATM    9  O5  UNL     1      -0.050  -2.382   0.366  1.00  0.00    -0.293 OA
BRANCH   9  10
HETATM   10  C14 UNL     1       0.921  -2.055  -0.536  1.00  0.00     0.296 C 
HETATM   11  O8  UNL     1       2.113  -2.118  -0.245  1.00  0.00    -0.259 OA
BRANCH  10  12
HETATM   12  C15 UNL     1       0.534  -1.558  -1.878  1.00  0.00     0.068 C 
HETATM   13  C16 UNL     1       1.431  -1.288  -2.858  1.00  0.00     0.005 C 
BRANCH  13  14
HETATM   14  C17 UNL     1       1.092  -0.828  -4.214  1.00  0.00     0.002 A 
HETATM   15  C18 UNL     1       2.077  -0.897  -5.209  1.00  0.00     0.002 A 
HETATM   16  C19 UNL     1       1.794  -0.470  -6.503  1.00  0.00     0.029 A 
HETATM   17  C20 UNL     1       0.539   0.046  -6.839  1.00  0.00     0.153 A 
HETATM   18  C21 UNL     1      -0.464   0.147  -5.861  1.00  0.00     0.119 A 
HETATM   19  O7  UNL     1       0.278   0.463  -8.107  1.00  0.00    -0.188 OA
HETATM   20  C22 UNL     1      -0.152  -0.277  -4.559  1.00  0.00     0.026 A 
BRANCH  18  21
HETATM   21  O6  UNL     1      -1.661   0.700  -6.244  1.00  0.00    -0.326 OA
HETATM   22  C23 UNL     1      -2.621   0.993  -5.257  1.00  0.00     0.181 C 
ENDBRANCH  18  21
ENDBRANCH  13  14
ENDBRANCH  10  12
ENDBRANCH   9  10
ENDBRANCH   6   9
BRANCH   1  23
HETATM   23  O3  UNL     1       0.720  -0.390   2.304  1.00  0.00    -0.329 OA
BRANCH  23  24
HETATM   24  C8  UNL     1       0.070   0.851   2.189  1.00  0.00     0.150 C 
BRANCH  24  25
HETATM   25  C7  UNL     1       1.131   1.916   1.907  1.00  0.00     0.059 C 
BRANCH  25  26
HETATM   26  C3  UNL     1       0.640   3.304   1.556  1.00  0.00    -0.018 A 
HETATM   27  C2  UNL     1       1.579   4.293   1.241  1.00  0.00    -0.002 A 
HETATM   28  C1  UNL     1       1.176   5.580   0.885  1.00  0.00     0.029 A 
HETATM   29  C6  UNL     1      -0.177   5.918   0.828  1.00  0.00     0.156 A 
HETATM   30  C5  UNL     1      -1.131   4.945   1.145  1.00  0.00     0.156 A 
HETATM   31  O1  UNL     1      -0.574   7.167   0.474  1.00  0.00    -0.188 OA
HETATM   32  C4  UNL     1      -0.713   3.660   1.507  1.00  0.00     0.025 A 
HETATM   33  O2  UNL     1      -2.449   5.275   1.089  1.00  0.00    -0.188 OA
ENDBRANCH  25  26
ENDBRANCH  24  25
ENDBRANCH  23  24
ENDBRANCH   1  23
BRANCH   3  34
HETATM   34  C24 UNL     1      -0.473  -3.023   5.885  1.00  0.00     0.214 C 
HETATM   35  O11 UNL     1      -1.054  -1.940   6.583  1.00  0.00    -0.218 OA
ENDBRANCH   3  34
TORSDOF 10
