REMARK  10 active torsions:
REMARK  status: ('A' for Active; 'I' for Inactive)
REMARK    1  A    between atoms: C2_2  and  C3_3 
REMARK    2  A    between atoms: C3_3  and  C4_4 
REMARK    3  A    between atoms: C3_3  and  O1_9 
REMARK    4  A    between atoms: C4_4  and  C5_5 
REMARK    5  A    between atoms: C5_5  and  C6_6 
REMARK    6  A    between atoms: C6_6  and  C7_7 
REMARK    7  A    between atoms: O1_9  and  C9_10 
REMARK    8  A    between atoms: C10_12  and  C14_19 
REMARK    9  A    between atoms: C14_19  and  O6_20 
REMARK   10  A    between atoms: O6_20  and  S1_21 
ROOT
HETATM    1  C9  UNL     1      -0.320  -0.773  -0.928  1.00  0.00     0.270 C 
HETATM    2  O2  UNL     1       0.988  -0.577  -1.424  1.00  0.00    -0.326 OA
HETATM    3  C10 UNL     1       1.963  -1.211  -0.636  1.00  0.00     0.182 C 
HETATM    4  C11 UNL     1       1.703  -2.715  -0.598  1.00  0.00     0.215 C 
HETATM    5  C12 UNL     1       0.299  -2.995  -0.102  1.00  0.00     0.220 C 
HETATM    6  C13 UNL     1      -0.675  -2.239  -0.975  1.00  0.00     0.241 C 
HETATM    7  O3  UNL     1      -1.975  -2.422  -0.473  1.00  0.00    -0.215 OA
HETATM    8  O4  UNL     1       0.039  -4.373  -0.180  1.00  0.00    -0.218 OA
HETATM    9  O5  UNL     1       2.596  -3.373   0.264  1.00  0.00    -0.218 OA
ENDROOT
BRANCH   1  10
HETATM   10  O1  UNL     1      -1.174  -0.078  -1.813  1.00  0.00    -0.327 OA
BRANCH  10  11
HETATM   11  C3  UNL     1      -1.372   1.275  -1.459  1.00  0.00     0.140 C 
BRANCH  11  12
HETATM   12  C2  UNL     1      -1.915   2.034  -2.650  1.00  0.00     0.003 C 
HETATM   13  C1  UNL     1      -1.761   3.356  -2.814  1.00  0.00    -0.002 C 
ENDBRANCH  11  12
BRANCH  11  14
HETATM   14  C4  UNL     1      -2.346   1.394  -0.274  1.00  0.00     0.034 C 
BRANCH  14  15
HETATM   15  C5  UNL     1      -1.751   2.167   0.915  1.00  0.00     0.003 C 
BRANCH  15  16
HETATM   16  C6  UNL     1      -2.704   2.184   2.121  1.00  0.00     0.000 C 
BRANCH  16  17
HETATM   17  C7  UNL     1      -2.100   2.925   3.325  1.00  0.00     0.000 C 
HETATM   18  C8  UNL     1      -3.040   2.904   4.537  1.00  0.00     0.000 C 
ENDBRANCH  16  17
ENDBRANCH  15  16
ENDBRANCH  14  15
ENDBRANCH  11  14
ENDBRANCH  10  11
ENDBRANCH   1  10
BRANCH   3  19
HETATM   19  C14 UNL     1       3.333  -0.864  -1.218  1.00  0.00     0.198 C 
BRANCH  19  20
HETATM   20  O6  UNL     1       4.331  -1.119  -0.264  1.00  0.00    -0.235 OA
BRANCH  20  21
HETATM   21  S1  UNL     1       5.903  -1.151  -0.814  1.00  0.00     0.252 S 
HETATM   22  O7  UNL     1       6.082  -0.204  -1.900  1.00  0.00    -0.572 OA
HETATM   23  O8  UNL     1       6.830  -1.016   0.298  1.00  0.00    -0.572 OA
HETATM   24  O9  UNL     1       6.278  -2.692  -1.313  1.00  0.00    -0.572 OA
ENDBRANCH  20  21
ENDBRANCH  19  20
ENDBRANCH   3  19
TORSDOF 10
