REMARK  11 active torsions:
REMARK  status: ('A' for Active; 'I' for Inactive)
REMARK    1  A    between atoms: C3_3  and  C7_7 
REMARK    2  A    between atoms: C7_7  and  C8_8 
REMARK    3  A    between atoms: C8_8  and  O1_9 
REMARK    4  A    between atoms: O1_9  and  C9_10 
REMARK    5  A    between atoms: C10_12  and  C26_37 
REMARK    6  A    between atoms: C13_15  and  O3_16 
REMARK    7  A    between atoms: O3_16  and  C14_17 
REMARK    8  A    between atoms: C16_20  and  C18_23 
REMARK    9  A    between atoms: C18_23  and  O6_24 
REMARK   10  A    between atoms: O6_24  and  C19_25 
REMARK   11  A    between atoms: C19_25  and  C20_26 
ROOT
HETATM    1  C9  UNL     1       2.753   0.049  -0.557  1.00  0.00     0.267 C 
HETATM    2  O2  UNL     1       4.009  -0.205   0.042  1.00  0.00    -0.326 OA
HETATM    3  C10 UNL     1       4.448   0.842   0.866  1.00  0.00     0.184 C 
HETATM    4  C11 UNL     1       3.444   1.050   1.992  1.00  0.00     0.215 C 
HETATM    5  C12 UNL     1       2.074   1.331   1.416  1.00  0.00     0.217 C 
HETATM    6  C13 UNL     1       1.665   0.192   0.495  1.00  0.00     0.207 C 
HETATM    7  O10 UNL     1       1.147   1.452   2.466  1.00  0.00    -0.218 OA
HETATM    8  O11 UNL     1       3.808   2.145   2.797  1.00  0.00    -0.218 OA
ENDROOT
BRANCH   6   9
HETATM    9  O3  UNL     1       0.441   0.559  -0.080  1.00  0.00    -0.324 OA
BRANCH   9  10
HETATM   10  C14 UNL     1      -0.422  -0.522  -0.375  1.00  0.00     0.270 C 
HETATM   11  O4  UNL     1      -1.176  -0.066  -1.482  1.00  0.00    -0.326 OA
HETATM   12  C15 UNL     1      -2.383   0.433  -0.966  1.00  0.00     0.181 C 
HETATM   13  C16 UNL     1      -2.747  -0.508   0.167  1.00  0.00     0.214 C 
HETATM   14  C17 UNL     1      -1.382  -0.799   0.764  1.00  0.00     0.241 C 
HETATM   15  O9  UNL     1      -3.253  -1.695  -0.388  1.00  0.00    -0.218 OA
HETATM   16  O5  UNL     1      -1.330  -2.143   1.174  1.00  0.00    -0.215 OA
BRANCH  13  17
HETATM   17  C18 UNL     1      -3.777   0.061   1.131  1.00  0.00     0.188 C 
BRANCH  17  18
HETATM   18  O6  UNL     1      -4.080  -0.916   2.083  1.00  0.00    -0.296 OA
BRANCH  18  19
HETATM   19  C19 UNL     1      -4.703  -0.646   3.272  1.00  0.00     0.296 C 
HETATM   20  O8  UNL     1      -4.836  -1.601   4.037  1.00  0.00    -0.259 OA
BRANCH  19  21
HETATM   21  C20 UNL     1      -5.246   0.651   3.794  1.00  0.00     0.063 A 
HETATM   22  C21 UNL     1      -5.476   0.767   5.176  1.00  0.00     0.007 A 
HETATM   23  C22 UNL     1      -5.977   1.946   5.734  1.00  0.00     0.028 A 
HETATM   24  C23 UNL     1      -6.262   3.061   4.943  1.00  0.00     0.131 A 
HETATM   25  C24 UNL     1      -6.049   2.941   3.566  1.00  0.00     0.028 A 
HETATM   26  O7  UNL     1      -6.747   4.211   5.481  1.00  0.00    -0.190 OA
HETATM   27  C25 UNL     1      -5.561   1.762   2.998  1.00  0.00     0.007 A 
ENDBRANCH  19  21
ENDBRANCH  18  19
ENDBRANCH  17  18
ENDBRANCH  13  17
ENDBRANCH   9  10
ENDBRANCH   6   9
BRANCH   1  28
HETATM   28  O1  UNL     1       2.527  -1.110  -1.336  1.00  0.00    -0.329 OA
BRANCH  28  29
HETATM   29  C8  UNL     1       2.777  -0.921  -2.706  1.00  0.00     0.150 C 
BRANCH  29  30
HETATM   30  C7  UNL     1       2.509  -2.237  -3.434  1.00  0.00     0.059 C 
BRANCH  30  31
HETATM   31  C3  UNL     1       2.582  -2.204  -4.946  1.00  0.00    -0.020 A 
HETATM   32  C2  UNL     1       2.262  -3.366  -5.663  1.00  0.00    -0.004 A 
HETATM   33  C1  UNL     1       2.294  -3.393  -7.058  1.00  0.00    -0.000 A 
HETATM   34  C6  UNL     1       2.649  -2.247  -7.770  1.00  0.00    -0.000 A 
HETATM   35  C5  UNL     1       2.975  -1.082  -7.074  1.00  0.00    -0.000 A 
HETATM   36  C4  UNL     1       2.944  -1.065  -5.677  1.00  0.00    -0.004 A 
ENDBRANCH  30  31
ENDBRANCH  29  30
ENDBRANCH  28  29
ENDBRANCH   1  28
BRANCH   3  37
HETATM   37  C26 UNL     1       5.842   0.501   1.388  1.00  0.00     0.214 C 
HETATM   38  O12 UNL     1       6.733   1.568   1.127  1.00  0.00    -0.218 OA
ENDBRANCH   3  37
TORSDOF 11
