REMARK  7 active torsions:
REMARK  status: ('A' for Active; 'I' for Inactive)
REMARK    1  A    between atoms: C6_6  and  O1_7 
REMARK    2  A    between atoms: O1_7  and  C7_8 
REMARK    3  A    between atoms: C17_22  and  C18_23 
REMARK    4  A    between atoms: C18_23  and  C19_24 
REMARK    5  A    between atoms: C21_27  and  C23_30 
REMARK    6  A    between atoms: C23_30  and  O8_31 
REMARK    7  A    between atoms: O8_31  and  C24_32 
ROOT
HETATM    1  C1  UNL     1      -3.627   0.024  -0.590  1.00  0.00     0.030 C 
HETATM    2  C2  UNL     1      -3.904  -0.687   0.733  1.00  0.00     0.003 C 
HETATM    3  C3  UNL     1      -3.076  -1.981   0.858  1.00  0.00     0.003 C 
HETATM    4  C4  UNL     1      -1.568  -1.653   0.621  1.00  0.00     0.040 C 
HETATM    5  C5  UNL     1      -1.138  -0.618  -0.492  1.00  0.00     0.056 C 
HETATM    6  C6  UNL     1      -2.180   0.514  -0.636  1.00  0.00     0.127 C 
HETATM    7  C9  UNL     1       0.260  -0.038  -0.058  1.00  0.00     0.017 C 
HETATM    8  C10 UNL     1       1.250  -1.206   0.195  1.00  0.00     0.104 C 
HETATM    9  C11 UNL     1       0.568  -2.467  -0.314  1.00  0.00     0.253 C 
HETATM   10  C12 UNL     1      -0.684  -2.891   0.421  1.00  0.00     0.206 C 
HETATM   11  O3  UNL     1      -0.396  -3.556   1.627  1.00  0.00    -0.218 OA
HETATM   12  O4  UNL     1       0.226  -2.252  -1.661  1.00  0.00    -0.330 OA
HETATM   13  C13 UNL     1      -0.934  -1.451  -1.767  1.00  0.00     0.147 C 
HETATM   14  O5  UNL     1       1.460  -3.553  -0.380  1.00  0.00    -0.192 OA
HETATM   15  C14 UNL     1       2.656  -0.941  -0.383  1.00  0.00     0.012 C 
HETATM   16  C15 UNL     1       3.080   0.299   0.425  1.00  0.00     0.010 C 
HETATM   17  C16 UNL     1       2.228   1.518   0.002  1.00  0.00     0.001 C 
HETATM   18  C17 UNL     1       0.942   1.154  -0.789  1.00  0.00     0.008 C 
HETATM   19  C21 UNL     1       2.834  -0.237   1.855  1.00  0.00     0.087 C 
HETATM   20  C22 UNL     1       1.640  -1.159   1.672  1.00  0.00     0.157 C 
HETATM   21  O7  UNL     1       1.081  -1.720   2.582  1.00  0.00    -0.296 OA
HETATM   22  C26 UNL     1      -3.295  -2.503   2.304  1.00  0.00     0.000 C 
HETATM   23  C27 UNL     1      -3.687  -3.059  -0.068  1.00  0.00     0.000 C 
ENDROOT
BRANCH   6  24
HETATM   24  O1  UNL     1      -2.010   1.236  -1.825  1.00  0.00    -0.304 OA
BRANCH  24  25
HETATM   25  C7  UNL     1      -2.549   2.492  -1.866  1.00  0.00     0.272 C 
HETATM   26  C8  UNL     1      -2.654   3.011  -3.287  1.00  0.00     0.106 C 
HETATM   27  O2  UNL     1      -2.991   3.089  -0.910  1.00  0.00    -0.264 OA
ENDBRANCH  24  25
ENDBRANCH   6  24
BRANCH  18  28
HETATM   28  C18 UNL     1       1.273   1.012  -2.295  1.00  0.00     0.065 C 
BRANCH  28  29
HETATM   29  C19 UNL     1       0.664   2.048  -3.225  1.00  0.00     0.151 C 
HETATM   30  O6  UNL     1       0.471   3.189  -2.874  1.00  0.00    -0.296 OA
HETATM   31  C20 UNL     1       0.344   1.588  -4.636  1.00  0.00     0.072 C 
ENDBRANCH  28  29
ENDBRANCH  18  28
BRANCH  19  32
HETATM   32  C23 UNL     1       2.674   0.755   3.003  1.00  0.00     0.150 C 
BRANCH  32  33
HETATM   33  O8  UNL     1       3.814   1.575   3.053  1.00  0.00    -0.354 OA
BRANCH  33  34
HETATM   34  C24 UNL     1       3.736   2.544   4.069  1.00  0.00     0.142 C 
HETATM   35  C25 UNL     1       5.075   3.271   4.155  1.00  0.00     0.035 C 
ENDBRANCH  33  34
ENDBRANCH  32  33
ENDBRANCH  19  32
TORSDOF 7
