REMARK  4 active torsions:
REMARK  status: ('A' for Active; 'I' for Inactive)
REMARK    1  A    between atoms: C11_12  and  C13_15 
REMARK    2  A    between atoms: C15_17  and  O5_25 
REMARK    3  A    between atoms: C16_18  and  O4_23 
REMARK    4  A    between atoms: C18_20  and  O3_21 
ROOT
HETATM    1  C1  UNL     1       5.798  -1.790  -0.226  1.00  0.00     0.117 C 
HETATM    2  O1  UNL     1       5.415  -0.448  -0.094  1.00  0.00    -0.332 OA
HETATM    3  C2  UNL     1       4.088  -0.145   0.064  1.00  0.00     0.096 A 
HETATM    4  C3  UNL     1       3.069  -1.016  -0.086  1.00  0.00     0.045 A 
HETATM    5  C4  UNL     1       3.363  -2.290  -0.401  1.00  0.00     0.002 C 
HETATM    6  C5  UNL     1       4.632  -2.701  -0.499  1.00  0.00     0.001 C 
HETATM    7  C6  UNL     1       1.776  -0.640   0.054  1.00  0.00     0.105 A 
HETATM    8  C7  UNL     1       1.480   0.628   0.391  1.00  0.00     0.062 A 
HETATM    9  C8  UNL     1       2.490   1.495   0.587  1.00  0.00     0.007 A 
HETATM   10  C9  UNL     1       3.761   1.109   0.421  1.00  0.00     0.024 A 
HETATM   11  C10 UNL     1       0.182   1.033   0.526  1.00  0.00     0.200 C 
HETATM   12  C11 UNL     1      -0.861   0.185   0.260  1.00  0.00     0.066 C 
HETATM   13  C12 UNL     1      -0.493  -1.071  -0.084  1.00  0.00     0.126 C 
HETATM   14  O2  UNL     1       0.778  -1.544  -0.114  1.00  0.00    -0.305 OA
HETATM   15  O6  UNL     1       0.035   2.160   0.938  1.00  0.00    -0.286 OA
HETATM   16  C22 UNL     1       6.476  -2.222   1.079  1.00  0.00     0.035 C 
HETATM   17  C23 UNL     1       6.790  -1.882  -1.391  1.00  0.00     0.035 C 
ENDROOT
BRANCH  12  18
HETATM   18  C13 UNL     1      -2.187   0.539   0.232  1.00  0.00     0.029 A 
HETATM   19  C14 UNL     1      -3.121  -0.436   0.338  1.00  0.00     0.028 A 
HETATM   20  C15 UNL     1      -4.465  -0.328   0.358  1.00  0.00     0.116 A 
HETATM   21  C16 UNL     1      -4.984   0.915   0.265  1.00  0.00     0.118 A 
HETATM   22  C17 UNL     1      -4.081   1.904   0.155  1.00  0.00     0.050 A 
HETATM   23  C18 UNL     1      -2.739   1.775   0.096  1.00  0.00     0.096 A 
BRANCH  20  24
HETATM   24  O5  UNL     1      -5.170  -1.510   0.479  1.00  0.00    -0.326 OA
HETATM   25  C21 UNL     1      -6.572  -1.553   0.372  1.00  0.00     0.181 C 
ENDBRANCH  20  24
BRANCH  21  26
HETATM   26  O4  UNL     1      -6.341   1.127   0.295  1.00  0.00    -0.326 OA
HETATM   27  C20 UNL     1      -6.857   2.437   0.242  1.00  0.00     0.181 C 
ENDBRANCH  21  26
BRANCH  23  28
HETATM   28  O3  UNL     1      -2.057   2.958  -0.056  1.00  0.00    -0.328 OA
HETATM   29  C19 UNL     1      -1.656   3.222  -1.382  1.00  0.00     0.181 C 
ENDBRANCH  23  28
ENDBRANCH  12  18
TORSDOF 4
