REMARK  4 active torsions:
REMARK  status: ('A' for Active; 'I' for Inactive)
REMARK    1  A    between atoms: C3_3  and  O2_7 
REMARK    2  A    between atoms: O2_7  and  C6_8 
REMARK    3  A    between atoms: C8_10  and  C12_17 
REMARK    4  A    between atoms: C13_19  and  C16_22 
ROOT
HETATM    1  O2  UNL     1       0.358  -0.312   0.088  1.00  0.00    -0.330 OA
ENDROOT
BRANCH   1   2
HETATM    2  C3  UNL     1       0.207  -0.763  -1.237  1.00  0.00     0.244 C 
HETATM    3  C2  UNL     1      -1.204  -0.419  -1.671  1.00  0.00     0.082 C 
HETATM    4  C1  UNL     1      -1.479   1.099  -1.647  1.00  0.00     0.037 C 
HETATM    5  C13 UNL     1      -1.573  -0.790  -3.082  1.00  0.00    -0.011 C 
HETATM    6  C5  UNL     1      -0.216   1.848  -1.989  1.00  0.00     0.001 C 
HETATM    7  C15 UNL     1      -2.538   1.339  -2.746  1.00  0.00     0.030 C 
HETATM    8  C4  UNL     1       0.969   1.251  -2.178  1.00  0.00     0.114 C 
HETATM    9  O1  UNL     1       1.186  -0.080  -1.982  1.00  0.00    -0.304 OA
HETATM   10  C14 UNL     1      -2.306   0.168  -3.661  1.00  0.00    -0.032 C 
BRANCH   5  11
HETATM   11  C16 UNL     1      -1.249  -2.127  -3.677  1.00  0.00     0.204 C 
HETATM   12  O7  UNL     1      -1.655  -3.173  -2.805  1.00  0.00    -0.216 OA
ENDBRANCH   5  11
ENDBRANCH   1   2
BRANCH   1  13
HETATM   13  C6  UNL     1       1.520  -0.713   0.757  1.00  0.00     0.151 C 
HETATM   14  C7  UNL     1       1.115  -1.492   2.011  1.00  0.00     0.038 C 
HETATM   15  C8  UNL     1       0.344  -0.645   3.043  1.00  0.00     0.069 C 
HETATM   16  C9  UNL     1       1.077   0.673   3.333  1.00  0.00     0.188 C 
HETATM   17  C10 UNL     1       1.548   1.431   2.098  1.00  0.00     0.215 C 
HETATM   18  O5  UNL     1       2.218   0.392   4.120  1.00  0.00    -0.221 OA
HETATM   19  C11 UNL     1       2.314   0.535   1.136  1.00  0.00     0.212 C 
HETATM   20  O4  UNL     1       0.469   2.051   1.431  1.00  0.00    -0.218 OA
HETATM   21  O3  UNL     1       3.527   0.149   1.741  1.00  0.00    -0.218 OA
BRANCH  15  22
HETATM   22  C12 UNL     1      -1.132  -0.452   2.676  1.00  0.00     0.185 C 
HETATM   23  O6  UNL     1      -1.864  -0.033   3.811  1.00  0.00    -0.221 OA
ENDBRANCH  15  22
ENDBRANCH   1  13
TORSDOF 4
