REMARK  4 active torsions:
REMARK  status: ('A' for Active; 'I' for Inactive)
REMARK    1  A    between atoms: C4_4  and  C12_14 
REMARK    2  A    between atoms: C8_8  and  C9_10 
REMARK    3  A    between atoms: C12_14  and  C13_15 
REMARK    4  A    between atoms: C14_16  and  C15_17 
ROOT
HETATM    1  C12 UNL     1       1.810  -2.103   0.165  1.00  0.00     0.198 C 
HETATM    2  O4  UNL     1       2.912  -2.595   0.299  1.00  0.00    -0.286 OA
ENDROOT
BRANCH   1   3
HETATM    3  C4  UNL     1       0.705  -2.876   0.419  1.00  0.00     0.064 A 
HETATM    4  C3  UNL     1       0.849  -4.224   0.538  1.00  0.00     0.136 A 
HETATM    5  C2  UNL     1      -0.221  -5.001   0.800  1.00  0.00     0.051 A 
HETATM    6  O5  UNL     1       2.036  -4.878   0.370  1.00  0.00    -0.190 OA
HETATM    7  C1  UNL     1      -1.431  -4.463   0.972  1.00  0.00     0.092 A 
HETATM    8  C6  UNL     1      -1.577  -3.143   0.878  1.00  0.00     0.003 A 
HETATM    9  O1  UNL     1      -2.466  -5.068   1.238  1.00  0.00    -0.331 OA
HETATM   10  C5  UNL     1      -0.526  -2.357   0.617  1.00  0.00     0.003 A 
HETATM   11  C7  UNL     1      -2.997  -2.746   1.141  1.00  0.00     0.061 A 
HETATM   12  C8  UNL     1      -3.556  -4.159   1.433  1.00  0.00     0.153 A 
BRANCH  12  13
HETATM   13  C9  UNL     1      -4.173  -4.351   2.827  1.00  0.00     0.152 C 
HETATM   14  C10 UNL     1      -5.415  -3.476   3.009  1.00  0.00     0.036 C 
HETATM   15  C11 UNL     1      -3.168  -4.114   3.958  1.00  0.00     0.036 C 
HETATM   16  O2  UNL     1      -4.599  -5.688   2.927  1.00  0.00    -0.224 OA
ENDBRANCH  12  13
ENDBRANCH   1   3
BRANCH   1  17
HETATM   17  C13 UNL     1       1.865  -0.794  -0.226  1.00  0.00     0.042 C 
HETATM   18  C14 UNL     1       0.922   0.044  -0.696  1.00  0.00     0.003 C 
BRANCH  18  19
HETATM   19  C15 UNL     1       1.086   1.338  -1.056  1.00  0.00    -0.000 A 
HETATM   20  C16 UNL     1       2.234   2.034  -0.944  1.00  0.00    -0.002 A 
HETATM   21  C17 UNL     1       2.355   3.319  -1.327  1.00  0.00     0.000 A 
HETATM   22  C18 UNL     1       1.301   3.986  -1.837  1.00  0.00     0.090 A 
HETATM   23  C23 UNL     1       3.690   4.010  -1.170  1.00  0.00     0.031 C 
HETATM   24  C19 UNL     1       0.155   3.293  -1.959  1.00  0.00     0.024 A 
HETATM   25  O3  UNL     1       1.354   5.284  -2.280  1.00  0.00    -0.336 OA
HETATM   26  C20 UNL     1       0.042   2.014  -1.574  1.00  0.00     0.002 A 
HETATM   27  C21 UNL     1       2.611   5.819  -2.548  1.00  0.00     0.099 C 
HETATM   28  C22 UNL     1       3.542   5.520  -1.371  1.00  0.00     0.033 C 
HETATM   29  C24 UNL     1       2.438   7.339  -2.688  1.00  0.00     0.030 C 
HETATM   30  C25 UNL     1       3.137   5.261  -3.877  1.00  0.00     0.030 C 
ENDBRANCH  18  19
ENDBRANCH   1  17
TORSDOF 4
