REMARK  0 active torsions:
REMARK  status: ('A' for Active; 'I' for Inactive)
ROOT
HETATM    1  C1  UNL     1      -5.062  -1.280  -0.069  1.00  0.00     0.033 C 
HETATM    2  C2  UNL     1      -5.213  -2.635   0.607  1.00  0.00     0.152 C 
HETATM    3  C3  UNL     1      -3.920  -3.469   0.492  1.00  0.00     0.029 C 
HETATM    4  C4  UNL     1      -2.653  -2.562   0.361  1.00  0.00     0.007 C 
HETATM    5  C5  UNL     1      -2.688  -1.150   1.009  1.00  0.00     0.004 C 
HETATM    6  C6  UNL     1      -4.016  -0.422   0.655  1.00  0.00     0.003 C 
HETATM    7  C7  UNL     1      -1.488  -0.338   0.424  1.00  0.00     0.018 C 
HETATM    8  C8  UNL     1      -0.152  -1.065   0.473  1.00  0.00    -0.049 C 
HETATM    9  C9  UNL     1      -0.127  -2.401   0.620  1.00  0.00    -0.035 C 
HETATM   10  C10 UNL     1      -1.342  -3.283   0.710  1.00  0.00     0.025 C 
HETATM   11  C11 UNL     1       1.141  -0.216   0.456  1.00  0.00     0.017 C 
HETATM   12  C12 UNL     1       0.957   1.109  -0.357  1.00  0.00     0.003 C 
HETATM   13  C13 UNL     1      -0.251   1.879   0.266  1.00  0.00     0.001 C 
HETATM   14  C14 UNL     1      -1.322   1.069   1.014  1.00  0.00     0.004 C 
HETATM   15  C15 UNL     1       2.259   2.016  -0.365  1.00  0.00     0.003 C 
HETATM   16  C16 UNL     1       3.623   1.233  -0.275  1.00  0.00     0.028 C 
HETATM   17  C17 UNL     1       3.527  -0.242  -0.701  1.00  0.00     0.152 C 
HETATM   18  C18 UNL     1       2.303  -1.015  -0.196  1.00  0.00     0.037 C 
HETATM   19  O1  UNL     1       3.638  -0.379  -2.102  1.00  0.00    -0.224 OA
HETATM   20  C19 UNL     1       4.716   1.926  -1.132  1.00  0.00     0.002 C 
HETATM   21  C20 UNL     1       4.793   3.417  -0.808  1.00  0.00     0.000 C 
HETATM   22  C21 UNL     1       3.532   4.106  -1.348  1.00  0.00     0.000 C 
HETATM   23  C22 UNL     1       2.299   3.160  -1.441  1.00  0.00     0.000 C 
HETATM   24  C23 UNL     1       1.060   4.084  -1.463  1.00  0.00     0.000 C 
HETATM   25  C24 UNL     1       3.871   4.742  -2.716  1.00  0.00     0.000 C 
HETATM   26  C25 UNL     1       4.221   1.221   1.169  1.00  0.00     0.003 C 
HETATM   27  C26 UNL     1       0.604   0.735  -1.828  1.00  0.00     0.000 C 
HETATM   28  C27 UNL     1       1.423   0.006   1.966  1.00  0.00     0.004 C 
HETATM   29  C28 UNL     1      -2.535  -1.232   2.547  1.00  0.00     0.000 C 
HETATM   30  C29 UNL     1      -4.042  -4.317  -0.806  1.00  0.00     0.003 C 
HETATM   31  C30 UNL     1      -3.851  -4.497   1.645  1.00  0.00     0.003 C 
HETATM   32  O2  UNL     1      -5.593  -2.430   1.947  1.00  0.00    -0.224 OA
ENDROOT
TORSDOF 0
