REMARK  0 active torsions:
REMARK  status: ('A' for Active; 'I' for Inactive)
ROOT
HETATM    1  C1  UNL     1       0.203   2.424   0.004  1.00  0.00     0.085 A 
HETATM    2  C2  UNL     1      -0.133   2.520   1.317  1.00  0.00     0.035 A 
HETATM    3  C3  UNL     1       0.693   1.886   2.183  1.00  0.00     0.059 A 
HETATM    4  C4  UNL     1       1.725   1.149   1.742  1.00  0.00     0.013 A 
HETATM    5  C5  UNL     1       2.038   1.079   0.439  1.00  0.00     0.027 A 
HETATM    6  C6  UNL     1       1.291   1.763  -0.446  1.00  0.00     0.141 A 
HETATM    7  O1  UNL     1       1.596   1.707  -1.776  1.00  0.00    -0.189 OA
HETATM    8  C7  UNL     1       3.114   0.360   0.058  1.00  0.00    -0.000 A 
HETATM    9  C8  UNL     1       3.207  -0.975   0.253  1.00  0.00    -0.009 A 
HETATM   10  C9  UNL     1       4.357  -1.596  -0.086  1.00  0.00     0.080 A 
HETATM   11  C10 UNL     1       5.408  -0.940  -0.616  1.00  0.00     0.152 A 
HETATM   12  C11 UNL     1       5.272   0.379  -0.839  1.00  0.00     0.084 A 
HETATM   13  C12 UNL     1       4.137   1.017  -0.517  1.00  0.00     0.013 A 
HETATM   14 CL1  UNL     1       6.569   1.291  -1.532  1.00  0.00    -0.080 Cl
HETATM   15  O2  UNL     1       6.559  -1.595  -0.945  1.00  0.00    -0.188 OA
HETATM   16 CL2  UNL     1       4.532  -3.309   0.113  1.00  0.00    -0.081 Cl
HETATM   17  C13 UNL     1       1.977  -1.771   0.685  1.00  0.00     0.032 C 
HETATM   18  C14 UNL     1       1.235  -2.235  -0.588  1.00  0.00     0.031 C 
HETATM   19  C15 UNL     1      -0.262  -2.345  -0.393  1.00  0.00    -0.021 A 
HETATM   20  C16 UNL     1      -1.023  -1.239  -0.397  1.00  0.00    -0.002 A 
HETATM   21  C17 UNL     1      -2.367  -1.245  -0.274  1.00  0.00     0.028 A 
HETATM   22  C18 UNL     1      -2.967  -2.449  -0.120  1.00  0.00     0.141 A 
HETATM   23  C19 UNL     1      -2.209  -3.565  -0.103  1.00  0.00     0.083 A 
HETATM   24  C20 UNL     1      -0.877  -3.526  -0.246  1.00  0.00     0.009 A 
HETATM   25 CL3  UNL     1      -2.946  -5.118   0.114  1.00  0.00    -0.080 Cl
HETATM   26  O3  UNL     1      -4.306  -2.557   0.109  1.00  0.00    -0.189 OA
HETATM   27  C21 UNL     1      -3.023  -0.055  -0.308  1.00  0.00     0.028 A 
HETATM   28  C22 UNL     1      -2.477   1.011   0.320  1.00  0.00     0.003 A 
HETATM   29  C23 UNL     1      -3.015   2.245   0.419  1.00  0.00     0.012 A 
HETATM   30  C24 UNL     1      -4.213   2.359  -0.190  1.00  0.00     0.014 A 
HETATM   31  C25 UNL     1      -4.783   1.341  -0.852  1.00  0.00     0.083 A 
HETATM   32  C26 UNL     1      -4.212   0.126  -0.922  1.00  0.00     0.141 A 
HETATM   33  O4  UNL     1      -4.805  -0.855  -1.659  1.00  0.00    -0.189 OA
HETATM   34 CL4  UNL     1      -6.307   1.622  -1.631  1.00  0.00    -0.080 Cl
HETATM   35  C27 UNL     1      -2.454   3.247   1.155  1.00  0.00     0.068 C 
HETATM   36  C28 UNL     1      -1.202   3.267   1.694  1.00  0.00     0.070 C 
HETATM   37 CL5  UNL     1      -0.888   4.384   3.006  1.00  0.00    -0.081 Cl
HETATM   38 CL6  UNL     1      -3.495   4.603   1.542  1.00  0.00    -0.082 Cl
HETATM   39 CL7  UNL     1       0.431   1.787   3.898  1.00  0.00    -0.082 Cl
HETATM   40 CL8  UNL     1      -0.674   3.280  -1.231  1.00  0.00    -0.080 Cl
ENDROOT
TORSDOF 0
