REMARK  1 active torsions:
REMARK  status: ('A' for Active; 'I' for Inactive)
REMARK    1  A    between atoms: C18_22  and  O3_25 
ROOT
HETATM    1  C1  UNL     1       0.510   2.446  -0.153  1.00  0.00     0.083 A 
HETATM    2  C2  UNL     1       0.180   2.687   1.137  1.00  0.00     0.013 A 
HETATM    3  C3  UNL     1       1.054   2.281   2.078  1.00  0.00     0.001 A 
HETATM    4  C4  UNL     1       2.123   1.538   1.758  1.00  0.00     0.002 A 
HETATM    5  C5  UNL     1       2.396   1.258   0.474  1.00  0.00     0.026 A 
HETATM    6  C6  UNL     1       1.618   1.760  -0.502  1.00  0.00     0.141 A 
HETATM    7  O1  UNL     1       1.924   1.512  -1.808  1.00  0.00    -0.189 OA
HETATM    8  C7  UNL     1       3.464   0.497   0.166  1.00  0.00    -0.000 A 
HETATM    9  C8  UNL     1       3.427  -0.852   0.238  1.00  0.00    -0.009 A 
HETATM   10  C9  UNL     1       4.552  -1.533  -0.065  1.00  0.00     0.080 A 
HETATM   11  C10 UNL     1       5.691  -0.922  -0.449  1.00  0.00     0.152 A 
HETATM   12  C11 UNL     1       5.683   0.420  -0.540  1.00  0.00     0.084 A 
HETATM   13  C12 UNL     1       4.581   1.122  -0.240  1.00  0.00     0.013 A 
HETATM   14 CL1  UNL     1       7.101   1.275  -1.042  1.00  0.00    -0.080 Cl
HETATM   15  O2  UNL     1       6.810  -1.640  -0.754  1.00  0.00    -0.188 OA
HETATM   16 CL2  UNL     1       4.585  -3.264   0.005  1.00  0.00    -0.081 Cl
HETATM   17  C13 UNL     1       2.122  -1.570   0.574  1.00  0.00     0.032 C 
HETATM   18  C14 UNL     1       1.429  -2.056  -0.718  1.00  0.00     0.031 C 
HETATM   19  C15 UNL     1      -0.072  -2.191  -0.562  1.00  0.00    -0.022 A 
HETATM   20  C16 UNL     1      -0.849  -1.096  -0.559  1.00  0.00    -0.002 A 
HETATM   21  C17 UNL     1      -2.196  -1.104  -0.451  1.00  0.00     0.024 A 
HETATM   22  C18 UNL     1      -2.793  -2.313  -0.301  1.00  0.00     0.094 A 
HETATM   23  C19 UNL     1      -2.020  -3.418  -0.359  1.00  0.00     0.024 A 
HETATM   24  C20 UNL     1      -0.686  -3.378  -0.477  1.00  0.00    -0.002 A 
HETATM   25  C22 UNL     1      -2.835   0.096  -0.467  1.00  0.00     0.027 A 
HETATM   26  C23 UNL     1      -2.258   1.126   0.191  1.00  0.00     0.002 A 
HETATM   27  C24 UNL     1      -2.760   2.371   0.296  1.00  0.00     0.000 A 
HETATM   28  C25 UNL     1      -3.967   2.563  -0.262  1.00  0.00     0.002 A 
HETATM   29  C26 UNL     1      -4.560   1.573  -0.944  1.00  0.00     0.027 A 
HETATM   30  C27 UNL     1      -4.021   0.347  -1.064  1.00  0.00     0.131 A 
HETATM   31  O4  UNL     1      -4.671  -0.568  -1.835  1.00  0.00    -0.190 OA
HETATM   32  C28 UNL     1      -2.168   3.345   1.023  1.00  0.00     0.000 C 
HETATM   33  C29 UNL     1      -0.931   3.330   1.559  1.00  0.00     0.001 C 
HETATM   34 CL3  UNL     1      -0.420   3.067  -1.481  1.00  0.00    -0.080 Cl
ENDROOT
BRANCH  22  35
HETATM   35  O3  UNL     1      -4.144  -2.491  -0.135  1.00  0.00    -0.328 OA
HETATM   36  C21 UNL     1      -4.623  -2.164   1.151  1.00  0.00     0.181 C 
ENDBRANCH  22  35
TORSDOF 1
