REMARK  5 active torsions:
REMARK  status: ('A' for Active; 'I' for Inactive)
REMARK    1  A    between atoms: C2_2  and  O6_36 
REMARK    2  A    between atoms: C12_12  and  C26_30 
REMARK    3  A    between atoms: C15_15  and  C18_20 
REMARK    4  A    between atoms: C21_23  and  C22_25 
REMARK    5  A    between atoms: O6_36  and  C31_37 
ROOT
HETATM    1  C1  UNL     1      -3.784  -0.947   0.722  1.00  0.00     0.030 C 
HETATM    2  C2  UNL     1      -3.574  -2.362   1.287  1.00  0.00     0.118 C 
HETATM    3  C3  UNL     1      -2.624  -3.197   0.396  1.00  0.00     0.025 C 
HETATM    4  C4  UNL     1      -1.231  -2.500   0.463  1.00  0.00     0.002 C 
HETATM    5  C5  UNL     1      -1.241  -0.970   0.520  1.00  0.00     0.000 A 
HETATM    6  C6  UNL     1      -2.542  -0.339   0.050  1.00  0.00     0.003 C 
HETATM    7  C7  UNL     1       0.089  -0.250   0.283  1.00  0.00     0.000 A 
HETATM    8  C8  UNL     1       1.374  -1.093   0.117  1.00  0.00     0.003 C 
HETATM    9  C9  UNL     1       1.170  -2.596  -0.178  1.00  0.00     0.000 C 
HETATM   10  C10 UNL     1      -0.252  -2.931  -0.640  1.00  0.00     0.000 C 
HETATM   11  C11 UNL     1       2.440  -0.403  -0.778  1.00  0.00     0.033 C 
HETATM   12  C12 UNL     1       2.606   1.098  -0.343  1.00  0.00     0.038 C 
HETATM   13  C13 UNL     1       1.343   1.847  -0.797  1.00  0.00     0.003 C 
HETATM   14  C14 UNL     1       0.034   1.095  -0.461  1.00  0.00     0.000 C 
HETATM   15  C15 UNL     1       4.008   1.535  -0.892  1.00  0.00     0.061 C 
HETATM   16  C16 UNL     1       4.770   0.214  -1.095  1.00  0.00     0.185 C 
HETATM   17  C17 UNL     1       3.878  -0.905  -0.580  1.00  0.00     0.182 C 
HETATM   18  O1  UNL     1       4.185  -2.093  -1.265  1.00  0.00    -0.221 OA
HETATM   19  O2  UNL     1       5.976   0.160  -0.369  1.00  0.00    -0.221 OA
HETATM   20  C27 UNL     1       2.058  -0.599  -2.266  1.00  0.00     0.003 C 
HETATM   21  C28 UNL     1      -0.541  -0.290   1.666  1.00  0.00     0.000 A 
HETATM   22  C29 UNL     1      -2.464  -4.637   0.950  1.00  0.00     0.002 C 
HETATM   23  C30 UNL     1      -3.184  -3.351  -1.036  1.00  0.00     0.002 C 
ENDROOT
BRANCH   2  24
HETATM   24  O6  UNL     1      -4.849  -2.934   1.425  1.00  0.00    -0.332 OA
BRANCH  24  25
HETATM   25  C31 UNL     1      -5.064  -3.733   2.573  1.00  0.00     0.270 C 
HETATM   26  O7  UNL     1      -5.643  -4.941   2.122  1.00  0.00    -0.326 OA
HETATM   27  C32 UNL     1      -6.906  -4.770   1.527  1.00  0.00     0.181 C 
HETATM   28  C33 UNL     1      -7.894  -4.150   2.499  1.00  0.00     0.215 C 
HETATM   29  C34 UNL     1      -7.370  -2.858   3.088  1.00  0.00     0.220 C 
HETATM   30  O10 UNL     1      -9.092  -3.850   1.822  1.00  0.00    -0.218 OA
HETATM   31  C35 UNL     1      -5.955  -3.053   3.590  1.00  0.00     0.241 C 
HETATM   32  O9  UNL     1      -7.371  -1.876   2.079  1.00  0.00    -0.218 OA
HETATM   33  O8  UNL     1      -5.427  -1.795   3.932  1.00  0.00    -0.215 OA
ENDBRANCH  24  25
ENDBRANCH   2  24
BRANCH  12  34
HETATM   34  C26 UNL     1       2.672   1.282   1.205  1.00  0.00     0.182 C 
HETATM   35  O5  UNL     1       2.896   2.631   1.575  1.00  0.00    -0.221 OA
ENDBRANCH  12  34
BRANCH  15  36
HETATM   36  C18 UNL     1       4.177   2.608  -2.004  1.00  0.00     0.096 C 
HETATM   37  C19 UNL     1       5.641   3.104  -2.038  1.00  0.00     0.030 C 
HETATM   38  C20 UNL     1       5.563   4.468  -1.350  1.00  0.00     0.035 C 
HETATM   39  C21 UNL     1       4.179   4.890  -1.822  1.00  0.00     0.143 C 
HETATM   40  O3  UNL     1       3.410   3.732  -1.662  1.00  0.00    -0.359 OA
HETATM   41  C25 UNL     1       3.774   2.186  -3.425  1.00  0.00     0.030 C 
BRANCH  39  42
HETATM   42  C22 UNL     1       3.558   6.113  -1.134  1.00  0.00     0.152 C 
HETATM   43  C23 UNL     1       3.075   7.131  -2.175  1.00  0.00     0.035 C 
HETATM   44  O4  UNL     1       4.538   6.758  -0.362  1.00  0.00    -0.224 OA
HETATM   45  C24 UNL     1       2.402   5.769  -0.193  1.00  0.00     0.035 C 
ENDBRANCH  39  42
ENDBRANCH  15  36
TORSDOF 5
