REMARK  9 active torsions:
REMARK  status: ('A' for Active; 'I' for Inactive)
REMARK    1  A    between atoms: C3_3  and  O3_8 
REMARK    2  A    between atoms: O3_8  and  C6_9 
REMARK    3  A    between atoms: C17_20  and  C33_41 
REMARK    4  A    between atoms: C20_23  and  C25_31 
REMARK    5  A    between atoms: C21_24  and  O5_27 
REMARK    6  A    between atoms: O5_27  and  C23_28 
REMARK    7  A    between atoms: C28_34  and  C29_36 
REMARK    8  A    between atoms: C33_41  and  O9_42 
REMARK    9  A    between atoms: O9_42  and  C34_43 
ROOT
HETATM    1  C6  UNL     1      -4.926  -1.526  -1.041  1.00  0.00     0.118 C 
HETATM    2  C7  UNL     1      -3.935  -2.612  -0.522  1.00  0.00     0.025 C 
HETATM    3  C8  UNL     1      -2.470  -2.184  -0.825  1.00  0.00     0.002 C 
HETATM    4  C9  UNL     1      -2.307  -0.673  -0.918  1.00  0.00     0.000 A 
HETATM    5  C10 UNL     1      -3.068  -0.122  -2.126  1.00  0.00     0.003 C 
HETATM    6  C11 UNL     1      -4.412  -0.854  -2.326  1.00  0.00     0.030 C 
HETATM    7  C12 UNL     1      -1.042  -0.049  -0.341  1.00  0.00     0.000 A 
HETATM    8  C13 UNL     1      -0.164  -0.787   0.690  1.00  0.00     0.003 C 
HETATM    9  C14 UNL     1      -0.723  -2.181   1.064  1.00  0.00     0.000 C 
HETATM   10  C15 UNL     1      -1.339  -2.946  -0.112  1.00  0.00     0.000 C 
HETATM   11  C16 UNL     1       1.360  -0.705   0.398  1.00  0.00     0.033 C 
HETATM   12  C17 UNL     1       1.802   0.790   0.094  1.00  0.00     0.035 C 
HETATM   13  C18 UNL     1       1.127   1.123  -1.254  1.00  0.00     0.003 C 
HETATM   14  C19 UNL     1      -0.408   1.106  -1.123  1.00  0.00     0.000 C 
HETATM   15  C20 UNL     1       3.361   0.670   0.140  1.00  0.00     0.058 C 
HETATM   16  C21 UNL     1       3.627  -0.365   1.263  1.00  0.00     0.157 C 
HETATM   17  C22 UNL     1       2.275  -0.997   1.598  1.00  0.00     0.180 C 
HETATM   18  O4  UNL     1       2.452  -2.357   1.902  1.00  0.00    -0.221 OA
HETATM   19  C36 UNL     1       1.669  -1.721  -0.736  1.00  0.00     0.003 C 
HETATM   20  C37 UNL     1      -2.397   0.228   0.283  1.00  0.00     0.000 A 
HETATM   21  C38 UNL     1      -4.239  -3.942  -1.264  1.00  0.00     0.002 C 
HETATM   22  C39 UNL     1      -4.175  -2.899   0.977  1.00  0.00     0.002 C 
ENDROOT
BRANCH   1  23
HETATM   23  O3  UNL     1      -5.145  -0.562  -0.044  1.00  0.00    -0.332 OA
BRANCH  23  24
HETATM   24  C3  UNL     1      -6.372   0.130  -0.124  1.00  0.00     0.270 C 
HETATM   25  C2  UNL     1      -7.392  -0.389   0.871  1.00  0.00     0.241 C 
HETATM   26  C1  UNL     1      -7.072  -0.029   2.313  1.00  0.00     0.220 C 
HETATM   27  O11 UNL     1      -8.642   0.180   0.551  1.00  0.00    -0.215 OA
HETATM   28  C5  UNL     1      -6.708   1.439   2.403  1.00  0.00     0.215 C 
HETATM   29  O12 UNL     1      -6.003  -0.810   2.786  1.00  0.00    -0.218 OA
HETATM   30  C4  UNL     1      -5.654   1.805   1.375  1.00  0.00     0.181 C 
HETATM   31  O2  UNL     1      -7.863   2.215   2.179  1.00  0.00    -0.218 OA
HETATM   32  O1  UNL     1      -6.082   1.499   0.072  1.00  0.00    -0.326 OA
ENDBRANCH  23  24
ENDBRANCH   1  23
BRANCH  12  33
HETATM   33  C33 UNL     1       1.353   1.836   1.142  1.00  0.00     0.152 C 
BRANCH  33  34
HETATM   34  O9  UNL     1       1.531   3.131   0.628  1.00  0.00    -0.302 OA
BRANCH  34  35
HETATM   35  C34 UNL     1       1.236   4.175   1.447  1.00  0.00     0.272 C 
HETATM   36  C35 UNL     1       1.533   5.484   0.743  1.00  0.00     0.106 C 
HETATM   37  O10 UNL     1       0.805   4.074   2.574  1.00  0.00    -0.264 OA
ENDBRANCH  34  35
ENDBRANCH  33  34
ENDBRANCH  12  33
BRANCH  15  38
HETATM   38  C25 UNL     1       4.421   1.804  -0.042  1.00  0.00     0.095 C 
HETATM   39  C26 UNL     1       4.231   2.634  -1.320  1.00  0.00     0.030 C 
HETATM   40  C27 UNL     1       4.805   1.718  -2.398  1.00  0.00     0.035 C 
HETATM   41  C28 UNL     1       5.978   1.125  -1.622  1.00  0.00     0.143 C 
HETATM   42  O7  UNL     1       5.651   1.153  -0.255  1.00  0.00    -0.359 OA
HETATM   43  C32 UNL     1       4.649   2.746   1.157  1.00  0.00     0.030 C 
BRANCH  41  44
HETATM   44  C29 UNL     1       6.454  -0.262  -2.057  1.00  0.00     0.152 C 
HETATM   45  C30 UNL     1       7.682  -0.702  -1.256  1.00  0.00     0.035 C 
HETATM   46  C31 UNL     1       6.777  -0.298  -3.553  1.00  0.00     0.035 C 
HETATM   47  O8  UNL     1       5.433  -1.196  -1.824  1.00  0.00    -0.224 OA
ENDBRANCH  41  44
ENDBRANCH  15  38
BRANCH  16  48
HETATM   48  O5  UNL     1       4.130   0.223   2.425  1.00  0.00    -0.302 OA
BRANCH  48  49
HETATM   49  C23 UNL     1       5.183  -0.253   3.146  1.00  0.00     0.272 C 
HETATM   50  O6  UNL     1       5.567   0.305   4.154  1.00  0.00    -0.264 OA
HETATM   51  C24 UNL     1       5.862  -1.513   2.647  1.00  0.00     0.106 C 
ENDBRANCH  48  49
ENDBRANCH  16  48
TORSDOF 9
