REMARK  7 active torsions:
REMARK  status: ('A' for Active; 'I' for Inactive)
REMARK    1  A    between atoms: C1_1  and  O8_37 
REMARK    2  A    between atoms: C2_2  and  O7_35 
REMARK    3  A    between atoms: C6_6  and  O1_7 
REMARK    4  A    between atoms: C10_11  and  O2_17 
REMARK    5  A    between atoms: O2_17  and  C16_18 
REMARK    6  A    between atoms: C16_18  and  C17_20 
REMARK    7  A    between atoms: C26_29  and  O4_30 
ROOT
HETATM    1  C1  UNL     1      -3.641   1.121  -1.089  1.00  0.00     0.138 C 
HETATM    2  C2  UNL     1      -3.873  -0.203  -1.147  1.00  0.00     0.118 C 
HETATM    3  C3  UNL     1      -2.761  -0.919  -1.317  1.00  0.00     0.022 C 
HETATM    4  C4  UNL     1      -1.520  -0.421  -1.186  1.00  0.00    -0.018 C 
HETATM    5  C5  UNL     1      -1.283   0.823  -0.692  1.00  0.00     0.022 C 
HETATM    6  C6  UNL     1      -2.396   1.628  -0.858  1.00  0.00     0.118 C 
HETATM    7  C8  UNL     1      -0.030   1.264  -0.315  1.00  0.00     0.028 C 
HETATM    8  C9  UNL     1       1.156   0.569  -0.302  1.00  0.00     0.023 C 
HETATM    9  C10 UNL     1       1.409  -0.886   0.181  1.00  0.00     0.081 C 
HETATM   10  C11 UNL     1       0.282  -1.868   0.528  1.00  0.00     0.046 C 
HETATM   11  C12 UNL     1      -0.282  -2.542  -0.733  1.00  0.00     0.010 C 
HETATM   12  C13 UNL     1      -0.493  -1.398  -1.725  1.00  0.00     0.027 C 
HETATM   13  C14 UNL     1       0.497  -3.699  -1.385  1.00  0.00     0.001 C 
HETATM   14  C15 UNL     1       0.658  -2.923   1.584  1.00  0.00     0.007 C 
HETATM   15  C23 UNL     1       2.338   1.213  -0.450  1.00  0.00     0.028 C 
HETATM   16  C24 UNL     1       2.393   2.536  -0.342  1.00  0.00     0.121 A 
HETATM   17  C25 UNL     1       1.309   3.127   0.143  1.00  0.00     0.141 A 
HETATM   18  C26 UNL     1       0.150   2.466   0.322  1.00  0.00     0.118 C 
HETATM   19  O5  UNL     1       1.562   4.296   0.430  1.00  0.00    -0.298 OA
HETATM   20  C28 UNL     1       2.915   4.561   0.050  1.00  0.00     0.304 A 
HETATM   21  O6  UNL     1       3.368   3.280  -0.384  1.00  0.00    -0.299 OA
ENDROOT
BRANCH   9  22
HETATM   22  O2  UNL     1       2.417  -1.542  -0.544  1.00  0.00    -0.277 OA
BRANCH  22  23
HETATM   23  C16 UNL     1       3.583  -2.151  -0.119  1.00  0.00     0.300 C 
HETATM   24  O3  UNL     1       4.192  -2.650  -1.048  1.00  0.00    -0.259 OA
BRANCH  23  25
HETATM   25  C17 UNL     1       4.191  -2.320   1.104  1.00  0.00     0.064 A 
HETATM   26  C18 UNL     1       5.346  -3.026   1.161  1.00  0.00     0.005 A 
HETATM   27  C19 UNL     1       6.009  -3.261   2.305  1.00  0.00     0.000 A 
HETATM   28  C20 UNL     1       5.540  -2.788   3.466  1.00  0.00     0.000 A 
HETATM   29  C21 UNL     1       4.406  -2.079   3.449  1.00  0.00     0.000 A 
HETATM   30  C22 UNL     1       3.757  -1.857   2.294  1.00  0.00     0.005 A 
ENDBRANCH  23  25
ENDBRANCH  22  23
ENDBRANCH   9  22
BRANCH  18  31
HETATM   31  O4  UNL     1      -0.837   3.161   0.966  1.00  0.00    -0.326 OA
HETATM   32  C27 UNL     1      -0.671   3.230   2.366  1.00  0.00     0.181 C 
ENDBRANCH  18  31
BRANCH   6  33
HETATM   33  O1  UNL     1      -2.294   3.011  -0.916  1.00  0.00    -0.326 OA
HETATM   34  C7  UNL     1      -3.124   3.843  -0.119  1.00  0.00     0.181 C 
ENDBRANCH   6  33
BRANCH   1  35
HETATM   35  O8  UNL     1      -4.757   1.923  -1.159  1.00  0.00    -0.324 OA
HETATM   36  C30 UNL     1      -5.117   2.300  -2.470  1.00  0.00     0.182 C 
ENDBRANCH   1  35
BRANCH   2  37
HETATM   37  O7  UNL     1      -5.154  -0.683  -1.301  1.00  0.00    -0.326 OA
HETATM   38  C29 UNL     1      -5.347  -1.972  -1.837  1.00  0.00     0.181 C 
ENDBRANCH   2  37
TORSDOF 7
