REMARK  5 active torsions:
REMARK  status: ('A' for Active; 'I' for Inactive)
REMARK    1  A    between atoms: C6_6  and  O1_7 
REMARK    2  A    between atoms: C12_13  and  O2_14 
REMARK    3  A    between atoms: O2_14  and  C13_15 
REMARK    4  A    between atoms: C13_15  and  C14_17 
REMARK    5  A    between atoms: N1_24  and  C22_26 
ROOT
HETATM    1  C1  UNL     1      -2.684   2.483   0.180  1.00  0.00     0.030 C 
HETATM    2  C2  UNL     1      -3.259   1.138   0.599  1.00  0.00     0.004 C 
HETATM    3  C3  UNL     1      -2.159   0.103   0.932  1.00  0.00     0.034 C 
HETATM    4  C4  UNL     1      -0.732   0.740   0.916  1.00  0.00     0.034 C 
HETATM    5  C5  UNL     1      -0.453   1.408  -0.471  1.00  0.00     0.058 C 
HETATM    6  C6  UNL     1      -1.657   2.293  -0.936  1.00  0.00     0.117 C 
HETATM    7  C8  UNL     1       0.909   2.176  -0.649  1.00  0.00     0.018 C 
HETATM    8  C9  UNL     1       2.187   1.465  -0.180  1.00  0.00     0.115 C 
HETATM    9  C10 UNL     1       2.203  -0.020  -0.557  1.00  0.00     0.140 C 
HETATM   10  C11 UNL     1       0.801  -0.624  -0.340  1.00  0.00     0.088 C 
HETATM   11  C12 UNL     1       0.286  -0.412   1.097  1.00  0.00     0.129 C 
HETATM   12  C20 UNL     1      -0.284   0.062  -1.216  1.00  0.00     0.226 C 
HETATM   13  N1  UNL     1      -1.556  -0.652  -1.377  1.00  0.00     0.135 N 
HETATM   14  C21 UNL     1      -2.183  -1.036  -0.121  1.00  0.00     0.250 C 
HETATM   15  O4  UNL     1       3.075  -0.689   0.333  1.00  0.00    -0.225 OA
HETATM   16  C24 UNL     1       2.791  -0.292  -1.953  1.00  0.00     0.034 C 
HETATM   17  C25 UNL     1       2.513   0.698  -3.094  1.00  0.00     0.033 C 
HETATM   18  C26 UNL     1       2.521   2.175  -2.698  1.00  0.00     0.124 C 
HETATM   19  O5  UNL     1       3.602   2.463  -1.872  1.00  0.00    -0.304 OA
HETATM   20  C27 UNL     1       3.484   2.170  -0.555  1.00  0.00     0.274 C 
HETATM   21  O6  UNL     1       4.358   2.396   0.255  1.00  0.00    -0.264 OA
HETATM   22  C28 UNL     1       1.210   2.665  -2.087  1.00  0.00     0.031 C 
HETATM   23  C29 UNL     1      -2.527  -0.475   2.324  1.00  0.00     0.002 C 
ENDROOT
BRANCH  11  24
HETATM   24  O2  UNL     1       1.221  -0.081   2.077  1.00  0.00    -0.301 OA
BRANCH  24  25
HETATM   25  C13 UNL     1       1.536  -0.845   3.177  1.00  0.00     0.296 C 
HETATM   26  O3  UNL     1       1.988  -0.201   4.105  1.00  0.00    -0.259 OA
BRANCH  25  27
HETATM   27  C14 UNL     1       1.469  -2.200   3.374  1.00  0.00     0.063 A 
HETATM   28  C15 UNL     1       1.719  -2.703   4.604  1.00  0.00     0.005 A 
HETATM   29  C16 UNL     1       1.649  -4.018   4.865  1.00  0.00     0.000 A 
HETATM   30  C17 UNL     1       1.340  -4.882   3.890  1.00  0.00     0.000 A 
HETATM   31  C18 UNL     1       1.123  -4.413   2.654  1.00  0.00     0.000 A 
HETATM   32  C19 UNL     1       1.195  -3.096   2.405  1.00  0.00     0.005 A 
ENDBRANCH  25  27
ENDBRANCH  24  25
ENDBRANCH  11  24
BRANCH   6  33
HETATM   33  O1  UNL     1      -1.266   3.586  -1.327  1.00  0.00    -0.354 OA
HETATM   34  C7  UNL     1      -2.104   4.183  -2.296  1.00  0.00     0.174 C 
ENDBRANCH   6  33
BRANCH  13  35
HETATM   35  C22 UNL     1      -1.419  -1.787  -2.289  1.00  0.00     0.250 C 
HETATM   36  C23 UNL     1      -2.756  -2.451  -2.658  1.00  0.00     0.037 C 
ENDBRANCH  13  35
TORSDOF 5
