REMARK  5 active torsions:
REMARK  status: ('A' for Active; 'I' for Inactive)
REMARK    1  A    between atoms: C3_3  and  O4_18 
REMARK    2  A    between atoms: C4_4  and  C7_8 
REMARK    3  A    between atoms: C7_8  and  O3_10 
REMARK    4  A    between atoms: O3_10  and  C8_11 
REMARK    5  A    between atoms: C8_11  and  C9_12 
ROOT
HETATM    1  C7  UNL     1      -1.208   1.170   0.309  1.00  0.00     0.300 C 
HETATM    2  O2  UNL     1      -2.288   1.535  -0.103  1.00  0.00    -0.259 OA
ENDROOT
BRANCH   1   3
HETATM    3  C4  UNL     1      -0.335   2.086   0.842  1.00  0.00     0.111 A 
HETATM    4  C3  UNL     1       0.884   1.694   1.298  1.00  0.00     0.101 A 
HETATM    5  C2  UNL     1       1.681   2.622   1.863  1.00  0.00     0.025 A 
HETATM    6  C1  UNL     1       1.351   3.917   1.911  1.00  0.00     0.004 A 
HETATM    7  C6  UNL     1       0.167   4.289   1.419  1.00  0.00     0.028 A 
HETATM    8  C5  UNL     1      -0.689   3.395   0.895  1.00  0.00     0.138 A 
HETATM    9  O1  UNL     1      -1.880   3.887   0.442  1.00  0.00    -0.190 OA
BRANCH   4  10
HETATM   10  O4  UNL     1       1.308   0.387   1.349  1.00  0.00    -0.328 OA
HETATM   11  C15 UNL     1       2.224   0.038   0.334  1.00  0.00     0.181 C 
ENDBRANCH   4  10
ENDBRANCH   1   3
BRANCH   1  12
HETATM   12  O3  UNL     1      -0.916  -0.160   0.163  1.00  0.00    -0.293 OA
BRANCH  12  13
HETATM   13  C8  UNL     1      -1.808  -0.970  -0.577  1.00  0.00     0.179 C 
BRANCH  13  14
HETATM   14  C9  UNL     1      -1.168  -2.315  -0.857  1.00  0.00     0.008 A 
HETATM   15  C10 UNL     1      -0.048  -2.382  -1.599  1.00  0.00    -0.002 A 
HETATM   16  C11 UNL     1       0.540  -3.560  -1.860  1.00  0.00    -0.000 A 
HETATM   17  C12 UNL     1       0.008  -4.694  -1.381  1.00  0.00    -0.000 A 
HETATM   18  C13 UNL     1      -1.111  -4.642  -0.643  1.00  0.00    -0.000 A 
HETATM   19  C14 UNL     1      -1.692  -3.460  -0.383  1.00  0.00    -0.002 A 
ENDBRANCH  13  14
ENDBRANCH  12  13
ENDBRANCH   1  12
TORSDOF 5
