REMARK  0 active torsions:
REMARK  status: ('A' for Active; 'I' for Inactive)
ROOT
HETATM    1  C1  UNL     1      -1.348  -1.141   0.579  1.00  0.00     0.002 A 
HETATM    2  C2  UNL     1      -1.856   0.087   0.372  1.00  0.00     0.001 A 
HETATM    3  C3  UNL     1      -1.077   1.088  -0.074  1.00  0.00     0.008 A 
HETATM    4  C4  UNL     1       0.218   0.831  -0.307  1.00  0.00     0.049 A 
HETATM    5  C5  UNL     1       0.724  -0.393  -0.103  1.00  0.00     0.088 A 
HETATM    6  C6  UNL     1      -0.050  -1.393   0.342  1.00  0.00     0.020 A 
HETATM    7  N1  UNL     1       1.954  -0.432  -0.380  1.00  0.00    -0.236 NA
HETATM    8  C7  UNL     1       2.314   0.716  -0.766  1.00  0.00     0.135 A 
HETATM    9  S1  UNL     1       1.264   1.738  -0.790  1.00  0.00    -0.064 SA
ENDROOT
TORSDOF 0
