REMARK  3 active torsions:
REMARK  status: ('A' for Active; 'I' for Inactive)
REMARK    1  A    between atoms: C5_5  and  C7_7 
REMARK    2  A    between atoms: C7_7  and  S1_8 
REMARK    3  A    between atoms: S1_8  and  C8_9 
ROOT
HETATM    1  C1  UNL     1       2.779   0.053  -0.794  1.00  0.00    -0.000 A 
HETATM    2  C2  UNL     1       3.145  -1.037  -0.104  1.00  0.00    -0.000 A 
HETATM    3  C3  UNL     1       2.214  -1.758   0.538  1.00  0.00    -0.000 A 
HETATM    4  C4  UNL     1       0.925  -1.388   0.491  1.00  0.00    -0.003 A 
HETATM    5  C5  UNL     1       0.543  -0.296  -0.197  1.00  0.00    -0.011 A 
HETATM    6  C6  UNL     1       1.488   0.416  -0.839  1.00  0.00    -0.003 A 
ENDROOT
BRANCH   5   7
HETATM    7  C7  UNL     1      -0.910   0.121  -0.258  1.00  0.00     0.086 C 
BRANCH   7   8
HETATM    8  S1  UNL     1      -1.186   1.502   0.895  1.00  0.00    -0.101 SA
BRANCH   8   9
HETATM    9  C8  UNL     1      -2.952   1.777   0.555  1.00  0.00     0.241 C 
HETATM   10  O1  UNL     1      -3.751   0.651   0.896  1.00  0.00    -0.208 OA
ENDBRANCH   8   9
ENDBRANCH   7   8
ENDBRANCH   5   7
TORSDOF 3
