REMARK  8 active torsions:
REMARK  status: ('A' for Active; 'I' for Inactive)
REMARK    1  A    between atoms: C2_3  and  C11_14 
REMARK    2  A    between atoms: C7_8  and  O2_12 
REMARK    3  A    between atoms: C11_14  and  C12_15 
REMARK    4  A    between atoms: C16_19  and  O3_21 
REMARK    5  A    between atoms: O3_21  and  C18_22 
REMARK    6  A    between atoms: C21_25  and  C22_26 
REMARK    7  A    between atoms: C22_26  and  C23_27 
REMARK    8  A    between atoms: C30_35  and  O4_37 
ROOT
HETATM    1  C12 UNL     1       1.722  -2.630  -3.763  1.00  0.00    -0.018 A 
HETATM    2  C13 UNL     1       2.774  -3.228  -4.343  1.00  0.00    -0.002 A 
HETATM    3  C14 UNL     1       3.825  -2.496  -4.740  1.00  0.00     0.029 A 
HETATM    4  C15 UNL     1       3.865  -1.165  -4.556  1.00  0.00     0.154 A 
HETATM    5  C16 UNL     1       2.821  -0.545  -3.972  1.00  0.00     0.125 A 
HETATM    6  C17 UNL     1       1.762  -1.296  -3.616  1.00  0.00     0.023 A 
HETATM    7  O6  UNL     1       4.946  -0.432  -4.938  1.00  0.00    -0.188 OA
ENDROOT
BRANCH   5   8
HETATM    8  O3  UNL     1       2.855   0.808  -3.750  1.00  0.00    -0.305 OA
BRANCH   8   9
HETATM    9  C18 UNL     1       2.398   1.160  -2.507  1.00  0.00     0.100 A 
HETATM   10  C19 UNL     1       1.221   1.793  -2.352  1.00  0.00     0.024 A 
HETATM   11  C20 UNL     1       0.731   2.080  -1.137  1.00  0.00    -0.002 A 
HETATM   12  C21 UNL     1       1.401   1.753  -0.018  1.00  0.00    -0.020 A 
HETATM   13  C34 UNL     1       2.587   1.139  -0.166  1.00  0.00    -0.002 A 
HETATM   14  C35 UNL     1       3.073   0.852  -1.384  1.00  0.00     0.024 A 
BRANCH  12  15
HETATM   15  C22 UNL     1       0.792   2.018   1.346  1.00  0.00     0.064 C 
BRANCH  15  16
HETATM   16  C23 UNL     1       0.882   3.496   1.807  1.00  0.00     0.246 C 
HETATM   17  N2  UNL     1       1.828   3.768   2.888  1.00  0.00     0.142 N 
HETATM   18  C24 UNL     1       1.376   3.204   4.150  1.00  0.00     0.255 C 
HETATM   19  C33 UNL     1       3.182   3.340   2.575  1.00  0.00     0.286 C 
HETATM   20  C25 UNL     1       0.069   3.869   4.600  1.00  0.00     0.061 C 
HETATM   21  C26 UNL     1      -0.889   4.138   3.466  1.00  0.00    -0.020 A 
HETATM   22  C27 UNL     1      -0.505   3.995   2.186  1.00  0.00     0.007 A 
HETATM   23  C31 UNL     1      -2.138   4.557   3.735  1.00  0.00     0.022 A 
HETATM   24  C28 UNL     1      -1.397   4.302   1.230  1.00  0.00     0.027 A 
HETATM   25  C29 UNL     1      -2.644   4.720   1.499  1.00  0.00     0.153 A 
HETATM   26  C30 UNL     1      -3.045   4.850   2.781  1.00  0.00     0.119 A 
HETATM   27  O5  UNL     1      -3.490   5.008   0.472  1.00  0.00    -0.188 OA
BRANCH  26  28
HETATM   28  O4  UNL     1      -4.330   5.279   3.017  1.00  0.00    -0.326 OA
HETATM   29  C32 UNL     1      -4.765   5.436   4.347  1.00  0.00     0.181 C 
ENDBRANCH  26  28
ENDBRANCH  15  16
ENDBRANCH  12  15
ENDBRANCH   8   9
ENDBRANCH   5   8
BRANCH   1  30
HETATM   30  C11 UNL     1       0.526  -3.405  -3.255  1.00  0.00     0.064 C 
BRANCH  30  31
HETATM   31  C2  UNL     1       0.614  -3.733  -1.743  1.00  0.00     0.246 C 
HETATM   32  N1  UNL     1       1.132  -2.581  -0.995  1.00  0.00     0.142 N 
HETATM   33  C1  UNL     1       0.291  -2.121   0.095  1.00  0.00     0.255 C 
HETATM   34  C36 UNL     1       2.493  -2.804  -0.521  1.00  0.00     0.286 C 
HETATM   35  C5  UNL     1      -1.158  -1.965  -0.380  1.00  0.00     0.061 C 
HETATM   36  C4  UNL     1      -1.627  -3.360  -0.696  1.00  0.00    -0.020 A 
HETATM   37  C3  UNL     1      -0.763  -4.200  -1.290  1.00  0.00     0.007 A 
HETATM   38  C6  UNL     1      -2.855  -3.787  -0.360  1.00  0.00     0.022 A 
HETATM   39  C9  UNL     1      -1.175  -5.456  -1.523  1.00  0.00     0.027 A 
HETATM   40  C8  UNL     1      -2.399  -5.889  -1.177  1.00  0.00     0.153 A 
HETATM   41  C7  UNL     1      -3.269  -5.051  -0.577  1.00  0.00     0.119 A 
HETATM   42  O1  UNL     1      -2.773  -7.173  -1.436  1.00  0.00    -0.188 OA
BRANCH  41  43
HETATM   43  O2  UNL     1      -4.521  -5.529  -0.272  1.00  0.00    -0.326 OA
HETATM   44  C10 UNL     1      -5.546  -4.607   0.016  1.00  0.00     0.181 C 
ENDBRANCH  41  43
ENDBRANCH  30  31
ENDBRANCH   1  30
TORSDOF 8
