REMARK  18 active torsions:
REMARK  status: ('A' for Active; 'I' for Inactive)
REMARK    1  A    between atoms: C2_2  and  O2_32 
REMARK    2  A    between atoms: C16_16  and  C25_25 
REMARK    3  A    between atoms: C21_21  and  C22_22 
REMARK    4  A    between atoms: O2_32  and  C31_33 
REMARK    5  A    between atoms: C31_33  and  C32_35 
REMARK    6  A    between atoms: C32_35  and  C33_36 
REMARK    7  A    between atoms: C33_36  and  C34_37 
REMARK    8  A    between atoms: C34_37  and  C35_38 
REMARK    9  A    between atoms: C35_38  and  C36_39 
REMARK   10  A    between atoms: C36_39  and  C37_40 
REMARK   11  A    between atoms: C37_40  and  C38_41 
REMARK   12  A    between atoms: C38_41  and  C39_42 
REMARK   13  A    between atoms: C39_42  and  C40_43 
REMARK   14  A    between atoms: C40_43  and  C41_44 
REMARK   15  A    between atoms: C41_44  and  C42_45 
REMARK   16  A    between atoms: C42_45  and  C43_46 
REMARK   17  A    between atoms: C43_46  and  C44_47 
REMARK   18  A    between atoms: C44_47  and  C45_48 
ROOT
HETATM    1  C1  UNL     1      -3.076  -0.342  -4.711  1.00  0.00     0.030 C 
HETATM    2  C2  UNL     1      -3.514  -1.637  -4.017  1.00  0.00     0.124 C 
HETATM    3  C3  UNL     1      -2.325  -2.475  -3.496  1.00  0.00     0.026 C 
HETATM    4  C4  UNL     1      -1.206  -1.629  -2.800  1.00  0.00     0.002 C 
HETATM    5  C5  UNL     1      -1.401  -0.084  -2.717  1.00  0.00     0.000 C 
HETATM    6  C6  UNL     1      -1.797   0.324  -4.163  1.00  0.00     0.003 C 
HETATM    7  C7  UNL     1      -0.026   0.562  -2.296  1.00  0.00     0.000 C 
HETATM    8  C8  UNL     1       0.660   0.002  -0.999  1.00  0.00     0.000 C 
HETATM    9  C9  UNL     1       0.704  -1.543  -1.111  1.00  0.00     0.000 C 
HETATM   10  C10 UNL     1      -0.628  -2.208  -1.496  1.00  0.00     0.000 C 
HETATM   11  C11 UNL     1       2.129   0.600  -0.836  1.00  0.00     0.000 C 
HETATM   12  C12 UNL     1       2.014   2.157  -0.792  1.00  0.00     0.000 C 
HETATM   13  C13 UNL     1       1.394   2.706  -2.084  1.00  0.00     0.000 C 
HETATM   14  C14 UNL     1       0.002   2.106  -2.333  1.00  0.00     0.000 C 
HETATM   15  C15 UNL     1       3.332   2.847  -0.404  1.00  0.00     0.006 C 
HETATM   16  C16 UNL     1       3.823   2.373   0.984  1.00  0.00     0.031 C 
HETATM   17  C17 UNL     1       4.124   0.869   0.866  1.00  0.00     0.003 C 
HETATM   18  C18 UNL     1       2.867   0.082   0.442  1.00  0.00     0.000 C 
HETATM   19  C19 UNL     1       5.064   3.274   1.144  1.00  0.00     0.003 C 
HETATM   20  C20 UNL     1       4.595   4.652   0.640  1.00  0.00     0.004 C 
HETATM   21  C21 UNL     1       3.405   4.384  -0.311  1.00  0.00     0.018 C 
HETATM   22  C26 UNL     1       3.067   0.169  -2.007  1.00  0.00     0.000 C 
HETATM   23  C27 UNL     1      -0.197   0.319   0.259  1.00  0.00     0.000 C 
HETATM   24  C28 UNL     1      -2.538   0.375  -1.777  1.00  0.00     0.000 C 
HETATM   25  C29 UNL     1      -1.707  -3.197  -4.729  1.00  0.00     0.002 C 
HETATM   26  C30 UNL     1      -2.876  -3.611  -2.602  1.00  0.00     0.002 C 
ENDROOT
BRANCH   2  27
HETATM   27  O2  UNL     1      -4.430  -1.364  -2.990  1.00  0.00    -0.304 OA
BRANCH  27  28
HETATM   28  C31 UNL     1      -5.756  -1.266  -3.283  1.00  0.00     0.272 C 
HETATM   29  O3  UNL     1      -6.249  -1.483  -4.367  1.00  0.00    -0.264 OA
BRANCH  28  30
HETATM   30  C32 UNL     1      -6.547  -0.764  -2.083  1.00  0.00     0.096 C 
BRANCH  30  31
HETATM   31  C33 UNL     1      -7.238  -1.871  -1.269  1.00  0.00     0.010 C 
BRANCH  31  32
HETATM   32  C34 UNL     1      -6.298  -2.889  -0.599  1.00  0.00     0.001 C 
BRANCH  32  33
HETATM   33  C35 UNL     1      -5.312  -2.245   0.385  1.00  0.00     0.000 C 
BRANCH  33  34
HETATM   34  C36 UNL     1      -4.383  -3.261   1.072  1.00  0.00     0.000 C 
BRANCH  34  35
HETATM   35  C37 UNL     1      -3.220  -2.540   1.772  1.00  0.00     0.000 C 
BRANCH  35  36
HETATM   36  C38 UNL     1      -2.094  -3.482   2.230  1.00  0.00     0.000 C 
BRANCH  36  37
HETATM   37  C39 UNL     1      -0.881  -2.663   2.700  1.00  0.00     0.000 C 
BRANCH  37  38
HETATM   38  C40 UNL     1       0.267  -3.510   3.264  1.00  0.00     0.000 C 
BRANCH  38  39
HETATM   39  C41 UNL     1       1.535  -2.682   3.551  1.00  0.00     0.000 C 
BRANCH  39  40
HETATM   40  C42 UNL     1       1.286  -1.494   4.495  1.00  0.00     0.000 C 
BRANCH  40  41
HETATM   41  C43 UNL     1       2.585  -0.822   4.966  1.00  0.00     0.000 C 
BRANCH  41  42
HETATM   42  C44 UNL     1       2.290   0.400   5.853  1.00  0.00     0.000 C 
BRANCH  42  43
HETATM   43  C45 UNL     1       3.568   1.045   6.411  1.00  0.00     0.000 C 
HETATM   44  C46 UNL     1       3.267   2.372   7.121  1.00  0.00     0.000 C 
ENDBRANCH  42  43
ENDBRANCH  41  42
ENDBRANCH  40  41
ENDBRANCH  39  40
ENDBRANCH  38  39
ENDBRANCH  37  38
ENDBRANCH  36  37
ENDBRANCH  35  36
ENDBRANCH  34  35
ENDBRANCH  33  34
ENDBRANCH  32  33
ENDBRANCH  31  32
ENDBRANCH  30  31
ENDBRANCH  28  30
ENDBRANCH  27  28
ENDBRANCH   2  27
BRANCH  16  45
HETATM   45  C25 UNL     1       2.849   2.658   2.143  1.00  0.00     0.182 C 
HETATM   46  O1  UNL     1       3.441   2.308   3.376  1.00  0.00    -0.221 OA
ENDBRANCH  16  45
BRANCH  21  47
HETATM   47  C22 UNL     1       3.561   5.161  -1.604  1.00  0.00    -0.044 C 
HETATM   48  C23 UNL     1       2.737   6.421  -1.722  1.00  0.00     0.026 C 
HETATM   49  C24 UNL     1       4.435   4.817  -2.563  1.00  0.00    -0.009 C 
ENDBRANCH  21  47
TORSDOF 18
