REMARK  3 active torsions:
REMARK  status: ('A' for Active; 'I' for Inactive)
REMARK    1  A    between atoms: C2_2  and  O6_33 
REMARK    2  A    between atoms: C7_8  and  C24_29 
REMARK    3  A    between atoms: C14_17  and  C17_21 
ROOT
HETATM    1  C1  UNL     1      -3.917  -0.522  -1.340  1.00  0.00     0.095 A 
HETATM    2  C2  UNL     1      -3.682  -1.991  -1.024  1.00  0.00     0.076 A 
HETATM    3  C3  UNL     1      -2.543  -2.381  -0.414  1.00  0.00     0.019 A 
HETATM    4  C4  UNL     1      -1.533  -1.530  -0.138  1.00  0.00     0.097 A 
HETATM    5  C5  UNL     1      -1.624  -0.209  -0.381  1.00  0.00     0.039 A 
HETATM    6  C6  UNL     1      -2.723   0.345  -0.951  1.00  0.00     0.176 A 
HETATM    7  O1  UNL     1      -2.776   1.540  -1.147  1.00  0.00    -0.291 OA
HETATM    8  C7  UNL     1      -0.470   0.669   0.091  1.00  0.00     0.053 C 
HETATM    9  C8  UNL     1       0.818  -0.091  -0.200  1.00  0.00     0.027 A 
HETATM   10  C9  UNL     1       0.767  -1.417   0.012  1.00  0.00     0.096 A 
HETATM   11  O2  UNL     1      -0.391  -1.990   0.464  1.00  0.00    -0.308 OA
HETATM   12  C10 UNL     1       1.868  -2.155  -0.217  1.00  0.00     0.026 A 
HETATM   13  C11 UNL     1       3.009  -1.587  -0.660  1.00  0.00     0.134 A 
HETATM   14  C12 UNL     1       3.037  -0.249  -0.866  1.00  0.00     0.082 A 
HETATM   15  C13 UNL     1       1.940   0.515  -0.648  1.00  0.00     0.097 A 
HETATM   16  O3  UNL     1       1.913   1.878  -0.818  1.00  0.00    -0.329 OA
HETATM   17  C14 UNL     1       3.128   2.563  -0.681  1.00  0.00     0.151 C 
HETATM   18  C15 UNL     1       4.171   1.862  -1.532  1.00  0.00     0.104 C 
HETATM   19  C16 UNL     1       4.167   0.359  -1.328  1.00  0.00     0.180 C 
HETATM   20  O4  UNL     1       5.203  -0.202  -1.606  1.00  0.00    -0.291 OA
HETATM   21  O5  UNL     1       4.089  -2.404  -0.842  1.00  0.00    -0.190 OA
HETATM   22  C23 UNL     1       1.778  -3.650   0.039  1.00  0.00     0.035 C 
HETATM   23  C27 UNL     1      -2.422  -3.846  -0.017  1.00  0.00     0.035 C 
HETATM   24  C29 UNL     1      -5.120  -0.010  -0.520  1.00  0.00     0.014 C 
HETATM   25  C30 UNL     1      -4.167  -0.283  -2.842  1.00  0.00     0.014 C 
ENDROOT
BRANCH  17  26
HETATM   26  C17 UNL     1       3.485   2.787   0.784  1.00  0.00     0.005 A 
HETATM   27  C18 UNL     1       3.075   3.912   1.402  1.00  0.00    -0.002 A 
HETATM   28  C19 UNL     1       3.344   4.143   2.696  1.00  0.00    -0.000 A 
HETATM   29  C20 UNL     1       4.039   3.243   3.406  1.00  0.00    -0.000 A 
HETATM   30  C21 UNL     1       4.463   2.120   2.808  1.00  0.00    -0.000 A 
HETATM   31  C22 UNL     1       4.189   1.900   1.513  1.00  0.00    -0.002 A 
ENDBRANCH  17  26
BRANCH   8  32
HETATM   32  C24 UNL     1      -0.643   0.991   1.599  1.00  0.00     0.008 C 
HETATM   33  C25 UNL     1       0.542   1.782   2.170  1.00  0.00     0.001 C 
HETATM   34  C26 UNL     1      -1.941   1.768   1.888  1.00  0.00     0.001 C 
ENDBRANCH   8  32
BRANCH   2  35
HETATM   35  O6  UNL     1      -4.732  -2.869  -1.156  1.00  0.00    -0.332 OA
HETATM   36  C28 UNL     1      -4.912  -3.446  -2.429  1.00  0.00     0.181 C 
ENDBRANCH   2  35
TORSDOF 3
