REMARK  2 active torsions:
REMARK  status: ('A' for Active; 'I' for Inactive)
REMARK    1  A    between atoms: C7_8  and  C24_29 
REMARK    2  A    between atoms: C14_17  and  C17_21 
ROOT
HETATM    1  C1  UNL     1      -4.255  -0.209   1.039  1.00  0.00     0.107 C 
HETATM    2  C2  UNL     1      -4.109  -1.663   1.466  1.00  0.00     0.162 C 
HETATM    3  C3  UNL     1      -2.834  -2.406   1.091  1.00  0.00     0.092 C 
HETATM    4  C4  UNL     1      -1.665  -1.469   0.830  1.00  0.00     0.083 C 
HETATM    5  C5  UNL     1      -1.746  -0.128   0.846  1.00  0.00     0.040 C 
HETATM    6  C6  UNL     1      -2.922   0.534   1.003  1.00  0.00     0.177 C 
HETATM    7  O1  UNL     1      -2.940   1.745   1.048  1.00  0.00    -0.291 OA
HETATM    8  C7  UNL     1      -0.477   0.674   0.634  1.00  0.00     0.075 C 
HETATM    9  C8  UNL     1       0.779  -0.146   0.872  1.00  0.00     0.031 A 
HETATM   10  C9  UNL     1       0.683  -1.487   0.845  1.00  0.00     0.096 A 
HETATM   11  O2  UNL     1      -0.495  -2.117   0.565  1.00  0.00    -0.312 OA
HETATM   12  C10 UNL     1       1.794  -2.214   1.071  1.00  0.00     0.026 A 
HETATM   13  C11 UNL     1       2.979  -1.628   1.338  1.00  0.00     0.134 A 
HETATM   14  C12 UNL     1       3.055  -0.279   1.335  1.00  0.00     0.082 A 
HETATM   15  C13 UNL     1       1.956   0.475   1.102  1.00  0.00     0.098 A 
HETATM   16  O3  UNL     1       1.982   1.847   1.051  1.00  0.00    -0.329 OA
HETATM   17  C14 UNL     1       3.191   2.404   0.610  1.00  0.00     0.151 C 
HETATM   18  C15 UNL     1       4.282   1.870   1.522  1.00  0.00     0.104 C 
HETATM   19  C16 UNL     1       4.235   0.354   1.595  1.00  0.00     0.180 C 
HETATM   20  O4  UNL     1       5.278  -0.192   1.875  1.00  0.00    -0.291 OA
HETATM   21  O5  UNL     1       4.052  -2.449   1.541  1.00  0.00    -0.190 OA
HETATM   22  C23 UNL     1       1.736  -3.732   1.030  1.00  0.00     0.035 C 
HETATM   23  C30 UNL     1      -2.478  -3.335   2.277  1.00  0.00     0.014 C 
HETATM   24  C31 UNL     1      -3.111  -3.272  -0.153  1.00  0.00     0.014 C 
HETATM   25  O6  UNL     1      -4.987  -2.213   2.095  1.00  0.00    -0.295 OA
HETATM   26  C32 UNL     1      -5.225   0.508   2.002  1.00  0.00     0.015 C 
HETATM   27  C33 UNL     1      -4.842  -0.166  -0.385  1.00  0.00     0.015 C 
ENDROOT
BRANCH   8  28
HETATM   28  C24 UNL     1      -0.517   1.300  -0.746  1.00  0.00    -0.014 A 
HETATM   29  C25 UNL     1      -0.722   2.622  -0.897  1.00  0.00    -0.004 A 
HETATM   30  C26 UNL     1      -0.803   3.178  -2.115  1.00  0.00    -0.000 A 
HETATM   31  C27 UNL     1      -0.675   2.413  -3.210  1.00  0.00    -0.000 A 
HETATM   32  C28 UNL     1      -0.465   1.095  -3.076  1.00  0.00    -0.000 A 
HETATM   33  C29 UNL     1      -0.391   0.546  -1.853  1.00  0.00    -0.004 A 
ENDBRANCH   8  28
BRANCH  17  34
HETATM   34  C17 UNL     1       3.369   2.190  -0.890  1.00  0.00     0.005 A 
HETATM   35  C18 UNL     1       2.634   2.926  -1.744  1.00  0.00    -0.002 A 
HETATM   36  C19 UNL     1       2.734   2.776  -3.073  1.00  0.00    -0.000 A 
HETATM   37  C20 UNL     1       3.585   1.874  -3.583  1.00  0.00    -0.000 A 
HETATM   38  C21 UNL     1       4.336   1.138  -2.751  1.00  0.00    -0.000 A 
HETATM   39  C22 UNL     1       4.228   1.301  -1.423  1.00  0.00    -0.002 A 
ENDBRANCH  17  34
TORSDOF 2
