REMARK  4 active torsions:
REMARK  status: ('A' for Active; 'I' for Inactive)
REMARK    1  A    between atoms: C5_5  and  C7_7 
REMARK    2  A    between atoms: C8_8  and  C9_9 
REMARK    3  A    between atoms: C9_9  and  O1_10 
REMARK    4  A    between atoms: O1_10  and  C10_11 
ROOT
HETATM    1  C9  UNL     1      -1.057   0.082   0.295  1.00  0.00     0.296 C 
HETATM    2  O2  UNL     1      -0.427   0.912   0.907  1.00  0.00    -0.259 OA
ENDROOT
BRANCH   1   3
HETATM    3  C8  UNL     1      -2.244  -0.393   0.765  1.00  0.00     0.068 C 
HETATM    4  C7  UNL     1      -3.002  -0.037   1.821  1.00  0.00     0.005 C 
BRANCH   4   5
HETATM    5  C5  UNL     1      -3.000   0.981   2.709  1.00  0.00     0.000 A 
HETATM    6  C4  UNL     1      -3.804   0.890   3.790  1.00  0.00     0.002 A 
HETATM    7  C3  UNL     1      -3.874   1.856   4.720  1.00  0.00     0.027 A 
HETATM    8  C2  UNL     1      -3.157   2.985   4.610  1.00  0.00     0.131 A 
HETATM    9  C1  UNL     1      -2.393   3.111   3.515  1.00  0.00     0.027 A 
HETATM   10  O3  UNL     1      -3.236   3.968   5.547  1.00  0.00    -0.190 OA
HETATM   11  C6  UNL     1      -2.326   2.141   2.590  1.00  0.00     0.002 A 
ENDBRANCH   4   5
ENDBRANCH   1   3
BRANCH   1  12
HETATM   12  O1  UNL     1      -0.536  -0.429  -0.868  1.00  0.00    -0.301 OA
BRANCH  12  13
HETATM   13  C10 UNL     1       0.625   0.135  -1.406  1.00  0.00     0.124 C 
HETATM   14  C11 UNL     1       1.889  -0.729  -1.167  1.00  0.00     0.026 C 
HETATM   15  C12 UNL     1       3.078   0.229  -1.442  1.00  0.00     0.002 C 
HETATM   16  C16 UNL     1       1.948  -1.695  -2.380  1.00  0.00     0.002 C 
HETATM   17  C19 UNL     1       1.985  -1.382   0.213  1.00  0.00     0.002 C 
HETATM   18  C13 UNL     1       3.009   0.415  -2.971  1.00  0.00     0.000 C 
HETATM   19  C14 UNL     1       1.840  -0.514  -3.371  1.00  0.00     0.003 C 
HETATM   20  C15 UNL     1       0.538   0.194  -2.941  1.00  0.00     0.030 C 
HETATM   21  C17 UNL     1       3.249  -2.511  -2.537  1.00  0.00     0.000 C 
HETATM   22  C18 UNL     1       0.799  -2.719  -2.478  1.00  0.00     0.000 C 
ENDBRANCH  12  13
ENDBRANCH   1  12
TORSDOF 4
