REMARK  7 active torsions:
REMARK  status: ('A' for Active; 'I' for Inactive)
REMARK    1  A    between atoms: C4_4  and  C7_8 
REMARK    2  A    between atoms: C8_9  and  O6_21 
REMARK    3  A    between atoms: O6_21  and  C16_22 
REMARK    4  A    between atoms: C17_24  and  C20_29 
REMARK    5  A    between atoms: C20_29  and  C21_30 
REMARK    6  A    between atoms: C21_30  and  O10_31 
REMARK    7  A    between atoms: O10_31  and  C22_32 
ROOT
HETATM    1  O6  UNL     1       1.419  -2.382   0.056  1.00  0.00    -0.298 OA
ENDROOT
BRANCH   1   2
HETATM    2  C8  UNL     1       2.738  -2.023  -0.136  1.00  0.00     0.158 C 
HETATM    3  C7  UNL     1       3.449  -2.137  -1.292  1.00  0.00     0.125 C 
HETATM    4  O2  UNL     1       4.715  -1.619  -1.332  1.00  0.00    -0.305 OA
HETATM    5  C11 UNL     1       5.383  -1.500  -0.157  1.00  0.00     0.107 A 
HETATM    6  C10 UNL     1       4.738  -1.470   1.022  1.00  0.00     0.089 A 
HETATM    7  C12 UNL     1       6.722  -1.378  -0.173  1.00  0.00     0.052 A 
HETATM    8  C9  UNL     1       3.386  -1.642   1.013  1.00  0.00     0.224 C 
HETATM    9  C15 UNL     1       5.429  -1.286   2.170  1.00  0.00     0.138 A 
HETATM   10  O5  UNL     1       2.753  -1.567   2.044  1.00  0.00    -0.284 OA
HETATM   11  C14 UNL     1       6.768  -1.178   2.101  1.00  0.00     0.055 A 
HETATM   12  O3  UNL     1       4.853  -1.240   3.405  1.00  0.00    -0.190 OA
HETATM   13  C13 UNL     1       7.445  -1.230   0.945  1.00  0.00     0.135 A 
HETATM   14  O4  UNL     1       8.801  -1.128   0.902  1.00  0.00    -0.190 OA
BRANCH   3  15
HETATM   15  C4  UNL     1       2.983  -2.640  -2.469  1.00  0.00     0.027 A 
HETATM   16  C3  UNL     1       3.682  -2.439  -3.608  1.00  0.00     0.004 A 
HETATM   17  C2  UNL     1       3.255  -2.873  -4.804  1.00  0.00     0.030 A 
HETATM   18  C1  UNL     1       2.108  -3.554  -4.937  1.00  0.00     0.156 A 
HETATM   19  C6  UNL     1       1.400  -3.805  -3.825  1.00  0.00     0.156 A 
HETATM   20  O16 UNL     1       1.663  -3.982  -6.148  1.00  0.00    -0.188 OA
HETATM   21  C5  UNL     1       1.871  -3.379  -2.642  1.00  0.00     0.032 A 
HETATM   22  O1  UNL     1       0.251  -4.529  -3.897  1.00  0.00    -0.188 OA
ENDBRANCH   3  15
ENDBRANCH   1   2
BRANCH   1  23
HETATM   23  C16 UNL     1       0.427  -1.641  -0.631  1.00  0.00     0.274 C 
HETATM   24  O7  UNL     1      -0.006  -0.579   0.198  1.00  0.00    -0.326 OA
HETATM   25  C17 UNL     1      -1.402  -0.629   0.335  1.00  0.00     0.184 C 
HETATM   26  C18 UNL     1      -1.805  -2.071   0.087  1.00  0.00     0.217 C 
HETATM   27  C19 UNL     1      -0.756  -2.556  -0.882  1.00  0.00     0.241 C 
HETATM   28  O9  UNL     1      -1.686  -2.792   1.292  1.00  0.00    -0.218 OA
HETATM   29  O8  UNL     1      -1.179  -2.436  -2.220  1.00  0.00    -0.215 OA
BRANCH  25  30
HETATM   30  C20 UNL     1      -2.075   0.370  -0.608  1.00  0.00     0.211 C 
HETATM   31  O15 UNL     1      -3.472   0.162  -0.610  1.00  0.00    -0.218 OA
BRANCH  30  32
HETATM   32  C21 UNL     1      -1.876   1.830  -0.221  1.00  0.00     0.180 C 
BRANCH  32  33
HETATM   33  O10 UNL     1      -2.443   2.013   1.053  1.00  0.00    -0.326 OA
BRANCH  33  34
HETATM   34  C22 UNL     1      -2.925   3.317   1.299  1.00  0.00     0.270 C 
HETATM   35  O11 UNL     1      -4.216   3.312   0.725  1.00  0.00    -0.329 OA
HETATM   36  C23 UNL     1      -4.931   4.493   0.966  1.00  0.00     0.151 C 
HETATM   37  C24 UNL     1      -5.143   4.674   2.462  1.00  0.00     0.212 C 
HETATM   38  C27 UNL     1      -6.261   4.404   0.216  1.00  0.00     0.035 C 
HETATM   39  C25 UNL     1      -3.810   4.703   3.182  1.00  0.00     0.220 C 
HETATM   40  O14 UNL     1      -5.805   5.885   2.736  1.00  0.00    -0.218 OA
HETATM   41  C26 UNL     1      -2.981   3.498   2.800  1.00  0.00     0.241 C 
HETATM   42  O13 UNL     1      -4.050   4.674   4.568  1.00  0.00    -0.218 OA
HETATM   43  O12 UNL     1      -3.570   2.360   3.382  1.00  0.00    -0.215 OA
ENDBRANCH  33  34
ENDBRANCH  32  33
ENDBRANCH  30  32
ENDBRANCH  25  30
ENDBRANCH   1  23
TORSDOF 7
