REMARK  15 active torsions:
REMARK  status: ('A' for Active; 'I' for Inactive)
REMARK    1  A    between atoms: C3_3  and  O14_38 
REMARK    2  A    between atoms: C5_6  and  C6_7 
REMARK    3  A    between atoms: C6_7  and  O2_8 
REMARK    4  A    between atoms: O2_8  and  C7_9 
REMARK    5  A    between atoms: C7_9  and  C8_10 
REMARK    6  A    between atoms: C12_14  and  O4_16 
REMARK    7  A    between atoms: O4_16  and  C13_17 
REMARK    8  A    between atoms: C18_23  and  C22_29 
REMARK    9  A    between atoms: C22_29  and  O8_30 
REMARK   10  A    between atoms: O8_30  and  C23_31 
REMARK   11  A    between atoms: O14_38  and  C25_39 
REMARK   12  A    between atoms: C26_41  and  C30_48 
REMARK   13  A    between atoms: C31_50  and  C34_54 
REMARK   14  A    between atoms: C34_54  and  O21_55 
REMARK   15  A    between atoms: O21_55  and  C35_56 
ROOT
HETATM    1  C6  UNL     1      -1.322   0.442   0.664  1.00  0.00     0.294 C 
HETATM    2  O13 UNL     1      -0.479   1.253   0.984  1.00  0.00    -0.259 OA
ENDROOT
BRANCH   1   3
HETATM    3  C5  UNL     1      -0.945  -0.860   0.513  1.00  0.00     0.068 C 
HETATM    4  C1  UNL     1      -1.987  -1.930   0.269  1.00  0.00     0.073 A 
HETATM    5  C2  UNL     1      -1.470  -3.365   0.532  1.00  0.00     0.085 A 
HETATM    6  C33 UNL     1      -2.500  -1.898  -1.183  1.00  0.00     0.178 A 
HETATM    7  C3  UNL     1      -0.070  -3.396   1.118  1.00  0.00     0.246 C 
HETATM    8  C31 UNL     1      -1.643  -4.063  -0.792  1.00  0.00    -0.011 A 
HETATM    9  O1  UNL     1       0.784  -2.489   0.467  1.00  0.00    -0.303 OA
HETATM   10  C4  UNL     1       0.356  -1.193   0.507  1.00  0.00     0.120 C 
HETATM   11  C32 UNL     1      -2.223  -3.275  -1.702  1.00  0.00     0.001 A 
HETATM   12  O20 UNL     1      -1.798  -0.960  -1.974  1.00  0.00    -0.218 OA
BRANCH   7  13
HETATM   13  O14 UNL     1      -0.141  -2.959   2.462  1.00  0.00    -0.304 OA
BRANCH  13  14
HETATM   14  C25 UNL     1       1.047  -3.044   3.220  1.00  0.00     0.272 C 
HETATM   15  O15 UNL     1       0.659  -3.505   4.498  1.00  0.00    -0.326 OA
HETATM   16  C26 UNL     1      -0.073  -2.595   5.279  1.00  0.00     0.184 C 
HETATM   17  C27 UNL     1       0.602  -1.231   5.390  1.00  0.00     0.215 C 
HETATM   18  C28 UNL     1       1.065  -0.660   4.060  1.00  0.00     0.220 C 
HETATM   19  O18 UNL     1       1.730  -1.352   6.231  1.00  0.00    -0.218 OA
HETATM   20  C29 UNL     1       1.822  -1.744   3.313  1.00  0.00     0.241 C 
HETATM   21  O17 UNL     1      -0.039  -0.197   3.314  1.00  0.00    -0.218 OA
HETATM   22  O16 UNL     1       3.031  -2.005   3.992  1.00  0.00    -0.215 OA
BRANCH  16  23
HETATM   23  C30 UNL     1      -1.547  -2.550   4.892  1.00  0.00     0.214 C 
HETATM   24  O19 UNL     1      -2.303  -2.011   5.959  1.00  0.00    -0.218 OA
ENDBRANCH  16  23
ENDBRANCH  13  14
ENDBRANCH   7  13
BRANCH   8  25
HETATM   25  C34 UNL     1      -1.310  -5.517  -0.997  1.00  0.00     0.174 C 
BRANCH  25  26
HETATM   26  O21 UNL     1      -1.992  -6.296  -0.036  1.00  0.00    -0.297 OA
BRANCH  26  27
HETATM   27  C35 UNL     1      -1.942  -7.658  -0.047  1.00  0.00     0.273 C 
HETATM   28  O22 UNL     1      -2.520  -8.331   0.781  1.00  0.00    -0.264 OA
HETATM   29  C36 UNL     1      -1.126  -8.294  -1.158  1.00  0.00     0.106 C 
ENDBRANCH  26  27
ENDBRANCH  25  26
ENDBRANCH   8  25
ENDBRANCH   1   3
BRANCH   1  30
HETATM   30  O2  UNL     1      -2.618   0.805   0.444  1.00  0.00    -0.296 OA
BRANCH  30  31
HETATM   31  C7  UNL     1      -3.007   1.961  -0.263  1.00  0.00     0.184 C 
BRANCH  31  32
HETATM   32  C8  UNL     1      -1.956   2.956  -0.766  1.00  0.00     0.181 C 
HETATM   33  C9  UNL     1      -2.592   3.954  -1.738  1.00  0.00     0.215 C 
HETATM   34  C10 UNL     1      -2.747   3.431  -3.164  1.00  0.00     0.220 C 
HETATM   35  O12 UNL     1      -1.803   5.121  -1.776  1.00  0.00    -0.218 OA
HETATM   36  C11 UNL     1      -1.751   2.325  -3.457  1.00  0.00     0.241 C 
HETATM   37  O11 UNL     1      -4.048   2.943  -3.383  1.00  0.00    -0.218 OA
HETATM   38  C12 UNL     1      -0.511   2.539  -2.631  1.00  0.00     0.272 C 
HETATM   39  O10 UNL     1      -1.404   2.328  -4.819  1.00  0.00    -0.215 OA
HETATM   40  O3  UNL     1      -0.826   2.309  -1.282  1.00  0.00    -0.326 OA
BRANCH  38  41
HETATM   41  O4  UNL     1       0.435   1.533  -2.944  1.00  0.00    -0.304 OA
BRANCH  41  42
HETATM   42  C13 UNL     1       1.792   1.934  -2.836  1.00  0.00     0.246 C 
HETATM   43  O5  UNL     1       2.418   0.878  -3.562  1.00  0.00    -0.303 OA
HETATM   44  C14 UNL     1       3.770   0.777  -3.407  1.00  0.00     0.120 C 
HETATM   45  C15 UNL     1       4.289   1.024  -2.204  1.00  0.00     0.068 C 
HETATM   46  C16 UNL     1       3.426   1.219  -1.006  1.00  0.00     0.070 C 
HETATM   47  C21 UNL     1       5.582   1.125  -1.829  1.00  0.00     0.294 C 
HETATM   48  C17 UNL     1       2.270   2.141  -1.392  1.00  0.00     0.084 C 
HETATM   49  C20 UNL     1       4.437   1.894  -0.078  1.00  0.00     0.151 C 
HETATM   50  C18 UNL     1       2.919   3.469  -1.046  1.00  0.00    -0.011 C 
HETATM   51  C19 UNL     1       4.049   3.327  -0.336  1.00  0.00    -0.002 C 
HETATM   52  O6  UNL     1       5.732   1.568  -0.547  1.00  0.00    -0.296 OA
HETATM   53  O7  UNL     1       6.520   0.910  -2.565  1.00  0.00    -0.259 OA
BRANCH  50  54
HETATM   54  C22 UNL     1       2.284   4.804  -1.332  1.00  0.00     0.174 C 
BRANCH  54  55
HETATM   55  O8  UNL     1       1.160   4.989  -0.499  1.00  0.00    -0.297 OA
BRANCH  55  56
HETATM   56  C23 UNL     1       0.441   6.147  -0.519  1.00  0.00     0.273 C 
HETATM   57  O9  UNL     1      -0.531   6.311   0.189  1.00  0.00    -0.264 OA
HETATM   58  C24 UNL     1       0.880   7.201  -1.521  1.00  0.00     0.106 C 
ENDBRANCH  55  56
ENDBRANCH  54  55
ENDBRANCH  50  54
ENDBRANCH  41  42
ENDBRANCH  38  41
ENDBRANCH  31  32
ENDBRANCH  30  31
ENDBRANCH   1  30
TORSDOF 15
