REMARK  4 active torsions:
REMARK  status: ('A' for Active; 'I' for Inactive)
REMARK    1  A    between atoms: C1_1  and  C9_11 
REMARK    2  A    between atoms: C4_4  and  C7_7 
REMARK    3  A    between atoms: C7_7  and  O1_8 
REMARK    4  A    between atoms: C12_14  and  C13_16 
ROOT
HETATM    1  C1  UNL     1       0.038   0.812   0.416  1.00  0.00     0.030 C 
HETATM    2  C2  UNL     1      -0.993   1.878   0.024  1.00  0.00     0.007 C 
HETATM    3  C3  UNL     1      -0.789   2.471  -1.376  1.00  0.00     0.032 C 
HETATM    4  C4  UNL     1       0.646   2.726  -1.784  1.00  0.00     0.037 C 
HETATM    5  C5  UNL     1       1.625   2.237  -0.990  1.00  0.00    -0.025 C 
HETATM    6  C6  UNL     1       1.431   1.442   0.275  1.00  0.00     0.028 C 
ENDROOT
BRANCH   1   7
HETATM    7  C9  UNL     1      -0.107  -0.600  -0.200  1.00  0.00     0.093 C 
HETATM    8  C10 UNL     1      -1.503  -1.183   0.041  1.00  0.00     0.030 C 
HETATM    9  C11 UNL     1      -1.208  -2.669   0.237  1.00  0.00     0.035 C 
HETATM   10  C12 UNL     1       0.174  -2.632   0.882  1.00  0.00     0.143 C 
HETATM   11  O3  UNL     1       0.790  -1.442   0.472  1.00  0.00    -0.359 OA
HETATM   12  C16 UNL     1       0.247  -0.682  -1.692  1.00  0.00     0.030 C 
BRANCH  10  13
HETATM   13  C13 UNL     1       0.205  -2.741   2.414  1.00  0.00     0.152 C 
HETATM   14  C14 UNL     1      -0.204  -4.141   2.886  1.00  0.00     0.035 C 
HETATM   15  O4  UNL     1      -0.705  -1.823   2.960  1.00  0.00    -0.224 OA
HETATM   16  C15 UNL     1       1.591  -2.413   2.983  1.00  0.00     0.035 C 
ENDBRANCH  10  13
ENDBRANCH   1   7
BRANCH   4  17
HETATM   17  C7  UNL     1       1.018   3.418  -2.909  1.00  0.00     0.291 C 
HETATM   18  O2  UNL     1       2.213   3.558  -3.092  1.00  0.00    -0.260 OA
BRANCH  17  19
HETATM   19  O1  UNL     1       0.242   3.995  -3.886  1.00  0.00    -0.296 OA
HETATM   20  C8  UNL     1      -1.158   3.946  -3.935  1.00  0.00     0.185 C 
ENDBRANCH  17  19
ENDBRANCH   4  17
TORSDOF 4
