REMARK  8 active torsions:
REMARK  status: ('A' for Active; 'I' for Inactive)
REMARK    1  A    between atoms: C2_2  and  C7_8 
REMARK    2  A    between atoms: C7_8  and  O2_10 
REMARK    3  A    between atoms: O2_10  and  C8_11 
REMARK    4  A    between atoms: C11_14  and  C26_32 
REMARK    5  A    between atoms: C16_19  and  C22_26 
REMARK    6  A    between atoms: C22_26  and  O5_28 
REMARK    7  A    between atoms: C29_35  and  C36_43 
REMARK    8  A    between atoms: C36_43  and  O8_45 
ROOT
HETATM    1  C8  UNL     1       1.000   2.300   1.508  1.00  0.00     0.143 C 
HETATM    2  C9  UNL     1      -0.355   2.455   2.216  1.00  0.00     0.035 C 
HETATM    3  C10 UNL     1      -1.422   1.741   1.398  1.00  0.00     0.011 C 
HETATM    4  C11 UNL     1      -1.085   0.247   1.329  1.00  0.00     0.043 C 
HETATM    5  C12 UNL     1       0.405  -0.100   1.360  1.00  0.00     0.011 C 
HETATM    6  C13 UNL     1       1.395   0.820   1.433  1.00  0.00    -0.018 C 
HETATM    7  C14 UNL     1       2.855   0.401   1.202  1.00  0.00     0.021 C 
HETATM    8  C15 UNL     1       3.163  -1.021   1.755  1.00  0.00     0.019 C 
HETATM    9  C16 UNL     1       2.052  -2.032   1.359  1.00  0.00     0.133 C 
HETATM   10  C17 UNL     1       0.659  -1.434   1.285  1.00  0.00     0.177 C 
HETATM   11  O3  UNL     1      -0.243  -2.235   1.179  1.00  0.00    -0.291 OA
HETATM   12  C18 UNL     1       2.396  -2.347  -0.131  1.00  0.00     0.016 C 
HETATM   13  C19 UNL     1       3.929  -2.325  -0.226  1.00  0.00     0.001 C 
HETATM   14  C20 UNL     1       4.404  -1.653   1.069  1.00  0.00     0.001 C 
HETATM   15  C21 UNL     1       1.770  -3.587  -0.789  1.00  0.00     0.001 C 
HETATM   16  C24 UNL     1       3.439  -0.921   3.272  1.00  0.00     0.001 C 
HETATM   17  C25 UNL     1       3.962   1.396   1.613  1.00  0.00     0.004 C 
ENDROOT
BRANCH   4  18
HETATM   18  C26 UNL     1      -1.781  -0.288   0.082  1.00  0.00    -0.038 C 
HETATM   19  C27 UNL     1      -3.073  -1.081   0.182  1.00  0.00     0.020 C 
HETATM   20  C28 UNL     1      -3.951  -0.884  -1.086  1.00  0.00     0.018 C 
HETATM   21  C39 UNL     1      -3.836  -0.884   1.509  1.00  0.00     0.004 C 
HETATM   22  C29 UNL     1      -3.113  -0.993  -2.401  1.00  0.00     0.133 C 
HETATM   23  C34 UNL     1      -4.948  -2.061  -1.244  1.00  0.00     0.001 C 
HETATM   24  C38 UNL     1      -4.752   0.427  -0.928  1.00  0.00     0.001 C 
HETATM   25  C30 UNL     1      -1.693  -0.449  -2.300  1.00  0.00     0.181 C 
HETATM   26  C32 UNL     1      -2.931  -2.535  -2.547  1.00  0.00     0.016 C 
HETATM   27  C31 UNL     1      -1.181  -0.083  -1.102  1.00  0.00     0.030 C 
HETATM   28  O6  UNL     1      -1.042  -0.292  -3.309  1.00  0.00    -0.291 OA
HETATM   29  C33 UNL     1      -4.228  -3.172  -2.022  1.00  0.00     0.001 C 
HETATM   30  C35 UNL     1      -2.498  -3.095  -3.911  1.00  0.00     0.001 C 
BRANCH  22  31
HETATM   31  C36 UNL     1      -3.928  -0.442  -3.597  1.00  0.00     0.278 C 
HETATM   32  O7  UNL     1      -4.739  -1.148  -4.160  1.00  0.00    -0.264 OA
BRANCH  31  33
HETATM   33  O8  UNL     1      -3.764   0.847  -4.030  1.00  0.00    -0.299 OA
HETATM   34  C37 UNL     1      -2.961   1.838  -3.437  1.00  0.00     0.184 C 
ENDBRANCH  31  33
ENDBRANCH  22  31
ENDBRANCH   4  18
BRANCH   1  35
HETATM   35  O2  UNL     1       1.868   3.126   2.243  1.00  0.00    -0.297 OA
BRANCH  35  36
HETATM   36  C7  UNL     1       2.383   4.330   1.815  1.00  0.00     0.296 C 
HETATM   37  O1  UNL     1       2.667   5.089   2.724  1.00  0.00    -0.259 OA
BRANCH  36  38
HETATM   38  C2  UNL     1       2.681   4.792   0.556  1.00  0.00     0.063 A 
HETATM   39  C1  UNL     1       2.630   4.052  -0.571  1.00  0.00     0.006 A 
HETATM   40  C6  UNL     1       2.938   4.558  -1.777  1.00  0.00     0.007 A 
HETATM   41  C5  UNL     1       3.324   5.836  -1.895  1.00  0.00     0.035 A 
HETATM   42  C4  UNL     1       3.410   6.591  -0.791  1.00  0.00     0.007 A 
HETATM   43 BR1  UNL     1       3.769   6.554  -3.587  1.00  0.00    -0.049 Br
HETATM   44  C3  UNL     1       3.099   6.069   0.406  1.00  0.00     0.006 A 
ENDBRANCH  36  38
ENDBRANCH  35  36
ENDBRANCH   1  35
BRANCH   9  45
HETATM   45  C22 UNL     1       2.159  -3.322   2.211  1.00  0.00     0.278 C 
HETATM   46  O4  UNL     1       2.934  -4.200   1.891  1.00  0.00    -0.264 OA
BRANCH  45  47
HETATM   47  O5  UNL     1       1.401  -3.487   3.338  1.00  0.00    -0.299 OA
HETATM   48  C23 UNL     1       0.536  -2.540   3.915  1.00  0.00     0.184 C 
ENDBRANCH  45  47
ENDBRANCH   9  45
TORSDOF 8
