REMARK  9 active torsions:
REMARK  status: ('A' for Active; 'I' for Inactive)
REMARK    1  A    between atoms: C2_2  and  C15_20 
REMARK    2  A    between atoms: C3_4  and  C5_7 
REMARK    3  A    between atoms: C5_7  and  C6_8 
REMARK    4  A    between atoms: C6_8  and  C7_9 
REMARK    5  A    between atoms: C6_8  and  O2_16 
REMARK    6  A    between atoms: C7_9  and  C8_10 
REMARK    7  A    between atoms: C8_10  and  C9_11 
REMARK    8  A    between atoms: O2_16  and  C13_17 
REMARK    9  A    between atoms: C15_20  and  C16_21 
ROOT
HETATM    1  C9  UNL     1       3.747   2.495  -0.846  1.00  0.00    -0.016 C 
HETATM    2  C10 UNL     1       4.582   2.217  -1.858  1.00  0.00     0.045 C 
HETATM    3  C11 UNL     1       5.651   2.945  -2.096  1.00  0.00    -0.051 C 
HETATM    4  C12 UNL     1       6.642   3.606  -2.318  1.00  0.00    -0.009 C 
ENDROOT
BRANCH   1   5
HETATM    5  C8  UNL     1       2.526   1.663  -0.526  1.00  0.00     0.045 C 
BRANCH   5   6
HETATM    6  C7  UNL     1       2.776   0.714   0.653  1.00  0.00     0.112 C 
HETATM    7 CL2  UNL     1       3.022   1.615   2.178  1.00  0.00    -0.112 Cl
BRANCH   6   8
HETATM    8  C6  UNL     1       1.679  -0.355   0.783  1.00  0.00     0.142 C 
BRANCH   8   9
HETATM    9  C5  UNL     1       0.280   0.200   1.124  1.00  0.00     0.062 C 
BRANCH   9  10
HETATM   10  C3  UNL     1      -0.807  -0.076   0.076  1.00  0.00     0.134 C 
HETATM   11  O1  UNL     1      -1.920  -0.712   0.637  1.00  0.00    -0.357 OA
HETATM   12  C2  UNL     1      -2.900  -0.753  -0.368  1.00  0.00     0.127 C 
HETATM   13  C1  UNL     1      -2.651   0.457  -1.270  1.00  0.00     0.102 C 
HETATM   14  C4  UNL     1      -1.423   1.117  -0.646  1.00  0.00     0.120 C 
HETATM   15 BR1  UNL     1      -2.334  -0.059  -3.122  1.00  0.00    -0.078 Br
HETATM   16 CL1  UNL     1      -1.921   2.440   0.453  1.00  0.00    -0.112 Cl
BRANCH  12  17
HETATM   17  C15 UNL     1      -4.292  -0.816   0.262  1.00  0.00     0.030 C 
BRANCH  17  18
HETATM   18  C16 UNL     1      -5.401  -1.085  -0.769  1.00  0.00     0.003 C 
HETATM   19  C17 UNL     1      -6.771  -1.261  -0.102  1.00  0.00     0.000 C 
ENDBRANCH  17  18
ENDBRANCH  12  17
ENDBRANCH   9  10
ENDBRANCH   8   9
BRANCH   8  20
HETATM   20  O2  UNL     1       2.031  -1.323   1.738  1.00  0.00    -0.303 OA
BRANCH  20  21
HETATM   21  C13 UNL     1       2.951  -2.265   1.392  1.00  0.00     0.272 C 
HETATM   22  C14 UNL     1       3.218  -3.194   2.558  1.00  0.00     0.106 C 
HETATM   23  O3  UNL     1       3.487  -2.348   0.310  1.00  0.00    -0.264 OA
ENDBRANCH  20  21
ENDBRANCH   8  20
ENDBRANCH   6   8
ENDBRANCH   5   6
ENDBRANCH   1   5
TORSDOF 9
