REMARK  17 active torsions:
REMARK  status: ('A' for Active; 'I' for Inactive)
REMARK    1  A    between atoms: C4_4  and  C7_7 
REMARK    2  A    between atoms: C7_7  and  C8_8 
REMARK    3  A    between atoms: C8_8  and  C9_9 
REMARK    4  A    between atoms: C11_11  and  C39_44 
REMARK    5  A    between atoms: C12_12  and  C20_22 
REMARK    6  A    between atoms: C13_13  and  C14_15 
REMARK    7  A    between atoms: C20_22  and  C21_23 
REMARK    8  A    between atoms: C20_22  and  C27_30 
REMARK    9  A    between atoms: C28_31  and  C29_32 
REMARK   10  A    between atoms: C29_32  and  C30_33 
REMARK   11  A    between atoms: C30_33  and  C31_34 
REMARK   12  A    between atoms: C31_34  and  C32_35 
REMARK   13  A    between atoms: C32_35  and  C33_36 
REMARK   14  A    between atoms: C41_46  and  C46_53 
REMARK   15  A    between atoms: C42_47  and  O7_51 
REMARK   16  A    between atoms: C46_53  and  C47_54 
REMARK   17  A    between atoms: C48_55  and  C49_56 
ROOT
HETATM    1  C9  UNL     1      -1.797   1.014  -2.638  1.00  0.00     0.116 C 
HETATM    2  C10 UNL     1      -1.689  -0.502  -2.517  1.00  0.00     0.035 C 
HETATM    3  C11 UNL     1      -0.871  -0.837  -1.260  1.00  0.00     0.035 C 
HETATM    4  C12 UNL     1       0.434  -0.004  -1.110  1.00  0.00     0.058 C 
HETATM    5  C13 UNL     1       0.236   1.464  -1.539  1.00  0.00     0.142 C 
HETATM    6  O1  UNL     1      -0.505   1.535  -2.741  1.00  0.00    -0.354 OA
ENDROOT
BRANCH   4   7
HETATM    7  C20 UNL     1       1.097  -0.268   0.275  1.00  0.00    -0.020 C 
BRANCH   7   8
HETATM    8  C21 UNL     1       0.188  -0.326   1.500  1.00  0.00    -0.004 A 
HETATM    9  C22 UNL     1       0.271  -1.352   2.370  1.00  0.00     0.002 A 
HETATM   10  C23 UNL     1      -0.540  -1.440   3.435  1.00  0.00     0.027 A 
HETATM   11  C24 UNL     1      -1.460  -0.495   3.690  1.00  0.00     0.131 A 
HETATM   12  C25 UNL     1      -1.523   0.547   2.847  1.00  0.00     0.027 A 
HETATM   13  O3  UNL     1      -2.292  -0.575   4.762  1.00  0.00    -0.190 OA
HETATM   14  C26 UNL     1      -0.713   0.631   1.781  1.00  0.00     0.002 A 
ENDBRANCH   7   8
BRANCH   7  15
HETATM   15  C27 UNL     1       2.372   0.490   0.558  1.00  0.00    -0.009 C 
HETATM   16  C28 UNL     1       2.568   1.330   1.586  1.00  0.00    -0.024 C 
BRANCH  16  17
HETATM   17  C29 UNL     1       3.889   1.983   1.896  1.00  0.00     0.059 C 
BRANCH  17  18
HETATM   18  C30 UNL     1       3.845   3.503   1.760  1.00  0.00     0.157 C 
HETATM   19  O5  UNL     1       3.654   3.828   0.407  1.00  0.00    -0.223 OA
BRANCH  18  20
HETATM   20  C31 UNL     1       2.817   4.210   2.652  1.00  0.00     0.038 C 
BRANCH  20  21
HETATM   21  C32 UNL     1       1.444   4.492   2.014  1.00  0.00     0.029 C 
BRANCH  21  22
HETATM   22  C33 UNL     1       0.350   4.820   3.015  1.00  0.00    -0.022 A 
HETATM   23  C34 UNL     1      -0.906   4.375   2.826  1.00  0.00    -0.002 A 
HETATM   24  C35 UNL     1      -1.880   4.634   3.712  1.00  0.00     0.027 A 
HETATM   25  C36 UNL     1      -1.641   5.351   4.822  1.00  0.00     0.131 A 
HETATM   26  C37 UNL     1      -0.391   5.806   5.006  1.00  0.00     0.027 A 
HETATM   27  O4  UNL     1      -2.622   5.614   5.728  1.00  0.00    -0.190 OA
HETATM   28  C38 UNL     1       0.584   5.549   4.121  1.00  0.00    -0.002 A 
ENDBRANCH  21  22
ENDBRANCH  20  21
ENDBRANCH  18  20
ENDBRANCH  17  18
ENDBRANCH  16  17
ENDBRANCH   7  15
ENDBRANCH   4   7
BRANCH   3  29
HETATM   29  C39 UNL     1      -0.624  -2.340  -1.097  1.00  0.00     0.029 A 
HETATM   30  C40 UNL     1      -1.141  -3.013  -0.042  1.00  0.00     0.134 A 
HETATM   31  C41 UNL     1      -0.794  -4.305   0.186  1.00  0.00     0.086 A 
HETATM   32  O10 UNL     1      -1.904  -2.312   0.851  1.00  0.00    -0.190 OA
HETATM   33  C42 UNL     1      -0.045  -4.984  -0.720  1.00  0.00     0.101 A 
HETATM   34  C43 UNL     1       0.379  -4.293  -1.792  1.00  0.00     0.051 A 
HETATM   35  C44 UNL     1       0.145  -2.991  -1.990  1.00  0.00     0.131 A 
HETATM   36  O6  UNL     1       0.678  -2.393  -3.091  1.00  0.00    -0.190 OA
BRANCH  31  37
HETATM   37  C46 UNL     1      -1.268  -4.917   1.318  1.00  0.00     0.200 C 
HETATM   38  O9  UNL     1      -2.300  -4.536   1.827  1.00  0.00    -0.286 OA
BRANCH  37  39
HETATM   39  C47 UNL     1      -0.644  -5.922   2.003  1.00  0.00     0.042 C 
HETATM   40  C48 UNL     1       0.656  -6.268   1.931  1.00  0.00     0.003 C 
BRANCH  40  41
HETATM   41  C49 UNL     1       1.298  -7.252   2.597  1.00  0.00     0.000 A 
HETATM   42  C50 UNL     1       2.627  -7.400   2.416  1.00  0.00     0.002 A 
HETATM   43  C51 UNL     1       3.326  -8.357   3.044  1.00  0.00     0.027 A 
HETATM   44  C52 UNL     1       2.731  -9.217   3.885  1.00  0.00     0.131 A 
HETATM   45  C53 UNL     1       1.408  -9.079   4.066  1.00  0.00     0.027 A 
HETATM   46  O8  UNL     1       3.432 -10.191   4.526  1.00  0.00    -0.190 OA
HETATM   47  C54 UNL     1       0.706  -8.122   3.438  1.00  0.00     0.002 A 
ENDBRANCH  40  41
ENDBRANCH  37  39
ENDBRANCH  31  37
BRANCH  33  48
HETATM   48  O7  UNL     1       0.143  -6.346  -0.633  1.00  0.00    -0.328 OA
HETATM   49  C45 UNL     1       0.276  -7.101  -1.815  1.00  0.00     0.181 C 
ENDBRANCH  33  48
ENDBRANCH   3  29
BRANCH   5  50
HETATM   50  C14 UNL     1       1.469   2.328  -1.794  1.00  0.00     0.005 A 
HETATM   51  C15 UNL     1       1.361   3.666  -1.695  1.00  0.00     0.000 A 
HETATM   52  C16 UNL     1       2.386   4.478  -1.993  1.00  0.00     0.027 A 
HETATM   53  C17 UNL     1       3.570   3.988  -2.394  1.00  0.00     0.131 A 
HETATM   54  C18 UNL     1       3.684   2.653  -2.485  1.00  0.00     0.027 A 
HETATM   55  O2  UNL     1       4.624   4.799  -2.681  1.00  0.00    -0.190 OA
HETATM   56  C19 UNL     1       2.650   1.843  -2.216  1.00  0.00     0.000 A 
ENDBRANCH   5  50
BRANCH   1  57
HETATM   57  C8  UNL     1      -2.612   1.441  -3.864  1.00  0.00     0.034 C 
BRANCH  57  58
HETATM   58  C7  UNL     1      -2.702   2.971  -3.997  1.00  0.00     0.029 C 
BRANCH  58  59
HETATM   59  C4  UNL     1      -3.715   3.381  -5.045  1.00  0.00    -0.022 A 
HETATM   60  C3  UNL     1      -4.922   3.857  -4.694  1.00  0.00    -0.002 A 
HETATM   61  C2  UNL     1      -5.814   4.223  -5.627  1.00  0.00     0.027 A 
HETATM   62  C1  UNL     1      -5.537   4.123  -6.937  1.00  0.00     0.131 A 
HETATM   63  C6  UNL     1      -4.330   3.643  -7.282  1.00  0.00     0.027 A 
HETATM   64  O11 UNL     1      -6.439   4.493  -7.885  1.00  0.00    -0.190 OA
HETATM   65  C5  UNL     1      -3.432   3.278  -6.355  1.00  0.00    -0.002 A 
ENDBRANCH  58  59
ENDBRANCH  57  58
ENDBRANCH   1  57
TORSDOF 17
