REMARK  4 active torsions:
REMARK  status: ('A' for Active; 'I' for Inactive)
REMARK    1  A    between atoms: C11_11  and  O3_18 
REMARK    2  A    between atoms: C14_14  and  O1_15 
REMARK    3  A    between atoms: O3_18  and  C16_19 
REMARK    4  A    between atoms: C20_23  and  O4_25 
ROOT
HETATM    1  C1  UNL     1      -2.259  -5.323   0.583  1.00  0.00     0.027 A 
HETATM    2  C2  UNL     1      -1.426  -5.446   1.625  1.00  0.00     0.131 A 
HETATM    3  C3  UNL     1      -1.110  -4.314   2.269  1.00  0.00     0.023 A 
HETATM    4  C4  UNL     1      -1.599  -3.115   1.904  1.00  0.00    -0.020 A 
HETATM    5  C5  UNL     1      -2.457  -2.975   0.867  1.00  0.00    -0.002 A 
HETATM    6  C6  UNL     1      -2.748  -4.127   0.223  1.00  0.00     0.002 A 
HETATM    7  C7  UNL     1      -2.929  -1.751   0.495  1.00  0.00     0.020 A 
HETATM    8  C8  UNL     1      -2.234  -0.642   0.860  1.00  0.00     0.005 A 
HETATM    9  C9  UNL     1      -0.985  -0.784   1.707  1.00  0.00     0.033 C 
HETATM   10  C10 UNL     1      -1.195  -1.911   2.708  1.00  0.00     0.031 C 
HETATM   11  C11 UNL     1      -2.583   0.602   0.458  1.00  0.00     0.121 A 
HETATM   12  C12 UNL     1      -3.693   0.750  -0.282  1.00  0.00     0.155 A 
HETATM   13  C13 UNL     1      -4.411  -0.337  -0.584  1.00  0.00     0.054 A 
HETATM   14  C14 UNL     1      -4.066  -1.590  -0.235  1.00  0.00     0.096 A 
HETATM   15  O2  UNL     1      -4.087   1.988  -0.690  1.00  0.00    -0.188 OA
HETATM   16  O6  UNL     1      -0.918  -6.654   1.988  1.00  0.00    -0.190 OA
ENDROOT
BRANCH  11  17
HETATM   17  O3  UNL     1      -1.881   1.736   0.777  1.00  0.00    -0.305 OA
BRANCH  17  18
HETATM   18  C16 UNL     1      -0.606   1.872   0.296  1.00  0.00     0.102 A 
HETATM   19  C17 UNL     1       0.230   2.754   0.859  1.00  0.00     0.021 A 
HETATM   20  C18 UNL     1       1.491   2.934   0.435  1.00  0.00    -0.018 A 
HETATM   21  C19 UNL     1       2.015   2.218  -0.590  1.00  0.00     0.018 A 
HETATM   22  C26 UNL     1       2.283   4.016   1.129  1.00  0.00     0.031 C 
HETATM   23  C20 UNL     1       1.196   1.285  -1.150  1.00  0.00     0.096 A 
HETATM   24  C23 UNL     1       3.305   2.471  -0.956  1.00  0.00    -0.002 A 
HETATM   25  C21 UNL     1      -0.083   1.185  -0.730  1.00  0.00     0.049 A 
HETATM   26  C24 UNL     1       4.158   3.098  -0.109  1.00  0.00    -0.020 A 
HETATM   27  C30 UNL     1       3.853   2.145  -2.147  1.00  0.00     0.002 A 
HETATM   28  C25 UNL     1       3.711   3.517   1.268  1.00  0.00     0.031 C 
HETATM   29  C27 UNL     1       5.444   3.332  -0.429  1.00  0.00     0.023 A 
HETATM   30  C28 UNL     1       5.970   2.976  -1.609  1.00  0.00     0.131 A 
HETATM   31  C29 UNL     1       5.134   2.381  -2.470  1.00  0.00     0.027 A 
HETATM   32  O5  UNL     1       7.272   3.222  -1.912  1.00  0.00    -0.190 OA
BRANCH  23  33
HETATM   33  O4  UNL     1       1.539   0.450  -2.186  1.00  0.00    -0.328 OA
HETATM   34  C22 UNL     1       2.136  -0.755  -1.758  1.00  0.00     0.181 C 
ENDBRANCH  23  33
ENDBRANCH  17  18
ENDBRANCH  11  17
BRANCH  14  35
HETATM   35  O1  UNL     1      -4.899  -2.647  -0.526  1.00  0.00    -0.328 OA
HETATM   36  C15 UNL     1      -6.278  -2.416  -0.708  1.00  0.00     0.181 C 
ENDBRANCH  14  35
TORSDOF 4
