REMARK  1 active torsions:
REMARK  status: ('A' for Active; 'I' for Inactive)
REMARK    1  A    between atoms: C14_16  and  O4_28 
ROOT
HETATM    1  C1  UNL     1      -3.355  -0.572   2.357  1.00  0.00     0.027 A 
HETATM    2  C2  UNL     1      -3.423  -1.761   2.986  1.00  0.00     0.131 A 
HETATM    3  C3  UNL     1      -2.277  -2.338   3.392  1.00  0.00     0.023 A 
HETATM    4  C4  UNL     1      -1.102  -1.738   3.161  1.00  0.00    -0.023 A 
HETATM    5  C5  UNL     1      -1.057  -0.566   2.519  1.00  0.00    -0.014 A 
HETATM    6  C6  UNL     1      -2.182   0.038   2.119  1.00  0.00    -0.002 A 
HETATM    7  C7  UNL     1       0.353  -0.085   2.361  1.00  0.00     0.118 A 
HETATM    8  C8  UNL     1       1.212  -1.304   2.759  1.00  0.00     0.022 C 
HETATM    9  C9  UNL     1       0.264  -2.236   3.550  1.00  0.00     0.027 C 
HETATM   10  C10 UNL     1       0.677   0.632   1.072  1.00  0.00     0.013 A 
HETATM   11  C11 UNL     1       1.061   1.883   1.338  1.00  0.00     0.102 A 
HETATM   12  O1  UNL     1       1.074   2.208   2.522  1.00  0.00    -0.276 OA
HETATM   13  C12 UNL     1       0.653   1.094   3.279  1.00  0.00     0.283 A 
HETATM   14  O2  UNL     1       0.632   1.070   4.488  1.00  0.00    -0.263 OA
HETATM   15  C13 UNL     1       1.400   2.683   0.329  1.00  0.00     0.049 A 
HETATM   16  C14 UNL     1       1.330   2.283  -0.957  1.00  0.00     0.096 A 
HETATM   17  C15 UNL     1       0.986   0.993  -1.252  1.00  0.00     0.022 A 
HETATM   18  C16 UNL     1       0.628   0.199  -0.204  1.00  0.00     0.001 A 
HETATM   19  C17 UNL     1       0.200  -1.058  -0.403  1.00  0.00    -0.000 A 
HETATM   20  C18 UNL     1       0.149  -1.579  -1.629  1.00  0.00     0.000 A 
HETATM   21  C19 UNL     1       0.535  -0.840  -2.678  1.00  0.00     0.002 A 
HETATM   22  C20 UNL     1       0.952   0.439  -2.503  1.00  0.00     0.002 A 
HETATM   23  C21 UNL     1       1.303   1.037  -3.665  1.00  0.00     0.002 A 
HETATM   24  C22 UNL     1       1.252   0.450  -4.870  1.00  0.00     0.027 A 
HETATM   25  C23 UNL     1       0.834  -0.813  -5.012  1.00  0.00     0.131 A 
HETATM   26  C24 UNL     1       0.478  -1.439  -3.884  1.00  0.00     0.027 A 
HETATM   27  O3  UNL     1       0.782  -1.416  -6.230  1.00  0.00    -0.190 OA
HETATM   28  O5  UNL     1      -4.620  -2.366   3.216  1.00  0.00    -0.190 OA
ENDROOT
BRANCH  16  29
HETATM   29  O4  UNL     1       1.748   3.231  -1.858  1.00  0.00    -0.328 OA
HETATM   30  C25 UNL     1       0.714   4.087  -2.298  1.00  0.00     0.181 C 
ENDBRANCH  16  29
TORSDOF 1
