REMARK  5 active torsions:
REMARK  status: ('A' for Active; 'I' for Inactive)
REMARK    1  A    between atoms: C4_4  and  C7_7 
REMARK    2  A    between atoms: C7_7  and  C8_8 
REMARK    3  A    between atoms: C11_11  and  O5_41 
REMARK    4  A    between atoms: C19_19  and  C22_23 
REMARK    5  A    between atoms: C25_26  and  O3_30 
ROOT
HETATM    1  C8  UNL     1       0.691   4.410  -0.188  1.00  0.00     0.004 A 
HETATM    2  C9  UNL     1      -0.548   4.553  -0.692  1.00  0.00     0.129 A 
HETATM    3  C10 UNL     1      -1.325   3.466  -0.724  1.00  0.00     0.051 A 
HETATM    4  C11 UNL     1      -0.942   2.233  -0.347  1.00  0.00     0.096 A 
HETATM    5  C12 UNL     1       0.298   2.077   0.193  1.00  0.00     0.018 A 
HETATM    6  C13 UNL     1       1.083   3.190   0.257  1.00  0.00    -0.022 A 
HETATM    7  C14 UNL     1       2.482   3.071   0.826  1.00  0.00     0.031 C 
HETATM    8  C15 UNL     1       2.471   2.113   2.002  1.00  0.00     0.031 C 
HETATM    9  C16 UNL     1       1.839   0.847   1.506  1.00  0.00    -0.020 A 
HETATM   10  C17 UNL     1       0.778   0.887   0.669  1.00  0.00    -0.002 A 
HETATM   11  C18 UNL     1       0.293  -0.340   0.375  1.00  0.00     0.002 A 
HETATM   12  C19 UNL     1       0.747  -1.522   0.844  1.00  0.00     0.027 A 
HETATM   13  C20 UNL     1       1.830  -1.506   1.643  1.00  0.00     0.131 A 
HETATM   14  C21 UNL     1       2.340  -0.310   1.964  1.00  0.00     0.023 A 
HETATM   15  O1  UNL     1       2.367  -2.628   2.195  1.00  0.00    -0.190 OA
HETATM   16  O6  UNL     1      -1.061   5.744  -1.108  1.00  0.00    -0.190 OA
ENDROOT
BRANCH  12  17
HETATM   17  C22 UNL     1       0.133  -2.683   0.505  1.00  0.00     0.024 A 
HETATM   18  C23 UNL     1      -1.208  -2.851   0.625  1.00  0.00    -0.018 A 
HETATM   19  C24 UNL     1      -1.841  -3.994   0.247  1.00  0.00     0.018 A 
HETATM   20  C32 UNL     1      -2.044  -1.756   1.270  1.00  0.00     0.031 C 
HETATM   21  C25 UNL     1      -1.097  -5.022  -0.238  1.00  0.00     0.096 A 
HETATM   22  C29 UNL     1      -3.195  -4.088   0.382  1.00  0.00    -0.002 A 
HETATM   23  C26 UNL     1       0.233  -4.837  -0.307  1.00  0.00     0.051 A 
HETATM   24  C27 UNL     1       0.867  -3.709   0.035  1.00  0.00     0.133 A 
HETATM   25  O2  UNL     1       2.215  -3.641  -0.152  1.00  0.00    -0.190 OA
HETATM   26  C30 UNL     1      -3.862  -3.329   1.280  1.00  0.00    -0.020 A 
HETATM   27  C36 UNL     1      -3.982  -4.896  -0.362  1.00  0.00     0.002 A 
HETATM   28  C31 UNL     1      -3.095  -2.392   2.169  1.00  0.00     0.031 C 
HETATM   29  C33 UNL     1      -5.195  -3.409   1.436  1.00  0.00     0.023 A 
HETATM   30  C34 UNL     1      -5.953  -4.234   0.702  1.00  0.00     0.131 A 
HETATM   31  C35 UNL     1      -5.313  -4.974  -0.212  1.00  0.00     0.027 A 
HETATM   32  O4  UNL     1      -7.302  -4.306   0.857  1.00  0.00    -0.190 OA
BRANCH  21  33
HETATM   33  O3  UNL     1      -1.648  -6.249  -0.530  1.00  0.00    -0.328 OA
HETATM   34  C28 UNL     1      -0.853  -7.411  -0.451  1.00  0.00     0.181 C 
ENDBRANCH  21  33
ENDBRANCH  12  17
BRANCH   4  35
HETATM   35  O5  UNL     1      -1.922   1.270  -0.400  1.00  0.00    -0.328 OA
HETATM   36  C37 UNL     1      -2.273   0.850  -1.703  1.00  0.00     0.181 C 
ENDBRANCH   4  35
BRANCH   1  37
HETATM   37  C7  UNL     1       1.589   5.641  -0.108  1.00  0.00     0.054 C 
BRANCH  37  38
HETATM   38  C4  UNL     1       2.950   5.528  -0.762  1.00  0.00    -0.018 A 
HETATM   39  C3  UNL     1       4.030   6.080  -0.180  1.00  0.00    -0.002 A 
HETATM   40  C2  UNL     1       5.244   5.985  -0.743  1.00  0.00     0.027 A 
HETATM   41  C1  UNL     1       5.422   5.344  -1.909  1.00  0.00     0.131 A 
HETATM   42  C6  UNL     1       4.338   4.806  -2.495  1.00  0.00     0.027 A 
HETATM   43  O7  UNL     1       6.652   5.245  -2.482  1.00  0.00    -0.190 OA
HETATM   44  C5  UNL     1       3.121   4.898  -1.937  1.00  0.00    -0.002 A 
ENDBRANCH  37  38
ENDBRANCH   1  37
TORSDOF 5
