REMARK  6 active torsions:
REMARK  status: ('A' for Active; 'I' for Inactive)
REMARK    1  A    between atoms: C11_12  and  O8_35 
REMARK    2  A    between atoms: C15_16  and  C26_31 
REMARK    3  A    between atoms: C16_17  and  C18_20 
REMARK    4  A    between atoms: C20_22  and  O5_29 
REMARK    5  A    between atoms: C22_24  and  O3_26 
REMARK    6  A    between atoms: C26_31  and  O6_32 
ROOT
HETATM    1  C1  UNL     1      -3.328   5.782  -0.401  1.00  0.00     0.027 A 
HETATM    2  C2  UNL     1      -3.347   4.441  -0.368  1.00  0.00     0.002 A 
HETATM    3  C3  UNL     1      -2.239   3.671  -0.450  1.00  0.00    -0.002 A 
HETATM    4  C4  UNL     1      -1.086   4.373  -0.531  1.00  0.00    -0.020 A 
HETATM    5  C5  UNL     1      -1.061   5.718  -0.567  1.00  0.00     0.023 A 
HETATM    6  C6  UNL     1      -2.176   6.458  -0.509  1.00  0.00     0.131 A 
HETATM    7  O1  UNL     1      -2.148   7.817  -0.537  1.00  0.00    -0.190 OA
HETATM    8  C7  UNL     1       0.224   3.646  -0.627  1.00  0.00     0.031 C 
HETATM    9  C8  UNL     1       0.108   2.461   0.319  1.00  0.00     0.031 C 
HETATM   10  C9  UNL     1      -1.113   1.641  -0.046  1.00  0.00    -0.021 A 
HETATM   11  C10 UNL     1      -2.238   2.306  -0.424  1.00  0.00     0.018 A 
HETATM   12  C11 UNL     1      -3.330   1.575  -0.772  1.00  0.00     0.096 A 
HETATM   13  C12 UNL     1      -3.215   0.237  -0.713  1.00  0.00     0.048 A 
HETATM   14  C13 UNL     1      -2.134  -0.433  -0.289  1.00  0.00     0.092 A 
HETATM   15  C14 UNL     1      -1.049   0.289   0.050  1.00  0.00     0.006 A 
HETATM   16  C15 UNL     1       0.207  -0.450   0.544  1.00  0.00     0.117 C 
HETATM   17  C16 UNL     1      -0.015  -1.978   0.628  1.00  0.00     0.066 C 
HETATM   18  C17 UNL     1      -0.945  -2.430  -0.489  1.00  0.00     0.154 C 
HETATM   19  O2  UNL     1      -2.180  -1.802  -0.317  1.00  0.00    -0.331 OA
ENDROOT
BRANCH  17  20
HETATM   20  C18 UNL     1       1.271  -2.789   0.605  1.00  0.00    -0.015 A 
HETATM   21  C19 UNL     1       1.651  -3.522   1.663  1.00  0.00     0.022 A 
HETATM   22  C20 UNL     1       2.778  -4.256   1.661  1.00  0.00     0.121 A 
HETATM   23  C21 UNL     1       3.562  -4.214   0.564  1.00  0.00     0.175 A 
HETATM   24  C22 UNL     1       3.220  -3.495  -0.526  1.00  0.00     0.121 A 
HETATM   25  O4  UNL     1       4.727  -4.923   0.539  1.00  0.00    -0.186 OA
HETATM   26  C23 UNL     1       2.069  -2.799  -0.476  1.00  0.00     0.022 A 
BRANCH  22  27
HETATM   27  O5  UNL     1       3.163  -4.994   2.755  1.00  0.00    -0.326 OA
HETATM   28  C25 UNL     1       2.253  -5.992   3.159  1.00  0.00     0.181 C 
ENDBRANCH  22  27
BRANCH  24  29
HETATM   29  O3  UNL     1       4.077  -3.507  -1.602  1.00  0.00    -0.326 OA
HETATM   30  C24 UNL     1       3.800  -2.685  -2.712  1.00  0.00     0.181 C 
ENDBRANCH  24  29
ENDBRANCH  17  20
BRANCH  16  31
HETATM   31  C26 UNL     1       0.603   0.038   1.946  1.00  0.00     0.276 C 
HETATM   32  O7  UNL     1      -0.255   0.182   2.793  1.00  0.00    -0.264 OA
BRANCH  31  33
HETATM   33  O6  UNL     1       1.910   0.335   2.206  1.00  0.00    -0.299 OA
HETATM   34  C27 UNL     1       2.962   0.098   1.304  1.00  0.00     0.184 C 
ENDBRANCH  31  33
ENDBRANCH  16  31
BRANCH  12  35
HETATM   35  O8  UNL     1      -4.470   2.156  -1.282  1.00  0.00    -0.328 OA
HETATM   36  C28 UNL     1      -5.369   1.398  -2.059  1.00  0.00     0.181 C 
ENDBRANCH  12  35
TORSDOF 6
