REMARK  6 active torsions:
REMARK  status: ('A' for Active; 'I' for Inactive)
REMARK    1  A    between atoms: C5_5  and  C9_9 
REMARK    2  A    between atoms: C9_9  and  C10_10 
REMARK    3  A    between atoms: C10_10  and  C11_11 
REMARK    4  A    between atoms: C11_11  and  O1_13 
REMARK    5  A    between atoms: O1_13  and  C13_14 
REMARK    6  A    between atoms: C14_16  and  C18_23 
ROOT
HETATM    1  C11 UNL     1      -0.360  -0.052   1.510  1.00  0.00     0.118 C 
HETATM    2  C12 UNL     1      -0.857  -1.181   2.418  1.00  0.00     0.032 C 
ENDROOT
BRANCH   1   3
HETATM    3  C10 UNL     1      -0.160  -0.541   0.066  1.00  0.00     0.030 C 
BRANCH   3   4
HETATM    4  C9  UNL     1      -1.419  -1.104  -0.614  1.00  0.00     0.006 C 
BRANCH   4   5
HETATM    5  C5  UNL     1      -1.175  -1.481  -2.095  1.00  0.00     0.019 C 
HETATM    6  C4  UNL     1      -1.199  -2.992  -2.228  1.00  0.00    -0.041 C 
HETATM    7  C3  UNL     1      -2.300  -3.654  -2.620  1.00  0.00     0.029 C 
HETATM    8  C19 UNL     1       0.061  -3.724  -1.831  1.00  0.00     0.026 C 
HETATM    9  C2  UNL     1      -3.462  -3.042  -2.960  1.00  0.00     0.172 C 
HETATM   10  C1  UNL     1      -3.529  -1.524  -2.931  1.00  0.00     0.069 C 
HETATM   11  O7  UNL     1      -4.434  -3.686  -3.287  1.00  0.00    -0.291 OA
HETATM   12  C6  UNL     1      -2.155  -0.858  -3.118  1.00  0.00     0.011 C 
HETATM   13  C7  UNL     1      -1.640  -1.126  -4.555  1.00  0.00     0.001 C 
HETATM   14  C8  UNL     1      -2.270   0.675  -2.969  1.00  0.00     0.001 C 
ENDBRANCH   4   5
ENDBRANCH   3   4
ENDBRANCH   1   3
BRANCH   1  15
HETATM   15  O1  UNL     1       0.887   0.412   1.957  1.00  0.00    -0.332 OA
BRANCH  15  16
HETATM   16  C13 UNL     1       0.845   1.334   3.022  1.00  0.00     0.270 C 
HETATM   17  O2  UNL     1       0.614   2.630   2.512  1.00  0.00    -0.326 OA
HETATM   18  C14 UNL     1       1.671   3.240   1.821  1.00  0.00     0.184 C 
HETATM   19  C15 UNL     1       2.988   3.188   2.585  1.00  0.00     0.215 C 
HETATM   20  C16 UNL     1       3.320   1.812   3.129  1.00  0.00     0.220 C 
HETATM   21  O5  UNL     1       2.921   4.081   3.678  1.00  0.00    -0.218 OA
HETATM   22  C17 UNL     1       2.110   1.252   3.850  1.00  0.00     0.241 C 
HETATM   23  O4  UNL     1       3.705   0.950   2.086  1.00  0.00    -0.218 OA
HETATM   24  O3  UNL     1       1.913   1.983   5.040  1.00  0.00    -0.215 OA
BRANCH  18  25
HETATM   25  C18 UNL     1       1.751   2.792   0.366  1.00  0.00     0.214 C 
HETATM   26  O6  UNL     1       2.495   3.734  -0.383  1.00  0.00    -0.218 OA
ENDBRANCH  18  25
ENDBRANCH  15  16
ENDBRANCH   1  15
TORSDOF 6
