REMARK  8 active torsions:
REMARK  status: ('A' for Active; 'I' for Inactive)
REMARK    1  A    between atoms: C4_4  and  O3_9 
REMARK    2  A    between atoms: C5_6  and  C6_7 
REMARK    3  A    between atoms: O3_9  and  C7_10 
REMARK    4  A    between atoms: C7_10  and  C8_11 
REMARK    5  A    between atoms: C9_12  and  C11_14 
REMARK    6  A    between atoms: C11_14  and  C12_15 
REMARK    7  A    between atoms: C12_15  and  C13_16 
REMARK    8  A    between atoms: C14_17  and  C16_19 
ROOT
HETATM    1  O3  UNL     1      -0.193  -0.918  -0.714  1.00  0.00    -0.324 OA
ENDROOT
BRANCH   1   2
HETATM    2  C4  UNL     1      -1.137  -0.908  -1.762  1.00  0.00     0.270 C 
HETATM    3  C3  UNL     1      -2.164  -1.973  -1.454  1.00  0.00     0.241 C 
HETATM    4  C2  UNL     1      -3.275  -1.912  -2.477  1.00  0.00     0.220 C 
HETATM    5  O6  UNL     1      -1.557  -3.238  -1.509  1.00  0.00    -0.215 OA
HETATM    6  C1  UNL     1      -3.847  -0.510  -2.481  1.00  0.00     0.215 C 
HETATM    7  O7  UNL     1      -4.282  -2.829  -2.134  1.00  0.00    -0.218 OA
HETATM    8  C5  UNL     1      -2.740   0.512  -2.714  1.00  0.00     0.184 C 
HETATM    9  O8  UNL     1      -4.814  -0.446  -3.500  1.00  0.00    -0.218 OA
HETATM   10  O1  UNL     1      -1.743   0.366  -1.735  1.00  0.00    -0.326 OA
BRANCH   8  11
HETATM   11  C6  UNL     1      -3.272   1.937  -2.646  1.00  0.00     0.214 C 
HETATM   12  O2  UNL     1      -2.260   2.846  -3.030  1.00  0.00    -0.218 OA
ENDBRANCH   8  11
ENDBRANCH   1   2
BRANCH   1  13
HETATM   13  C7  UNL     1       0.998  -0.211  -1.012  1.00  0.00     0.171 C 
BRANCH  13  14
HETATM   14  C8  UNL     1       1.910  -0.211   0.193  1.00  0.00    -0.003 C 
HETATM   15  C9  UNL     1       3.245  -0.046   0.184  1.00  0.00    -0.045 C 
HETATM   16  C10 UNL     1       4.044   0.170  -1.082  1.00  0.00     0.026 C 
BRANCH  15  17
HETATM   17  C11 UNL     1       4.099  -0.062   1.440  1.00  0.00     0.026 C 
BRANCH  17  18
HETATM   18  C12 UNL     1       3.378  -0.171   2.795  1.00  0.00     0.030 C 
BRANCH  18  19
HETATM   19  C13 UNL     1       2.496   1.021   3.087  1.00  0.00    -0.024 C 
HETATM   20  C14 UNL     1       1.489   1.054   3.981  1.00  0.00     0.038 C 
HETATM   21  C15 UNL     1       1.136  -0.127   4.860  1.00  0.00     0.037 C 
BRANCH  20  22
HETATM   22  C16 UNL     1       0.754   2.193   4.106  1.00  0.00     0.206 C 
HETATM   23  O4  UNL     1      -0.158   2.245   4.900  1.00  0.00    -0.644 OA
HETATM   24  O5  UNL     1       0.963   3.314   3.379  1.00  0.00    -0.644 OA
ENDBRANCH  20  22
ENDBRANCH  18  19
ENDBRANCH  17  18
ENDBRANCH  15  17
ENDBRANCH  13  14
ENDBRANCH   1  13
TORSDOF 8
