REMARK  17 active torsions:
REMARK  status: ('A' for Active; 'I' for Inactive)
REMARK    1  A    between atoms: C1_1  and  O12_51 
REMARK    2  A    between atoms: C5_5  and  C7_7 
REMARK    3  A    between atoms: C8_8  and  C9_9 
REMARK    4  A    between atoms: C9_9  and  O1_10 
REMARK    5  A    between atoms: O1_10  and  C10_11 
REMARK    6  A    between atoms: C10_11  and  C11_12 
REMARK    7  A    between atoms: C11_12  and  C12_13 
REMARK    8  A    between atoms: C12_13  and  C13_14 
REMARK    9  A    between atoms: C16_17  and  O9_47 
REMARK   10  A    between atoms: C19_20  and  C28_32 
REMARK   11  A    between atoms: C20_21  and  C21_23 
REMARK   12  A    between atoms: C23_25  and  O4_30 
REMARK   13  A    between atoms: C28_32  and  O5_33 
REMARK   14  A    between atoms: O5_33  and  C29_34 
REMARK   15  A    between atoms: C29_34  and  C30_35 
REMARK   16  A    between atoms: C31_36  and  C32_37 
REMARK   17  A    between atoms: C34_39  and  O7_44 
ROOT
HETATM    1  C13 UNL     1      -2.444  -3.623   2.301  1.00  0.00    -0.024 A 
HETATM    2  C14 UNL     1      -3.316  -4.469   2.878  1.00  0.00    -0.002 A 
HETATM    3  C15 UNL     1      -3.158  -5.799   2.818  1.00  0.00     0.026 A 
HETATM    4  C16 UNL     1      -2.119  -6.385   2.195  1.00  0.00     0.116 A 
HETATM    5  C17 UNL     1      -1.258  -5.526   1.611  1.00  0.00     0.112 A 
HETATM    6  C18 UNL     1      -1.401  -4.189   1.659  1.00  0.00     0.003 A 
HETATM    7  C19 UNL     1      -0.245  -3.522   0.940  1.00  0.00     0.086 A 
HETATM    8  C20 UNL     1       0.473  -4.793   0.444  1.00  0.00     0.150 A 
HETATM    9  O2  UNL     1      -0.256  -5.883   0.995  1.00  0.00    -0.327 OA
ENDROOT
BRANCH   1  10
HETATM   10  C12 UNL     1      -2.729  -2.134   2.382  1.00  0.00     0.029 C 
BRANCH  10  11
HETATM   11  C11 UNL     1      -1.644  -1.258   3.030  1.00  0.00     0.037 C 
BRANCH  11  12
HETATM   12  C10 UNL     1      -1.876   0.220   2.708  1.00  0.00     0.152 C 
BRANCH  12  13
HETATM   13  O1  UNL     1      -0.787   0.982   3.167  1.00  0.00    -0.298 OA
BRANCH  13  14
HETATM   14  C9  UNL     1      -0.587   2.211   2.590  1.00  0.00     0.296 C 
HETATM   15  O10 UNL     1      -1.421   2.622   1.816  1.00  0.00    -0.259 OA
BRANCH  14  16
HETATM   16  C8  UNL     1       0.584   2.875   2.800  1.00  0.00     0.068 C 
HETATM   17  C7  UNL     1       1.047   4.062   2.361  1.00  0.00     0.005 C 
BRANCH  17  18
HETATM   18  C5  UNL     1       0.535   5.098   1.660  1.00  0.00     0.002 A 
HETATM   19  C4  UNL     1       1.394   6.010   1.161  1.00  0.00     0.002 A 
HETATM   20  C3  UNL     1       0.963   7.031   0.409  1.00  0.00     0.029 A 
HETATM   21  C2  UNL     1      -0.342   7.210   0.159  1.00  0.00     0.153 A 
HETATM   22  C1  UNL     1      -1.242   6.343   0.663  1.00  0.00     0.119 A 
HETATM   23  O11 UNL     1      -0.741   8.210  -0.674  1.00  0.00    -0.188 OA
HETATM   24  C6  UNL     1      -0.768   5.338   1.427  1.00  0.00     0.026 A 
BRANCH  22  25
HETATM   25  O12 UNL     1      -2.567   6.558   0.367  1.00  0.00    -0.326 OA
HETATM   26  C40 UNL     1      -3.546   5.718   0.935  1.00  0.00     0.181 C 
ENDBRANCH  22  25
ENDBRANCH  17  18
ENDBRANCH  14  16
ENDBRANCH  13  14
ENDBRANCH  12  13
ENDBRANCH  11  12
ENDBRANCH  10  11
ENDBRANCH   1  10
BRANCH   7  27
HETATM   27  C28 UNL     1      -0.561  -2.473  -0.125  1.00  0.00     0.159 C 
BRANCH  27  28
HETATM   28  O5  UNL     1       0.638  -1.875  -0.555  1.00  0.00    -0.298 OA
BRANCH  28  29
HETATM   29  C29 UNL     1       0.600  -0.554  -0.938  1.00  0.00     0.296 C 
HETATM   30  O8  UNL     1      -0.473  -0.057  -1.184  1.00  0.00    -0.259 OA
BRANCH  29  31
HETATM   31  C30 UNL     1       1.756   0.164  -0.980  1.00  0.00     0.068 C 
HETATM   32  C31 UNL     1       2.043   1.454  -1.249  1.00  0.00     0.005 C 
BRANCH  32  33
HETATM   33  C32 UNL     1       1.366   2.598  -1.509  1.00  0.00     0.002 A 
HETATM   34  C33 UNL     1       2.079   3.691  -1.867  1.00  0.00     0.026 A 
HETATM   35  C34 UNL     1       1.554   4.895  -2.180  1.00  0.00     0.119 A 
HETATM   36  C35 UNL     1       0.214   5.028  -2.102  1.00  0.00     0.153 A 
HETATM   37  C36 UNL     1      -0.516   3.982  -1.690  1.00  0.00     0.029 A 
HETATM   38  O6  UNL     1      -0.389   6.224  -2.354  1.00  0.00    -0.188 OA
HETATM   39  C37 UNL     1       0.041   2.796  -1.405  1.00  0.00     0.002 A 
BRANCH  35  40
HETATM   40  O7  UNL     1       2.290   6.009  -2.519  1.00  0.00    -0.326 OA
HETATM   41  C38 UNL     1       3.679   6.014  -2.278  1.00  0.00     0.181 C 
ENDBRANCH  35  40
ENDBRANCH  32  33
ENDBRANCH  29  31
ENDBRANCH  28  29
ENDBRANCH  27  28
ENDBRANCH   7  27
BRANCH   4  42
HETATM   42  O9  UNL     1      -2.084  -7.760   2.167  1.00  0.00    -0.326 OA
HETATM   43  C39 UNL     1      -1.284  -8.433   1.225  1.00  0.00     0.181 C 
ENDBRANCH   4  42
BRANCH   8  44
HETATM   44  C21 UNL     1       0.581  -4.962  -1.058  1.00  0.00     0.008 A 
HETATM   45  C22 UNL     1       1.744  -4.758  -1.700  1.00  0.00     0.024 A 
HETATM   46  C23 UNL     1       1.889  -4.900  -3.033  1.00  0.00     0.119 A 
HETATM   47  C24 UNL     1       0.805  -5.286  -3.740  1.00  0.00     0.153 A 
HETATM   48  C25 UNL     1      -0.364  -5.494  -3.111  1.00  0.00     0.029 A 
HETATM   49  O3  UNL     1       0.880  -5.462  -5.088  1.00  0.00    -0.188 OA
HETATM   50  C26 UNL     1      -0.482  -5.339  -1.786  1.00  0.00     0.000 A 
BRANCH  46  51
HETATM   51  O4  UNL     1       3.072  -4.719  -3.712  1.00  0.00    -0.326 OA
HETATM   52  C27 UNL     1       4.266  -4.584  -2.977  1.00  0.00     0.181 C 
ENDBRANCH  46  51
ENDBRANCH   8  44
TORSDOF 17
