REMARK  0 active torsions:
REMARK  status: ('A' for Active; 'I' for Inactive)
ROOT
HETATM    1  C1  UNL     1      -3.820   0.304   0.043  1.00  0.00     0.131 A 
HETATM    2  C2  UNL     1      -3.465  -0.993   0.072  1.00  0.00     0.029 A 
HETATM    3  C3  UNL     1      -2.165  -1.358   0.034  1.00  0.00     0.134 A 
HETATM    4  C4  UNL     1      -1.195  -0.412  -0.037  1.00  0.00     0.087 A 
HETATM    5  C5  UNL     1      -1.540   0.888  -0.068  1.00  0.00     0.107 A 
HETATM    6  C6  UNL     1      -2.841   1.216  -0.028  1.00  0.00     0.052 A 
HETATM    7  O1  UNL     1      -0.627   1.889  -0.142  1.00  0.00    -0.306 OA
HETATM    8  C7  UNL     1       0.669   1.496  -0.195  1.00  0.00     0.140 A 
HETATM    9  C8  UNL     1       1.101   0.223  -0.158  1.00  0.00     0.065 A 
HETATM   10  C9  UNL     1       0.133  -0.745  -0.079  1.00  0.00     0.201 A 
HETATM   11  O2  UNL     1       0.419  -1.919  -0.066  1.00  0.00    -0.286 OA
HETATM   12  C10 UNL     1       2.443  -0.004  -0.170  1.00  0.00     0.027 A 
HETATM   13  C11 UNL     1       3.298   1.030  -0.395  1.00  0.00     0.097 A 
HETATM   14  O3  UNL     1       2.907   2.321  -0.611  1.00  0.00    -0.299 OA
HETATM   15  C12 UNL     1       1.620   2.653  -0.166  1.00  0.00     0.320 C 
HETATM   16  O4  UNL     1       1.776   3.088   1.182  1.00  0.00    -0.182 OA
HETATM   17  C13 UNL     1       4.630   0.818  -0.391  1.00  0.00     0.024 A 
HETATM   18  C14 UNL     1       5.175  -0.387  -0.200  1.00  0.00     0.002 A 
HETATM   19  C15 UNL     1       4.349  -1.417   0.002  1.00  0.00     0.000 A 
HETATM   20  C16 UNL     1       3.023  -1.212   0.015  1.00  0.00     0.002 A 
HETATM   21  O5  UNL     1      -1.885  -2.694   0.070  1.00  0.00    -0.190 OA
HETATM   22  C17 UNL     1      -4.541  -2.061   0.150  1.00  0.00     0.035 C 
HETATM   23  O6  UNL     1      -5.118   0.712   0.080  1.00  0.00    -0.190 OA
ENDROOT
TORSDOF 0
