REMARK  0 active torsions:
REMARK  status: ('A' for Active; 'I' for Inactive)
ROOT
HETATM    1  C1  UNL     1      -3.945   0.521   0.104  1.00  0.00     0.131 A 
HETATM    2  C2  UNL     1      -3.583  -0.774   0.138  1.00  0.00     0.029 A 
HETATM    3  C3  UNL     1      -2.280  -1.131   0.122  1.00  0.00     0.134 A 
HETATM    4  C4  UNL     1      -1.315  -0.179   0.061  1.00  0.00     0.087 A 
HETATM    5  C5  UNL     1      -1.667   1.118   0.021  1.00  0.00     0.107 A 
HETATM    6  C6  UNL     1      -2.971   1.437   0.046  1.00  0.00     0.052 A 
HETATM    7  O1  UNL     1      -0.759   2.123  -0.043  1.00  0.00    -0.301 OA
HETATM    8  C7  UNL     1       0.547   1.745  -0.105  1.00  0.00     0.166 A 
HETATM    9  C8  UNL     1       0.982   0.469  -0.057  1.00  0.00     0.069 A 
HETATM   10  C9  UNL     1       0.015  -0.501   0.035  1.00  0.00     0.202 A 
HETATM   11  O2  UNL     1       0.307  -1.673   0.078  1.00  0.00    -0.286 OA
HETATM   12  C10 UNL     1       2.321   0.217  -0.101  1.00  0.00     0.028 A 
HETATM   13  C11 UNL     1       3.180   1.260  -0.224  1.00  0.00     0.106 A 
HETATM   14  O3  UNL     1       2.774   2.558  -0.306  1.00  0.00    -0.271 OA
HETATM   15  C12 UNL     1       1.442   2.763  -0.220  1.00  0.00     0.323 A 
HETATM   16  O4  UNL     1       1.022   3.903  -0.254  1.00  0.00    -0.257 OA
HETATM   17  C13 UNL     1       4.509   1.050  -0.280  1.00  0.00     0.052 A 
HETATM   18  C14 UNL     1       5.075  -0.162  -0.214  1.00  0.00     0.133 A 
HETATM   19  C15 UNL     1       4.234  -1.193  -0.080  1.00  0.00     0.028 A 
HETATM   20  C16 UNL     1       2.908  -0.999  -0.029  1.00  0.00     0.004 A 
HETATM   21  O5  UNL     1       6.421  -0.341  -0.270  1.00  0.00    -0.190 OA
HETATM   22  O6  UNL     1      -1.992  -2.466   0.158  1.00  0.00    -0.190 OA
HETATM   23  C17 UNL     1      -4.653  -1.849   0.194  1.00  0.00     0.035 C 
HETATM   24  O7  UNL     1      -5.246   0.922   0.123  1.00  0.00    -0.190 OA
ENDROOT
TORSDOF 0
