REMARK  1 active torsions:
REMARK  status: ('A' for Active; 'I' for Inactive)
REMARK    1  A    between atoms: C1_1  and  O7_24 
ROOT
HETATM    1  C1  UNL     1       3.309  -1.129   0.740  1.00  0.00     0.094 A 
HETATM    2  C2  UNL     1       3.334   0.219   0.689  1.00  0.00     0.026 A 
HETATM    3  C3  UNL     1       2.254   0.918   0.277  1.00  0.00     0.134 A 
HETATM    4  C4  UNL     1       1.109   0.271  -0.038  1.00  0.00     0.085 A 
HETATM    5  C5  UNL     1       1.038  -1.074   0.052  1.00  0.00     0.101 A 
HETATM    6  C6  UNL     1       2.137  -1.725   0.469  1.00  0.00     0.048 A 
HETATM    7  O1  UNL     1      -0.093  -1.805  -0.187  1.00  0.00    -0.327 OA
HETATM    8  C7  UNL     1      -1.288  -1.115  -0.011  1.00  0.00     0.190 C 
HETATM    9  C8  UNL     1      -1.268   0.187  -0.793  1.00  0.00     0.229 C 
HETATM   10  C9  UNL     1       0.010   0.963  -0.459  1.00  0.00     0.211 C 
HETATM   11  O2  UNL     1       0.007   2.161  -0.630  1.00  0.00    -0.288 OA
HETATM   12  C10 UNL     1      -2.629   0.797  -0.482  1.00  0.00     0.039 A 
HETATM   13  C11 UNL     1      -3.679  -0.028  -0.681  1.00  0.00     0.118 A 
HETATM   14  O3  UNL     1      -3.462  -1.311  -1.109  1.00  0.00    -0.326 OA
HETATM   15  C12 UNL     1      -2.459  -2.009  -0.412  1.00  0.00     0.182 C 
HETATM   16  C13 UNL     1      -4.936   0.409  -0.457  1.00  0.00     0.153 A 
HETATM   17  C14 UNL     1      -5.127   1.667  -0.027  1.00  0.00     0.029 A 
HETATM   18  C15 UNL     1      -4.089   2.485   0.186  1.00  0.00     0.002 A 
HETATM   19  C16 UNL     1      -2.843   2.047  -0.040  1.00  0.00     0.001 A 
HETATM   20  O4  UNL     1      -6.006  -0.408  -0.657  1.00  0.00    -0.188 OA
HETATM   21  O5  UNL     1      -1.246  -0.121  -2.181  1.00  0.00    -0.211 OA
HETATM   22  O6  UNL     1       2.353   2.278   0.209  1.00  0.00    -0.190 OA
HETATM   23  C17 UNL     1       4.590   0.975   1.091  1.00  0.00     0.035 C 
ENDROOT
BRANCH   1  24
HETATM   24  O7  UNL     1       4.362  -1.879   1.202  1.00  0.00    -0.328 OA
HETATM   25  C18 UNL     1       5.264  -2.267   0.190  1.00  0.00     0.181 C 
ENDBRANCH   1  24
TORSDOF 1
