REMARK  0 active torsions:
REMARK  status: ('A' for Active; 'I' for Inactive)
ROOT
HETATM    1  C1  UNL     1      -0.272   1.026   0.653  1.00  0.00     0.015 C 
HETATM    2  C2  UNL     1      -0.216  -0.502   0.641  1.00  0.00     0.089 C 
HETATM    3  C3  UNL     1       0.878  -1.152   1.473  1.00  0.00     0.271 C 
HETATM    4  O1  UNL     1       1.876  -0.359   1.948  1.00  0.00    -0.302 OA
HETATM    5  C4  UNL     1       1.911   1.035   1.804  1.00  0.00     0.152 C 
HETATM    6  C5  UNL     1       1.158   1.554   0.591  1.00  0.00     0.033 C 
HETATM    7  O2  UNL     1       0.870  -2.349   1.672  1.00  0.00    -0.264 OA
HETATM    8  C6  UNL     1      -0.123  -0.872  -0.855  1.00  0.00     0.040 C 
HETATM    9  C7  UNL     1      -0.792   0.284  -1.615  1.00  0.00     0.153 C 
HETATM   10  C8  UNL     1      -1.102   1.375  -0.589  1.00  0.00     0.034 C 
HETATM   11  O3  UNL     1      -1.981  -0.119  -2.249  1.00  0.00    -0.223 OA
HETATM   12  C9  UNL     1      -0.666  -2.269  -1.187  1.00  0.00     0.003 C 
ENDROOT
TORSDOF 0
