REMARK  6 active torsions:
REMARK  status: ('A' for Active; 'I' for Inactive)
REMARK    1  A    between atoms: C2_3  and  N2_15 
REMARK    2  A    between atoms: C3_4  and  C5_6 
REMARK    3  A    between atoms: C5_6  and  O2_7 
REMARK    4  A    between atoms: O2_7  and  C6_8 
REMARK    5  A    between atoms: C6_8  and  C7_9 
REMARK    6  A    between atoms: C11_16  and  O5_21 
ROOT
HETATM    1  C1  UNL     1      -3.960   0.950   0.771  1.00  0.00     0.171 A 
HETATM    2  O1  UNL     1      -3.565  -0.412   0.883  1.00  0.00    -0.328 OA
HETATM    3  C2  UNL     1      -2.150  -0.485   0.715  1.00  0.00     0.227 A 
HETATM    4  C3  UNL     1      -1.654   0.929   0.638  1.00  0.00     0.033 A 
HETATM    5  C4  UNL     1      -2.700   1.756   0.671  1.00  0.00     0.004 A 
ENDROOT
BRANCH   4   6
HETATM    6  C5  UNL     1      -0.196   1.270   0.537  1.00  0.00     0.178 C 
BRANCH   6   7
HETATM    7  O2  UNL     1       0.042   2.649   0.676  1.00  0.00    -0.293 OA
BRANCH   7   8
HETATM    8  C6  UNL     1       1.320   3.146   0.688  1.00  0.00     0.314 C 
HETATM    9  O3  UNL     1       1.436   4.348   0.839  1.00  0.00    -0.257 OA
BRANCH   8  10
HETATM   10  C7  UNL     1       2.490   2.457   0.555  1.00  0.00     0.144 A 
HETATM   11  C8  UNL     1       3.709   3.028   0.593  1.00  0.00     0.026 A 
HETATM   12  C9  UNL     1       4.614   2.051   0.432  1.00  0.00     0.022 A 
HETATM   13  C10 UNL     1       3.912   0.920   0.299  1.00  0.00     0.099 A 
HETATM   14  N1  UNL     1       2.679   1.211   0.378  1.00  0.00    -0.239 NA
ENDBRANCH   8  10
ENDBRANCH   7   8
ENDBRANCH   6   7
ENDBRANCH   4   6
BRANCH   3  15
HETATM   15  N2  UNL     1      -1.744  -1.237  -0.464  1.00  0.00    -0.272 N 
HETATM   16  C11 UNL     1      -0.780  -2.318  -0.333  1.00  0.00     0.205 C 
HETATM   17  C12 UNL     1      -0.916  -3.005  -1.709  1.00  0.00     0.064 C 
HETATM   18  C13 UNL     1      -1.462  -1.932  -2.682  1.00  0.00     0.093 C 
HETATM   19  C14 UNL     1      -2.139  -0.966  -1.736  1.00  0.00     0.237 C 
HETATM   20  O4  UNL     1      -2.889  -0.075  -2.052  1.00  0.00    -0.272 OA
BRANCH  16  21
HETATM   21  O5  UNL     1       0.519  -1.801  -0.144  1.00  0.00    -0.333 OA
HETATM   22  C15 UNL     1       1.429  -2.752   0.361  1.00  0.00     0.176 C 
ENDBRANCH  16  21
ENDBRANCH   3  15
TORSDOF 6
