REMARK  0 active torsions:
REMARK  status: ('A' for Active; 'I' for Inactive)
ROOT
HETATM    1  C1  UNL     1      -2.350   0.337  -0.153  1.00  0.00     0.000 A 
HETATM    2  C2  UNL     1      -2.323  -1.005  -0.051  1.00  0.00     0.002 A 
HETATM    3  C3  UNL     1      -1.163  -1.669   0.094  1.00  0.00     0.019 A 
HETATM    4  C4  UNL     1      -0.033  -0.953   0.137  1.00  0.00     0.082 A 
HETATM    5  C5  UNL     1      -0.067   0.388   0.039  1.00  0.00     0.021 A 
HETATM    6  C6  UNL     1      -1.215   1.057  -0.109  1.00  0.00     0.002 A 
HETATM    7  C7  UNL     1       1.207   0.781   0.124  1.00  0.00     0.046 A 
HETATM    8  C8  UNL     1       1.933  -0.333   0.263  1.00  0.00     0.130 A 
HETATM    9  N1  UNL     1       1.172  -1.342   0.267  1.00  0.00    -0.238 NA
HETATM   10  S1  UNL     1       3.368  -0.066   0.372  1.00  0.00     0.033 SA
HETATM   11  N2  UNL     1       3.159   1.621   0.243  1.00  0.00    -0.206 NA
HETATM   12  C9  UNL     1       1.931   1.904   0.114  1.00  0.00     0.110 A 
ENDROOT
TORSDOF 0
