REMARK  4 active torsions:
REMARK  status: ('A' for Active; 'I' for Inactive)
REMARK    1  A    between atoms: C7_8  and  C10_12 
REMARK    2  A    between atoms: C12_14  and  C21_26 
REMARK    3  A    between atoms: C17_19  and  C18_21 
REMARK    4  A    between atoms: C21_26  and  C22_27 
ROOT
HETATM    1  C10 UNL     1       0.359   1.227   0.008  1.00  0.00     0.022 A 
HETATM    2  C11 UNL     1       0.366  -0.073  -0.373  1.00  0.00    -0.000 A 
HETATM    3  C12 UNL     1      -0.727  -0.857  -0.459  1.00  0.00     0.004 A 
HETATM    4  C13 UNL     1      -1.889  -0.287  -0.106  1.00  0.00     0.089 A 
HETATM    5  C14 UNL     1      -1.944   0.992   0.267  1.00  0.00     0.032 A 
HETATM    6  C15 UNL     1      -0.844   1.752   0.322  1.00  0.00     0.002 A 
HETATM    7  C16 UNL     1      -3.357   1.391   0.566  1.00  0.00     0.206 C 
HETATM    8  C17 UNL     1      -3.980  -0.015   0.535  1.00  0.00     0.183 C 
HETATM    9  O3  UNL     1      -2.984  -0.847  -0.075  1.00  0.00    -0.328 OA
HETATM   10  O5  UNL     1      -3.480   2.083   1.788  1.00  0.00    -0.216 OA
ENDROOT
BRANCH   1  11
HETATM   11  C7  UNL     1       1.536   1.907   0.053  1.00  0.00     0.103 A 
HETATM   12  O1  UNL     1       2.688   1.265  -0.311  1.00  0.00    -0.307 OA
HETATM   13  C5  UNL     1       3.856   1.967  -0.265  1.00  0.00     0.107 A 
HETATM   14  C4  UNL     1       3.936   3.251   0.140  1.00  0.00     0.087 A 
HETATM   15  C6  UNL     1       4.988   1.346  -0.642  1.00  0.00     0.052 A 
HETATM   16  C3  UNL     1       5.126   3.892   0.172  1.00  0.00     0.138 A 
HETATM   17  C9  UNL     1       2.788   3.881   0.513  1.00  0.00     0.202 A 
HETATM   18  C2  UNL     1       6.224   3.220  -0.215  1.00  0.00     0.055 A 
HETATM   19  O6  UNL     1       5.277   5.185   0.575  1.00  0.00    -0.190 OA
HETATM   20  C1  UNL     1       6.186   1.946  -0.630  1.00  0.00     0.135 A 
HETATM   21  O7  UNL     1       7.309   1.285  -1.021  1.00  0.00    -0.190 OA
HETATM   22  C8  UNL     1       1.619   3.190   0.456  1.00  0.00     0.067 A 
HETATM   23  O2  UNL     1       2.748   5.032   0.892  1.00  0.00    -0.286 OA
ENDBRANCH   1  11
BRANCH   3  24
HETATM   24  C21 UNL     1      -0.714  -2.324  -0.856  1.00  0.00     0.054 C 
BRANCH  24  25
HETATM   25  C22 UNL     1       0.439  -2.874  -1.661  1.00  0.00    -0.030 C 
HETATM   26  C23 UNL     1       0.453  -4.075  -2.269  1.00  0.00    -0.048 C 
HETATM   27  C24 UNL     1       1.673  -4.563  -3.017  1.00  0.00     0.026 C 
HETATM   28  C25 UNL     1      -0.704  -5.046  -2.264  1.00  0.00     0.026 C 
ENDBRANCH  24  25
ENDBRANCH   3  24
BRANCH   8  29
HETATM   29  C18 UNL     1      -4.432  -0.679   1.851  1.00  0.00     0.155 C 
HETATM   30  C19 UNL     1      -5.654   0.007   2.467  1.00  0.00     0.036 C 
HETATM   31  C20 UNL     1      -3.307  -0.838   2.880  1.00  0.00     0.036 C 
HETATM   32  O4  UNL     1      -4.848  -1.985   1.525  1.00  0.00    -0.223 OA
ENDBRANCH   8  29
TORSDOF 4
