REMARK  3 active torsions:
REMARK  status: ('A' for Active; 'I' for Inactive)
REMARK    1  A    between atoms: C4_4  and  O2_13 
REMARK    2  A    between atoms: C5_5  and  C7_8 
REMARK    3  A    between atoms: C7_8  and  C8_9 
ROOT
HETATM    1  C1  UNL     1      -2.236  -0.903   0.086  1.00  0.00     0.063 A 
HETATM    2  C2  UNL     1      -1.944  -2.183  -0.154  1.00  0.00     0.143 A 
HETATM    3  C3  UNL     1      -0.665  -2.629  -0.080  1.00  0.00     0.240 A 
HETATM    4  C4  UNL     1       0.309  -1.724   0.246  1.00  0.00     0.134 A 
HETATM    5  C5  UNL     1      -0.030  -0.431   0.488  1.00  0.00     0.047 A 
HETATM    6  C6  UNL     1      -1.312   0.022   0.412  1.00  0.00     0.196 A 
HETATM    7  O1  UNL     1      -1.619   1.174   0.621  1.00  0.00    -0.287 OA
HETATM    8  O3  UNL     1      -0.448  -3.798  -0.309  1.00  0.00    -0.282 OA
HETATM    9  O4  UNL     1      -2.970  -2.809  -0.429  1.00  0.00    -0.302 OA
HETATM   10  C13 UNL     1      -3.928  -2.036  -0.390  1.00  0.00     0.119 A 
HETATM   11  C14 UNL     1      -3.561  -0.787  -0.067  1.00  0.00     0.008 A 
HETATM   12  C15 UNL     1      -4.437   0.418   0.078  1.00  0.00     0.033 C 
ENDROOT
BRANCH   5  13
HETATM   13  C7  UNL     1       1.028   0.606   0.843  1.00  0.00     0.057 C 
BRANCH  13  14
HETATM   14  C8  UNL     1       1.343   1.488  -0.340  1.00  0.00    -0.030 C 
HETATM   15  C9  UNL     1       2.277   2.456  -0.364  1.00  0.00    -0.048 C 
HETATM   16  C10 UNL     1       2.498   3.305  -1.594  1.00  0.00     0.026 C 
HETATM   17  C11 UNL     1       3.170   2.794   0.805  1.00  0.00     0.026 C 
ENDBRANCH  13  14
ENDBRANCH   5  13
BRANCH   4  18
HETATM   18  O2  UNL     1       1.643  -2.061   0.350  1.00  0.00    -0.325 OA
HETATM   19  C12 UNL     1       2.095  -3.382   0.183  1.00  0.00     0.181 C 
ENDBRANCH   4  18
TORSDOF 3
