REMARK  6 active torsions:
REMARK  status: ('A' for Active; 'I' for Inactive)
REMARK    1  A    between atoms: C5_5  and  C9_9 
REMARK    2  A    between atoms: C10_10  and  C11_11 
REMARK    3  A    between atoms: C11_11  and  C12_12 
REMARK    4  A    between atoms: C12_12  and  O1_13 
REMARK    5  A    between atoms: O1_13  and  C13_14 
REMARK    6  A    between atoms: C14_16  and  C18_23 
ROOT
HETATM    1  C11 UNL     1       1.470   1.257   1.591  1.00  0.00     0.203 C 
HETATM    2  O7  UNL     1       2.293   1.936   2.520  1.00  0.00    -0.216 OA
ENDROOT
BRANCH   1   3
HETATM    3  C10 UNL     1       2.250   0.752   0.402  1.00  0.00     0.007 C 
HETATM    4  C9  UNL     1       1.620   0.473  -0.749  1.00  0.00     0.001 C 
BRANCH   4   5
HETATM    5  C5  UNL     1       2.249  -0.139  -1.988  1.00  0.00     0.145 C 
HETATM    6  C4  UNL     1       2.154  -1.668  -1.801  1.00  0.00     0.035 C 
HETATM    7  C3  UNL     1       0.704  -2.165  -1.954  1.00  0.00     0.036 C 
HETATM    8  C19 UNL     1       3.159  -2.531  -2.587  1.00  0.00     0.003 C 
HETATM    9  C2  UNL     1      -0.004  -1.665  -3.210  1.00  0.00     0.152 C 
HETATM   10  C1  UNL     1       0.126  -0.155  -3.404  1.00  0.00     0.036 C 
HETATM   11  O9  UNL     1       0.462  -2.351  -4.346  1.00  0.00    -0.224 OA
HETATM   12  C6  UNL     1       1.559   0.416  -3.264  1.00  0.00     0.032 C 
HETATM   13  C7  UNL     1       1.458   1.964  -3.189  1.00  0.00     0.003 C 
HETATM   14  C8  UNL     1       2.355   0.146  -4.565  1.00  0.00     0.003 C 
HETATM   15  O8  UNL     1       3.610   0.241  -1.993  1.00  0.00    -0.222 OA
ENDBRANCH   4   5
ENDBRANCH   1   3
BRANCH   1  16
HETATM   16  C12 UNL     1       0.768   0.100   2.288  1.00  0.00     0.182 C 
BRANCH  16  17
HETATM   17  O1  UNL     1      -0.309   0.629   3.018  1.00  0.00    -0.326 OA
BRANCH  17  18
HETATM   18  C13 UNL     1      -1.179  -0.341   3.552  1.00  0.00     0.270 C 
HETATM   19  O2  UNL     1      -1.891  -0.984   2.515  1.00  0.00    -0.326 OA
HETATM   20  C14 UNL     1      -2.874  -0.232   1.856  1.00  0.00     0.184 C 
HETATM   21  C15 UNL     1      -3.852   0.412   2.829  1.00  0.00     0.215 C 
HETATM   22  C16 UNL     1      -3.173   1.155   3.964  1.00  0.00     0.220 C 
HETATM   23  O5  UNL     1      -4.662  -0.598   3.393  1.00  0.00    -0.218 OA
HETATM   24  C17 UNL     1      -2.102   0.275   4.582  1.00  0.00     0.241 C 
HETATM   25  O4  UNL     1      -2.605   2.358   3.503  1.00  0.00    -0.218 OA
HETATM   26  O3  UNL     1      -2.733  -0.765   5.294  1.00  0.00    -0.215 OA
BRANCH  20  27
HETATM   27  C18 UNL     1      -2.294   0.698   0.796  1.00  0.00     0.214 C 
HETATM   28  O6  UNL     1      -3.309   1.113  -0.096  1.00  0.00    -0.218 OA
ENDBRANCH  20  27
ENDBRANCH  17  18
ENDBRANCH  16  17
ENDBRANCH   1  16
TORSDOF 6
