REMARK  6 active torsions:
REMARK  status: ('A' for Active; 'I' for Inactive)
REMARK    1  A    between atoms: C5_5  and  C9_9 
REMARK    2  A    between atoms: C10_10  and  C11_11 
REMARK    3  A    between atoms: C11_11  and  C12_12 
REMARK    4  A    between atoms: C11_11  and  O2_14 
REMARK    5  A    between atoms: O2_14  and  C13_15 
REMARK    6  A    between atoms: C14_17  and  C18_24 
ROOT
HETATM    1  C11 UNL     1      -0.807  -0.152   1.384  1.00  0.00     0.173 C 
ENDROOT
BRANCH   1   2
HETATM    2  C10 UNL     1      -0.129  -0.546   0.087  1.00  0.00     0.004 C 
HETATM    3  C9  UNL     1      -0.766  -0.589  -1.094  1.00  0.00     0.001 C 
BRANCH   3   4
HETATM    4  C5  UNL     1      -0.124  -1.067  -2.389  1.00  0.00     0.145 C 
HETATM    5  C4  UNL     1      -0.164  -2.611  -2.345  1.00  0.00     0.039 C 
HETATM    6  C3  UNL     1      -1.599  -3.133  -2.534  1.00  0.00     0.067 C 
HETATM    7  C19 UNL     1       0.805  -3.359  -3.281  1.00  0.00     0.003 C 
HETATM    8  C2  UNL     1      -2.249  -2.517  -3.759  1.00  0.00     0.151 C 
HETATM    9  C1  UNL     1      -2.232  -1.001  -3.820  1.00  0.00     0.067 C 
HETATM   10  O9  UNL     1      -2.798  -3.191  -4.601  1.00  0.00    -0.296 OA
HETATM   11  C6  UNL     1      -0.812  -0.422  -3.625  1.00  0.00     0.036 C 
HETATM   12  C7  UNL     1      -0.910   1.115  -3.449  1.00  0.00     0.003 C 
HETATM   13  C8  UNL     1      -0.036  -0.639  -4.948  1.00  0.00     0.003 C 
HETATM   14  O8  UNL     1       1.226  -0.646  -2.353  1.00  0.00    -0.222 OA
ENDBRANCH   3   4
ENDBRANCH   1   2
BRANCH   1  15
HETATM   15  C12 UNL     1      -1.615  -1.359   1.855  1.00  0.00     0.216 C 
HETATM   16  O1  UNL     1      -2.499  -1.008   2.898  1.00  0.00    -0.218 OA
ENDBRANCH   1  15
BRANCH   1  17
HETATM   17  O2  UNL     1       0.195   0.203   2.313  1.00  0.00    -0.324 OA
BRANCH  17  18
HETATM   18  C13 UNL     1      -0.203   1.079   3.341  1.00  0.00     0.270 C 
HETATM   19  O3  UNL     1      -0.317   2.390   2.834  1.00  0.00    -0.326 OA
HETATM   20  C14 UNL     1       0.876   3.067   2.548  1.00  0.00     0.184 C 
HETATM   21  C15 UNL     1       1.853   3.040   3.715  1.00  0.00     0.215 C 
HETATM   22  C16 UNL     1       2.078   1.650   4.278  1.00  0.00     0.220 C 
HETATM   23  O6  UNL     1       1.350   3.854   4.755  1.00  0.00    -0.218 OA
HETATM   24  C17 UNL     1       0.740   0.980   4.522  1.00  0.00     0.241 C 
HETATM   25  O5  UNL     1       2.853   0.877   3.393  1.00  0.00    -0.218 OA
HETATM   26  O4  UNL     1       0.124   1.593   5.632  1.00  0.00    -0.215 OA
BRANCH  20  27
HETATM   27  C18 UNL     1       1.462   2.672   1.198  1.00  0.00     0.214 C 
HETATM   28  O7  UNL     1       2.362   3.671   0.758  1.00  0.00    -0.218 OA
ENDBRANCH  20  27
ENDBRANCH  17  18
ENDBRANCH   1  17
TORSDOF 6
