REMARK  6 active torsions:
REMARK  status: ('A' for Active; 'I' for Inactive)
REMARK    1  A    between atoms: C5_5  and  C7_7 
REMARK    2  A    between atoms: C7_7  and  O1_8 
REMARK    3  A    between atoms: O1_8  and  C8_9 
REMARK    4  A    between atoms: C8_9  and  C9_10 
REMARK    5  A    between atoms: C13_14  and  O3_16 
REMARK    6  A    between atoms: O3_16  and  C14_17 
ROOT
HETATM    1  C9  UNL     1      -1.106  -0.903  -2.426  1.00  0.00     0.181 C 
HETATM    2  C10 UNL     1      -1.674  -2.318  -2.377  1.00  0.00     0.215 C 
HETATM    3  C11 UNL     1      -1.299  -3.098  -1.132  1.00  0.00     0.220 C 
HETATM    4  C12 UNL     1       0.182  -2.940  -0.856  1.00  0.00     0.241 C 
HETATM    5  C13 UNL     1       0.594  -1.487  -0.871  1.00  0.00     0.274 C 
HETATM    6  O2  UNL     1       0.253  -0.856  -2.087  1.00  0.00    -0.326 OA
HETATM    7  O5  UNL     1       0.931  -3.607  -1.844  1.00  0.00    -0.215 OA
HETATM    8  O6  UNL     1      -2.037  -2.622  -0.032  1.00  0.00    -0.218 OA
HETATM    9  O7  UNL     1      -1.200  -3.035  -3.500  1.00  0.00    -0.218 OA
ENDROOT
BRANCH   1  10
HETATM   10  C8  UNL     1      -1.939   0.204  -1.773  1.00  0.00     0.184 C 
BRANCH  10  11
HETATM   11  O1  UNL     1      -1.767   0.268  -0.384  1.00  0.00    -0.296 OA
BRANCH  11  12
HETATM   12  C7  UNL     1      -2.559   1.129   0.329  1.00  0.00     0.296 C 
HETATM   13  O8  UNL     1      -3.506   1.651  -0.223  1.00  0.00    -0.259 OA
BRANCH  12  14
HETATM   14  C5  UNL     1      -2.270   1.485   1.615  1.00  0.00     0.063 A 
HETATM   15  C4  UNL     1      -1.195   0.975   2.243  1.00  0.00     0.007 A 
HETATM   16  C3  UNL     1      -0.901   1.332   3.503  1.00  0.00     0.028 A 
HETATM   17  C2  UNL     1      -1.667   2.201   4.183  1.00  0.00     0.131 A 
HETATM   18  C1  UNL     1      -2.743   2.701   3.554  1.00  0.00     0.028 A 
HETATM   19  O9  UNL     1      -1.357   2.559   5.459  1.00  0.00    -0.190 OA
HETATM   20  C6  UNL     1      -3.045   2.353   2.293  1.00  0.00     0.007 A 
ENDBRANCH  12  14
ENDBRANCH  11  12
ENDBRANCH  10  11
ENDBRANCH   1  10
BRANCH   5  21
HETATM   21  O3  UNL     1       2.003  -1.460  -0.825  1.00  0.00    -0.304 OA
BRANCH  21  22
HETATM   22  C14 UNL     1       2.669  -0.263  -0.732  1.00  0.00     0.097 A 
HETATM   23  C15 UNL     1       3.999  -0.253  -0.944  1.00  0.00     0.026 A 
HETATM   24  C16 UNL     1       4.731   0.870  -0.886  1.00  0.00     0.029 A 
HETATM   25  C17 UNL     1       4.161   2.055  -0.618  1.00  0.00     0.131 A 
HETATM   26  C18 UNL     1       2.833   2.063  -0.422  1.00  0.00     0.029 A 
HETATM   27  O4  UNL     1       4.890   3.201  -0.558  1.00  0.00    -0.190 OA
HETATM   28  C19 UNL     1       2.107   0.937  -0.482  1.00  0.00     0.026 A 
ENDBRANCH  21  22
ENDBRANCH   5  21
TORSDOF 6
