REMARK  2 active torsions:
REMARK  status: ('A' for Active; 'I' for Inactive)
REMARK    1  A    between atoms: C8_8  and  C9_10 
REMARK    2  A    between atoms: C12_15  and  C15_18 
ROOT
HETATM    1  C1  UNL     1      -0.723   1.613  -1.661  1.00  0.00     0.092 A 
HETATM    2  C2  UNL     1       0.409   2.269  -1.936  1.00  0.00     0.024 A 
HETATM    3  C3  UNL     1       1.553   1.569  -1.940  1.00  0.00    -0.000 A 
HETATM    4  C4  UNL     1       1.574   0.247  -1.680  1.00  0.00     0.000 A 
HETATM    5  C5  UNL     1       0.429  -0.428  -1.431  1.00  0.00     0.088 A 
HETATM    6  C6  UNL     1      -0.702   0.299  -1.422  1.00  0.00     0.025 A 
HETATM    7  C7  UNL     1      -2.087  -0.206  -1.148  1.00  0.00     0.063 A 
HETATM    8  C8  UNL     1      -2.819   1.154  -1.187  1.00  0.00     0.154 A 
HETATM    9  O1  UNL     1      -1.842   2.116  -1.595  1.00  0.00    -0.331 OA
HETATM   10  O3  UNL     1       0.375  -1.763  -1.125  1.00  0.00    -0.330 OA
HETATM   11  C12 UNL     1       1.581  -2.366  -0.722  1.00  0.00     0.144 C 
HETATM   12  C13 UNL     1       2.673  -1.993  -1.724  1.00  0.00     0.040 C 
HETATM   13  C14 UNL     1       2.899  -0.479  -1.676  1.00  0.00     0.031 C 
ENDROOT
BRANCH  11  14
HETATM   14  C15 UNL     1       1.982  -2.077   0.720  1.00  0.00     0.005 A 
HETATM   15  C16 UNL     1       2.984  -2.779   1.280  1.00  0.00     0.000 A 
HETATM   16  C17 UNL     1       3.381  -2.553   2.541  1.00  0.00     0.027 A 
HETATM   17  C18 UNL     1       2.792  -1.615   3.300  1.00  0.00     0.131 A 
HETATM   18  C19 UNL     1       1.784  -0.920   2.748  1.00  0.00     0.027 A 
HETATM   19  O4  UNL     1       3.190  -1.376   4.579  1.00  0.00    -0.190 OA
HETATM   20  C20 UNL     1       1.384  -1.147   1.488  1.00  0.00     0.000 A 
ENDBRANCH  11  14
BRANCH   8  21
HETATM   21  C9  UNL     1      -3.455   1.568   0.149  1.00  0.00     0.152 C 
HETATM   22  C10 UNL     1      -4.655   0.677   0.483  1.00  0.00     0.036 C 
HETATM   23  C11 UNL     1      -3.888   3.036   0.134  1.00  0.00     0.036 C 
HETATM   24  O2  UNL     1      -2.498   1.422   1.166  1.00  0.00    -0.224 OA
ENDBRANCH   8  21
TORSDOF 2
