REMARK  6 active torsions:
REMARK  status: ('A' for Active; 'I' for Inactive)
REMARK    1  A    between atoms: C1_1  and  C22_29 
REMARK    2  A    between atoms: C3_3  and  C17_23 
REMARK    3  A    between atoms: C8_9  and  O5_20 
REMARK    4  A    between atoms: C9_10  and  C10_12 
REMARK    5  A    between atoms: C17_23  and  C18_24 
REMARK    6  A    between atoms: C22_29  and  C23_30 
ROOT
HETATM    1  C1  UNL     1      -1.424   2.639  -0.144  1.00  0.00     0.033 A 
HETATM    2  C2  UNL     1      -1.940   1.393  -0.164  1.00  0.00     0.128 A 
HETATM    3  C3  UNL     1      -1.132   0.337   0.044  1.00  0.00     0.030 A 
HETATM    4  C4  UNL     1       0.192   0.513   0.236  1.00  0.00     0.103 A 
HETATM    5  C5  UNL     1       0.697   1.756   0.246  1.00  0.00     0.089 A 
HETATM    6  C6  UNL     1      -0.104   2.831   0.071  1.00  0.00     0.134 A 
HETATM    7  O1  UNL     1       0.401   4.098   0.060  1.00  0.00    -0.190 OA
HETATM    8  C7  UNL     1       2.042   1.890   0.426  1.00  0.00     0.224 A 
HETATM    9  C8  UNL     1       2.863   0.797   0.514  1.00  0.00     0.156 A 
HETATM   10  C9  UNL     1       2.332  -0.452   0.519  1.00  0.00     0.125 A 
HETATM   11  O2  UNL     1       0.973  -0.583   0.421  1.00  0.00    -0.305 OA
HETATM   12  O6  UNL     1       2.560   2.986   0.470  1.00  0.00    -0.284 OA
HETATM   13  O7  UNL     1      -3.265   1.206  -0.424  1.00  0.00    -0.191 OA
ENDROOT
BRANCH  10  14
HETATM   14  C10 UNL     1       3.031  -1.623   0.608  1.00  0.00     0.027 A 
HETATM   15  C11 UNL     1       2.337  -2.786   0.594  1.00  0.00     0.032 A 
HETATM   16  C12 UNL     1       2.881  -4.014   0.646  1.00  0.00     0.156 A 
HETATM   17  C13 UNL     1       4.214  -4.138   0.723  1.00  0.00     0.156 A 
HETATM   18  O4  UNL     1       2.114  -5.139   0.618  1.00  0.00    -0.188 OA
HETATM   19  C14 UNL     1       4.941  -3.014   0.749  1.00  0.00     0.030 A 
HETATM   20  O3  UNL     1       4.796  -5.364   0.772  1.00  0.00    -0.188 OA
HETATM   21  C15 UNL     1       4.366  -1.802   0.693  1.00  0.00     0.004 A 
ENDBRANCH  10  14
BRANCH   9  22
HETATM   22  O5  UNL     1       4.193   1.094   0.703  1.00  0.00    -0.323 OA
HETATM   23  C16 UNL     1       4.906   1.377  -0.484  1.00  0.00     0.182 C 
ENDBRANCH   9  22
BRANCH   3  24
HETATM   24  C17 UNL     1      -1.681  -1.083   0.077  1.00  0.00     0.056 C 
BRANCH  24  25
HETATM   25  C18 UNL     1      -1.216  -1.893  -1.105  1.00  0.00    -0.030 C 
HETATM   26  C19 UNL     1      -1.089  -3.232  -1.137  1.00  0.00    -0.048 C 
HETATM   27  C20 UNL     1      -0.563  -3.940  -2.364  1.00  0.00     0.026 C 
HETATM   28  C21 UNL     1      -1.435  -4.150   0.012  1.00  0.00     0.026 C 
ENDBRANCH  24  25
ENDBRANCH   3  24
BRANCH   1  29
HETATM   29  C22 UNL     1      -2.371   3.808  -0.397  1.00  0.00     0.056 C 
BRANCH  29  30
HETATM   30  C23 UNL     1      -3.597   3.788   0.484  1.00  0.00    -0.030 C 
HETATM   31  C24 UNL     1      -4.811   4.271   0.165  1.00  0.00    -0.048 C 
HETATM   32  C25 UNL     1      -5.973   4.165   1.125  1.00  0.00     0.026 C 
HETATM   33  C26 UNL     1      -5.143   4.952  -1.143  1.00  0.00     0.026 C 
ENDBRANCH  29  30
ENDBRANCH   1  29
TORSDOF 6
