REMARK  7 active torsions:
REMARK  status: ('A' for Active; 'I' for Inactive)
REMARK    1  A    between atoms: C3_3  and  C26_32 
REMARK    2  A    between atoms: C9_10  and  C10_12 
REMARK    3  A    between atoms: C11_13  and  C21_25 
REMARK    4  A    between atoms: C12_14  and  C16_20 
REMARK    5  A    between atoms: C16_20  and  C17_21 
REMARK    6  A    between atoms: C21_25  and  C22_26 
REMARK    7  A    between atoms: C26_32  and  C29_35 
ROOT
HETATM    1  C1  UNL     1      -1.923   5.747  -0.154  1.00  0.00     0.055 A 
HETATM    2  C2  UNL     1      -2.690   4.683   0.100  1.00  0.00     0.131 A 
HETATM    3  C3  UNL     1      -2.132   3.448   0.160  1.00  0.00     0.029 A 
HETATM    4  C4  UNL     1      -0.781   3.303  -0.012  1.00  0.00     0.103 A 
HETATM    5  C5  UNL     1      -0.060   4.419  -0.274  1.00  0.00     0.089 A 
HETATM    6  C6  UNL     1      -0.607   5.650  -0.351  1.00  0.00     0.138 A 
HETATM    7  O1  UNL     1       0.073   6.806  -0.603  1.00  0.00    -0.190 OA
HETATM    8  C7  UNL     1       1.280   4.317  -0.477  1.00  0.00     0.227 C 
HETATM    9  C8  UNL     1       1.917   3.125  -0.331  1.00  0.00     0.192 C 
HETATM   10  C9  UNL     1       1.246   2.008   0.048  1.00  0.00     0.128 C 
HETATM   11  O2  UNL     1      -0.141   2.078   0.025  1.00  0.00    -0.305 OA
HETATM   12  O5  UNL     1       3.229   3.182  -0.724  1.00  0.00    -0.185 OA
HETATM   13  O6  UNL     1       1.963   5.269  -0.792  1.00  0.00    -0.284 OA
HETATM   14  O7  UNL     1      -4.023   4.939   0.247  1.00  0.00    -0.190 OA
ENDROOT
BRANCH  10  15
HETATM   15  C10 UNL     1       1.970   0.851   0.222  1.00  0.00     0.023 C 
HETATM   16  C11 UNL     1       1.540  -0.441   0.130  1.00  0.00    -0.017 C 
HETATM   17  C12 UNL     1       2.405  -1.491   0.152  1.00  0.00     0.006 C 
HETATM   18  C13 UNL     1       3.698  -1.310   0.483  1.00  0.00     0.152 C 
HETATM   19  C14 UNL     1       4.120  -0.071   0.760  1.00  0.00     0.156 C 
HETATM   20  O4  UNL     1       4.593  -2.329   0.609  1.00  0.00    -0.188 OA
HETATM   21  C15 UNL     1       3.257   0.941   0.624  1.00  0.00     0.031 C 
HETATM   22  O3  UNL     1       5.401   0.150   1.160  1.00  0.00    -0.188 OA
BRANCH  16  23
HETATM   23  C21 UNL     1       0.069  -0.716  -0.070  1.00  0.00     0.051 C 
BRANCH  23  24
HETATM   24  C22 UNL     1      -0.590  -1.965   0.465  1.00  0.00    -0.030 C 
HETATM   25  C23 UNL     1      -1.501  -2.735  -0.158  1.00  0.00    -0.048 C 
HETATM   26  C24 UNL     1      -2.088  -3.948   0.527  1.00  0.00     0.026 C 
HETATM   27  C25 UNL     1      -2.028  -2.502  -1.554  1.00  0.00     0.026 C 
ENDBRANCH  23  24
ENDBRANCH  16  23
BRANCH  17  28
HETATM   28  C16 UNL     1       1.952  -2.914  -0.154  1.00  0.00     0.053 C 
BRANCH  28  29
HETATM   29  C17 UNL     1       2.917  -3.825  -0.873  1.00  0.00    -0.030 C 
HETATM   30  C18 UNL     1       2.975  -5.164  -0.747  1.00  0.00    -0.048 C 
HETATM   31  C19 UNL     1       3.985  -5.982  -1.518  1.00  0.00     0.026 C 
HETATM   32  C20 UNL     1       2.066  -5.981   0.141  1.00  0.00     0.026 C 
ENDBRANCH  28  29
ENDBRANCH  17  28
ENDBRANCH  10  15
BRANCH   3  33
HETATM   33  C26 UNL     1      -3.153   2.313   0.407  1.00  0.00     0.041 C 
HETATM   34  C27 UNL     1      -2.645   0.901   0.719  1.00  0.00     0.009 C 
HETATM   35  C28 UNL     1      -4.001   2.148  -0.883  1.00  0.00     0.009 C 
BRANCH  33  36
HETATM   36  C29 UNL     1      -3.938   2.643   1.671  1.00  0.00    -0.023 C 
HETATM   37  C30 UNL     1      -5.264   2.515   1.824  1.00  0.00    -0.005 C 
ENDBRANCH  33  36
ENDBRANCH   3  33
TORSDOF 7
