REMARK  14 active torsions:
REMARK  status: ('A' for Active; 'I' for Inactive)
REMARK    1  A    between atoms: C1_1  and  O6_24 
REMARK    2  A    between atoms: C4_4  and  C5_6 
REMARK    3  A    between atoms: C5_6  and  C6_7 
REMARK    4  A    between atoms: C6_7  and  C7_8 
REMARK    5  A    between atoms: C7_8  and  C8_9 
REMARK    6  A    between atoms: C8_9  and  C9_10 
REMARK    7  A    between atoms: C9_10  and  C10_11 
REMARK    8  A    between atoms: C10_11  and  C11_12 
REMARK    9  A    between atoms: C11_12  and  C12_13 
REMARK   10  A    between atoms: C12_13  and  C13_14 
REMARK   11  A    between atoms: C13_14  and  C14_15 
REMARK   12  A    between atoms: C14_15  and  C15_16 
REMARK   13  A    between atoms: C15_16  and  C16_17 
REMARK   14  A    between atoms: C16_17  and  C17_18 
ROOT
HETATM    1  C7  UNL     1       0.185  -1.989  -0.978  1.00  0.00     0.003 C 
ENDROOT
BRANCH   1   2
HETATM    2  C6  UNL     1      -1.272  -2.304  -1.354  1.00  0.00     0.035 C 
BRANCH   2   3
HETATM    3  C5  UNL     1      -1.487  -3.732  -1.861  1.00  0.00     0.189 C 
HETATM    4  O3  UNL     1      -0.827  -4.661  -1.033  1.00  0.00    -0.221 OA
BRANCH   3   5
HETATM    5  C4  UNL     1      -2.964  -4.114  -1.878  1.00  0.00     0.322 C 
HETATM    6  C3  UNL     1      -3.230  -5.540  -2.339  1.00  0.00     0.224 C 
HETATM    7  C2  UNL     1      -4.704  -5.519  -2.715  1.00  0.00     0.247 C 
HETATM    8  O4  UNL     1      -2.960  -6.450  -1.304  1.00  0.00    -0.218 OA
HETATM    9  C1  UNL     1      -5.045  -4.043  -2.927  1.00  0.00     0.408 C 
HETATM   10  O5  UNL     1      -4.912  -6.256  -3.894  1.00  0.00    -0.216 OA
HETATM   11  N1  UNL     1      -3.761  -3.343  -2.826  1.00  0.00     0.373 N 
BRANCH   9  12
HETATM   12  O6  UNL     1      -5.958  -3.637  -1.930  1.00  0.00    -0.322 OA
HETATM   13  C18 UNL     1      -6.337  -2.283  -2.045  1.00  0.00     0.177 C 
ENDBRANCH   9  12
ENDBRANCH   3   5
ENDBRANCH   2   3
ENDBRANCH   1   2
BRANCH   1  14
HETATM   14  C8  UNL     1       0.380  -0.505  -0.624  1.00  0.00     0.000 C 
BRANCH  14  15
HETATM   15  C9  UNL     1       1.699  -0.263   0.127  1.00  0.00     0.000 C 
BRANCH  15  16
HETATM   16  C10 UNL     1       1.925   1.224   0.447  1.00  0.00     0.000 C 
BRANCH  16  17
HETATM   17  C11 UNL     1       3.103   1.425   1.415  1.00  0.00     0.000 C 
BRANCH  17  18
HETATM   18  C12 UNL     1       3.364   2.911   1.705  1.00  0.00     0.003 C 
BRANCH  18  19
HETATM   19  C13 UNL     1       4.434   3.104   2.790  1.00  0.00     0.033 C 
BRANCH  19  20
HETATM   20  C14 UNL     1       4.871   4.556   3.005  1.00  0.00     0.152 C 
HETATM   21  O2  UNL     1       5.860   4.557   4.012  1.00  0.00    -0.224 OA
BRANCH  20  22
HETATM   22  C15 UNL     1       3.750   5.512   3.427  1.00  0.00     0.036 C 
BRANCH  22  23
HETATM   23  C16 UNL     1       3.131   6.291   2.254  1.00  0.00     0.038 C 
BRANCH  23  24
HETATM   24  C17 UNL     1       1.984   7.187   2.713  1.00  0.00     0.182 C 
HETATM   25  O1  UNL     1       1.465   7.894   1.604  1.00  0.00    -0.221 OA
ENDBRANCH  23  24
ENDBRANCH  22  23
ENDBRANCH  20  22
ENDBRANCH  19  20
ENDBRANCH  18  19
ENDBRANCH  17  18
ENDBRANCH  16  17
ENDBRANCH  15  16
ENDBRANCH  14  15
ENDBRANCH   1  14
TORSDOF 14
