REMARK  10 active torsions:
REMARK  status: ('A' for Active; 'I' for Inactive)
REMARK    1  A    between atoms: C1_1  and  C20_27 
REMARK    2  A    between atoms: C4_4  and  C7_9 
REMARK       I    between atoms: N1_5  and  C5_6 
REMARK    3  A    between atoms: C7_9  and  C8_10 
REMARK    4  A    between atoms: C8_10  and  C9_11 
REMARK    5  A    between atoms: C9_11  and  C10_12 
REMARK    6  A    between atoms: C10_12  and  C11_13 
REMARK    7  A    between atoms: C11_13  and  C12_14 
REMARK    8  A    between atoms: C12_14  and  C13_15 
REMARK    9  A    between atoms: C13_15  and  C14_16 
REMARK   10  A    between atoms: C14_16  and  C15_17 
ROOT
HETATM    1  C8  UNL     1      -1.641  -0.785   1.331  1.00  0.00     0.002 C 
ENDROOT
BRANCH   1   2
HETATM    2  C7  UNL     1      -2.717  -1.308   0.366  1.00  0.00     0.025 C 
BRANCH   2   3
HETATM    3  C4  UNL     1      -4.122  -1.347   1.016  1.00  0.00     0.117 C 
HETATM    4  C3  UNL     1      -4.678  -2.778   1.078  1.00  0.00     0.204 C 
HETATM    5  C2  UNL     1      -5.683  -2.820  -0.059  1.00  0.00     0.207 C 
HETATM    6  O4  UNL     1      -5.341  -2.996   2.300  1.00  0.00    -0.219 OA
HETATM    7  C1  UNL     1      -6.257  -1.396  -0.101  1.00  0.00     0.150 C 
HETATM    8  O5  UNL     1      -5.001  -3.083  -1.264  1.00  0.00    -0.218 OA
HETATM    9  N1  UNL     1      -5.109  -0.566   0.265  1.00  0.00    -0.316 N 
HETATM   10  C5  UNL     1      -4.950   0.777   0.004  1.00  0.00     0.234 C 
HETATM   11  C6  UNL     1      -5.933   1.416  -0.963  1.00  0.00     0.098 C 
HETATM   12  O1  UNL     1      -4.039   1.421   0.470  1.00  0.00    -0.272 OA
BRANCH   7  13
HETATM   13  C20 UNL     1      -7.423  -1.260   0.889  1.00  0.00     0.207 C 
HETATM   14  O6  UNL     1      -8.278  -0.199   0.523  1.00  0.00    -0.218 OA
ENDBRANCH   7  13
ENDBRANCH   2   3
ENDBRANCH   1   2
BRANCH   1  15
HETATM   15  C9  UNL     1      -0.253  -0.703   0.675  1.00  0.00     0.000 C 
BRANCH  15  16
HETATM   16  C10 UNL     1       0.785  -0.084   1.625  1.00  0.00     0.000 C 
BRANCH  16  17
HETATM   17  C11 UNL     1       2.171   0.043   0.971  1.00  0.00     0.003 C 
BRANCH  17  18
HETATM   18  C12 UNL     1       3.167   0.777   1.885  1.00  0.00     0.036 C 
BRANCH  18  19
HETATM   19  C13 UNL     1       4.599   0.834   1.344  1.00  0.00     0.184 C 
HETATM   20  O3  UNL     1       5.408   1.468   2.310  1.00  0.00    -0.221 OA
BRANCH  19  21
HETATM   21  C14 UNL     1       4.762   1.615   0.048  1.00  0.00     0.216 C 
HETATM   22  O2  UNL     1       4.494   2.968   0.333  1.00  0.00    -0.218 OA
BRANCH  21  23
HETATM   23  C15 UNL     1       6.157   1.541  -0.585  1.00  0.00     0.289 C 
HETATM   24  N2  UNL     1       6.327   2.610  -1.576  1.00  0.00     0.340 N 
HETATM   25  C16 UNL     1       5.548   2.433  -2.801  1.00  0.00     0.290 C 
HETATM   26  C17 UNL     1       5.878   1.097  -3.481  1.00  0.00     0.038 C 
HETATM   27  C18 UNL     1       5.695  -0.074  -2.506  1.00  0.00     0.004 C 
HETATM   28  C19 UNL     1       6.497   0.182  -1.223  1.00  0.00     0.039 C 
ENDBRANCH  21  23
ENDBRANCH  19  21
ENDBRANCH  18  19
ENDBRANCH  17  18
ENDBRANCH  16  17
ENDBRANCH  15  16
ENDBRANCH   1  15
TORSDOF 10
