REMARK  3 active torsions:
REMARK  status: ('A' for Active; 'I' for Inactive)
REMARK    1  A    between atoms: C6_6  and  C7_7 
REMARK    2  A    between atoms: C7_7  and  C8_8 
REMARK    3  A    between atoms: C12_13  and  C15_18 
ROOT
HETATM    1  C1  UNL     1      -3.540   3.261  -0.121  1.00  0.00     0.131 A 
HETATM    2  C2  UNL     1      -3.002   4.486  -0.173  1.00  0.00     0.055 A 
HETATM    3  C3  UNL     1      -1.685   4.707  -0.130  1.00  0.00     0.138 A 
HETATM    4  C4  UNL     1      -0.881   3.629  -0.028  1.00  0.00     0.089 A 
HETATM    5  C5  UNL     1      -1.381   2.376   0.051  1.00  0.00     0.103 A 
HETATM    6  C6  UNL     1      -2.728   2.183  -0.002  1.00  0.00     0.029 A 
HETATM    7  O1  UNL     1      -0.527   1.318   0.206  1.00  0.00    -0.305 OA
HETATM    8  C12 UNL     1       0.824   1.493   0.028  1.00  0.00     0.128 C 
HETATM    9  C13 UNL     1       1.314   2.750  -0.005  1.00  0.00     0.192 C 
HETATM   10  C14 UNL     1       0.468   3.817  -0.009  1.00  0.00     0.227 C 
HETATM   11  O2  UNL     1       0.970   4.920  -0.033  1.00  0.00    -0.284 OA
HETATM   12  O3  UNL     1       2.638   3.076   0.040  1.00  0.00    -0.185 OA
HETATM   13  O6  UNL     1      -1.255   5.999  -0.205  1.00  0.00    -0.190 OA
HETATM   14  O7  UNL     1      -4.901   3.191  -0.174  1.00  0.00    -0.190 OA
ENDROOT
BRANCH   8  15
HETATM   15  C15 UNL     1       1.621   0.389  -0.024  1.00  0.00     0.027 A 
HETATM   16  C16 UNL     1       1.123  -0.817   0.316  1.00  0.00     0.004 A 
HETATM   17  C17 UNL     1       1.830  -1.961   0.298  1.00  0.00     0.024 A 
HETATM   18  C18 UNL     1       3.111  -1.968  -0.113  1.00  0.00     0.119 A 
HETATM   19  C23 UNL     1       1.254  -3.111   0.685  1.00  0.00    -0.000 C 
HETATM   20  C19 UNL     1       3.643  -0.785  -0.480  1.00  0.00     0.153 A 
HETATM   21  O5  UNL     1       3.900  -3.086  -0.181  1.00  0.00    -0.330 OA
HETATM   22  C20 UNL     1       2.903   0.335  -0.435  1.00  0.00     0.032 A 
HETATM   23  O4  UNL     1       4.927  -0.724  -0.932  1.00  0.00    -0.188 OA
HETATM   24  C21 UNL     1       3.411  -4.305   0.312  1.00  0.00     0.117 C 
HETATM   25  C22 UNL     1       1.956  -4.249   0.699  1.00  0.00     0.001 C 
HETATM   26  C24 UNL     1       4.239  -4.684   1.546  1.00  0.00     0.035 C 
HETATM   27  C25 UNL     1       3.592  -5.361  -0.785  1.00  0.00     0.035 C 
ENDBRANCH   8  15
BRANCH   6  28
HETATM   28  C7  UNL     1      -3.412   0.797   0.073  1.00  0.00     0.041 C 
HETATM   29  C10 UNL     1      -4.170   0.698   1.420  1.00  0.00     0.009 C 
HETATM   30  C11 UNL     1      -2.546  -0.477   0.001  1.00  0.00     0.009 C 
BRANCH  28  31
HETATM   31  C8  UNL     1      -4.350   0.644  -1.115  1.00  0.00    -0.023 C 
HETATM   32  C9  UNL     1      -3.993   0.892  -2.384  1.00  0.00    -0.005 C 
ENDBRANCH  28  31
ENDBRANCH   6  28
TORSDOF 3
