REMARK  1 active torsions:
REMARK  status: ('A' for Active; 'I' for Inactive)
REMARK    1  A    between atoms: C12_14  and  C15_19 
ROOT
HETATM    1  C1  UNL     1       3.762   2.781  -0.193  1.00  0.00     0.094 A 
HETATM    2  C2  UNL     1       3.482   4.087  -0.200  1.00  0.00     0.051 A 
HETATM    3  C3  UNL     1       2.207   4.519  -0.161  1.00  0.00     0.138 A 
HETATM    4  C4  UNL     1       1.213   3.594  -0.123  1.00  0.00     0.089 A 
HETATM    5  C5  UNL     1       1.484   2.272  -0.121  1.00  0.00     0.103 A 
HETATM    6  C6  UNL     1       2.773   1.888  -0.151  1.00  0.00     0.025 A 
HETATM    7  C7  UNL     1       3.342   0.486  -0.101  1.00  0.00     0.048 C 
HETATM    8  C8  UNL     1       4.828   0.874  -0.326  1.00  0.00     0.125 C 
HETATM    9  O1  UNL     1       4.890   2.296  -0.222  1.00  0.00    -0.333 OA
HETATM   10  C9  UNL     1       5.872   0.212   0.580  1.00  0.00     0.033 C 
HETATM   11  C10 UNL     1       2.834  -0.426  -1.228  1.00  0.00     0.007 C 
HETATM   12  C11 UNL     1       3.061  -0.139   1.276  1.00  0.00     0.007 C 
HETATM   13  O2  UNL     1       0.517   1.319  -0.068  1.00  0.00    -0.305 OA
HETATM   14  C12 UNL     1      -0.799   1.694  -0.061  1.00  0.00     0.128 A 
HETATM   15  C13 UNL     1      -1.090   3.013  -0.027  1.00  0.00     0.192 A 
HETATM   16  C14 UNL     1      -0.100   3.954  -0.067  1.00  0.00     0.227 A 
HETATM   17  O3  UNL     1      -0.440   5.115  -0.031  1.00  0.00    -0.284 OA
HETATM   18  O4  UNL     1      -2.342   3.528   0.131  1.00  0.00    -0.185 OA
HETATM   19  O7  UNL     1       2.029   5.872  -0.187  1.00  0.00    -0.190 OA
ENDROOT
BRANCH  14  20
HETATM   20  C15 UNL     1      -1.722   0.690  -0.065  1.00  0.00     0.027 A 
HETATM   21  C16 UNL     1      -1.296  -0.590   0.015  1.00  0.00     0.004 A 
HETATM   22  C17 UNL     1      -2.111  -1.660   0.009  1.00  0.00     0.024 A 
HETATM   23  C18 UNL     1      -3.445  -1.506  -0.077  1.00  0.00     0.119 A 
HETATM   24  C23 UNL     1      -1.593  -2.898   0.077  1.00  0.00    -0.000 A 
HETATM   25  C19 UNL     1      -3.910  -0.246  -0.175  1.00  0.00     0.153 A 
HETATM   26  O6  UNL     1      -4.349  -2.536  -0.091  1.00  0.00    -0.330 OA
HETATM   27  C20 UNL     1      -3.060   0.795  -0.182  1.00  0.00     0.032 A 
HETATM   28  O5  UNL     1      -5.250  -0.021  -0.297  1.00  0.00    -0.188 OA
HETATM   29  C21 UNL     1      -3.894  -3.858   0.029  1.00  0.00     0.117 A 
HETATM   30  C22 UNL     1      -2.393  -3.969   0.073  1.00  0.00     0.001 A 
HETATM   31  C24 UNL     1      -4.423  -4.645  -1.176  1.00  0.00     0.035 C 
HETATM   32  C25 UNL     1      -4.464  -4.442   1.328  1.00  0.00     0.035 C 
ENDBRANCH  14  20
TORSDOF 1
