REMARK  14 active torsions:
REMARK  status: ('A' for Active; 'I' for Inactive)
REMARK    1  A    between atoms: C1_1  and  C18_23 
REMARK    2  A    between atoms: C4_4  and  C5_6 
REMARK    3  A    between atoms: C5_6  and  C6_7 
REMARK    4  A    between atoms: C6_7  and  C7_8 
REMARK    5  A    between atoms: C7_8  and  C8_9 
REMARK    6  A    between atoms: C8_9  and  C9_10 
REMARK    7  A    between atoms: C9_10  and  C10_11 
REMARK    8  A    between atoms: C10_11  and  C11_12 
REMARK    9  A    between atoms: C11_12  and  C12_13 
REMARK   10  A    between atoms: C12_13  and  C13_14 
REMARK   11  A    between atoms: C13_14  and  C14_15 
REMARK   12  A    between atoms: C14_15  and  C15_16 
REMARK   13  A    between atoms: C15_16  and  C16_17 
REMARK   14  A    between atoms: C16_17  and  C17_18 
ROOT
HETATM    1  C7  UNL     1      -0.815  -1.892  -0.090  1.00  0.00     0.000 C 
ENDROOT
BRANCH   1   2
HETATM    2  C6  UNL     1      -2.296  -2.304  -0.111  1.00  0.00     0.006 C 
BRANCH   2   3
HETATM    3  C5  UNL     1      -2.489  -3.829  -0.102  1.00  0.00     0.044 C 
BRANCH   3   4
HETATM    4  C4  UNL     1      -3.928  -4.263  -0.130  1.00  0.00     0.064 A 
HETATM    5  C3  UNL     1      -4.357  -5.697  -0.118  1.00  0.00     0.220 A 
HETATM    6  C2  UNL     1      -5.870  -5.621  -0.201  1.00  0.00     0.212 A 
HETATM    7  O3  UNL     1      -3.961  -6.321   1.087  1.00  0.00    -0.214 OA
HETATM    8  C1  UNL     1      -6.181  -4.121  -0.168  1.00  0.00     0.169 A 
HETATM    9  O4  UNL     1      -6.315  -6.185  -1.411  1.00  0.00    -0.218 OA
HETATM   10  N1  UNL     1      -4.872  -3.427  -0.164  1.00  0.00    -0.273 NA
BRANCH   8  11
HETATM   11  C18 UNL     1      -6.979  -3.688   1.059  1.00  0.00     0.209 C 
HETATM   12  O5  UNL     1      -8.246  -4.313   1.051  1.00  0.00    -0.218 OA
ENDBRANCH   8  11
ENDBRANCH   3   4
ENDBRANCH   2   3
ENDBRANCH   1   2
BRANCH   1  13
HETATM   13  C8  UNL     1      -0.672  -0.361  -0.098  1.00  0.00     0.000 C 
BRANCH  13  14
HETATM   14  C9  UNL     1       0.794   0.099  -0.097  1.00  0.00     0.000 C 
BRANCH  14  15
HETATM   15  C10 UNL     1       0.900   1.633  -0.103  1.00  0.00     0.000 C 
BRANCH  15  16
HETATM   16  C11 UNL     1       2.358   2.118  -0.108  1.00  0.00     0.000 C 
BRANCH  16  17
HETATM   17  C12 UNL     1       2.443   3.654  -0.112  1.00  0.00     0.008 C 
BRANCH  17  18
HETATM   18  C13 UNL     1       3.900   4.143  -0.113  1.00  0.00     0.065 C 
BRANCH  18  19
HETATM   19  C14 UNL     1       4.052   5.656  -0.116  1.00  0.00     0.151 C 
HETATM   20  O2  UNL     1       3.081   6.380  -0.122  1.00  0.00    -0.296 OA
BRANCH  19  21
HETATM   21  C15 UNL     1       5.442   6.280  -0.109  1.00  0.00     0.067 C 
BRANCH  21  22
HETATM   22  C16 UNL     1       6.632   5.309  -0.119  1.00  0.00     0.043 C 
BRANCH  22  23
HETATM   23  C17 UNL     1       7.965   6.053  -0.114  1.00  0.00     0.183 C 
HETATM   24  O1  UNL     1       9.022   5.115  -0.121  1.00  0.00    -0.221 OA
ENDBRANCH  22  23
ENDBRANCH  21  22
ENDBRANCH  19  21
ENDBRANCH  18  19
ENDBRANCH  17  18
ENDBRANCH  16  17
ENDBRANCH  15  16
ENDBRANCH  14  15
ENDBRANCH  13  14
ENDBRANCH   1  13
TORSDOF 14
