REMARK  12 active torsions:
REMARK  status: ('A' for Active; 'I' for Inactive)
REMARK    1  A    between atoms: C1_1  and  C7_8 
REMARK    2  A    between atoms: C7_8  and  C8_9 
REMARK    3  A    between atoms: C8_9  and  C9_10 
REMARK    4  A    between atoms: C9_10  and  C10_11 
REMARK    5  A    between atoms: C10_11  and  C11_12 
REMARK    6  A    between atoms: C11_12  and  C12_13 
REMARK    7  A    between atoms: C12_13  and  C13_14 
REMARK    8  A    between atoms: C13_14  and  C14_15 
REMARK    9  A    between atoms: C15_17  and  C24_33 
REMARK   10  A    between atoms: C17_19  and  O2_20 
REMARK   11  A    between atoms: O2_20  and  C18_21 
REMARK   12  A    between atoms: C22_25  and  C23_27 
ROOT
HETATM    1  C14 UNL     1      -3.861   0.263   1.047  1.00  0.00     0.286 C 
HETATM    2  N1  UNL     1      -5.229   0.777   1.010  1.00  0.00     0.343 N 
HETATM    3  C15 UNL     1      -5.969  -0.002   1.995  1.00  0.00     0.322 C 
HETATM    4  C16 UNL     1      -5.462  -1.423   1.765  1.00  0.00     0.218 C 
HETATM    5  C17 UNL     1      -4.072  -1.261   1.138  1.00  0.00     0.184 C 
HETATM    6  O8  UNL     1      -6.307  -2.123   0.882  1.00  0.00    -0.218 OA
ENDROOT
BRANCH   1   7
HETATM    7  C13 UNL     1      -3.057   0.774  -0.163  1.00  0.00     0.039 C 
BRANCH   7   8
HETATM    8  C12 UNL     1      -1.687   1.365   0.219  1.00  0.00     0.002 C 
BRANCH   8   9
HETATM    9  C11 UNL     1      -0.739   1.448  -0.988  1.00  0.00     0.000 C 
BRANCH   9  10
HETATM   10  C10 UNL     1       0.633   2.031  -0.610  1.00  0.00     0.000 C 
BRANCH  10  11
HETATM   11  C9  UNL     1       1.663   1.832  -1.733  1.00  0.00     0.000 C 
BRANCH  11  12
HETATM   12  C8  UNL     1       3.033   2.445  -1.395  1.00  0.00     0.005 C 
BRANCH  12  13
HETATM   13  C7  UNL     1       4.119   1.956  -2.370  1.00  0.00     0.029 C 
BRANCH  13  14
HETATM   14  C1  UNL     1       5.467   2.625  -2.171  1.00  0.00     0.008 C 
HETATM   15  C2  UNL     1       5.978   3.412  -3.136  1.00  0.00    -0.028 C 
HETATM   16  C3  UNL     1       7.311   4.107  -3.069  1.00  0.00     0.026 C 
HETATM   17  C4  UNL     1       7.690   4.352  -1.608  1.00  0.00     0.013 C 
HETATM   18  C5  UNL     1       7.535   3.045  -0.830  1.00  0.00     0.069 C 
HETATM   19  C6  UNL     1       6.172   2.399  -1.030  1.00  0.00     0.169 C 
HETATM   20  O1  UNL     1       5.753   1.669  -0.160  1.00  0.00    -0.292 OA
ENDBRANCH  13  14
ENDBRANCH  12  13
ENDBRANCH  11  12
ENDBRANCH  10  11
ENDBRANCH   9  10
ENDBRANCH   8   9
ENDBRANCH   7   8
ENDBRANCH   1   7
BRANCH   5  21
HETATM   21  O2  UNL     1      -3.132  -1.884   1.966  1.00  0.00    -0.327 OA
BRANCH  21  22
HETATM   22  C18 UNL     1      -1.903  -2.163   1.334  1.00  0.00     0.270 C 
HETATM   23  C19 UNL     1      -0.836  -2.250   2.394  1.00  0.00     0.241 C 
HETATM   24  C20 UNL     1       0.482  -2.586   1.732  1.00  0.00     0.220 C 
HETATM   25  O7  UNL     1      -0.723  -1.013   3.051  1.00  0.00    -0.215 OA
HETATM   26  C21 UNL     1       0.322  -3.864   0.926  1.00  0.00     0.215 C 
HETATM   27  O6  UNL     1       1.444  -2.743   2.747  1.00  0.00    -0.218 OA
HETATM   28  C22 UNL     1      -0.908  -3.818   0.019  1.00  0.00     0.184 C 
HETATM   29  O5  UNL     1       1.474  -4.037   0.131  1.00  0.00    -0.218 OA
HETATM   30  O3  UNL     1      -2.054  -3.426   0.727  1.00  0.00    -0.326 OA
BRANCH  28  31
HETATM   31  C23 UNL     1      -1.211  -5.176  -0.605  1.00  0.00     0.214 C 
HETATM   32  O4  UNL     1      -0.068  -5.684  -1.260  1.00  0.00    -0.218 OA
ENDBRANCH  28  31
ENDBRANCH  21  22
ENDBRANCH   5  21
BRANCH   3  33
HETATM   33  C24 UNL     1      -7.467   0.227   1.863  1.00  0.00     0.221 C 
HETATM   34  O9  UNL     1      -7.745   1.581   2.156  1.00  0.00    -0.218 OA
ENDBRANCH   3  33
TORSDOF 12
