REMARK  10 active torsions:
REMARK  status: ('A' for Active; 'I' for Inactive)
REMARK    1  A    between atoms: C1_1  and  C18_24 
REMARK    2  A    between atoms: C4_4  and  C5_6 
REMARK    3  A    between atoms: C5_6  and  C6_7 
REMARK    4  A    between atoms: C6_7  and  C7_8 
REMARK    5  A    between atoms: C7_8  and  C8_9 
REMARK    6  A    between atoms: C8_9  and  C9_10 
REMARK    7  A    between atoms: C9_10  and  C10_11 
REMARK    8  A    between atoms: C10_11  and  C11_12 
REMARK    9  A    between atoms: C11_12  and  C12_13 
REMARK   10  A    between atoms: C12_13  and  C13_14 
ROOT
HETATM    1  C8  UNL     1       0.032  -0.157   1.392  1.00  0.00     0.000 C 
ENDROOT
BRANCH   1   2
HETATM    2  C7  UNL     1      -0.821  -0.361   0.129  1.00  0.00     0.000 C 
BRANCH   2   3
HETATM    3  C6  UNL     1      -2.269  -0.757   0.456  1.00  0.00     0.002 C 
BRANCH   3   4
HETATM    4  C5  UNL     1      -3.167  -0.704  -0.791  1.00  0.00     0.039 C 
BRANCH   4   5
HETATM    5  C4  UNL     1      -4.623  -1.077  -0.480  1.00  0.00     0.289 C 
HETATM    6  C3  UNL     1      -4.856  -2.562  -0.187  1.00  0.00     0.218 C 
HETATM    7  C2  UNL     1      -6.076  -2.953  -1.014  1.00  0.00     0.221 C 
HETATM    8  O3  UNL     1      -5.119  -2.759   1.181  1.00  0.00    -0.218 OA
HETATM    9  C1  UNL     1      -6.683  -1.627  -1.469  1.00  0.00     0.322 C 
HETATM   10  O4  UNL     1      -5.643  -3.664  -2.152  1.00  0.00    -0.218 OA
HETATM   11  N1  UNL     1      -5.486  -0.804  -1.630  1.00  0.00     0.343 N 
BRANCH   9  12
HETATM   12  C18 UNL     1      -7.653  -1.028  -0.453  1.00  0.00     0.221 C 
HETATM   13  O5  UNL     1      -8.844  -1.790  -0.429  1.00  0.00    -0.218 OA
ENDBRANCH   9  12
ENDBRANCH   4   5
ENDBRANCH   3   4
ENDBRANCH   2   3
ENDBRANCH   1   2
BRANCH   1  14
HETATM   14  C9  UNL     1       1.476   0.238   1.038  1.00  0.00     0.003 C 
BRANCH  14  15
HETATM   15  C10 UNL     1       2.267   0.712   2.268  1.00  0.00     0.036 C 
BRANCH  15  16
HETATM   16  C11 UNL     1       3.766   0.911   2.013  1.00  0.00     0.184 C 
HETATM   17  O2  UNL     1       4.344   1.437   3.186  1.00  0.00    -0.221 OA
BRANCH  16  18
HETATM   18  C12 UNL     1       4.107   1.865   0.877  1.00  0.00     0.216 C 
HETATM   19  O1  UNL     1       3.627   3.140   1.231  1.00  0.00    -0.218 OA
BRANCH  18  20
HETATM   20  C13 UNL     1       5.603   2.006   0.566  1.00  0.00     0.289 C 
HETATM   21  N2  UNL     1       5.842   3.188  -0.270  1.00  0.00     0.340 N 
HETATM   22  C14 UNL     1       5.370   3.064  -1.649  1.00  0.00     0.290 C 
HETATM   23  C15 UNL     1       6.001   1.850  -2.345  1.00  0.00     0.038 C 
HETATM   24  C16 UNL     1       5.763   0.569  -1.537  1.00  0.00     0.004 C 
HETATM   25  C17 UNL     1       6.237   0.767  -0.091  1.00  0.00     0.039 C 
ENDBRANCH  18  20
ENDBRANCH  16  18
ENDBRANCH  15  16
ENDBRANCH  14  15
ENDBRANCH   1  14
TORSDOF 10
