REMARK  4 active torsions:
REMARK  status: ('A' for Active; 'I' for Inactive)
REMARK    1  A    between atoms: C6_7  and  C20_27 
REMARK    2  A    between atoms: C11_13  and  O6_24 
REMARK    3  A    between atoms: C12_14  and  C13_16 
REMARK    4  A    between atoms: C20_27  and  C21_28 
ROOT
HETATM    1  C1  UNL     1      -4.223   0.122   0.987  1.00  0.00     0.117 C 
HETATM    2  C2  UNL     1      -4.322   1.599   1.246  1.00  0.00     0.001 C 
HETATM    3  C3  UNL     1      -3.256   2.392   1.077  1.00  0.00     0.002 C 
HETATM    4  C4  UNL     1      -2.044   1.885   0.779  1.00  0.00     0.047 A 
HETATM    5  C5  UNL     1      -1.895   0.545   0.837  1.00  0.00     0.094 A 
HETATM    6  O1  UNL     1      -2.911  -0.315   1.176  1.00  0.00    -0.332 OA
HETATM    7  C6  UNL     1      -0.695   0.021   0.514  1.00  0.00     0.028 A 
HETATM    8  C7  UNL     1       0.352   0.809   0.195  1.00  0.00     0.103 A 
HETATM    9  C8  UNL     1       0.198   2.140   0.188  1.00  0.00     0.089 A 
HETATM   10  C9  UNL     1      -1.005   2.694   0.474  1.00  0.00     0.138 A 
HETATM   11  O2  UNL     1      -1.189   4.047   0.447  1.00  0.00    -0.190 OA
HETATM   12  C10 UNL     1       1.286   2.907  -0.113  1.00  0.00     0.224 A 
HETATM   13  C11 UNL     1       2.521   2.359  -0.347  1.00  0.00     0.156 A 
HETATM   14  C12 UNL     1       2.647   1.005  -0.330  1.00  0.00     0.125 A 
HETATM   15  O3  UNL     1       1.539   0.231  -0.117  1.00  0.00    -0.305 OA
HETATM   16  O7  UNL     1       1.165   4.109  -0.141  1.00  0.00    -0.284 OA
HETATM   17  C25 UNL     1      -4.632  -0.162  -0.463  1.00  0.00     0.035 C 
HETATM   18  C26 UNL     1      -5.118  -0.660   1.952  1.00  0.00     0.035 C 
ENDROOT
BRANCH  14  19
HETATM   19  C13 UNL     1       3.811   0.312  -0.518  1.00  0.00     0.027 A 
HETATM   20  C14 UNL     1       5.051   0.792  -0.755  1.00  0.00     0.032 A 
HETATM   21  C15 UNL     1       6.152   0.034  -0.914  1.00  0.00     0.156 A 
HETATM   22  C16 UNL     1       6.054  -1.303  -0.846  1.00  0.00     0.156 A 
HETATM   23  O5  UNL     1       7.374   0.590  -1.143  1.00  0.00    -0.188 OA
HETATM   24  C17 UNL     1       4.841  -1.826  -0.626  1.00  0.00     0.030 A 
HETATM   25  O4  UNL     1       7.149  -2.091  -1.001  1.00  0.00    -0.188 OA
HETATM   26  C18 UNL     1       3.765  -1.041  -0.470  1.00  0.00     0.004 A 
ENDBRANCH  14  19
BRANCH  13  27
HETATM   27  O6  UNL     1       3.629   3.158  -0.529  1.00  0.00    -0.323 OA
HETATM   28  C19 UNL     1       3.648   4.548  -0.309  1.00  0.00     0.182 C 
ENDBRANCH  13  27
BRANCH   7  29
HETATM   29  C20 UNL     1      -0.545  -1.495   0.529  1.00  0.00     0.056 C 
BRANCH  29  30
HETATM   30  C21 UNL     1      -1.374  -2.114  -0.571  1.00  0.00    -0.030 C 
HETATM   31  C22 UNL     1      -2.118  -3.232  -0.492  1.00  0.00    -0.048 C 
HETATM   32  C23 UNL     1      -2.939  -3.705  -1.670  1.00  0.00     0.026 C 
HETATM   33  C24 UNL     1      -2.232  -4.107   0.733  1.00  0.00     0.026 C 
ENDBRANCH  29  30
ENDBRANCH   7  29
TORSDOF 4
