REMARK  10 active torsions:
REMARK  status: ('A' for Active; 'I' for Inactive)
REMARK    1  A    between atoms: C5_5  and  C7_7 
REMARK    2  A    between atoms: C8_8  and  C9_9 
REMARK    3  A    between atoms: C9_9  and  C10_11 
REMARK    4  A    between atoms: C10_11  and  C11_12 
REMARK    5  A    between atoms: C11_12  and  C12_13 
REMARK    6  A    between atoms: C16_17  and  O3_19 
REMARK    7  A    between atoms: O3_19  and  C17_20 
REMARK    8  A    between atoms: C18_22  and  O8_35 
REMARK    9  A    between atoms: C19_23  and  C26_31 
REMARK   10  A    between atoms: C26_31  and  O6_32 
ROOT
HETATM    1  C12 UNL     1       0.553  -3.212   1.706  1.00  0.00     0.151 C 
HETATM    2  C13 UNL     1       1.891  -3.587   2.329  1.00  0.00     0.212 C 
HETATM    3  C14 UNL     1       2.686  -2.370   2.753  1.00  0.00     0.220 C 
HETATM    4  C15 UNL     1       2.793  -1.386   1.609  1.00  0.00     0.241 C 
HETATM    5  C16 UNL     1       1.441  -1.147   0.985  1.00  0.00     0.272 C 
HETATM    6  O2  UNL     1       0.775  -2.342   0.626  1.00  0.00    -0.329 OA
HETATM    7  O9  UNL     1       3.671  -1.918   0.645  1.00  0.00    -0.215 OA
HETATM    8  O10 UNL     1       3.981  -2.788   3.113  1.00  0.00    -0.218 OA
HETATM    9  O11 UNL     1       1.721  -4.421   3.447  1.00  0.00    -0.218 OA
ENDROOT
BRANCH   5  10
HETATM   10  O3  UNL     1       1.571  -0.507  -0.268  1.00  0.00    -0.304 OA
BRANCH  10  11
HETATM   11  C17 UNL     1       1.545   0.904  -0.202  1.00  0.00     0.245 C 
HETATM   12  O4  UNL     1       2.896   1.283  -0.270  1.00  0.00    -0.302 OA
HETATM   13  C18 UNL     1       3.096   2.695  -0.324  1.00  0.00     0.267 C 
HETATM   14  C19 UNL     1       1.914   3.540  -0.803  1.00  0.00     0.089 C 
HETATM   15  C20 UNL     1       0.836   2.921  -1.315  1.00  0.00    -0.031 C 
HETATM   16  C21 UNL     1       0.805   1.421  -1.416  1.00  0.00     0.103 C 
HETATM   17  C24 UNL     1      -0.484   3.448  -1.816  1.00  0.00     0.025 C 
HETATM   18  C22 UNL     1      -0.682   1.036  -1.508  1.00  0.00     0.135 C 
HETATM   19  C23 UNL     1      -1.444   2.353  -1.324  1.00  0.00     0.035 C 
HETATM   20  C25 UNL     1      -1.014   0.367  -2.842  1.00  0.00     0.034 C 
HETATM   21  O5  UNL     1      -1.043   0.146  -0.484  1.00  0.00    -0.226 OA
BRANCH  13  22
HETATM   22  O8  UNL     1       4.169   2.840  -1.252  1.00  0.00    -0.325 OA
HETATM   23  C28 UNL     1       5.433   2.625  -0.662  1.00  0.00     0.177 C 
ENDBRANCH  13  22
BRANCH  14  24
HETATM   24  C26 UNL     1       2.014   4.897  -0.701  1.00  0.00     0.296 C 
HETATM   25  O7  UNL     1       3.035   5.336  -0.213  1.00  0.00    -0.259 OA
BRANCH  24  26
HETATM   26  O6  UNL     1       1.063   5.772  -1.138  1.00  0.00    -0.296 OA
HETATM   27  C27 UNL     1       1.379   7.145  -1.107  1.00  0.00     0.185 C 
ENDBRANCH  24  26
ENDBRANCH  14  24
ENDBRANCH  10  11
ENDBRANCH   5  10
BRANCH   1  28
HETATM   28  C11 UNL     1      -0.512  -2.667   2.670  1.00  0.00     0.041 C 
BRANCH  28  29
HETATM   29  C10 UNL     1      -1.899  -2.532   2.001  1.00  0.00     0.072 C 
BRANCH  29  30
HETATM   30  C9  UNL     1      -2.764  -1.419   2.581  1.00  0.00     0.173 C 
HETATM   31  O1  UNL     1      -2.610  -1.168   3.758  1.00  0.00    -0.291 OA
BRANCH  30  32
HETATM   32  C8  UNL     1      -3.555  -0.589   1.844  1.00  0.00     0.037 C 
HETATM   33  C7  UNL     1      -3.988  -0.616   0.568  1.00  0.00     0.003 C 
BRANCH  33  34
HETATM   34  C5  UNL     1      -4.040  -1.557  -0.397  1.00  0.00     0.000 A 
HETATM   35  C4  UNL     1      -4.273  -1.192  -1.675  1.00  0.00     0.002 A 
HETATM   36  C3  UNL     1      -4.358  -2.092  -2.667  1.00  0.00     0.027 A 
HETATM   37  C2  UNL     1      -4.250  -3.409  -2.430  1.00  0.00     0.131 A 
HETATM   38  C1  UNL     1      -4.092  -3.785  -1.151  1.00  0.00     0.027 A 
HETATM   39  O12 UNL     1      -4.356  -4.320  -3.434  1.00  0.00    -0.190 OA
HETATM   40  C6  UNL     1      -4.004  -2.880  -0.165  1.00  0.00     0.002 A 
ENDBRANCH  33  34
ENDBRANCH  30  32
ENDBRANCH  29  30
ENDBRANCH  28  29
ENDBRANCH   1  28
TORSDOF 10
