REMARK  1 active torsions:
REMARK  status: ('A' for Active; 'I' for Inactive)
REMARK    1  A    between atoms: C16_16  and  C24_25 
ROOT
HETATM    1  C1  UNL     1      -4.989  -0.528  -0.356  1.00  0.00     0.000 C 
HETATM    2  C2  UNL     1      -4.795  -1.633  -1.394  1.00  0.00     0.000 C 
HETATM    3  C3  UNL     1      -3.712  -2.661  -0.994  1.00  0.00     0.000 C 
HETATM    4  C4  UNL     1      -2.409  -1.904  -0.601  1.00  0.00     0.003 C 
HETATM    5  C5  UNL     1      -2.518  -0.745   0.431  1.00  0.00     0.015 C 
HETATM    6  C6  UNL     1      -3.664   0.187  -0.053  1.00  0.00     0.004 C 
HETATM    7  C7  UNL     1      -1.162   0.001   0.492  1.00  0.00    -0.050 C 
HETATM    8  C8  UNL     1       0.172  -0.752   0.445  1.00  0.00     0.015 C 
HETATM    9  C9  UNL     1       0.090  -2.048  -0.397  1.00  0.00     0.004 C 
HETATM   10  C10 UNL     1      -1.225  -2.824  -0.265  1.00  0.00     0.001 C 
HETATM   11  C11 UNL     1       1.307   0.197  -0.133  1.00  0.00     0.004 C 
HETATM   12  C12 UNL     1       1.442   1.451   0.770  1.00  0.00     0.009 C 
HETATM   13  C13 UNL     1       0.099   2.167   0.960  1.00  0.00     0.026 C 
HETATM   14  C14 UNL     1      -1.128   1.309   0.811  1.00  0.00    -0.035 C 
HETATM   15  C15 UNL     1       2.691   2.368   0.580  1.00  0.00     0.035 C 
HETATM   16  C16 UNL     1       3.951   1.474   0.746  1.00  0.00     0.133 C 
HETATM   17  C17 UNL     1       3.898   0.370  -0.333  1.00  0.00     0.018 C 
HETATM   18  C18 UNL     1       2.671  -0.542  -0.202  1.00  0.00     0.001 C 
HETATM   19  C19 UNL     1       5.214   2.304   0.516  1.00  0.00     0.164 C 
HETATM   20  C20 UNL     1       5.328   3.001  -0.819  1.00  0.00     0.090 C 
HETATM   21  C21 UNL     1       3.998   3.559  -1.227  1.00  0.00    -0.027 C 
HETATM   22  C22 UNL     1       2.819   3.305  -0.626  1.00  0.00    -0.047 C 
HETATM   23  C23 UNL     1       1.645   4.150  -1.072  1.00  0.00     0.026 C 
HETATM   24  O1  UNL     1       6.078   2.406   1.357  1.00  0.00    -0.295 OA
HETATM   25  C25 UNL     1       0.969   0.670  -1.570  1.00  0.00     0.000 C 
HETATM   26  C26 UNL     1       0.436  -1.190   1.916  1.00  0.00     0.004 C 
HETATM   27  C27 UNL     1      -2.859  -1.161   1.881  1.00  0.00     0.004 C 
HETATM   28  C28 UNL     1      -3.488  -3.542  -2.254  1.00  0.00     0.000 C 
HETATM   29  C29 UNL     1      -4.234  -3.608   0.105  1.00  0.00     0.000 C 
ENDROOT
BRANCH  16  30
HETATM   30  C24 UNL     1       4.079   0.847   2.143  1.00  0.00     0.191 C 
HETATM   31  O2  UNL     1       4.449  -0.275   2.398  1.00  0.00    -0.647 OA
HETATM   32  O3  UNL     1       3.778   1.712   3.130  1.00  0.00    -0.647 OA
ENDBRANCH  16  30
TORSDOF 1
