REMARK  3 active torsions:
REMARK  status: ('A' for Active; 'I' for Inactive)
REMARK    1  A    between atoms: C11_14  and  C14_17 
REMARK    2  A    between atoms: C23_29  and  O7_30 
REMARK    3  A    between atoms: O7_30  and  C24_31 
ROOT
HETATM    1  O1  UNL     1      -1.225   1.422  -1.027  1.00  0.00    -0.331 OA
HETATM    2  C1  UNL     1      -0.167   1.001  -0.199  1.00  0.00     0.118 C 
HETATM    3  C2  UNL     1      -0.224  -0.486  -0.405  1.00  0.00     0.039 C 
HETATM    4  C3  UNL     1      -1.697  -0.902  -0.408  1.00  0.00     0.109 C 
HETATM    5  C4  UNL     1      -1.669  -2.382  -0.886  1.00  0.00     0.136 C 
HETATM    6  O2  UNL     1      -1.503  -3.249   0.217  1.00  0.00    -0.226 OA
HETATM    7  C5  UNL     1      -0.458  -2.751  -1.758  1.00  0.00     0.031 C 
HETATM    8  C6  UNL     1       0.887  -2.586  -0.980  1.00  0.00     0.005 C 
HETATM    9  C7  UNL     1       0.853  -1.440   0.068  1.00  0.00     0.031 C 
HETATM   10  C8  UNL     1       2.108  -0.591   0.307  1.00  0.00     0.127 C 
HETATM   11  O3  UNL     1       1.910   0.005   1.573  1.00  0.00    -0.226 OA
HETATM   12  C9  UNL     1       2.352   0.566  -0.695  1.00  0.00     0.032 C 
HETATM   13  C10 UNL     1       1.203   1.611  -0.563  1.00  0.00     0.032 C 
HETATM   14  C11 UNL     1       3.800   1.019  -0.306  1.00  0.00     0.027 C 
HETATM   15  C12 UNL     1       4.424  -0.125   0.533  1.00  0.00     0.007 C 
HETATM   16  C13 UNL     1       3.449  -1.308   0.400  1.00  0.00     0.031 C 
HETATM   17  C19 UNL     1       2.467   0.151  -2.192  1.00  0.00     0.003 C 
HETATM   18  C20 UNL     1      -3.049  -2.693  -1.454  1.00  0.00     0.064 C 
HETATM   19  C21 UNL     1      -4.064  -2.683  -0.307  1.00  0.00     0.157 C 
HETATM   20  O6  UNL     1      -5.362  -2.779  -0.848  1.00  0.00    -0.223 OA
HETATM   21  C22 UNL     1      -3.971  -1.459   0.617  1.00  0.00     0.064 C 
HETATM   22  C23 UNL     1      -2.560  -0.870   0.882  1.00  0.00     0.134 C 
HETATM   23  C26 UNL     1      -2.046   0.291  -1.344  1.00  0.00     0.274 C 
HETATM   24  O9  UNL     1      -3.331   0.851  -1.155  1.00  0.00    -0.190 OA
ENDROOT
BRANCH  14  25
HETATM   25  C14 UNL     1       3.942   2.456   0.170  1.00  0.00     0.003 A 
HETATM   26  C15 UNL     1       3.899   3.445  -0.742  1.00  0.00     0.003 A 
HETATM   27  C16 UNL     1       4.004   4.733  -0.391  1.00  0.00     0.068 A 
HETATM   28  C17 UNL     1       4.165   5.052   0.917  1.00  0.00     0.300 A 
HETATM   29  O4  UNL     1       4.221   4.093   1.885  1.00  0.00    -0.271 OA
HETATM   30  O5  UNL     1       4.263   6.224   1.220  1.00  0.00    -0.259 OA
HETATM   31  C18 UNL     1       4.087   2.803   1.461  1.00  0.00     0.122 A 
ENDBRANCH  14  25
BRANCH  22  32
HETATM   32  O7  UNL     1      -2.568   0.431   1.403  1.00  0.00    -0.304 OA
BRANCH  32  33
HETATM   33  C24 UNL     1      -3.722   1.052   1.749  1.00  0.00     0.272 C 
HETATM   34  O8  UNL     1      -4.109   2.048   1.175  1.00  0.00    -0.264 OA
HETATM   35  C25 UNL     1      -4.367   0.491   3.002  1.00  0.00     0.106 C 
ENDBRANCH  32  33
ENDBRANCH  22  32
TORSDOF 3
