REMARK  8 active torsions:
REMARK  status: ('A' for Active; 'I' for Inactive)
REMARK    1  A    between atoms: C1_1  and  O6_36 
REMARK    2  A    between atoms: C16_16  and  C19_20 
REMARK    3  A    between atoms: C19_20  and  C20_21 
REMARK    4  A    between atoms: C20_21  and  C21_22 
REMARK    5  A    between atoms: C21_22  and  C22_23 
REMARK    6  A    between atoms: C22_23  and  C23_24 
REMARK    7  A    between atoms: O6_36  and  C31_37 
REMARK    8  A    between atoms: C32_39  and  C36_46 
ROOT
HETATM    1  C1  UNL     1      -3.998  -0.983  -2.141  1.00  0.00     0.128 C 
HETATM    2  C2  UNL     1      -4.409  -2.228  -1.780  1.00  0.00     0.197 C 
HETATM    3  C3  UNL     1      -3.474  -3.431  -1.919  1.00  0.00     0.073 C 
HETATM    4  C4  UNL     1      -2.027  -3.057  -1.691  1.00  0.00    -0.038 C 
HETATM    5  C5  UNL     1      -1.543  -1.671  -2.050  1.00  0.00     0.046 C 
HETATM    6  C6  UNL     1      -2.695  -0.751  -2.371  1.00  0.00     0.005 C 
HETATM    7  C7  UNL     1      -0.619  -1.097  -0.923  1.00  0.00     0.023 C 
HETATM    8  C8  UNL     1       0.318  -2.214  -0.344  1.00  0.00     0.009 C 
HETATM    9  C9  UNL     1       0.333  -3.504  -1.179  1.00  0.00     0.026 C 
HETATM   10  C10 UNL     1      -1.089  -3.952  -1.341  1.00  0.00    -0.034 C 
HETATM   11  C11 UNL     1       1.754  -1.749   0.026  1.00  0.00     0.004 C 
HETATM   12  C12 UNL     1       1.632  -0.384   0.729  1.00  0.00     0.009 C 
HETATM   13  C13 UNL     1       1.159   0.685  -0.261  1.00  0.00     0.022 C 
HETATM   14  C14 UNL     1       0.268   0.082  -1.338  1.00  0.00    -0.044 C 
HETATM   15  C15 UNL     1       0.333   0.592  -2.580  1.00  0.00    -0.009 C 
HETATM   16  C16 UNL     1       2.940  -0.168   1.512  1.00  0.00     0.066 C 
HETATM   17  C17 UNL     1       3.298  -1.605   1.940  1.00  0.00     0.155 C 
HETATM   18  C18 UNL     1       2.412  -2.578   1.151  1.00  0.00     0.033 C 
HETATM   19  O1  UNL     1       4.658  -1.861   1.671  1.00  0.00    -0.223 OA
HETATM   20  C27 UNL     1       2.713  -1.734  -1.185  1.00  0.00     0.000 C 
HETATM   21  C28 UNL     1      -1.587  -0.574   0.177  1.00  0.00     0.005 C 
HETATM   22  C29 UNL     1      -3.953  -4.528  -0.941  1.00  0.00     0.012 C 
HETATM   23  C30 UNL     1      -3.620  -3.946  -3.365  1.00  0.00     0.012 C 
HETATM   24  O5  UNL     1      -5.570  -2.393  -1.478  1.00  0.00    -0.289 OA
ENDROOT
BRANCH   1  25
HETATM   25  O6  UNL     1      -4.962  -0.041  -2.405  1.00  0.00    -0.301 OA
BRANCH  25  26
HETATM   26  C31 UNL     1      -4.966   1.071  -1.536  1.00  0.00     0.274 C 
HETATM   27  O7  UNL     1      -6.035   1.838  -2.046  1.00  0.00    -0.326 OA
HETATM   28  C32 UNL     1      -6.232   3.050  -1.372  1.00  0.00     0.184 C 
HETATM   29  C33 UNL     1      -6.457   2.815   0.119  1.00  0.00     0.215 C 
HETATM   30  C34 UNL     1      -5.453   1.873   0.761  1.00  0.00     0.220 C 
HETATM   31  O10 UNL     1      -7.743   2.262   0.302  1.00  0.00    -0.218 OA
HETATM   32  C35 UNL     1      -5.249   0.650  -0.113  1.00  0.00     0.241 C 
HETATM   33  O9  UNL     1      -4.220   2.530   0.930  1.00  0.00    -0.218 OA
HETATM   34  O8  UNL     1      -6.411  -0.147  -0.102  1.00  0.00    -0.215 OA
BRANCH  28  35
HETATM   35  C36 UNL     1      -5.159   4.082  -1.698  1.00  0.00     0.214 C 
HETATM   36  O11 UNL     1      -5.109   4.299  -3.095  1.00  0.00    -0.218 OA
ENDBRANCH  28  35
ENDBRANCH  25  26
ENDBRANCH   1  25
BRANCH  16  37
HETATM   37  C19 UNL     1       2.942   0.885   2.645  1.00  0.00     0.180 C 
HETATM   38  C26 UNL     1       1.569   1.182   3.255  1.00  0.00     0.041 C 
HETATM   39  O4  UNL     1       3.732   0.424   3.725  1.00  0.00    -0.218 OA
BRANCH  37  40
HETATM   40  C20 UNL     1       3.526   2.193   2.085  1.00  0.00     0.178 C 
HETATM   41  O3  UNL     1       2.846   2.917   1.393  1.00  0.00    -0.293 OA
BRANCH  40  42
HETATM   42  C21 UNL     1       4.951   2.601   2.442  1.00  0.00     0.070 C 
BRANCH  42  43
HETATM   43  C22 UNL     1       6.028   1.624   1.942  1.00  0.00     0.038 C 
BRANCH  43  44
HETATM   44  C23 UNL     1       7.461   1.955   2.386  1.00  0.00     0.127 C 
HETATM   45  C24 UNL     1       8.387   0.763   2.122  1.00  0.00     0.033 C 
HETATM   46  C25 UNL     1       8.003   3.205   1.692  1.00  0.00     0.033 C 
HETATM   47  O2  UNL     1       7.463   2.189   3.771  1.00  0.00    -0.226 OA
ENDBRANCH  43  44
ENDBRANCH  42  43
ENDBRANCH  40  42
ENDBRANCH  37  40
ENDBRANCH  16  37
TORSDOF 8
