REMARK  0 active torsions:
REMARK  status: ('A' for Active; 'I' for Inactive)
ROOT
HETATM    1  C1  UNL     1       0.299   0.903   0.662  1.00  0.00     0.169 C 
HETATM    2  C2  UNL     1       0.279  -0.614   0.597  1.00  0.00     0.089 C 
HETATM    3  C3  UNL     1      -0.920  -0.976  -0.293  1.00  0.00     0.134 C 
HETATM    4  C4  UNL     1      -1.857   0.244  -0.199  1.00  0.00     0.066 C 
HETATM    5  C5  UNL     1      -1.174   1.269   0.711  1.00  0.00     0.183 C 
HETATM    6  O1  UNL     1      -1.619   1.106   2.037  1.00  0.00    -0.221 OA
HETATM    7  O2  UNL     1      -1.576  -2.089   0.262  1.00  0.00    -0.226 OA
HETATM    8  C6  UNL     1      -0.591  -1.339  -1.741  1.00  0.00     0.033 C 
HETATM    9  C7  UNL     1       1.649  -1.187   0.280  1.00  0.00     0.157 C 
HETATM   10  O3  UNL     1       2.344  -0.568  -0.766  1.00  0.00    -0.301 OA
HETATM   11  C8  UNL     1       2.225   0.748  -1.078  1.00  0.00     0.275 C 
HETATM   12  C9  UNL     1       1.019   1.494  -0.539  1.00  0.00     0.129 C 
HETATM   13  O4  UNL     1       2.979   1.290  -1.860  1.00  0.00    -0.264 OA
HETATM   14  O5  UNL     1       0.926   1.328   1.840  1.00  0.00    -0.223 OA
ENDROOT
TORSDOF 0
