REMARK  3 active torsions:
REMARK  status: ('A' for Active; 'I' for Inactive)
REMARK    1  A    between atoms: C2_2  and  C10_14 
REMARK    2  A    between atoms: C5_7  and  C9_12 
REMARK    3  A    between atoms: C7_9  and  O3_10 
ROOT
HETATM    1  C1  UNL     1       0.985   0.003  -0.378  1.00  0.00     0.073 C 
HETATM    2  C2  UNL     1      -0.289   0.861  -0.394  1.00  0.00     0.152 C 
HETATM    3  O1  UNL     1      -0.075   1.895   0.529  1.00  0.00    -0.300 OA
HETATM    4  C3  UNL     1       1.231   2.005   0.885  1.00  0.00     0.272 C 
HETATM    5  C4  UNL     1       2.046   0.977   0.131  1.00  0.00     0.101 C 
HETATM    6  O2  UNL     1       1.671   2.805   1.681  1.00  0.00    -0.264 OA
HETATM    7  C5  UNL     1      -1.337  -0.106   0.101  1.00  0.00     0.014 C 
HETATM    8  C6  UNL     1      -0.786  -1.207   0.623  1.00  0.00    -0.001 C 
HETATM    9  C7  UNL     1       0.718  -1.169   0.587  1.00  0.00     0.140 C 
ENDROOT
BRANCH   2  10
HETATM   10  C10 UNL     1      -0.629   1.441  -1.759  1.00  0.00     0.214 C 
HETATM   11  O5  UNL     1       0.472   2.174  -2.257  1.00  0.00    -0.218 OA
ENDBRANCH   2  10
BRANCH   7  12
HETATM   12  C9  UNL     1      -2.808   0.183   0.037  1.00  0.00     0.207 C 
HETATM   13  O4  UNL     1      -3.097   1.460   0.587  1.00  0.00    -0.216 OA
ENDBRANCH   7  12
BRANCH   9  14
HETATM   14  O3  UNL     1       1.296  -2.347   0.077  1.00  0.00    -0.350 OA
HETATM   15  C8  UNL     1       1.441  -3.356   1.053  1.00  0.00     0.175 C 
ENDBRANCH   9  14
TORSDOF 3
