REMARK  8 active torsions:
REMARK  status: ('A' for Active; 'I' for Inactive)
REMARK    1  A    between atoms: C5_5  and  O2_7 
REMARK    2  A    between atoms: O2_7  and  C6_8 
REMARK    3  A    between atoms: C19_21  and  O6_40 
REMARK    4  A    between atoms: C24_26  and  C25_27 
REMARK    5  A    between atoms: C25_27  and  C26_28 
REMARK    6  A    between atoms: C26_28  and  C27_29 
REMARK    7  A    between atoms: C27_29  and  C28_31 
REMARK    8  A    between atoms: O6_40  and  C35_41 
ROOT
HETATM    1  C6  UNL     1      -3.091  -2.425  -2.709  1.00  0.00     0.118 C 
HETATM    2  C7  UNL     1      -3.233  -0.900  -2.613  1.00  0.00     0.030 C 
HETATM    3  C8  UNL     1      -3.203  -0.437  -1.152  1.00  0.00     0.003 C 
HETATM    4  C9  UNL     1      -2.011  -0.976  -0.365  1.00  0.00     0.004 A 
HETATM    5  C10 UNL     1      -1.802  -2.486  -0.529  1.00  0.00     0.007 C 
HETATM    6  C11 UNL     1      -1.777  -2.905  -2.033  1.00  0.00     0.025 C 
HETATM    7  C12 UNL     1      -0.549  -2.301  -2.754  1.00  0.00     0.002 C 
HETATM    8  C13 UNL     1      -1.663  -4.439  -2.212  1.00  0.00     0.002 C 
HETATM    9  C14 UNL     1      -0.646  -3.046   0.320  1.00  0.00     0.025 C 
HETATM   10  C15 UNL     1       0.565  -2.164   0.284  1.00  0.00    -0.035 C 
HETATM   11  C16 UNL     1       0.502  -0.832   0.140  1.00  0.00    -0.049 C 
HETATM   12  C17 UNL     1      -0.797  -0.122  -0.025  1.00  0.00     0.017 A 
HETATM   13  C18 UNL     1      -0.681   1.292  -0.591  1.00  0.00     0.034 C 
HETATM   14  C19 UNL     1       0.498   2.169  -0.103  1.00  0.00     0.125 C 
HETATM   15  C20 UNL     1       1.485   1.413   0.819  1.00  0.00     0.036 C 
HETATM   16  C21 UNL     1       1.750   0.028   0.139  1.00  0.00     0.024 C 
HETATM   17  C22 UNL     1       2.927  -0.528   0.957  1.00  0.00     0.068 C 
HETATM   18  C23 UNL     1       3.731   0.717   1.265  1.00  0.00     0.151 C 
HETATM   19  C24 UNL     1       2.930   2.001   0.984  1.00  0.00     0.061 C 
HETATM   20  O5  UNL     1       4.852   0.644   1.710  1.00  0.00    -0.296 OA
HETATM   21  C33 UNL     1       2.235   0.081  -1.333  1.00  0.00     0.005 C 
HETATM   22  C34 UNL     1       0.885   1.250   2.241  1.00  0.00     0.003 C 
HETATM   23  C37 UNL     1      -1.867  -0.384   1.016  1.00  0.00     0.004 A 
ENDROOT
BRANCH   1  24
HETATM   24  O2  UNL     1      -4.205  -2.988  -2.065  1.00  0.00    -0.332 OA
BRANCH  24  25
HETATM   25  C5  UNL     1      -4.859  -4.045  -2.730  1.00  0.00     0.270 C 
HETATM   26  C4  UNL     1      -5.494  -4.956  -1.698  1.00  0.00     0.241 C 
HETATM   27  C3  UNL     1      -6.635  -4.272  -0.973  1.00  0.00     0.220 C 
HETATM   28  O8  UNL     1      -5.969  -6.122  -2.331  1.00  0.00    -0.215 OA
HETATM   29  C2  UNL     1      -7.591  -3.677  -1.985  1.00  0.00     0.215 C 
HETATM   30  O9  UNL     1      -6.134  -3.233  -0.161  1.00  0.00    -0.218 OA
HETATM   31  C1  UNL     1      -6.859  -2.794  -2.979  1.00  0.00     0.181 C 
HETATM   32  O10 UNL     1      -8.550  -2.914  -1.289  1.00  0.00    -0.218 OA
HETATM   33  O1  UNL     1      -5.803  -3.475  -3.612  1.00  0.00    -0.326 OA
ENDBRANCH  24  25
ENDBRANCH   1  24
BRANCH  14  34
HETATM   34  O6  UNL     1      -0.002   3.298   0.547  1.00  0.00    -0.304 OA
BRANCH  34  35
HETATM   35  C35 UNL     1      -0.519   4.380  -0.105  1.00  0.00     0.272 C 
HETATM   36  O7  UNL     1      -1.028   5.304   0.494  1.00  0.00    -0.264 OA
HETATM   37  C36 UNL     1      -0.379   4.408  -1.617  1.00  0.00     0.106 C 
ENDBRANCH  34  35
ENDBRANCH  14  34
BRANCH  19  38
HETATM   38  C25 UNL     1       3.277   3.096   2.030  1.00  0.00     0.014 C 
HETATM   39  C32 UNL     1       2.395   4.358   2.009  1.00  0.00     0.001 C 
BRANCH  38  40
HETATM   40  C26 UNL     1       4.739   3.605   1.894  1.00  0.00     0.068 C 
BRANCH  40  41
HETATM   41  C27 UNL     1       5.366   4.096   3.196  1.00  0.00     0.180 C 
HETATM   42  O3  UNL     1       4.770   4.025   4.249  1.00  0.00    -0.293 OA
BRANCH  41  43
HETATM   43  C28 UNL     1       6.694   4.717   3.233  1.00  0.00     0.197 A 
HETATM   44  C29 UNL     1       7.682   3.881   3.864  1.00  0.00     0.125 A 
HETATM   45  C30 UNL     1       8.879   4.546   4.519  1.00  0.00     0.033 C 
HETATM   46  C31 UNL     1       7.493   2.395   4.130  1.00  0.00     0.033 C 
HETATM   47  O4  UNL     1       7.593   4.181   2.295  1.00  0.00    -0.349 OA
ENDBRANCH  41  43
ENDBRANCH  40  41
ENDBRANCH  38  40
ENDBRANCH  19  38
TORSDOF 8
