REMARK  3 active torsions:
REMARK  status: ('A' for Active; 'I' for Inactive)
REMARK    1  A    between atoms: C5_5  and  O2_7 
REMARK    2  A    between atoms: O2_7  and  C6_8 
REMARK    3  A    between atoms: C28_31  and  C29_32 
ROOT
HETATM    1  C6  UNL     1      -3.150  -1.831  -2.355  1.00  0.00     0.118 C 
HETATM    2  C7  UNL     1      -3.335  -0.311  -2.246  1.00  0.00     0.030 C 
HETATM    3  C8  UNL     1      -3.359   0.141  -0.780  1.00  0.00     0.003 C 
HETATM    4  C9  UNL     1      -2.177  -0.378   0.033  1.00  0.00     0.004 A 
HETATM    5  C10 UNL     1      -1.943  -1.883  -0.127  1.00  0.00     0.007 C 
HETATM    6  C11 UNL     1      -1.854  -2.292  -1.631  1.00  0.00     0.025 C 
HETATM    7  C12 UNL     1      -0.619  -1.663  -2.314  1.00  0.00     0.002 C 
HETATM    8  C13 UNL     1      -1.696  -3.822  -1.808  1.00  0.00     0.002 C 
HETATM    9  C14 UNL     1      -0.815  -2.420   0.772  1.00  0.00     0.025 C 
HETATM   10  C15 UNL     1       0.392  -1.529   0.757  1.00  0.00    -0.035 C 
HETATM   11  C16 UNL     1       0.334  -0.201   0.576  1.00  0.00    -0.047 C 
HETATM   12  C17 UNL     1      -0.980   0.494   0.385  1.00  0.00     0.017 A 
HETATM   13  C18 UNL     1      -0.902   1.920  -0.168  1.00  0.00     0.037 C 
HETATM   14  C19 UNL     1       0.302   2.784   0.257  1.00  0.00     0.153 C 
HETATM   15  C20 UNL     1       1.288   2.055   1.188  1.00  0.00     0.038 C 
HETATM   16  C21 UNL     1       1.581   0.669   0.524  1.00  0.00     0.050 C 
HETATM   17  C22 UNL     1       2.799   0.212   1.339  1.00  0.00     0.206 C 
HETATM   18  C23 UNL     1       3.640   1.465   1.478  1.00  0.00     0.216 C 
HETATM   19  C24 UNL     1       2.711   2.685   1.338  1.00  0.00     0.057 C 
HETATM   20  C25 UNL     1       3.007   3.698   2.471  1.00  0.00     0.007 C 
HETATM   21  C26 UNL     1       4.530   3.843   2.672  1.00  0.00     0.033 C 
HETATM   22  C27 UNL     1       5.261   2.511   2.489  1.00  0.00     0.147 C 
HETATM   23  O3  UNL     1       4.362   1.464   2.677  1.00  0.00    -0.333 OA
HETATM   24  C28 UNL     1       5.710   2.272   1.056  1.00  0.00     0.173 C 
HETATM   25  O5  UNL     1       4.677   1.495   0.530  1.00  0.00    -0.330 OA
HETATM   26  C32 UNL     1       2.388   5.092   2.285  1.00  0.00     0.000 C 
HETATM   27  O6  UNL     1       3.544  -0.823   0.744  1.00  0.00    -0.218 OA
HETATM   28  C33 UNL     1       1.978   0.727  -0.975  1.00  0.00     0.007 C 
HETATM   29  C34 UNL     1       0.664   1.918   2.601  1.00  0.00     0.003 C 
HETATM   30  O7  UNL     1      -0.180   3.967   0.845  1.00  0.00    -0.223 OA
HETATM   31  C35 UNL     1      -2.061   0.215   1.414  1.00  0.00     0.004 A 
ENDROOT
BRANCH   1  32
HETATM   32  O2  UNL     1      -4.278  -2.429  -1.771  1.00  0.00    -0.332 OA
BRANCH  32  33
HETATM   33  C5  UNL     1      -4.857  -3.510  -2.467  1.00  0.00     0.270 C 
HETATM   34  C4  UNL     1      -5.504  -4.451  -1.470  1.00  0.00     0.241 C 
HETATM   35  C3  UNL     1      -6.709  -3.818  -0.806  1.00  0.00     0.220 C 
HETATM   36  O8  UNL     1      -5.897  -5.635  -2.125  1.00  0.00    -0.215 OA
HETATM   37  C2  UNL     1      -7.637  -3.264  -1.866  1.00  0.00     0.215 C 
HETATM   38  O9  UNL     1      -6.296  -2.758   0.029  1.00  0.00    -0.218 OA
HETATM   39  C1  UNL     1      -6.893  -2.343  -2.815  1.00  0.00     0.181 C 
HETATM   40  O10 UNL     1      -8.663  -2.550  -1.217  1.00  0.00    -0.218 OA
HETATM   41  O1  UNL     1      -5.777  -2.974  -3.395  1.00  0.00    -0.326 OA
ENDBRANCH  32  33
ENDBRANCH   1  32
BRANCH  24  42
HETATM   42  C29 UNL     1       7.020   1.498   0.900  1.00  0.00     0.154 C 
HETATM   43  C30 UNL     1       8.220   2.330   1.365  1.00  0.00     0.036 C 
HETATM   44  C31 UNL     1       7.248   1.048  -0.548  1.00  0.00     0.036 C 
HETATM   45  O4  UNL     1       6.928   0.346   1.699  1.00  0.00    -0.223 OA
ENDBRANCH  24  42
TORSDOF 3
