REMARK  4 active torsions:
REMARK  status: ('A' for Active; 'I' for Inactive)
REMARK    1  A    between atoms: C1_1  and  C13_20 
REMARK    2  A    between atoms: C2_2  and  O2_8 
REMARK    3  A    between atoms: O2_8  and  C7_9 
REMARK    4  A    between atoms: C11_13  and  C12_15 
ROOT
HETATM    1  C7  UNL     1       1.040  -1.399  -0.772  1.00  0.00     0.274 C 
HETATM    2  C8  UNL     1       0.576  -2.819  -0.536  1.00  0.00     0.241 C 
HETATM    3  C9  UNL     1      -0.936  -2.909  -0.527  1.00  0.00     0.220 C 
HETATM    4  C10 UNL     1      -1.489  -2.269  -1.787  1.00  0.00     0.215 C 
HETATM    5  C11 UNL     1      -0.935  -0.875  -2.046  1.00  0.00     0.184 C 
HETATM    6  O3  UNL     1       0.462  -0.811  -1.917  1.00  0.00    -0.326 OA
HETATM    7  O5  UNL     1      -1.178  -3.096  -2.890  1.00  0.00    -0.218 OA
HETATM    8  O6  UNL     1      -1.464  -2.290   0.628  1.00  0.00    -0.218 OA
HETATM    9  O7  UNL     1       1.087  -3.641  -1.561  1.00  0.00    -0.215 OA
ENDROOT
BRANCH   1  10
HETATM   10  O2  UNL     1       0.725  -0.633   0.359  1.00  0.00    -0.304 OA
BRANCH  10  11
HETATM   11  C2  UNL     1       1.092   0.684   0.480  1.00  0.00     0.100 A 
HETATM   12  C1  UNL     1       0.517   1.460   1.435  1.00  0.00     0.059 A 
HETATM   13  C6  UNL     1       0.855   2.761   1.529  1.00  0.00     0.032 A 
HETATM   14  C5  UNL     1       1.743   3.346   0.710  1.00  0.00     0.131 A 
HETATM   15  C4  UNL     1       2.300   2.579  -0.236  1.00  0.00     0.029 A 
HETATM   16  O1  UNL     1       2.059   4.664   0.833  1.00  0.00    -0.190 OA
HETATM   17  C3  UNL     1       1.974   1.284  -0.345  1.00  0.00     0.026 A 
BRANCH  12  18
HETATM   18  C13 UNL     1      -0.397   0.923   2.300  1.00  0.00     0.175 C 
HETATM   19  C14 UNL     1      -1.063   1.772   3.377  1.00  0.00     0.077 C 
HETATM   20  O8  UNL     1      -0.739  -0.239   2.271  1.00  0.00    -0.291 OA
ENDBRANCH  12  18
ENDBRANCH  10  11
ENDBRANCH   1  10
BRANCH   5  21
HETATM   21  C12 UNL     1      -1.681   0.219  -1.288  1.00  0.00     0.214 C 
HETATM   22  O4  UNL     1      -1.120   1.488  -1.558  1.00  0.00    -0.218 OA
ENDBRANCH   5  21
TORSDOF 4
