REMARK  2 active torsions:
REMARK  status: ('A' for Active; 'I' for Inactive)
REMARK    1  A    between atoms: O1_1  and  C1_2 
REMARK    2  A    between atoms: C10_12  and  O2_13 
ROOT
HETATM    1  C1  UNL     1       2.902   1.903  -1.252  1.00  0.00     0.139 C 
HETATM    2  C2  UNL     1       3.065   0.721  -0.292  1.00  0.00     0.068 C 
HETATM    3  C3  UNL     1       1.718  -0.000  -0.122  1.00  0.00     0.230 C 
HETATM    4  N1  UNL     1       1.765  -1.094   0.831  1.00  0.00     0.140 N 
HETATM    5  C4  UNL     1       1.779  -0.467   2.147  1.00  0.00     0.251 C 
HETATM    6  C5  UNL     1       1.062   0.886   2.002  1.00  0.00     0.045 C 
HETATM    7  C6  UNL     1       0.655   0.909   0.514  1.00  0.00     0.069 C 
HETATM    8  C7  UNL     1      -0.683   0.184   0.423  1.00  0.00    -0.015 A 
HETATM    9  C8  UNL     1      -0.708  -1.167   0.509  1.00  0.00     0.032 A 
HETATM   10  C9  UNL     1       0.598  -1.944   0.640  1.00  0.00     0.278 C 
HETATM   11  C10 UNL     1      -1.860  -1.885   0.478  1.00  0.00     0.116 A 
HETATM   12  C12 UNL     1      -2.994  -1.166   0.371  1.00  0.00     0.141 A 
HETATM   13  O3  UNL     1      -4.154  -1.573   0.330  1.00  0.00    -0.298 OA
HETATM   14  C13 UNL     1      -5.030  -0.452   0.231  1.00  0.00     0.304 A 
HETATM   15  O4  UNL     1      -4.115   0.639   0.226  1.00  0.00    -0.299 OA
HETATM   16  C14 UNL     1      -2.984   0.169   0.305  1.00  0.00     0.121 A 
HETATM   17  C15 UNL     1      -1.841   0.860   0.335  1.00  0.00     0.022 A 
HETATM   18  C16 UNL     1       0.725   2.308  -0.049  1.00  0.00    -0.023 C 
HETATM   19  C17 UNL     1       1.732   2.754  -0.816  1.00  0.00    -0.001 C 
ENDROOT
BRANCH   1  20
HETATM   20  O1  UNL     1       2.738   1.401  -2.561  1.00  0.00    -0.350 OA
HETATM   21  C18 UNL     1       2.854   2.396  -3.555  1.00  0.00     0.175 C 
ENDBRANCH   1  20
BRANCH  11  22
HETATM   22  O2  UNL     1      -1.778  -3.258   0.555  1.00  0.00    -0.326 OA
HETATM   23  C11 UNL     1      -2.939  -4.051   0.501  1.00  0.00     0.181 C 
ENDBRANCH  11  22
TORSDOF 2
