REMARK  10 active torsions:
REMARK  status: ('A' for Active; 'I' for Inactive)
REMARK    1  A    between atoms: C1_2  and  C2_3 
REMARK    2  A    between atoms: C1_2  and  C5_6 
REMARK    3  A    between atoms: C2_3  and  C3_4 
REMARK    4  A    between atoms: C5_6  and  C6_7 
REMARK    5  A    between atoms: C6_7  and  C7_8 
REMARK    6  A    between atoms: C8_9  and  C9_10 
REMARK    7  A    between atoms: C10_11  and  C11_12 
REMARK    8  A    between atoms: C12_13  and  C13_14 
REMARK    9  A    between atoms: C14_15  and  C15_16 
REMARK   10  A    between atoms: C16_17  and  C17_18 
ROOT
HETATM    1  C9  UNL     1       0.436   0.664  -0.853  1.00  0.00     0.009 C 
HETATM    2  C10 UNL     1       0.473   2.006  -0.853  1.00  0.00     0.050 C 
ENDROOT
BRANCH   1   3
HETATM    3  C8  UNL     1      -0.680  -0.024  -1.151  1.00  0.00    -0.004 C 
HETATM    4  C7  UNL     1      -0.744  -1.366  -1.151  1.00  0.00    -0.026 C 
BRANCH   4   5
HETATM    5  C6  UNL     1      -2.005  -2.134  -1.467  1.00  0.00     0.034 C 
BRANCH   5   6
HETATM    6  C5  UNL     1      -2.529  -2.856  -0.216  1.00  0.00     0.069 C 
BRANCH   6   7
HETATM    7  C1  UNL     1      -3.889  -3.510  -0.407  1.00  0.00     0.151 C 
HETATM    8  O1  UNL     1      -4.442  -3.533  -1.483  1.00  0.00    -0.296 OA
BRANCH   7   9
HETATM    9  C2  UNL     1      -4.547  -4.129   0.816  1.00  0.00     0.065 C 
BRANCH   9  10
HETATM   10  C3  UNL     1      -5.762  -3.325   1.305  1.00  0.00     0.008 C 
HETATM   11  C4  UNL     1      -5.383  -1.920   1.790  1.00  0.00     0.001 C 
ENDBRANCH   9  10
ENDBRANCH   7   9
ENDBRANCH   6   7
ENDBRANCH   5   6
ENDBRANCH   4   5
ENDBRANCH   1   3
BRANCH   2  12
HETATM   12  C11 UNL     1       1.571   2.665  -0.557  1.00  0.00    -0.050 C 
HETATM   13  C12 UNL     1       2.579   3.283  -0.286  1.00  0.00    -0.009 C 
BRANCH  13  14
HETATM   14  C13 UNL     1       3.584   3.906  -0.019  1.00  0.00    -0.009 C 
HETATM   15  C14 UNL     1       4.590   4.528   0.242  1.00  0.00    -0.051 C 
BRANCH  15  16
HETATM   16  C15 UNL     1       5.684   5.202   0.521  1.00  0.00     0.048 C 
HETATM   17  C16 UNL     1       6.909   4.764   0.194  1.00  0.00     0.018 C 
BRANCH  17  18
HETATM   18  C17 UNL     1       7.217   3.474  -0.519  1.00  0.00     0.209 C 
HETATM   19  O2  UNL     1       8.002   2.624   0.307  1.00  0.00    -0.215 OA
ENDBRANCH  17  18
ENDBRANCH  15  16
ENDBRANCH  13  14
ENDBRANCH   2  12
TORSDOF 10
