REMARK  4 active torsions:
REMARK  status: ('A' for Active; 'I' for Inactive)
REMARK    1  A    between atoms: C4_4  and  O3_9 
REMARK    2  A    between atoms: C5_6  and  C6_7 
REMARK    3  A    between atoms: O3_9  and  C7_10 
REMARK    4  A    between atoms: C7_10  and  C9_12 
ROOT
HETATM    1  C1  UNL     1      -2.652  -0.329  -0.607  1.00  0.00     0.215 C 
HETATM    2  C2  UNL     1      -1.928  -1.663  -0.565  1.00  0.00     0.220 C 
HETATM    3  C3  UNL     1      -0.898  -1.631   0.544  1.00  0.00     0.241 C 
HETATM    4  C4  UNL     1       0.022  -0.455   0.333  1.00  0.00     0.270 C 
HETATM    5  O1  UNL     1      -0.727   0.740   0.381  1.00  0.00    -0.326 OA
HETATM    6  C5  UNL     1      -1.663   0.834  -0.659  1.00  0.00     0.184 C 
HETATM    7  O4  UNL     1      -0.152  -2.822   0.515  1.00  0.00    -0.215 OA
HETATM    8  O5  UNL     1      -2.825  -2.714  -0.298  1.00  0.00    -0.218 OA
HETATM    9  O6  UNL     1      -3.470  -0.291  -1.754  1.00  0.00    -0.218 OA
ENDROOT
BRANCH   4  10
HETATM   10  O3  UNL     1       0.917  -0.369   1.424  1.00  0.00    -0.332 OA
BRANCH  10  11
HETATM   11  C7  UNL     1       2.269  -0.249   1.068  1.00  0.00     0.118 C 
HETATM   12  C8  UNL     1       3.081  -0.328   2.365  1.00  0.00     0.032 C 
BRANCH  11  13
HETATM   13  C9  UNL     1       2.579   1.046   0.299  1.00  0.00     0.030 C 
HETATM   14  C10 UNL     1       3.164   0.778  -1.096  1.00  0.00     0.003 C 
ENDBRANCH  11  13
ENDBRANCH  10  11
ENDBRANCH   4  10
BRANCH   6  15
HETATM   15  C6  UNL     1      -2.362   2.189  -0.547  1.00  0.00     0.214 C 
HETATM   16  O2  UNL     1      -2.062   2.985  -1.675  1.00  0.00    -0.218 OA
ENDBRANCH   6  15
TORSDOF 4
