REMARK  3 active torsions:
REMARK  status: ('A' for Active; 'I' for Inactive)
REMARK    1  A    between atoms: C2_2  and  C3_3 
REMARK    2  A    between atoms: C3_3  and  C4_4 
REMARK    3  A    between atoms: C4_4  and  N1_5 
ROOT
HETATM    1  N1  UNL     1       2.127  -0.995  -0.683  1.00  0.00    -0.258 NA
HETATM    2  C5  UNL     1       2.886  -0.550  -1.571  1.00  0.00     0.158 C 
HETATM    3  S1  UNL     1       3.821  -0.001  -2.663  1.00  0.00    -0.055 SA
ENDROOT
BRANCH   1   4
HETATM    4  C4  UNL     1       0.800  -0.337  -0.658  1.00  0.00     0.127 C 
BRANCH   4   5
HETATM    5  C3  UNL     1       0.022  -0.759   0.599  1.00  0.00     0.026 C 
BRANCH   5   6
HETATM    6  C2  UNL     1      -1.424  -0.237   0.638  1.00  0.00     0.002 C 
HETATM    7  C1  UNL     1      -1.529   1.292   0.705  1.00  0.00     0.000 C 
ENDBRANCH   5   6
ENDBRANCH   4   5
ENDBRANCH   1   4
TORSDOF 3
