REMARK  1 active torsions:
REMARK  status: ('A' for Active; 'I' for Inactive)
REMARK    1  A    between atoms: C2_2  and  N1_26 
ROOT
HETATM    1  C1  UNL     1      -2.972  -0.171  -1.805  1.00  0.00     0.033 C 
HETATM    2  C2  UNL     1      -3.032  -1.708  -1.701  1.00  0.00     0.220 C 
HETATM    3  C3  UNL     1      -1.624  -2.373  -1.545  1.00  0.00     0.033 C 
HETATM    4  C4  UNL     1      -0.882  -1.693  -0.351  1.00  0.00     0.024 C 
HETATM    5  C5  UNL     1      -0.830  -0.169  -0.478  1.00  0.00     0.004 A 
HETATM    6  C6  UNL     1      -2.210   0.452  -0.629  1.00  0.00     0.002 C 
HETATM    7  C7  UNL     1       0.255   0.607   0.245  1.00  0.00     0.004 A 
HETATM    8  C8  UNL     1       1.161  -0.208   1.167  1.00  0.00     0.022 C 
HETATM    9  C9  UNL     1       1.409  -1.597   0.651  1.00  0.00    -0.031 C 
HETATM   10  C10 UNL     1       0.479  -2.272  -0.038  1.00  0.00    -0.031 C 
HETATM   11  C11 UNL     1       2.443   0.588   1.474  1.00  0.00     0.015 C 
HETATM   12  C12 UNL     1       2.093   1.917   2.211  1.00  0.00     0.022 C 
HETATM   13  C13 UNL     1       1.269   2.787   1.244  1.00  0.00     0.004 C 
HETATM   14  C14 UNL     1       0.017   2.040   0.726  1.00  0.00     0.001 C 
HETATM   15  C15 UNL     1       3.490   2.312   2.677  1.00  0.00     0.008 C 
HETATM   16  C16 UNL     1       4.232   1.189   2.893  1.00  0.00     0.169 C 
HETATM   17  C17 UNL     1       3.447  -0.041   2.457  1.00  0.00     0.069 C 
HETATM   18  O1  UNL     1       5.360   1.127   3.322  1.00  0.00    -0.292 OA
HETATM   19  C18 UNL     1       4.013   3.525   2.927  1.00  0.00    -0.027 C 
HETATM   20  C19 UNL     1       3.357   4.872   2.808  1.00  0.00     0.030 C 
HETATM   21  C20 UNL     1       1.290   1.780   3.531  1.00  0.00     0.004 C 
HETATM   22  C21 UNL     1       3.229   0.813   0.151  1.00  0.00     0.001 C 
HETATM   23  C22 UNL     1       0.320   0.420  -1.257  1.00  0.00     0.001 A 
HETATM   24  C23 UNL     1      -1.845  -3.879  -1.237  1.00  0.00     0.002 C 
HETATM   25  C24 UNL     1      -0.770  -2.286  -2.825  1.00  0.00     0.002 C 
ENDROOT
BRANCH   2  26
HETATM   26  N1  UNL     1      -3.870  -2.341  -2.730  1.00  0.00     0.139 N 
HETATM   27  C25 UNL     1      -5.267  -2.416  -2.316  1.00  0.00     0.285 C 
HETATM   28  C26 UNL     1      -3.803  -1.721  -4.047  1.00  0.00     0.285 C 
ENDBRANCH   2  26
TORSDOF 1
