REMARK  3 active torsions:
REMARK  status: ('A' for Active; 'I' for Inactive)
REMARK    1  A    between atoms: C1_1  and  C15_20 
REMARK    2  A    between atoms: C2_2  and  O4_18 
REMARK    3  A    between atoms: C15_20  and  C16_21 
ROOT
HETATM    1  C1  UNL     1       0.645   0.618   1.514  1.00  0.00     0.030 A 
HETATM    2  C2  UNL     1      -0.286   1.529   1.149  1.00  0.00     0.094 A 
HETATM    3  C3  UNL     1      -1.344   1.070   0.455  1.00  0.00     0.043 A 
HETATM    4  C4  UNL     1      -1.485  -0.221   0.118  1.00  0.00     0.083 A 
HETATM    5  C5  UNL     1      -0.530  -1.106   0.452  1.00  0.00     0.077 A 
HETATM    6  C6  UNL     1       0.532  -0.687   1.175  1.00  0.00     0.133 A 
HETATM    7  O1  UNL     1       1.493  -1.565   1.584  1.00  0.00    -0.190 OA
HETATM    8  C7  UNL     1      -0.640  -2.404   0.047  1.00  0.00     0.182 C 
HETATM    9  C8  UNL     1      -1.756  -2.795  -0.918  1.00  0.00     0.113 C 
HETATM   10  C9  UNL     1      -2.983  -1.899  -0.792  1.00  0.00     0.162 C 
HETATM   11  N1  UNL     1      -2.562  -0.530  -0.478  1.00  0.00    -0.265 NA
HETATM   12  C10 UNL     1      -3.839  -1.863  -2.030  1.00  0.00     0.131 C 
HETATM   13  C11 UNL     1      -3.308  -2.119  -3.235  1.00  0.00     0.025 C 
HETATM   14  C12 UNL     1      -2.033  -2.501  -3.388  1.00  0.00    -0.002 C 
HETATM   15  C13 UNL     1      -1.249  -2.791  -2.340  1.00  0.00    -0.016 C 
HETATM   16  O2  UNL     1      -5.129  -1.460  -1.884  1.00  0.00    -0.193 OA
HETATM   17  O3  UNL     1       0.140  -3.284   0.336  1.00  0.00    -0.291 OA
ENDROOT
BRANCH   1  18
HETATM   18  C15 UNL     1       1.846   1.079   2.336  1.00  0.00     0.056 C 
BRANCH  18  19
HETATM   19  C16 UNL     1       3.193   0.708   1.762  1.00  0.00    -0.030 C 
HETATM   20  C17 UNL     1       3.734   1.158   0.617  1.00  0.00    -0.048 C 
HETATM   21  C18 UNL     1       5.098   0.690   0.162  1.00  0.00     0.026 C 
HETATM   22  C19 UNL     1       3.069   2.145  -0.309  1.00  0.00     0.026 C 
ENDBRANCH  18  19
ENDBRANCH   1  18
BRANCH   2  23
HETATM   23  O4  UNL     1      -0.139   2.844   1.532  1.00  0.00    -0.328 OA
HETATM   24  C14 UNL     1      -1.163   3.771   1.256  1.00  0.00     0.181 C 
ENDBRANCH   2  23
TORSDOF 3
