REMARK  2 active torsions:
REMARK  status: ('A' for Active; 'I' for Inactive)
REMARK    1  A    between atoms: C3_3  and  C14_17 
REMARK    2  A    between atoms: C14_17  and  C15_18 
ROOT
HETATM    1  C1  UNL     1       1.328  -2.193   0.275  1.00  0.00     0.047 A 
HETATM    2  C2  UNL     1       1.589  -0.869   0.184  1.00  0.00     0.094 A 
HETATM    3  C3  UNL     1       0.570  -0.029  -0.101  1.00  0.00     0.022 A 
HETATM    4  C4  UNL     1      -0.676  -0.517  -0.248  1.00  0.00     0.085 A 
HETATM    5  C5  UNL     1      -0.934  -1.832  -0.135  1.00  0.00     0.082 A 
HETATM    6  C6  UNL     1       0.077  -2.687   0.132  1.00  0.00     0.137 A 
HETATM    7  O1  UNL     1      -0.153  -4.029   0.236  1.00  0.00    -0.190 OA
HETATM    8  C7  UNL     1      -2.221  -2.267  -0.291  1.00  0.00     0.200 A 
HETATM    9  C8  UNL     1      -3.188  -1.343  -0.553  1.00  0.00     0.057 A 
HETATM   10  C9  UNL     1      -2.850  -0.048  -0.650  1.00  0.00     0.084 A 
HETATM   11  N1  UNL     1      -1.636   0.276  -0.496  1.00  0.00    -0.246 NA
HETATM   12  C10 UNL     1      -3.777   0.891  -0.902  1.00  0.00     0.019 A 
HETATM   13  C11 UNL     1      -5.060   0.535  -1.061  1.00  0.00     0.002 A 
HETATM   14  C12 UNL     1      -5.409  -0.757  -0.968  1.00  0.00     0.000 A 
HETATM   15  C13 UNL     1      -4.479  -1.692  -0.715  1.00  0.00     0.005 A 
HETATM   16  O2  UNL     1      -2.537  -3.434  -0.204  1.00  0.00    -0.286 OA
HETATM   17  O3  UNL     1       2.846  -0.339   0.347  1.00  0.00    -0.332 OA
HETATM   18  C19 UNL     1       3.950  -1.178   0.173  1.00  0.00     0.117 C 
HETATM   19  C20 UNL     1       3.618  -2.583   0.587  1.00  0.00     0.001 C 
HETATM   20  C21 UNL     1       2.354  -3.019   0.559  1.00  0.00     0.002 C 
HETATM   21  C22 UNL     1       4.339  -1.175  -1.310  1.00  0.00     0.035 C 
HETATM   22  C23 UNL     1       5.097  -0.624   1.022  1.00  0.00     0.035 C 
ENDROOT
BRANCH   3  23
HETATM   23  C14 UNL     1       0.816   1.468  -0.235  1.00  0.00     0.055 C 
BRANCH  23  24
HETATM   24  C15 UNL     1       0.079   2.221   0.844  1.00  0.00    -0.030 C 
HETATM   25  C16 UNL     1      -0.704   3.305   0.698  1.00  0.00    -0.048 C 
HETATM   26  C17 UNL     1      -1.386   3.933   1.891  1.00  0.00     0.026 C 
HETATM   27  C18 UNL     1      -0.988   4.006  -0.609  1.00  0.00     0.026 C 
ENDBRANCH  23  24
ENDBRANCH   3  23
TORSDOF 2
