REMARK  8 active torsions:
REMARK  status: ('A' for Active; 'I' for Inactive)
REMARK    1  A    between atoms: C3_3  and  O3_9 
REMARK    2  A    between atoms: C5_6  and  C6_7 
REMARK    3  A    between atoms: O3_9  and  C7_10 
REMARK    4  A    between atoms: C8_12  and  C12_19 
REMARK    5  A    between atoms: C14_22  and  O9_24 
REMARK    6  A    between atoms: O9_24  and  C16_25 
REMARK    7  A    between atoms: C16_25  and  C17_27 
REMARK    8  A    between atoms: C18_28  and  C19_29 
ROOT
HETATM    1  C1  UNL     1       1.429   2.148   1.601  1.00  0.00     0.160 C 
HETATM    2  C2  UNL     1       1.404   0.619   1.610  1.00  0.00     0.119 C 
HETATM    3  C3  UNL     1       2.576   0.119   0.771  1.00  0.00     0.247 C 
HETATM    4  O1  UNL     1       3.756   0.444   1.439  1.00  0.00    -0.304 OA
HETATM    5  C4  UNL     1       3.874   1.804   1.556  1.00  0.00     0.120 C 
HETATM    6  C5  UNL     1       2.834   2.654   1.615  1.00  0.00     0.072 C 
HETATM    7  C13 UNL     1       0.087   0.255   0.960  1.00  0.00     0.160 C 
HETATM    8  C14 UNL     1      -0.262   1.444   0.136  1.00  0.00     0.155 C 
HETATM    9  C15 UNL     1       0.737   2.547   0.310  1.00  0.00     0.068 C 
HETATM   10  O12 UNL     1      -0.897  -0.001   1.914  1.00  0.00    -0.223 OA
HETATM   11  C25 UNL     1       0.145  -0.934   0.060  1.00  0.00     0.036 C 
HETATM   12  O13 UNL     1       0.729   2.657   2.715  1.00  0.00    -0.221 OA
ENDROOT
BRANCH   3  13
HETATM   13  O3  UNL     1       2.547  -1.275   0.680  1.00  0.00    -0.304 OA
BRANCH  13  14
HETATM   14  C7  UNL     1       3.484  -1.951  -0.120  1.00  0.00     0.272 C 
HETATM   15  O4  UNL     1       2.844  -2.622  -1.201  1.00  0.00    -0.326 OA
HETATM   16  C8  UNL     1       1.788  -3.410  -0.736  1.00  0.00     0.184 C 
HETATM   17  C9  UNL     1       2.246  -4.505   0.186  1.00  0.00     0.215 C 
HETATM   18  C10 UNL     1       3.118  -3.973   1.306  1.00  0.00     0.220 C 
HETATM   19  O7  UNL     1       2.992  -5.328  -0.655  1.00  0.00    -0.218 OA
HETATM   20  C11 UNL     1       4.135  -2.981   0.766  1.00  0.00     0.241 C 
HETATM   21  O6  UNL     1       2.279  -3.330   2.232  1.00  0.00    -0.218 OA
HETATM   22  O5  UNL     1       5.064  -3.707   0.009  1.00  0.00    -0.215 OA
BRANCH  16  23
HETATM   23  C12 UNL     1       0.847  -3.841  -1.826  1.00  0.00     0.214 C 
HETATM   24  O8  UNL     1      -0.429  -3.259  -1.650  1.00  0.00    -0.218 OA
ENDBRANCH  16  23
ENDBRANCH  13  14
ENDBRANCH   3  13
BRANCH   6  25
HETATM   25  C6  UNL     1       3.030   3.993   1.697  1.00  0.00     0.234 C 
HETATM   26  O2  UNL     1       2.104   4.765   1.779  1.00  0.00    -0.283 OA
ENDBRANCH   6  25
BRANCH   8  27
HETATM   27  O9  UNL     1      -1.448   1.913   0.582  1.00  0.00    -0.298 OA
BRANCH  27  28
HETATM   28  C16 UNL     1      -2.417   1.911  -0.306  1.00  0.00     0.296 C 
HETATM   29  O10 UNL     1      -3.187   2.361   0.525  1.00  0.00    -0.259 OA
BRANCH  28  30
HETATM   30  C17 UNL     1      -2.475   1.558  -1.579  1.00  0.00     0.068 C 
HETATM   31  C18 UNL     1      -3.535   1.611  -2.436  1.00  0.00     0.005 C 
BRANCH  31  32
HETATM   32  C19 UNL     1      -4.754   2.052  -2.104  1.00  0.00     0.000 A 
HETATM   33  C20 UNL     1      -5.806   2.116  -2.914  1.00  0.00     0.002 A 
HETATM   34  C21 UNL     1      -6.978   2.580  -2.449  1.00  0.00     0.027 A 
HETATM   35  C22 UNL     1      -7.201   3.005  -1.190  1.00  0.00     0.131 A 
HETATM   36  C23 UNL     1      -6.219   2.978  -0.313  1.00  0.00     0.027 A 
HETATM   37  O11 UNL     1      -8.375   3.469  -0.760  1.00  0.00    -0.190 OA
HETATM   38  C24 UNL     1      -5.139   2.501  -0.918  1.00  0.00     0.002 A 
ENDBRANCH  31  32
ENDBRANCH  28  30
ENDBRANCH  27  28
ENDBRANCH   8  27
TORSDOF 8
