REMARK  0 active torsions:
REMARK  status: ('A' for Active; 'I' for Inactive)
ROOT
HETATM    1  C1  UNL     1      -0.989  -2.182  -2.093  1.00  0.00     0.005 C 
HETATM    2  C2  UNL     1       0.084  -2.243  -0.976  1.00  0.00     0.026 C 
HETATM    3  C3  UNL     1      -0.498  -1.661   0.365  1.00  0.00     0.131 C 
HETATM    4  C4  UNL     1      -1.291  -0.296   0.220  1.00  0.00     0.055 C 
HETATM    5  C5  UNL     1      -2.209  -0.315  -1.021  1.00  0.00     0.154 C 
HETATM    6  C6  UNL     1      -1.523  -0.763  -2.300  1.00  0.00     0.033 C 
HETATM    7  O1  UNL     1      -2.832   0.928  -1.236  1.00  0.00    -0.223 OA
HETATM    8  C7  UNL     1      -0.418   1.003   0.353  1.00  0.00     0.014 C 
HETATM    9  C8  UNL     1       0.710   0.829   1.370  1.00  0.00     0.042 C 
HETATM   10  C9  UNL     1       1.458  -0.476   1.468  1.00  0.00     0.128 C 
HETATM   11  C10 UNL     1       0.491  -1.637   1.568  1.00  0.00     0.061 C 
HETATM   12  O2  UNL     1       2.342  -0.224   2.532  1.00  0.00    -0.304 OA
HETATM   13  C11 UNL     1       2.664   1.123   2.491  1.00  0.00     0.276 C 
HETATM   14  C12 UNL     1       1.969   1.690   1.265  1.00  0.00     0.113 C 
HETATM   15  C13 UNL     1       1.485   3.058   0.968  1.00  0.00     0.008 A 
HETATM   16  C14 UNL     1       0.588   3.205  -0.051  1.00  0.00     0.074 A 
HETATM   17  C15 UNL     1      -0.007   2.000  -0.760  1.00  0.00     0.051 C 
HETATM   18  O3  UNL     1       0.262   4.524  -0.175  1.00  0.00    -0.310 OA
HETATM   19  C16 UNL     1       0.993   5.191   0.771  1.00  0.00     0.122 A 
HETATM   20  C17 UNL     1       1.771   4.345   1.506  1.00  0.00     0.025 A 
HETATM   21  O4  UNL     1       3.385   1.708   3.267  1.00  0.00    -0.264 OA
HETATM   22  C18 UNL     1      -2.310  -0.200   1.419  1.00  0.00     0.005 C 
HETATM   23  O5  UNL     1      -1.450  -2.629   0.758  1.00  0.00    -0.226 OA
HETATM   24  C19 UNL     1       0.478  -3.742  -0.850  1.00  0.00     0.002 C 
HETATM   25  C20 UNL     1       1.350  -1.554  -1.534  1.00  0.00     0.002 C 
ENDROOT
TORSDOF 0
