REMARK  4 active torsions:
REMARK  status: ('A' for Active; 'I' for Inactive)
REMARK    1  A    between atoms: C1_1  and  O5_27 
REMARK    2  A    between atoms: C6_6  and  O1_7 
REMARK    3  A    between atoms: O1_7  and  C7_8 
REMARK    4  A    between atoms: O5_27  and  C23_28 
ROOT
HETATM    1  C1  UNL     1       0.763  -1.008  -1.158  1.00  0.00     0.104 C 
HETATM    2  C2  UNL     1       1.526  -1.625   0.330  1.00  0.00    -0.002 C 
HETATM    3  C3  UNL     1       0.708  -1.789   1.860  1.00  0.00     0.046 C 
HETATM    4  C4  UNL     1      -0.948  -1.140   1.855  1.00  0.00     0.133 C 
HETATM    5  C5  UNL     1      -1.567   0.005   0.523  1.00  0.00     0.061 C 
HETATM    6  C6  UNL     1      -0.731  -0.069  -1.118  1.00  0.00     0.171 C 
HETATM    7  C9  UNL     1      -0.922   1.128   1.225  1.00  0.00     0.030 C 
HETATM    8  C10 UNL     1       0.167   0.138   0.712  1.00  0.00    -0.044 C 
HETATM    9  C11 UNL     1      -0.657  -1.658   0.270  1.00  0.00     0.025 C 
HETATM   10  C12 UNL     1      -1.673  -2.261   1.262  1.00  0.00     0.035 C 
HETATM   11  C13 UNL     1       1.315   1.183   0.166  1.00  0.00    -0.006 C 
HETATM   12  C14 UNL     1       1.143   2.647   0.416  1.00  0.00     0.020 A 
HETATM   13  C15 UNL     1      -0.044   3.275   0.649  1.00  0.00     0.078 A 
HETATM   14  C16 UNL     1      -1.309   2.517   0.718  1.00  0.00     0.056 C 
HETATM   15  O3  UNL     1       0.095   4.607   0.895  1.00  0.00    -0.309 OA
HETATM   16  C17 UNL     1       1.430   4.852   0.840  1.00  0.00     0.122 A 
HETATM   17  C18 UNL     1       2.111   3.707   0.562  1.00  0.00     0.028 A 
HETATM   18  C19 UNL     1       2.592   1.024  -0.269  1.00  0.00    -0.001 C 
HETATM   19  C20 UNL     1      -3.095   0.162   0.428  1.00  0.00     0.006 C 
HETATM   20  O4  UNL     1      -1.445  -0.910   3.141  1.00  0.00    -0.226 OA
HETATM   21  C21 UNL     1       1.529  -1.237   3.087  1.00  0.00     0.007 C 
HETATM   22  C22 UNL     1       0.806  -3.318   2.218  1.00  0.00     0.007 C 
ENDROOT
BRANCH   1  23
HETATM   23  O5  UNL     1       1.702  -0.477  -2.053  1.00  0.00    -0.279 OA
BRANCH  23  24
HETATM   24  C23 UNL     1       1.709  -0.635  -3.409  1.00  0.00     0.277 C 
HETATM   25  O6  UNL     1       2.559  -0.120  -4.106  1.00  0.00    -0.264 OA
HETATM   26  C24 UNL     1       0.625  -1.497  -4.031  1.00  0.00     0.107 C 
ENDBRANCH  23  24
ENDBRANCH   1  23
BRANCH   6  27
HETATM   27  O1  UNL     1      -0.480   1.185  -1.694  1.00  0.00    -0.298 OA
BRANCH  27  28
HETATM   28  C7  UNL     1      -1.232   1.798  -2.657  1.00  0.00     0.273 C 
HETATM   29  O2  UNL     1      -0.918   2.877  -3.113  1.00  0.00    -0.264 OA
HETATM   30  C8  UNL     1      -2.495   1.102  -3.132  1.00  0.00     0.106 C 
ENDBRANCH  27  28
ENDBRANCH   6  27
TORSDOF 4
