REMARK  4 active torsions:
REMARK  status: ('A' for Active; 'I' for Inactive)
REMARK    1  A    between atoms: C2_2  and  O5_27 
REMARK    2  A    between atoms: C6_6  and  O1_7 
REMARK    3  A    between atoms: O1_7  and  C7_8 
REMARK    4  A    between atoms: O5_27  and  C23_28 
ROOT
HETATM    1  C1  UNL     1      -2.715   0.306   0.589  1.00  0.00     0.061 C 
HETATM    2  C2  UNL     1      -2.696  -1.175   0.203  1.00  0.00     0.129 C 
HETATM    3  C3  UNL     1      -1.507  -1.938   0.840  1.00  0.00     0.052 C 
HETATM    4  C4  UNL     1      -0.175  -1.137   0.680  1.00  0.00     0.135 C 
HETATM    5  C5  UNL     1      -0.198   0.369   1.069  1.00  0.00     0.070 C 
HETATM    6  C6  UNL     1      -1.392   1.037   0.342  1.00  0.00     0.133 C 
HETATM    7  C9  UNL     1       1.151   1.018   0.695  1.00  0.00    -0.021 A 
HETATM    8  C10 UNL     1       2.354   0.253   0.618  1.00  0.00    -0.030 A 
HETATM    9  C11 UNL     1       2.343  -1.240   0.868  1.00  0.00     0.028 C 
HETATM   10  C12 UNL     1       1.014  -1.803   1.380  1.00  0.00     0.036 C 
HETATM   11  C13 UNL     1       3.584   0.848   0.311  1.00  0.00    -0.024 A 
HETATM   12  C14 UNL     1       3.608   2.243   0.115  1.00  0.00     0.021 A 
HETATM   13  C15 UNL     1       2.447   3.000   0.209  1.00  0.00     0.099 A 
HETATM   14  C16 UNL     1       1.217   2.396   0.506  1.00  0.00     0.020 A 
HETATM   15  O3  UNL     1       2.713   4.328   0.005  1.00  0.00    -0.305 OA
HETATM   16  C17 UNL     1       4.064   4.409  -0.219  1.00  0.00     0.123 A 
HETATM   17  C18 UNL     1       4.662   3.190  -0.169  1.00  0.00     0.028 A 
HETATM   18  C19 UNL     1       4.862   0.051   0.194  1.00  0.00     0.031 C 
HETATM   19  C20 UNL     1      -0.296   0.692   2.583  1.00  0.00     0.009 C 
HETATM   20  O4  UNL     1       0.130  -1.174  -0.698  1.00  0.00    -0.226 OA
HETATM   21  C21 UNL     1      -1.869  -2.270   2.311  1.00  0.00     0.005 C 
HETATM   22  C22 UNL     1      -1.414  -3.340   0.166  1.00  0.00     0.005 C 
ENDROOT
BRANCH   2  23
HETATM   23  O5  UNL     1      -2.683  -1.269  -1.197  1.00  0.00    -0.304 OA
BRANCH  23  24
HETATM   24  C23 UNL     1      -3.712  -1.883  -1.841  1.00  0.00     0.272 C 
HETATM   25  C24 UNL     1      -3.454  -1.892  -3.334  1.00  0.00     0.106 C 
HETATM   26  O6  UNL     1      -4.691  -2.364  -1.316  1.00  0.00    -0.264 OA
ENDBRANCH  23  24
ENDBRANCH   2  23
BRANCH   6  27
HETATM   27  O1  UNL     1      -1.104   1.110  -1.026  1.00  0.00    -0.304 OA
BRANCH  27  28
HETATM   28  C7  UNL     1      -1.749   2.033  -1.787  1.00  0.00     0.272 C 
HETATM   29  C8  UNL     1      -1.296   1.916  -3.228  1.00  0.00     0.106 C 
HETATM   30  O2  UNL     1      -2.566   2.829  -1.382  1.00  0.00    -0.264 OA
ENDBRANCH  27  28
ENDBRANCH   6  27
TORSDOF 4
