REMARK  1 active torsions:
REMARK  status: ('A' for Active; 'I' for Inactive)
REMARK    1  A    between atoms: C12_13  and  C15_16 
ROOT
HETATM    1  C1  UNL     1      -2.498  -0.107  -2.273  1.00  0.00     0.033 C 
HETATM    2  C2  UNL     1      -3.359  -0.923  -1.320  1.00  0.00     0.152 C 
HETATM    3  C3  UNL     1      -2.497  -1.764  -0.355  1.00  0.00     0.028 C 
HETATM    4  C4  UNL     1      -1.090  -1.121  -0.131  1.00  0.00     0.005 C 
HETATM    5  C5  UNL     1      -0.971   0.428  -0.215  1.00  0.00     0.001 C 
HETATM    6  C6  UNL     1      -1.644   0.929  -1.526  1.00  0.00     0.003 C 
HETATM    7  C7  UNL     1       0.551   0.816  -0.240  1.00  0.00     0.007 C 
HETATM    8  C8  UNL     1       1.401   0.182   0.882  1.00  0.00     0.035 C 
HETATM    9  C9  UNL     1       1.133  -1.317   1.030  1.00  0.00     0.152 C 
HETATM   10  C10 UNL     1      -0.350  -1.661   1.106  1.00  0.00     0.033 C 
HETATM   11  O1  UNL     1       1.778  -1.807   2.182  1.00  0.00    -0.224 OA
HETATM   12  C11 UNL     1       2.911   0.485   0.703  1.00  0.00     0.025 C 
HETATM   13  C12 UNL     1       3.192   1.956   0.456  1.00  0.00    -0.027 C 
HETATM   14  C13 UNL     1       2.220   2.761  -0.020  1.00  0.00    -0.030 C 
HETATM   15  C14 UNL     1       0.797   2.337  -0.260  1.00  0.00     0.026 C 
HETATM   16  C17 UNL     1       3.614  -0.331  -0.400  1.00  0.00     0.005 C 
HETATM   17  C18 UNL     1      -1.658   1.105   0.998  1.00  0.00     0.000 C 
HETATM   18  C19 UNL     1      -2.289  -3.149  -1.037  1.00  0.00     0.003 C 
HETATM   19  C20 UNL     1      -3.268  -2.070   0.950  1.00  0.00     0.003 C 
HETATM   20  O2  UNL     1      -4.231  -0.051  -0.640  1.00  0.00    -0.224 OA
ENDROOT
BRANCH  13  21
HETATM   21  C15 UNL     1       4.549   2.453   0.739  1.00  0.00    -0.005 C 
HETATM   22  C16 UNL     1       4.990   3.722   0.628  1.00  0.00    -0.000 C 
ENDBRANCH  13  21
TORSDOF 1
