REMARK  5 active torsions:
REMARK  status: ('A' for Active; 'I' for Inactive)
REMARK    1  A    between atoms: C6_6  and  O1_7 
REMARK    2  A    between atoms: O1_7  and  C7_8 
REMARK    3  A    between atoms: C12_14  and  O3_15 
REMARK    4  A    between atoms: O3_15  and  C13_16 
REMARK    5  A    between atoms: C15_20  and  C21_27 
ROOT
HETATM    1  C1  UNL     1       1.794  -0.230  -0.234  1.00  0.00     0.031 C 
HETATM    2  C2  UNL     1       1.320  -1.596   1.123  1.00  0.00     0.005 C 
HETATM    3  C3  UNL     1      -0.640  -1.964   1.267  1.00  0.00     0.029 C 
HETATM    4  C4  UNL     1      -1.426  -1.057  -0.091  1.00  0.00     0.160 C 
HETATM    5  C5  UNL     1      -1.011   0.463  -0.425  1.00  0.00     0.069 C 
HETATM    6  C6  UNL     1       0.507   0.627  -1.133  1.00  0.00     0.130 C 
HETATM    7  C9  UNL     1      -0.500   1.102   0.837  1.00  0.00    -0.038 C 
HETATM    8  C10 UNL     1       0.340  -0.151   1.003  1.00  0.00    -0.005 C 
HETATM    9  C11 UNL     1       0.344  -1.655  -0.372  1.00  0.00     0.201 C 
HETATM   10  C12 UNL     1      -0.879  -1.859  -1.228  1.00  0.00     0.186 C 
HETATM   11  O5  UNL     1       0.699  -3.175  -0.122  1.00  0.00    -0.216 OA
HETATM   12  C15 UNL     1       1.595   0.521   2.018  1.00  0.00     0.131 C 
HETATM   13  C16 UNL     1       1.484   2.001   2.304  1.00  0.00     0.013 A 
HETATM   14  C17 UNL     1       0.304   2.678   2.465  1.00  0.00     0.079 A 
HETATM   15  C18 UNL     1      -0.992   1.972   2.031  1.00  0.00     0.073 C 
HETATM   16  O6  UNL     1       0.581   4.029   2.488  1.00  0.00    -0.309 OA
HETATM   17  C19 UNL     1       1.931   4.175   2.359  1.00  0.00     0.122 A 
HETATM   18  C20 UNL     1       2.538   2.961   2.251  1.00  0.00     0.025 A 
HETATM   19  C22 UNL     1      -2.213   1.299  -0.912  1.00  0.00     0.009 C 
HETATM   20  O9  UNL     1      -2.814  -1.244  -0.253  1.00  0.00    -0.223 OA
HETATM   21  C23 UNL     1      -1.413  -3.378   1.210  1.00  0.00     0.003 C 
HETATM   22  C24 UNL     1      -1.531  -1.496   2.566  1.00  0.00     0.003 C 
ENDROOT
BRANCH   6  23
HETATM   23  O1  UNL     1       0.805   2.017  -1.306  1.00  0.00    -0.304 OA
BRANCH  23  24
HETATM   24  C7  UNL     1       0.524   2.851  -2.338  1.00  0.00     0.272 C 
HETATM   25  O2  UNL     1       0.723   4.043  -2.240  1.00  0.00    -0.264 OA
HETATM   26  C8  UNL     1      -0.033   2.274  -3.617  1.00  0.00     0.106 C 
ENDBRANCH  23  24
ENDBRANCH   6  23
BRANCH  10  27
HETATM   27  O3  UNL     1      -0.679  -1.343  -2.511  1.00  0.00    -0.299 OA
BRANCH  27  28
HETATM   28  C13 UNL     1      -0.785  -2.108  -3.618  1.00  0.00     0.273 C 
HETATM   29  C14 UNL     1      -0.331  -1.276  -4.810  1.00  0.00     0.106 C 
HETATM   30  O4  UNL     1      -1.101  -3.264  -3.665  1.00  0.00    -0.264 OA
ENDBRANCH  27  28
ENDBRANCH  10  27
BRANCH  12  31
HETATM   31  C21 UNL     1       1.947  -0.034   3.404  1.00  0.00     0.193 C 
HETATM   32  O7  UNL     1       3.011  -0.546   3.688  1.00  0.00    -0.647 OA
HETATM   33  O8  UNL     1       1.022   0.192   4.335  1.00  0.00    -0.647 OA
ENDBRANCH  12  31
TORSDOF 5
