REMARK  4 active torsions:
REMARK  status: ('A' for Active; 'I' for Inactive)
REMARK    1  A    between atoms: C6_6  and  O1_7 
REMARK    2  A    between atoms: O1_7  and  C7_8 
REMARK    3  A    between atoms: C11_13  and  O3_15 
REMARK    4  A    between atoms: O3_15  and  C13_16 
ROOT
HETATM    1  C1  UNL     1       1.529  -0.317  -0.963  1.00  0.00     0.030 C 
HETATM    2  C2  UNL     1       0.984  -1.495   0.501  1.00  0.00     0.005 C 
HETATM    3  C3  UNL     1      -0.916  -1.788   0.758  1.00  0.00     0.026 C 
HETATM    4  C4  UNL     1      -1.767  -0.895  -0.470  1.00  0.00     0.131 C 
HETATM    5  C5  UNL     1      -1.244   0.517  -1.100  1.00  0.00     0.052 C 
HETATM    6  C6  UNL     1       0.233   0.474  -1.930  1.00  0.00     0.126 C 
HETATM    7  C9  UNL     1      -0.656   1.316   0.012  1.00  0.00     0.016 C 
HETATM    8  C10 UNL     1       0.130   0.023   0.259  1.00  0.00     0.060 C 
HETATM    9  C11 UNL     1      -0.002  -1.568  -1.047  1.00  0.00     0.129 C 
HETATM   10  C12 UNL     1      -1.377  -1.672  -1.679  1.00  0.00     0.061 C 
HETATM   11  C15 UNL     1       1.389   0.641   1.377  1.00  0.00     0.149 C 
HETATM   12  C16 UNL     1       1.235   2.152   1.523  1.00  0.00     0.026 A 
HETATM   13  C17 UNL     1       0.035   2.804   1.643  1.00  0.00     0.076 A 
HETATM   14  C18 UNL     1      -1.251   2.134   1.182  1.00  0.00     0.052 C 
HETATM   15  O5  UNL     1       0.251   4.150   1.742  1.00  0.00    -0.310 OA
HETATM   16  C19 UNL     1       1.603   4.334   1.688  1.00  0.00     0.122 A 
HETATM   17  C20 UNL     1       2.261   3.150   1.581  1.00  0.00     0.026 A 
HETATM   18  O6  UNL     1       2.772   0.385   1.083  1.00  0.00    -0.221 OA
HETATM   19  C21 UNL     1       1.325   0.296   2.901  1.00  0.00     0.038 C 
HETATM   20  C22 UNL     1      -2.363   1.357  -1.726  1.00  0.00     0.005 C 
HETATM   21  O7  UNL     1      -3.159  -1.014  -0.426  1.00  0.00    -0.226 OA
HETATM   22  C23 UNL     1      -1.712  -3.176   0.829  1.00  0.00     0.002 C 
HETATM   23  C24 UNL     1      -1.541  -1.307   2.151  1.00  0.00     0.002 C 
ENDROOT
BRANCH   6  24
HETATM   24  O1  UNL     1       0.649   1.770  -2.295  1.00  0.00    -0.304 OA
BRANCH  24  25
HETATM   25  C7  UNL     1       0.257   2.401  -3.431  1.00  0.00     0.272 C 
HETATM   26  C8  UNL     1       0.494   3.892  -3.237  1.00  0.00     0.106 C 
HETATM   27  O2  UNL     1      -0.301   1.903  -4.380  1.00  0.00    -0.264 OA
ENDBRANCH  24  25
ENDBRANCH   6  24
BRANCH   9  28
HETATM   28  O3  UNL     1       0.206  -3.106  -0.863  1.00  0.00    -0.304 OA
BRANCH  28  29
HETATM   29  C13 UNL     1       1.207  -3.912  -0.339  1.00  0.00     0.272 C 
HETATM   30  C14 UNL     1       0.836  -4.547   1.010  1.00  0.00     0.106 C 
HETATM   31  O4  UNL     1       2.298  -4.087  -0.821  1.00  0.00    -0.264 OA
ENDBRANCH  28  29
ENDBRANCH   9  28
TORSDOF 4
