REMARK  6 active torsions:
REMARK  status: ('A' for Active; 'I' for Inactive)
REMARK    1  A    between atoms: C6_6  and  O1_7 
REMARK    2  A    between atoms: O1_7  and  C7_8 
REMARK    3  A    between atoms: C11_13  and  O5_19 
REMARK    4  A    between atoms: C12_14  and  O3_15 
REMARK    5  A    between atoms: O3_15  and  C13_16 
REMARK    6  A    between atoms: O5_19  and  C15_20 
ROOT
HETATM    1  C1  UNL     1       1.655  -0.127  -0.477  1.00  0.00     0.030 C 
HETATM    2  C2  UNL     1       1.103  -1.395   0.907  1.00  0.00     0.005 C 
HETATM    3  C3  UNL     1      -0.834  -1.704   1.100  1.00  0.00     0.029 C 
HETATM    4  C4  UNL     1      -1.634  -0.829  -0.229  1.00  0.00     0.156 C 
HETATM    5  C5  UNL     1      -1.124   0.629  -0.721  1.00  0.00     0.054 C 
HETATM    6  C6  UNL     1       0.414   0.705  -1.440  1.00  0.00     0.127 C 
HETATM    7  C9  UNL     1      -0.608   1.351   0.486  1.00  0.00     0.016 C 
HETATM    8  C10 UNL     1       0.199   0.091   0.715  1.00  0.00     0.063 C 
HETATM    9  C11 UNL     1       0.116  -1.446  -0.637  1.00  0.00     0.157 C 
HETATM   10  C12 UNL     1      -1.208  -1.655  -1.392  1.00  0.00     0.180 C 
HETATM   11  C17 UNL     1       1.472   0.723   1.825  1.00  0.00     0.149 C 
HETATM   12  C18 UNL     1       1.284   2.226   1.993  1.00  0.00     0.026 A 
HETATM   13  C19 UNL     1       0.071   2.849   2.140  1.00  0.00     0.076 A 
HETATM   14  C20 UNL     1      -1.197   2.147   1.669  1.00  0.00     0.052 C 
HETATM   15  O7  UNL     1       0.258   4.201   2.229  1.00  0.00    -0.310 OA
HETATM   16  C21 UNL     1       1.605   4.413   2.160  1.00  0.00     0.122 A 
HETATM   17  C22 UNL     1       2.285   3.245   1.999  1.00  0.00     0.026 A 
HETATM   18  C23 UNL     1       1.376   0.360   3.343  1.00  0.00     0.038 C 
HETATM   19  O8  UNL     1       2.869   0.475   1.560  1.00  0.00    -0.221 OA
HETATM   20  C24 UNL     1      -2.258   1.524  -1.251  1.00  0.00     0.005 C 
HETATM   21  O9  UNL     1      -3.030  -0.958  -0.273  1.00  0.00    -0.223 OA
HETATM   22  C25 UNL     1      -1.633  -3.089   1.182  1.00  0.00     0.003 C 
HETATM   23  C26 UNL     1      -1.528  -1.198   2.471  1.00  0.00     0.003 C 
ENDROOT
BRANCH   6  24
HETATM   24  O1  UNL     1       0.736   2.074  -1.713  1.00  0.00    -0.304 OA
BRANCH  24  25
HETATM   25  C7  UNL     1       0.312   2.753  -2.803  1.00  0.00     0.272 C 
HETATM   26  C8  UNL     1       0.597   4.243  -2.604  1.00  0.00     0.106 C 
HETATM   27  O2  UNL     1      -0.289   2.288  -3.744  1.00  0.00    -0.264 OA
ENDBRANCH  24  25
ENDBRANCH   6  24
BRANCH  10  28
HETATM   28  O3  UNL     1      -1.217  -1.103  -2.673  1.00  0.00    -0.299 OA
BRANCH  28  29
HETATM   29  C13 UNL     1      -1.149  -1.868  -3.785  1.00  0.00     0.273 C 
HETATM   30  C14 UNL     1      -0.613  -1.022  -4.934  1.00  0.00     0.106 C 
HETATM   31  O4  UNL     1      -1.325  -3.063  -3.845  1.00  0.00    -0.264 OA
ENDBRANCH  28  29
ENDBRANCH  10  28
BRANCH   9  32
HETATM   32  O5  UNL     1       0.345  -2.984  -0.449  1.00  0.00    -0.302 OA
BRANCH  32  33
HETATM   33  C15 UNL     1       1.265  -3.809   0.162  1.00  0.00     0.272 C 
HETATM   34  C16 UNL     1       0.844  -4.470   1.484  1.00  0.00     0.106 C 
HETATM   35  O6  UNL     1       2.378  -3.996  -0.298  1.00  0.00    -0.264 OA
ENDBRANCH  32  33
ENDBRANCH   9  32
TORSDOF 6
