REMARK  6 active torsions:
REMARK  status: ('A' for Active; 'I' for Inactive)
REMARK    1  A    between atoms: C6_6  and  O1_7 
REMARK    2  A    between atoms: O1_7  and  C7_8 
REMARK    3  A    between atoms: C11_13  and  O4_16 
REMARK    4  A    between atoms: O4_16  and  C13_17 
REMARK    5  A    between atoms: C15_20  and  C21_27 
REMARK    6  A    between atoms: C21_27  and  O8_29 
ROOT
HETATM    1  C1  UNL     1       1.687  -0.224  -0.837  1.00  0.00     0.030 C 
HETATM    2  C2  UNL     1       1.031  -1.449   0.540  1.00  0.00     0.005 C 
HETATM    3  C3  UNL     1      -0.877  -1.806   0.577  1.00  0.00     0.029 C 
HETATM    4  C4  UNL     1      -1.604  -0.957  -0.805  1.00  0.00     0.160 C 
HETATM    5  C5  UNL     1      -1.066   0.494  -1.310  1.00  0.00     0.058 C 
HETATM    6  C6  UNL     1       0.489   0.552  -1.947  1.00  0.00     0.127 C 
HETATM    7  C9  UNL     1      -0.596   1.276  -0.124  1.00  0.00     0.032 C 
HETATM    8  C10 UNL     1       0.133   0.027   0.265  1.00  0.00    -0.009 C 
HETATM    9  C11 UNL     1       0.179  -1.530  -1.082  1.00  0.00     0.175 C 
HETATM   10  C12 UNL     1      -1.088  -1.832  -1.885  1.00  0.00     0.211 C 
HETATM   11  O3  UNL     1      -1.071  -1.468  -3.257  1.00  0.00    -0.218 OA
HETATM   12  C15 UNL     1       1.287   0.689   1.444  1.00  0.00     0.059 C 
HETATM   13  C16 UNL     1       1.145   2.181   1.601  1.00  0.00     0.025 A 
HETATM   14  C17 UNL     1      -0.040   2.863   1.535  1.00  0.00     0.078 A 
HETATM   15  C18 UNL     1      -1.265   2.193   0.916  1.00  0.00     0.056 C 
HETATM   16  O6  UNL     1       0.244   4.204   1.480  1.00  0.00    -0.309 OA
HETATM   17  C19 UNL     1       1.606   4.341   1.536  1.00  0.00     0.122 A 
HETATM   18  C20 UNL     1       2.221   3.130   1.591  1.00  0.00     0.029 A 
HETATM   19  C23 UNL     1      -2.186   1.350  -1.929  1.00  0.00     0.005 C 
HETATM   20  O9  UNL     1      -2.988  -1.100  -0.898  1.00  0.00    -0.223 OA
HETATM   21  C24 UNL     1      -1.564  -3.259   0.640  1.00  0.00     0.003 C 
HETATM   22  C25 UNL     1      -1.639  -1.367   1.915  1.00  0.00     0.003 C 
ENDROOT
BRANCH   6  23
HETATM   23  O1  UNL     1       0.827   1.909  -2.265  1.00  0.00    -0.304 OA
BRANCH  23  24
HETATM   24  C7  UNL     1       0.426   2.528  -3.390  1.00  0.00     0.272 C 
HETATM   25  C8  UNL     1       0.643   4.032  -3.216  1.00  0.00     0.106 C 
HETATM   26  O2  UNL     1      -0.120   1.993  -4.324  1.00  0.00    -0.264 OA
ENDBRANCH  23  24
ENDBRANCH   6  23
BRANCH   9  27
HETATM   27  O4  UNL     1       0.469  -3.005  -0.854  1.00  0.00    -0.297 OA
BRANCH  27  28
HETATM   28  C13 UNL     1       1.448  -3.799  -0.294  1.00  0.00     0.273 C 
HETATM   29  C14 UNL     1       1.007  -4.556   0.986  1.00  0.00     0.106 C 
HETATM   30  O5  UNL     1       2.573  -3.894  -0.770  1.00  0.00    -0.264 OA
ENDBRANCH  27  28
ENDBRANCH   9  27
BRANCH  12  31
HETATM   31  C21 UNL     1       1.831   0.077   2.772  1.00  0.00     0.295 C 
HETATM   32  O7  UNL     1       2.918  -0.471   2.834  1.00  0.00    -0.259 OA
BRANCH  31  33
HETATM   33  O8  UNL     1       1.116   0.148   3.908  1.00  0.00    -0.296 OA
HETATM   34  C22 UNL     1       0.006   0.986   4.071  1.00  0.00     0.185 C 
ENDBRANCH  31  33
ENDBRANCH  12  31
TORSDOF 6
