REMARK  2 active torsions:
REMARK  status: ('A' for Active; 'I' for Inactive)
REMARK    1  A    between atoms: C10_10  and  O1_11 
REMARK    2  A    between atoms: O1_11  and  C11_12 
ROOT
HETATM    1  C1  UNL     1       2.211  -0.337  -0.894  1.00  0.00    -0.031 C 
HETATM    2  C2  UNL     1       1.524  -1.422   0.244  1.00  0.00    -0.029 C 
HETATM    3  C3  UNL     1      -0.192  -1.573   0.564  1.00  0.00     0.046 C 
HETATM    4  C4  UNL     1      -1.211  -0.425  -0.406  1.00  0.00     0.155 C 
HETATM    5  C5  UNL     1      -0.454   1.068  -1.213  1.00  0.00     0.033 C 
HETATM    6  C6  UNL     1       1.343   0.969  -1.601  1.00  0.00     0.028 C 
HETATM    7  C7  UNL     1      -0.191   1.938  -0.068  1.00  0.00     0.009 C 
HETATM    8  C8  UNL     1       0.449   0.560   0.207  1.00  0.00     0.007 C 
HETATM    9  C9  UNL     1       0.161  -0.738  -1.325  1.00  0.00     0.033 C 
HETATM   10  C10 UNL     1      -1.299  -1.008  -1.739  1.00  0.00     0.152 C 
HETATM   11  C13 UNL     1       1.622   1.103   1.238  1.00  0.00     0.024 C 
HETATM   12  C14 UNL     1       1.232   2.482   1.833  1.00  0.00    -0.002 A 
HETATM   13  C15 UNL     1      -0.020   3.041   1.860  1.00  0.00     0.074 A 
HETATM   14  C16 UNL     1      -1.125   2.498   0.997  1.00  0.00     0.051 C 
HETATM   15  O3  UNL     1       0.004   4.269   2.452  1.00  0.00    -0.310 OA
HETATM   16  C17 UNL     1       1.294   4.479   2.840  1.00  0.00     0.122 A 
HETATM   17  C18 UNL     1       2.087   3.428   2.489  1.00  0.00     0.024 A 
HETATM   18  C19 UNL     1       1.852   0.459   2.648  1.00  0.00     0.005 C 
HETATM   19  C20 UNL     1      -1.243   1.863  -2.270  1.00  0.00     0.003 C 
HETATM   20  O4  UNL     1      -2.475  -0.196   0.133  1.00  0.00    -0.223 OA
HETATM   21  C21 UNL     1      -0.455  -3.113   0.356  1.00  0.00     0.007 C 
HETATM   22  C22 UNL     1      -0.614  -1.539   2.082  1.00  0.00     0.007 C 
ENDROOT
BRANCH  10  23
HETATM   23  O1  UNL     1      -1.749  -2.315  -1.839  1.00  0.00    -0.302 OA
BRANCH  23  24
HETATM   24  C11 UNL     1      -1.624  -2.877  -3.070  1.00  0.00     0.272 C 
HETATM   25  C12 UNL     1      -2.110  -4.312  -3.046  1.00  0.00     0.106 C 
HETATM   26  O2  UNL     1      -1.172  -2.316  -4.042  1.00  0.00    -0.264 OA
ENDBRANCH  23  24
ENDBRANCH  10  23
TORSDOF 2
