REMARK  5 active torsions:
REMARK  status: ('A' for Active; 'I' for Inactive)
REMARK    1  A    between atoms: C3_3  and  C13_19 
REMARK    2  A    between atoms: C6_6  and  O1_7 
REMARK    3  A    between atoms: O1_7  and  C7_8 
REMARK    4  A    between atoms: C8_10  and  C12_17 
REMARK    5  A    between atoms: C14_20  and  C15_21 
ROOT
HETATM    1  C1  UNL     1       0.433  -0.935   1.161  1.00  0.00     0.153 A 
HETATM    2  C2  UNL     1       0.900  -2.234   1.381  1.00  0.00     0.029 A 
HETATM    3  C3  UNL     1       0.308  -3.359   0.787  1.00  0.00     0.002 A 
HETATM    4  C4  UNL     1      -0.759  -3.140  -0.094  1.00  0.00     0.002 A 
HETATM    5  C5  UNL     1      -1.231  -1.847  -0.318  1.00  0.00     0.026 A 
HETATM    6  C6  UNL     1      -0.642  -0.728   0.282  1.00  0.00     0.122 A 
HETATM    7  O9  UNL     1       0.981   0.119   1.822  1.00  0.00    -0.188 OA
ENDROOT
BRANCH   6   8
HETATM    8  O1  UNL     1      -1.179   0.515   0.101  1.00  0.00    -0.301 OA
BRANCH   8   9
HETATM    9  C7  UNL     1      -0.343   1.466  -0.522  1.00  0.00     0.274 C 
HETATM   10  O2  UNL     1      -0.249   2.496   0.435  1.00  0.00    -0.326 OA
HETATM   11  C8  UNL     1       0.544   3.566  -0.001  1.00  0.00     0.184 C 
HETATM   12  C9  UNL     1      -0.061   4.170  -1.263  1.00  0.00     0.215 C 
HETATM   13  C10 UNL     1      -0.201   3.111  -2.340  1.00  0.00     0.220 C 
HETATM   14  O5  UNL     1       0.755   5.198  -1.767  1.00  0.00    -0.218 OA
HETATM   15  C11 UNL     1      -1.012   1.965  -1.778  1.00  0.00     0.241 C 
HETATM   16  O4  UNL     1      -0.857   3.661  -3.453  1.00  0.00    -0.218 OA
HETATM   17  O3  UNL     1      -1.064   0.911  -2.705  1.00  0.00    -0.215 OA
BRANCH  11  18
HETATM   18  C12 UNL     1       0.627   4.576   1.133  1.00  0.00     0.214 C 
HETATM   19  O6  UNL     1       1.206   3.959   2.267  1.00  0.00    -0.218 OA
ENDBRANCH  11  18
ENDBRANCH   8   9
ENDBRANCH   6   8
BRANCH   3  20
HETATM   20  C13 UNL     1       0.833  -4.697   1.107  1.00  0.00     0.006 C 
HETATM   21  C14 UNL     1       0.140  -5.851   0.957  1.00  0.00     0.070 C 
BRANCH  21  22
HETATM   22  C15 UNL     1       0.689  -7.175   1.326  1.00  0.00     0.211 C 
HETATM   23  O7  UNL     1      -0.052  -8.300   1.239  1.00  0.00    -0.644 OA
HETATM   24  O8  UNL     1       1.842  -7.300   1.724  1.00  0.00    -0.644 OA
ENDBRANCH  21  22
ENDBRANCH   3  20
TORSDOF 5
