REMARK  5 active torsions:
REMARK  status: ('A' for Active; 'I' for Inactive)
REMARK    1  A    between atoms: C7_7  and  O5_22 
REMARK    2  A    between atoms: C8_8  and  O3_16 
REMARK    3  A    between atoms: O3_16  and  C14_17 
REMARK    4  A    between atoms: C14_17  and  C15_18 
REMARK    5  A    between atoms: O5_22  and  C18_23 
ROOT
HETATM    1  C1  UNL     1      -2.788  -1.097  -1.588  1.00  0.00     0.052 C 
HETATM    2  C2  UNL     1      -3.063  -0.381  -0.283  1.00  0.00    -0.045 C 
HETATM    3  C3  UNL     1      -2.701  -0.765   0.957  1.00  0.00    -0.027 C 
HETATM    4  C4  UNL     1      -1.887  -1.935   1.456  1.00  0.00     0.092 C 
HETATM    5  C5  UNL     1      -0.969  -2.692   0.515  1.00  0.00     0.185 C 
HETATM    6  C6  UNL     1       0.543  -2.409   0.434  1.00  0.00     0.205 C 
HETATM    7  C7  UNL     1       0.997  -0.928   0.374  1.00  0.00     0.187 C 
HETATM    8  C8  UNL     1       0.136   0.156  -0.304  1.00  0.00     0.162 C 
HETATM    9  C9  UNL     1      -0.387  -0.002  -1.740  1.00  0.00     0.086 C 
HETATM   10  C10 UNL     1      -1.344  -1.156  -2.087  1.00  0.00     0.135 C 
HETATM   11  O1  UNL     1      -1.306  -1.358  -3.484  1.00  0.00    -0.300 OA
HETATM   12  C11 UNL     1      -0.133  -0.828  -3.921  1.00  0.00     0.292 C 
HETATM   13  C12 UNL     1       0.617  -0.136  -2.855  1.00  0.00     0.045 C 
HETATM   14  C13 UNL     1       1.895   0.264  -2.955  1.00  0.00     0.001 C 
HETATM   15  O2  UNL     1       0.245  -0.902  -5.086  1.00  0.00    -0.260 OA
HETATM   16  C20 UNL     1       1.233  -3.204  -0.692  1.00  0.00     0.043 C 
HETATM   17  O7  UNL     1       1.072  -2.999   1.611  1.00  0.00    -0.216 OA
HETATM   18  O8  UNL     1      -1.414  -3.665  -0.054  1.00  0.00    -0.293 OA
HETATM   19  C21 UNL     1      -3.861   0.897  -0.457  1.00  0.00     0.026 C 
ENDROOT
BRANCH   8  20
HETATM   20  O3  UNL     1       0.863   1.364  -0.267  1.00  0.00    -0.298 OA
BRANCH  20  21
HETATM   21  C14 UNL     1       0.444   2.421   0.489  1.00  0.00     0.292 C 
HETATM   22  O4  UNL     1      -0.661   2.422   1.022  1.00  0.00    -0.260 OA
BRANCH  21  23
HETATM   23  C15 UNL     1       1.345   3.575   0.773  1.00  0.00     0.041 C 
HETATM   24  C16 UNL     1       0.857   4.702   1.650  1.00  0.00     0.037 C 
HETATM   25  C17 UNL     1       2.580   3.587   0.234  1.00  0.00     0.001 C 
ENDBRANCH  21  23
ENDBRANCH  20  21
ENDBRANCH   8  20
BRANCH   7  26
HETATM   26  O5  UNL     1       1.206  -0.472   1.692  1.00  0.00    -0.299 OA
BRANCH  26  27
HETATM   27  C18 UNL     1       2.457  -0.537   2.227  1.00  0.00     0.273 C 
HETATM   28  C19 UNL     1       2.413  -0.145   3.689  1.00  0.00     0.106 C 
HETATM   29  O6  UNL     1       3.458  -0.873   1.634  1.00  0.00    -0.264 OA
ENDBRANCH  26  27
ENDBRANCH   7  26
TORSDOF 5
