REMARK  1 active torsions:
REMARK  status: ('A' for Active; 'I' for Inactive)
REMARK    1  A    between atoms: C12_13  and  O3_16 
ROOT
HETATM    1  C1  UNL     1      -5.288  -2.207   0.658  1.00  0.00     0.002 A 
HETATM    2  C2  UNL     1      -4.832  -1.921   1.944  1.00  0.00     0.029 A 
HETATM    3  C3  UNL     1      -3.560  -1.380   2.156  1.00  0.00     0.154 A 
HETATM    4  C4  UNL     1      -2.723  -1.115   1.063  1.00  0.00     0.128 A 
HETATM    5  C5  UNL     1      -3.184  -1.409  -0.227  1.00  0.00     0.064 A 
HETATM    6  C6  UNL     1      -4.460  -1.950  -0.435  1.00  0.00     0.005 A 
HETATM    7  C7  UNL     1      -2.303  -1.124  -1.385  1.00  0.00     0.202 A 
HETATM    8  C8  UNL     1      -1.002  -0.459  -1.086  1.00  0.00     0.089 A 
HETATM    9  C9  UNL     1      -0.704  -0.215   0.263  1.00  0.00     0.107 A 
HETATM   10  O1  UNL     1      -1.491  -0.595   1.310  1.00  0.00    -0.305 OA
HETATM   11  C10 UNL     1       0.503   0.443   0.538  1.00  0.00     0.047 A 
HETATM   12  C11 UNL     1       1.367   0.893  -0.470  1.00  0.00     0.120 A 
HETATM   13  C12 UNL     1       1.084   0.585  -1.815  1.00  0.00     0.142 A 
HETATM   14  C13 UNL     1      -0.126  -0.070  -2.125  1.00  0.00     0.160 A 
HETATM   15  O2  UNL     1      -0.398  -0.389  -3.420  1.00  0.00    -0.188 OA
HETATM   16  O4  UNL     1       2.538   1.542  -0.169  1.00  0.00    -0.330 OA
HETATM   17  C15 UNL     1       3.146   1.222   1.055  1.00  0.00     0.117 C 
HETATM   18  C16 UNL     1       2.130   1.162   2.169  1.00  0.00     0.001 C 
HETATM   19  C17 UNL     1       0.873   0.755   1.925  1.00  0.00     0.002 C 
HETATM   20  C18 UNL     1       4.186   2.309   1.344  1.00  0.00     0.035 C 
HETATM   21  C19 UNL     1       3.836  -0.142   0.925  1.00  0.00     0.035 C 
HETATM   22  O5  UNL     1      -2.683  -1.401  -2.518  1.00  0.00    -0.286 OA
HETATM   23  O6  UNL     1      -3.117  -1.102   3.412  1.00  0.00    -0.188 OA
ENDROOT
BRANCH  13  24
HETATM   24  O3  UNL     1       2.007   1.045  -2.729  1.00  0.00    -0.324 OA
HETATM   25  C14 UNL     1       1.671   1.221  -4.084  1.00  0.00     0.182 C 
ENDBRANCH  13  24
TORSDOF 1
