REMARK  9 active torsions:
REMARK  status: ('A' for Active; 'I' for Inactive)
REMARK    1  A    between atoms: C1_1  and  C18_24 
REMARK    2  A    between atoms: C1_1  and  C23_29 
REMARK    3  A    between atoms: C3_3  and  C12_15 
REMARK    4  A    between atoms: C12_15  and  C13_16 
REMARK    5  A    between atoms: C12_15  and  C15_20 
REMARK    6  A    between atoms: C13_16  and  C14_17 
REMARK    7  A    between atoms: C15_20  and  C16_21 
REMARK    8  A    between atoms: C18_24  and  C19_25 
REMARK    9  A    between atoms: C23_29  and  C24_30 
ROOT
HETATM    1  C1  UNL     1      -0.719   0.830   0.234  1.00  0.00     0.106 C 
HETATM    2  C2  UNL     1      -0.520  -0.638   0.629  1.00  0.00     0.176 C 
HETATM    3  C3  UNL     1       0.614  -1.393   0.034  1.00  0.00     0.035 C 
HETATM    4  C4  UNL     1       1.691  -0.713  -0.445  1.00  0.00     0.097 C 
HETATM    5  C5  UNL     1       1.727   0.748  -0.304  1.00  0.00     0.078 C 
HETATM    6  C6  UNL     1       0.646   1.479   0.071  1.00  0.00     0.120 C 
HETATM    7  O1  UNL     1       0.685   2.832   0.212  1.00  0.00    -0.194 OA
HETATM    8  C7  UNL     1       3.045   1.409  -0.511  1.00  0.00     0.178 C 
HETATM    9  C8  UNL     1       4.218   0.463  -0.740  1.00  0.00     0.090 C 
HETATM   10  C9  UNL     1       3.745  -0.694  -1.622  1.00  0.00     0.129 C 
HETATM   11  O2  UNL     1       2.743  -1.415  -0.972  1.00  0.00    -0.333 OA
HETATM   12  C10 UNL     1       4.854  -1.688  -1.976  1.00  0.00     0.033 C 
HETATM   13  C11 UNL     1       5.441   1.196  -1.316  1.00  0.00     0.011 C 
HETATM   14  O3  UNL     1       3.219   2.621  -0.496  1.00  0.00    -0.291 OA
HETATM   15  O6  UNL     1      -1.313  -1.203   1.371  1.00  0.00    -0.291 OA
ENDROOT
BRANCH   1  16
HETATM   16  C18 UNL     1      -1.426   0.862  -1.144  1.00  0.00     0.039 C 
BRANCH  16  17
HETATM   17  C19 UNL     1      -2.912   0.606  -1.081  1.00  0.00    -0.034 C 
HETATM   18  C20 UNL     1      -3.874   1.279  -1.739  1.00  0.00    -0.048 C 
HETATM   19  C21 UNL     1      -5.337   0.976  -1.512  1.00  0.00     0.026 C 
HETATM   20  C22 UNL     1      -3.629   2.392  -2.731  1.00  0.00     0.026 C 
ENDBRANCH  16  17
ENDBRANCH   1  16
BRANCH   1  21
HETATM   21  C23 UNL     1      -1.524   1.523   1.367  1.00  0.00     0.039 C 
BRANCH  21  22
HETATM   22  C24 UNL     1      -2.139   2.871   1.074  1.00  0.00    -0.034 C 
HETATM   23  C25 UNL     1      -2.788   3.631   1.974  1.00  0.00    -0.048 C 
HETATM   24  C26 UNL     1      -3.404   4.956   1.590  1.00  0.00     0.026 C 
HETATM   25  C27 UNL     1      -2.989   3.245   3.421  1.00  0.00     0.026 C 
ENDBRANCH  21  22
ENDBRANCH   1  21
BRANCH   3  26
HETATM   26  C12 UNL     1       0.598  -2.919   0.065  1.00  0.00     0.038 C 
BRANCH  26  27
HETATM   27  C13 UNL     1      -0.698  -3.509  -0.527  1.00  0.00     0.102 C 
BRANCH  27  28
HETATM   28  C14 UNL     1      -0.651  -5.017  -0.701  1.00  0.00     0.185 C 
HETATM   29  O4  UNL     1      -1.258  -5.838  -0.056  1.00  0.00    -0.647 OA
HETATM   30  O5  UNL     1       0.158  -5.380  -1.713  1.00  0.00    -0.647 OA
ENDBRANCH  27  28
ENDBRANCH  26  27
BRANCH  26  31
HETATM   31  C15 UNL     1       0.900  -3.449   1.482  1.00  0.00     0.005 C 
BRANCH  31  32
HETATM   32  C16 UNL     1       2.246  -2.947   2.035  1.00  0.00     0.000 C 
HETATM   33  C17 UNL     1       2.549  -3.527   3.423  1.00  0.00     0.000 C 
ENDBRANCH  31  32
ENDBRANCH  26  31
ENDBRANCH   3  26
TORSDOF 9
