REMARK  8 active torsions:
REMARK  status: ('A' for Active; 'I' for Inactive)
REMARK    1  A    between atoms: C12_15  and  C22_28 
REMARK    2  A    between atoms: C16_19  and  C20_24 
REMARK    3  A    between atoms: C20_24  and  O3_25 
REMARK    4  A    between atoms: C34_42  and  C42_53 
REMARK    5  A    between atoms: C35_43  and  C37_45 
REMARK    6  A    between atoms: C37_45  and  C40_49 
REMARK    7  A    between atoms: C38_46  and  O6_47 
REMARK    8  A    between atoms: C40_49  and  O7_50 
ROOT
HETATM    1  C22 UNL     1      -0.731  -1.210  -0.522  1.00  0.00    -0.006 C 
HETATM    2  C23 UNL     1      -0.288   0.220  -0.678  1.00  0.00     0.013 C 
HETATM    3  C24 UNL     1       0.180   0.878   0.461  1.00  0.00     0.082 A 
HETATM    4  C25 UNL     1       0.211   0.230   1.787  1.00  0.00     0.036 A 
HETATM    5  C26 UNL     1      -0.202  -1.036   2.038  1.00  0.00     0.114 C 
HETATM    6  C27 UNL     1      -0.813  -1.776   0.882  1.00  0.00     0.078 C 
HETATM    7  O5  UNL     1      -0.178  -1.581   3.281  1.00  0.00    -0.195 OA
HETATM    8  C28 UNL     1       0.778   1.256   2.708  1.00  0.00    -0.002 A 
HETATM    9  C29 UNL     1       1.039   2.452   1.847  1.00  0.00     0.086 A 
HETATM   10  C30 UNL     1       1.592   3.714   2.437  1.00  0.00     0.259 C 
HETATM   11  N3  UNL     1       2.033   3.466   3.810  1.00  0.00     0.141 N 
HETATM   12  C31 UNL     1       0.991   2.822   4.610  1.00  0.00     0.255 C 
HETATM   13  C32 UNL     1       0.775   1.350   4.197  1.00  0.00     0.063 C 
HETATM   14  C33 UNL     1       2.507   4.699   4.422  1.00  0.00     0.251 C 
HETATM   15  C34 UNL     1       3.731   5.271   3.671  1.00  0.00     0.038 C 
HETATM   16  C35 UNL     1       3.363   5.505   2.192  1.00  0.00     0.034 C 
HETATM   17  C36 UNL     1       2.750   4.237   1.577  1.00  0.00     0.044 C 
HETATM   18  N4  UNL     1       0.643   2.118   0.547  1.00  0.00    -0.248 NA
ENDROOT
BRANCH   1  19
HETATM   19  C12 UNL     1      -1.312  -1.981  -1.689  1.00  0.00     0.238 C 
HETATM   20  N2  UNL     1      -2.713  -2.291  -1.388  1.00  0.00     0.143 N 
HETATM   21  C9  UNL     1      -3.072  -3.665  -1.733  1.00  0.00     0.259 C 
HETATM   22  C10 UNL     1      -3.598  -1.274  -1.958  1.00  0.00     0.256 C 
HETATM   23  C8  UNL     1      -4.547  -3.878  -1.592  1.00  0.00     0.086 A 
HETATM   24  C15 UNL     1      -2.566  -4.074  -3.120  1.00  0.00     0.040 C 
HETATM   25  C7  UNL     1      -5.528  -2.747  -1.484  1.00  0.00    -0.002 A 
HETATM   26  N1  UNL     1      -5.426  -5.156  -1.848  1.00  0.00    -0.249 NA
HETATM   27  C5  UNL     1      -6.914  -3.297  -1.650  1.00  0.00     0.036 A 
HETATM   28  C11 UNL     1      -5.043  -1.337  -1.429  1.00  0.00     0.063 C 
HETATM   29  C4  UNL     1      -6.812  -4.763  -1.847  1.00  0.00     0.078 A 
HETATM   30  C6  UNL     1      -8.096  -2.632  -1.625  1.00  0.00     0.110 A 
HETATM   31  C3  UNL     1      -7.893  -5.572  -1.990  1.00  0.00    -0.007 A 
HETATM   32  C2  UNL     1      -9.256  -4.957  -1.923  1.00  0.00     0.035 A 
HETATM   33  C1  UNL     1      -9.348  -3.458  -1.728  1.00  0.00     0.059 A 
HETATM   34  O1  UNL     1      -8.176  -1.292  -1.421  1.00  0.00    -0.195 OA
HETATM   35  C14 UNL     1      -1.028  -4.001  -3.177  1.00  0.00     0.017 C 
HETATM   36  C13 UNL     1      -0.444  -3.220  -1.985  1.00  0.00     0.036 C 
HETATM   37  C16 UNL     1      -0.370  -5.402  -3.246  1.00  0.00     0.117 C 
HETATM   38  C19 UNL     1       1.032  -2.875  -2.281  1.00  0.00     0.005 C 
HETATM   39  C18 UNL     1       1.721  -3.953  -3.141  1.00  0.00     0.034 C 
HETATM   40  C17 UNL     1       1.122  -5.330  -2.877  1.00  0.00     0.162 C 
HETATM   41  O2  UNL     1       1.840  -6.311  -3.585  1.00  0.00    -0.223 OA
BRANCH  37  42
HETATM   42  C20 UNL     1      -0.609  -6.025  -4.627  1.00  0.00     0.274 C 
HETATM   43  O4  UNL     1      -0.482  -5.363  -5.636  1.00  0.00    -0.264 OA
BRANCH  42  44
HETATM   44  O3  UNL     1      -1.028  -7.322  -4.677  1.00  0.00    -0.299 OA
HETATM   45  C21 UNL     1      -1.113  -8.136  -3.533  1.00  0.00     0.184 C 
ENDBRANCH  42  44
ENDBRANCH  37  42
ENDBRANCH   1  19
BRANCH  16  46
HETATM   46  C37 UNL     1       4.487   6.048   1.323  1.00  0.00     0.065 C 
HETATM   47  C38 UNL     1       4.378   7.246   0.699  1.00  0.00     0.117 C 
BRANCH  47  48
HETATM   48  O6  UNL     1       3.281   8.049   0.841  1.00  0.00    -0.326 OA
HETATM   49  C39 UNL     1       3.471   9.400   0.486  1.00  0.00     0.181 C 
ENDBRANCH  47  48
BRANCH  46  50
HETATM   50  C40 UNL     1       5.734   5.259   1.101  1.00  0.00     0.294 C 
HETATM   51  O8  UNL     1       6.602   5.718   0.362  1.00  0.00    -0.259 OA
BRANCH  50  52
HETATM   52  O7  UNL     1       5.927   4.041   1.684  1.00  0.00    -0.296 OA
HETATM   53  C41 UNL     1       7.107   3.345   1.361  1.00  0.00     0.185 C 
ENDBRANCH  50  52
ENDBRANCH  46  50
ENDBRANCH  16  46
BRANCH  15  54
HETATM   54  C42 UNL     1       4.261   6.543   4.367  1.00  0.00     0.002 C 
HETATM   55  C43 UNL     1       5.794   6.642   4.378  1.00  0.00     0.000 C 
ENDBRANCH  15  54
TORSDOF 8
