REMARK  3 active torsions:
REMARK  status: ('A' for Active; 'I' for Inactive)
REMARK    1  A    between atoms: C3_4  and  C20_26 
REMARK    2  A    between atoms: C6_7  and  O2_8 
REMARK    3  A    between atoms: C20_26  and  C21_27 
ROOT
HETATM    1  O1  UNL     1      -1.283   4.594  -0.071  1.00  0.00    -0.188 OA
HETATM    2  C1  UNL     1      -1.219   3.233  -0.074  1.00  0.00     0.155 A 
HETATM    3  C2  UNL     1      -2.388   2.492   0.073  1.00  0.00     0.026 A 
HETATM    4  C3  UNL     1      -2.397   1.098   0.079  1.00  0.00    -0.011 A 
HETATM    5  C4  UNL     1      -1.152   0.466  -0.138  1.00  0.00     0.060 A 
HETATM    6  C5  UNL     1       0.056   1.178  -0.297  1.00  0.00     0.127 A 
HETATM    7  C6  UNL     1       0.019   2.591  -0.230  1.00  0.00     0.142 A 
HETATM    8  O3  UNL     1       1.244   0.536  -0.532  1.00  0.00    -0.305 OA
HETATM    9  C8  UNL     1       1.365  -0.799  -0.266  1.00  0.00     0.103 A 
HETATM   10  C9  UNL     1       0.259  -1.646  -0.067  1.00  0.00     0.087 A 
HETATM   11  C10 UNL     1      -1.083  -1.023  -0.177  1.00  0.00     0.201 C 
HETATM   12  O4  UNL     1      -2.069  -1.737  -0.329  1.00  0.00    -0.286 OA
HETATM   13  C11 UNL     1       0.369  -3.027   0.227  1.00  0.00     0.138 A 
HETATM   14  C12 UNL     1       1.646  -3.586   0.293  1.00  0.00     0.051 A 
HETATM   15  C13 UNL     1       2.750  -2.780   0.037  1.00  0.00     0.094 A 
HETATM   16  C14 UNL     1       2.620  -1.424  -0.247  1.00  0.00     0.025 A 
HETATM   17  C15 UNL     1       4.002  -0.843  -0.474  1.00  0.00     0.048 C 
HETATM   18  C16 UNL     1       4.858  -2.147  -0.533  1.00  0.00     0.125 C 
HETATM   19  O5  UNL     1       4.062  -3.191   0.021  1.00  0.00    -0.333 OA
HETATM   20  C17 UNL     1       6.244  -2.108   0.116  1.00  0.00     0.033 C 
HETATM   21  C18 UNL     1       4.119  -0.101  -1.814  1.00  0.00     0.007 C 
HETATM   22  C19 UNL     1       4.367   0.058   0.717  1.00  0.00     0.007 C 
HETATM   23  O6  UNL     1      -0.692  -3.838   0.494  1.00  0.00    -0.190 OA
ENDROOT
BRANCH   4  24
HETATM   24  C20 UNL     1      -3.692   0.323   0.280  1.00  0.00     0.052 C 
BRANCH  24  25
HETATM   25  C21 UNL     1      -4.986   1.023   0.625  1.00  0.00    -0.030 C 
HETATM   26  C22 UNL     1      -6.169   0.402   0.792  1.00  0.00    -0.048 C 
HETATM   27  C23 UNL     1      -7.429   1.175   1.105  1.00  0.00     0.026 C 
HETATM   28  C24 UNL     1      -6.361  -1.092   0.687  1.00  0.00     0.026 C 
ENDBRANCH  24  25
ENDBRANCH   4  24
BRANCH   7  29
HETATM   29  O2  UNL     1       1.077   3.453  -0.404  1.00  0.00    -0.324 OA
HETATM   30  C7  UNL     1       2.204   3.067  -1.145  1.00  0.00     0.182 C 
ENDBRANCH   7  29
TORSDOF 3
