REMARK  3 active torsions:
REMARK  status: ('A' for Active; 'I' for Inactive)
REMARK    1  A    between atoms: C3_3  and  C21_25 
REMARK    2  A    between atoms: C12_14  and  C15_19 
REMARK    3  A    between atoms: C21_25  and  C22_26 
ROOT
HETATM    1  C1  UNL     1      -0.468   1.565  -0.068  1.00  0.00     0.082 A 
HETATM    2  C2  UNL     1       0.814   1.771  -0.607  1.00  0.00     0.134 A 
HETATM    3  C3  UNL     1       1.672   0.669  -0.732  1.00  0.00     0.030 A 
HETATM    4  C4  UNL     1       1.256  -0.622  -0.370  1.00  0.00     0.100 A 
HETATM    5  C5  UNL     1      -0.019  -0.786   0.197  1.00  0.00     0.027 A 
HETATM    6  C6  UNL     1      -0.895   0.298   0.362  1.00  0.00     0.097 A 
HETATM    7  O1  UNL     1      -2.157   0.072   0.840  1.00  0.00    -0.333 OA
HETATM    8  C7  UNL     1      -3.148   0.984   0.476  1.00  0.00     0.129 C 
HETATM    9  C8  UNL     1      -2.703   2.401   0.840  1.00  0.00     0.090 C 
HETATM   10  C9  UNL     1      -1.394   2.714   0.123  1.00  0.00     0.179 C 
HETATM   11  O2  UNL     1      -1.144   3.858  -0.237  1.00  0.00    -0.291 OA
HETATM   12  C10 UNL     1      -3.781   3.459   0.554  1.00  0.00     0.011 C 
HETATM   13  C11 UNL     1      -4.438   0.542   1.171  1.00  0.00     0.033 C 
HETATM   14  C12 UNL     1      -0.463  -2.178   0.613  1.00  0.00     0.058 C 
HETATM   15  C13 UNL     1       0.732  -3.138   0.654  1.00  0.00     0.105 C 
HETATM   16  C14 UNL     1       1.564  -2.916  -0.589  1.00  0.00     0.277 C 
HETATM   17  O3  UNL     1       2.110  -1.673  -0.575  1.00  0.00    -0.277 OA
HETATM   18  O4  UNL     1       1.739  -3.735  -1.464  1.00  0.00    -0.264 OA
HETATM   19  O5  UNL     1       1.216   2.993  -1.049  1.00  0.00    -0.190 OA
ENDROOT
BRANCH  14  20
HETATM   20  C15 UNL     1      -1.167  -2.204   1.955  1.00  0.00    -0.018 A 
HETATM   21  C16 UNL     1      -2.418  -2.817   2.099  1.00  0.00    -0.004 A 
HETATM   22  C17 UNL     1      -3.075  -2.825   3.331  1.00  0.00    -0.000 A 
HETATM   23  C18 UNL     1      -2.483  -2.223   4.443  1.00  0.00    -0.000 A 
HETATM   24  C19 UNL     1      -1.233  -1.617   4.316  1.00  0.00    -0.000 A 
HETATM   25  C20 UNL     1      -0.582  -1.611   3.080  1.00  0.00    -0.004 A 
ENDBRANCH  14  20
BRANCH   3  26
HETATM   26  C21 UNL     1       3.074   0.851  -1.284  1.00  0.00     0.056 C 
BRANCH  26  27
HETATM   27  C22 UNL     1       3.138   0.517  -2.752  1.00  0.00    -0.030 C 
HETATM   28  C23 UNL     1       4.249   0.564  -3.508  1.00  0.00    -0.048 C 
HETATM   29  C24 UNL     1       4.229   0.154  -4.962  1.00  0.00     0.026 C 
HETATM   30  C25 UNL     1       5.599   1.000  -2.994  1.00  0.00     0.026 C 
ENDBRANCH  26  27
ENDBRANCH   3  26
TORSDOF 3
