REMARK  8 active torsions:
REMARK  status: ('A' for Active; 'I' for Inactive)
REMARK    1  A    between atoms: C1_1  and  C2_2 
REMARK    2  A    between atoms: C1_1  and  C30_37 
REMARK    3  A    between atoms: C2_2  and  C3_3 
REMARK    4  A    between atoms: C3_3  and  C4_4 
REMARK    5  A    between atoms: C4_4  and  C5_5 
REMARK    6  A    between atoms: C7_7  and  C24_29 
REMARK    7  A    between atoms: C12_13  and  O2_15 
REMARK    8  A    between atoms: C17_19  and  C18_21 
ROOT
HETATM    1  C5  UNL     1       1.230  -1.488   0.172  1.00  0.00     0.031 C 
HETATM    2  C6  UNL     1       2.436  -2.451   0.049  1.00  0.00     0.039 C 
HETATM    3  C7  UNL     1       3.212  -2.266  -1.254  1.00  0.00     0.143 C 
HETATM    4  O1  UNL     1       3.787  -0.981  -1.265  1.00  0.00    -0.333 OA
HETATM    5  C8  UNL     1       2.910   0.035  -1.027  1.00  0.00     0.076 C 
HETATM    6  C9  UNL     1       1.490  -0.226  -0.633  1.00  0.00     0.019 C 
HETATM    7  C10 UNL     1       0.487   0.578  -1.095  1.00  0.00     0.095 C 
HETATM    8  C11 UNL     1       0.814   1.718  -1.990  1.00  0.00     0.062 C 
HETATM    9  C12 UNL     1       2.074   2.207  -2.168  1.00  0.00     0.082 C 
HETATM   10  C13 UNL     1       3.186   1.408  -1.571  1.00  0.00     0.102 C 
HETATM   11  C15 UNL     1      -0.359   2.454  -2.611  1.00  0.00     0.115 C 
HETATM   12  C16 UNL     1      -1.704   2.122  -2.002  1.00  0.00     0.089 C 
HETATM   13  C17 UNL     1      -1.796   0.624  -1.743  1.00  0.00     0.150 C 
HETATM   14  O3  UNL     1      -0.809   0.225  -0.832  1.00  0.00    -0.329 OA
HETATM   15  O5  UNL     1      -0.289   3.321  -3.600  1.00  0.00    -0.195 OA
ENDROOT
BRANCH   1  16
HETATM   16  C4  UNL     1       0.976  -1.231   1.673  1.00  0.00     0.037 C 
BRANCH  16  17
HETATM   17  C3  UNL     1      -0.255  -0.411   2.064  1.00  0.00     0.153 C 
HETATM   18  O7  UNL     1      -1.412  -1.002   1.516  1.00  0.00    -0.223 OA
BRANCH  17  19
HETATM   19  C2  UNL     1      -0.410  -0.298   3.588  1.00  0.00     0.038 C 
BRANCH  19  20
HETATM   20  C1  UNL     1      -0.428   1.153   4.094  1.00  0.00     0.029 C 
BRANCH  20  21
HETATM   21  C30 UNL     1      -1.651   1.910   3.630  1.00  0.00    -0.022 A 
HETATM   22  C31 UNL     1      -1.578   2.864   2.609  1.00  0.00    -0.002 A 
HETATM   23  C32 UNL     1      -2.715   3.563   2.202  1.00  0.00     0.027 A 
HETATM   24  C33 UNL     1      -3.960   3.339   2.799  1.00  0.00     0.131 A 
HETATM   25  C34 UNL     1      -4.026   2.390   3.822  1.00  0.00     0.027 A 
HETATM   26  O8  UNL     1      -5.069   4.019   2.408  1.00  0.00    -0.190 OA
HETATM   27  C35 UNL     1      -2.893   1.684   4.231  1.00  0.00    -0.002 A 
ENDBRANCH  20  21
ENDBRANCH  19  20
ENDBRANCH  17  19
ENDBRANCH  16  17
ENDBRANCH   1  16
BRANCH   3  28
HETATM   28  C24 UNL     1       4.301  -3.316  -1.384  1.00  0.00     0.005 A 
HETATM   29  C25 UNL     1       4.165  -4.397  -2.261  1.00  0.00     0.000 A 
HETATM   30  C26 UNL     1       5.168  -5.363  -2.371  1.00  0.00     0.027 A 
HETATM   31  C27 UNL     1       6.338  -5.289  -1.610  1.00  0.00     0.131 A 
HETATM   32  C28 UNL     1       6.468  -4.210  -0.731  1.00  0.00     0.027 A 
HETATM   33  O6  UNL     1       7.317  -6.226  -1.712  1.00  0.00    -0.190 OA
HETATM   34  C29 UNL     1       5.469  -3.242  -0.617  1.00  0.00     0.000 A 
ENDBRANCH   3  28
BRANCH   9  35
HETATM   35  O2  UNL     1       2.389   3.221  -3.032  1.00  0.00    -0.332 OA
HETATM   36  C14 UNL     1       2.446   4.492  -2.424  1.00  0.00     0.181 C 
ENDBRANCH   9  35
BRANCH  13  37
HETATM   37  C18 UNL     1      -3.161   0.265  -1.189  1.00  0.00     0.006 A 
HETATM   38  C19 UNL     1      -4.102  -0.425  -1.962  1.00  0.00     0.000 A 
HETATM   39  C20 UNL     1      -5.366  -0.726  -1.451  1.00  0.00     0.027 A 
HETATM   40  C21 UNL     1      -5.736  -0.354  -0.154  1.00  0.00     0.131 A 
HETATM   41  C22 UNL     1      -4.792   0.332   0.616  1.00  0.00     0.027 A 
HETATM   42  O4  UNL     1      -6.967  -0.638   0.345  1.00  0.00    -0.190 OA
HETATM   43  C23 UNL     1      -3.531   0.642   0.105  1.00  0.00     0.000 A 
ENDBRANCH  13  37
TORSDOF 8
