REMARK  6 active torsions:
REMARK  status: ('A' for Active; 'I' for Inactive)
REMARK    1  A    between atoms: C4_4  and  C7_7 
REMARK    2  A    between atoms: C12_13  and  O9_42 
REMARK    3  A    between atoms: C13_14  and  O8_40 
REMARK    4  A    between atoms: C18_21  and  O7_38 
REMARK    5  A    between atoms: C19_22  and  O6_36 
REMARK    6  A    between atoms: C24_27  and  C25_29 
ROOT
HETATM    1  C7  UNL     1      -2.110  -1.899   2.327  1.00  0.00     0.146 C 
HETATM    2  C8  UNL     1      -2.257  -3.103   1.401  1.00  0.00     0.072 C 
HETATM    3  C9  UNL     1      -1.057  -4.014   1.613  1.00  0.00     0.182 C 
HETATM    4  C10 UNL     1       0.196  -3.193   1.482  1.00  0.00     0.064 C 
HETATM    5  C11 UNL     1       0.206  -1.863   1.710  1.00  0.00     0.106 C 
HETATM    6  O1  UNL     1      -0.926  -1.187   2.066  1.00  0.00    -0.330 OA
HETATM    7  C12 UNL     1       1.482  -1.008   1.628  1.00  0.00     0.201 A 
HETATM    8  C13 UNL     1       2.625  -1.689   0.777  1.00  0.00     0.231 A 
HETATM    9  C14 UNL     1       2.187  -2.957   0.045  1.00  0.00     0.129 C 
HETATM   10  C15 UNL     1       1.399  -3.868   0.951  1.00  0.00     0.178 C 
HETATM   11  O2  UNL     1       1.529  -5.085   0.996  1.00  0.00    -0.291 OA
HETATM   12  O3  UNL     1       2.974  -0.781  -0.263  1.00  0.00    -0.307 OA
HETATM   13  C16 UNL     1       2.143   0.308  -0.249  1.00  0.00     0.098 A 
HETATM   14  C17 UNL     1       1.265   0.282   0.826  1.00  0.00     0.059 A 
HETATM   15  C18 UNL     1       0.336   1.332   0.973  1.00  0.00     0.119 C 
HETATM   16  C19 UNL     1       0.247   2.278  -0.072  1.00  0.00     0.138 C 
HETATM   17  C20 UNL     1       1.186   2.316  -1.126  1.00  0.00     0.119 C 
HETATM   18  C21 UNL     1       2.127   1.289  -1.238  1.00  0.00     0.054 C 
HETATM   19  C22 UNL     1       3.036   1.189  -2.434  1.00  0.00     0.181 C 
HETATM   20  C23 UNL     1       2.955   2.445  -3.289  1.00  0.00     0.072 C 
HETATM   21  C24 UNL     1       1.521   2.959  -3.385  1.00  0.00     0.146 C 
HETATM   22  O4  UNL     1       1.025   3.263  -2.104  1.00  0.00    -0.327 OA
HETATM   23  O5  UNL     1       4.375   0.991  -2.018  1.00  0.00    -0.218 OA
HETATM   24  O10 UNL     1      -1.067  -5.046   0.643  1.00  0.00    -0.218 OA
ENDROOT
BRANCH   1  25
HETATM   25  C4  UNL     1      -3.288  -0.949   2.204  1.00  0.00     0.005 A 
HETATM   26  C3  UNL     1      -4.141  -0.706   3.287  1.00  0.00    -0.002 A 
HETATM   27  C2  UNL     1      -5.211   0.185   3.173  1.00  0.00    -0.000 A 
HETATM   28  C1  UNL     1      -5.447   0.846   1.966  1.00  0.00    -0.000 A 
HETATM   29  C6  UNL     1      -4.605   0.613   0.878  1.00  0.00    -0.000 A 
HETATM   30  C5  UNL     1      -3.534  -0.275   1.002  1.00  0.00    -0.002 A 
ENDBRANCH   1  25
BRANCH   7  31
HETATM   31  O9  UNL     1       2.056  -0.825   2.914  1.00  0.00    -0.341 OA
HETATM   32  C34 UNL     1       1.413   0.010   3.841  1.00  0.00     0.175 C 
ENDBRANCH   7  31
BRANCH   8  33
HETATM   33  O8  UNL     1       3.737  -2.074   1.556  1.00  0.00    -0.329 OA
HETATM   34  C33 UNL     1       4.752  -1.097   1.648  1.00  0.00     0.177 C 
ENDBRANCH   8  33
BRANCH  15  35
HETATM   35  O7  UNL     1      -0.552   1.351   2.019  1.00  0.00    -0.326 OA
HETATM   36  C32 UNL     1      -0.644   2.531   2.788  1.00  0.00     0.181 C 
ENDBRANCH  15  35
BRANCH  16  37
HETATM   37  O6  UNL     1      -0.663   3.303  -0.004  1.00  0.00    -0.324 OA
HETATM   38  C31 UNL     1      -1.895   3.008  -0.623  1.00  0.00     0.182 C 
ENDBRANCH  16  37
BRANCH  21  39
HETATM   39  C25 UNL     1       0.579   2.087  -4.206  1.00  0.00     0.005 A 
HETATM   40  C26 UNL     1       0.323   2.415  -5.545  1.00  0.00    -0.002 A 
HETATM   41  C27 UNL     1      -0.558   1.667  -6.330  1.00  0.00    -0.000 A 
HETATM   42  C28 UNL     1      -1.206   0.556  -5.788  1.00  0.00    -0.000 A 
HETATM   43  C29 UNL     1      -0.962   0.208  -4.460  1.00  0.00    -0.000 A 
HETATM   44  C30 UNL     1      -0.085   0.969  -3.684  1.00  0.00    -0.002 A 
ENDBRANCH  21  39
TORSDOF 6
