REMARK  5 active torsions:
REMARK  status: ('A' for Active; 'I' for Inactive)
REMARK    1  A    between atoms: C2_2  and  O7_24 
REMARK    2  A    between atoms: C7_8  and  C17_22 
REMARK    3  A    between atoms: C8_9  and  C9_11 
REMARK    4  A    between atoms: C10_12  and  O3_13 
REMARK    5  A    between atoms: C13_16  and  O4_19 
ROOT
HETATM    1  C1  UNL     1      -3.537  -1.614   2.654  1.00  0.00     0.052 A 
HETATM    2  C2  UNL     1      -4.174  -0.537   1.987  1.00  0.00     0.098 A 
HETATM    3  C3  UNL     1      -3.418   0.159   1.043  1.00  0.00     0.049 A 
HETATM    4  C4  UNL     1      -2.108  -0.260   0.768  1.00  0.00     0.104 A 
HETATM    5  C5  UNL     1      -1.521  -1.325   1.441  1.00  0.00     0.053 A 
HETATM    6  C6  UNL     1      -2.240  -2.049   2.411  1.00  0.00     0.135 A 
HETATM    7  O1  UNL     1      -1.705  -3.081   3.109  1.00  0.00    -0.190 OA
HETATM    8  C7  UNL     1      -0.163  -1.374   0.944  1.00  0.00     0.069 A 
HETATM    9  C8  UNL     1      -0.042  -0.403  -0.024  1.00  0.00     0.105 A 
HETATM   10  O2  UNL     1      -1.222   0.311  -0.113  1.00  0.00    -0.307 OA
ENDROOT
BRANCH   9  11
HETATM   11  C9  UNL     1       1.129  -0.078  -0.866  1.00  0.00     0.047 A 
HETATM   12  C10 UNL     1       1.413   1.242  -1.276  1.00  0.00     0.123 A 
HETATM   13  C12 UNL     1       2.490   1.465  -2.149  1.00  0.00     0.175 A 
HETATM   14  C13 UNL     1       3.374   0.441  -2.536  1.00  0.00     0.121 A 
HETATM   15  O5  UNL     1       2.737   2.725  -2.605  1.00  0.00    -0.186 OA
HETATM   16  C14 UNL     1       3.092  -0.851  -2.084  1.00  0.00     0.026 A 
HETATM   17  C15 UNL     1       1.969  -1.109  -1.301  1.00  0.00     0.006 A 
BRANCH  12  18
HETATM   18  O3  UNL     1       0.564   2.285  -1.006  1.00  0.00    -0.326 OA
HETATM   19  C11 UNL     1       0.823   2.928   0.221  1.00  0.00     0.181 C 
ENDBRANCH  12  18
BRANCH  14  20
HETATM   20  O4  UNL     1       4.442   0.780  -3.328  1.00  0.00    -0.326 OA
HETATM   21  C16 UNL     1       5.398  -0.207  -3.632  1.00  0.00     0.181 C 
ENDBRANCH  14  20
ENDBRANCH   9  11
BRANCH   8  22
HETATM   22  C17 UNL     1       0.873  -2.292   1.458  1.00  0.00     0.236 C 
HETATM   23  O6  UNL     1       2.075  -2.107   1.335  1.00  0.00    -0.283 OA
ENDBRANCH   8  22
BRANCH   2  24
HETATM   24  O7  UNL     1      -5.442  -0.190   2.380  1.00  0.00    -0.328 OA
HETATM   25  C18 UNL     1      -5.923   1.085   2.024  1.00  0.00     0.181 C 
ENDBRANCH   2  24
TORSDOF 5
