REMARK  11 active torsions:
REMARK  status: ('A' for Active; 'I' for Inactive)
REMARK    1  A    between atoms: C1_1  and  C2_2 
REMARK    2  A    between atoms: C1_1  and  C30_37 
REMARK    3  A    between atoms: C2_2  and  C3_3 
REMARK    4  A    between atoms: C3_3  and  C4_4 
REMARK    5  A    between atoms: C4_4  and  C5_5 
REMARK    6  A    between atoms: C7_7  and  C24_29 
REMARK    7  A    between atoms: C12_13  and  O4_26 
REMARK    8  A    between atoms: C13_14  and  C14_15 
REMARK    9  A    between atoms: C14_15  and  C15_17 
REMARK   10  A    between atoms: C15_17  and  C16_18 
REMARK   11  A    between atoms: C16_18  and  C17_19 
ROOT
HETATM    1  C5  UNL     1       0.810  -0.941  -0.921  1.00  0.00     0.031 C 
HETATM    2  C6  UNL     1       1.829   0.213  -0.892  1.00  0.00     0.039 C 
HETATM    3  C7  UNL     1       1.107   1.565  -0.910  1.00  0.00     0.144 C 
HETATM    4  O1  UNL     1       0.415   1.766   0.301  1.00  0.00    -0.329 OA
HETATM    5  C8  UNL     1      -0.377   0.729   0.704  1.00  0.00     0.095 C 
HETATM    6  C9  UNL     1      -0.342  -0.601  -0.011  1.00  0.00     0.022 C 
HETATM    7  C10 UNL     1      -1.558  -1.498   0.066  1.00  0.00     0.113 C 
HETATM    8  C11 UNL     1      -2.295  -1.451   1.383  1.00  0.00     0.105 C 
HETATM    9  C12 UNL     1      -2.436  -0.117   2.087  1.00  0.00     0.082 C 
HETATM   10  C13 UNL     1      -1.694   1.007   1.393  1.00  0.00     0.062 C 
HETATM   11  O5  UNL     1      -2.205  -1.881  -1.063  1.00  0.00    -0.195 OA
ENDROOT
BRANCH   1  12
HETATM   12  C4  UNL     1       1.413  -2.307  -0.533  1.00  0.00     0.037 C 
BRANCH  12  13
HETATM   13  C3  UNL     1       1.689  -3.245  -1.716  1.00  0.00     0.153 C 
HETATM   14  O7  UNL     1       3.045  -3.124  -2.079  1.00  0.00    -0.223 OA
BRANCH  13  15
HETATM   15  C2  UNL     1       1.372  -4.713  -1.399  1.00  0.00     0.038 C 
BRANCH  15  16
HETATM   16  C1  UNL     1      -0.145  -4.979  -1.399  1.00  0.00     0.029 C 
BRANCH  16  17
HETATM   17  C30 UNL     1      -0.615  -6.338  -0.929  1.00  0.00    -0.022 A 
HETATM   18  C31 UNL     1      -1.963  -6.508  -0.589  1.00  0.00    -0.002 A 
HETATM   19  C32 UNL     1      -2.451  -7.737  -0.143  1.00  0.00     0.027 A 
HETATM   20  C33 UNL     1      -1.610  -8.847  -0.020  1.00  0.00     0.131 A 
HETATM   21  C34 UNL     1      -0.265  -8.677  -0.360  1.00  0.00     0.027 A 
HETATM   22  O8  UNL     1      -2.077 -10.048   0.412  1.00  0.00    -0.190 OA
HETATM   23  C35 UNL     1       0.227  -7.448  -0.806  1.00  0.00    -0.002 A 
ENDBRANCH  16  17
ENDBRANCH  15  16
ENDBRANCH  13  15
ENDBRANCH  12  13
ENDBRANCH   1  12
BRANCH   3  24
HETATM   24  C24 UNL     1       2.065   2.722  -1.125  1.00  0.00     0.005 A 
HETATM   25  C25 UNL     1       2.023   3.494  -2.291  1.00  0.00     0.000 A 
HETATM   26  C26 UNL     1       2.880   4.583  -2.462  1.00  0.00     0.027 A 
HETATM   27  C27 UNL     1       3.811   4.939  -1.482  1.00  0.00     0.131 A 
HETATM   28  C28 UNL     1       3.851   4.164  -0.319  1.00  0.00     0.027 A 
HETATM   29  O6  UNL     1       4.635   6.008  -1.635  1.00  0.00    -0.190 OA
HETATM   30  C29 UNL     1       3.000   3.071  -0.145  1.00  0.00     0.000 A 
ENDBRANCH   3  24
BRANCH  10  31
HETATM   31  C14 UNL     1      -2.550   2.106   0.782  1.00  0.00     0.112 C 
HETATM   32  O2  UNL     1      -3.288   1.875  -0.279  1.00  0.00    -0.195 OA
BRANCH  31  33
HETATM   33  C15 UNL     1      -2.465   3.404   1.418  1.00  0.00     0.054 C 
BRANCH  33  34
HETATM   34  C16 UNL     1      -1.577   3.636   2.613  1.00  0.00     0.007 C 
BRANCH  34  35
HETATM   35  C17 UNL     1      -0.656   4.832   2.675  1.00  0.00     0.001 C 
HETATM   36  C18 UNL     1       0.520   4.756   1.727  1.00  0.00     0.003 C 
HETATM   37  C19 UNL     1       0.564   5.727   0.576  1.00  0.00     0.033 C 
HETATM   38  C20 UNL     1       0.129   7.152   0.827  1.00  0.00     0.152 C 
HETATM   39  C21 UNL     1      -0.645   7.366   2.109  1.00  0.00     0.033 C 
HETATM   40  O3  UNL     1       0.846   8.180   0.303  1.00  0.00    -0.224 OA
HETATM   41  C22 UNL     1      -1.328   6.186   2.755  1.00  0.00     0.003 C 
ENDBRANCH  34  35
ENDBRANCH  33  34
ENDBRANCH  31  33
ENDBRANCH  10  31
BRANCH   9  42
HETATM   42  O4  UNL     1      -3.466   0.183   2.935  1.00  0.00    -0.332 OA
HETATM   43  C23 UNL     1      -4.532  -0.736   2.982  1.00  0.00     0.181 C 
ENDBRANCH   9  42
TORSDOF 11
