REMARK  13 active torsions:
REMARK  status: ('A' for Active; 'I' for Inactive)
REMARK    1  A    between atoms: C1_1  and  C2_2 
REMARK    2  A    between atoms: C1_1  and  C8_9 
REMARK    3  A    between atoms: C8_9  and  C9_10 
REMARK    4  A    between atoms: C9_10  and  O2_11 
REMARK    5  A    between atoms: C9_10  and  C10_13 
REMARK    6  A    between atoms: C10_13  and  C11_14 
REMARK    7  A    between atoms: C11_14  and  C12_15 
REMARK    8  A    between atoms: C11_14  and  C20_24 
REMARK    9  A    between atoms: C13_16  and  C14_17 
REMARK   10  A    between atoms: C22_27  and  C27_34 
REMARK   11  A    between atoms: C23_28  and  O7_32 
REMARK   12  A    between atoms: C27_34  and  C28_35 
REMARK   13  A    between atoms: C29_36  and  C30_37 
ROOT
HETATM    1  C11 UNL     1       0.411  -0.558   0.925  1.00  0.00     0.051 C 
ENDROOT
BRANCH   1   2
HETATM    2  C10 UNL     1       0.566  -2.105   0.969  1.00  0.00     0.042 C 
BRANCH   2   3
HETATM    3  C9  UNL     1      -0.294  -2.971   0.034  1.00  0.00     0.156 C 
BRANCH   3   4
HETATM    4  C8  UNL     1      -0.995  -4.157   0.719  1.00  0.00     0.038 C 
BRANCH   4   5
HETATM    5  C1  UNL     1      -0.071  -5.192   1.379  1.00  0.00     0.029 C 
BRANCH   5   6
HETATM    6  C2  UNL     1      -0.811  -6.477   1.696  1.00  0.00    -0.022 A 
HETATM    7  C3  UNL     1      -0.374  -7.706   1.189  1.00  0.00    -0.002 A 
HETATM    8  C4  UNL     1      -1.070  -8.886   1.460  1.00  0.00     0.027 A 
HETATM    9  C5  UNL     1      -2.231  -8.884   2.237  1.00  0.00     0.131 A 
HETATM   10  C6  UNL     1      -2.666  -7.655   2.743  1.00  0.00     0.027 A 
HETATM   11  O1  UNL     1      -2.904 -10.037   2.490  1.00  0.00    -0.190 OA
HETATM   12  C7  UNL     1      -1.969  -6.474   2.482  1.00  0.00    -0.002 A 
ENDBRANCH   5   6
ENDBRANCH   4   5
ENDBRANCH   3   4
BRANCH   3  13
HETATM   13  O2  UNL     1       0.417  -3.486  -1.069  1.00  0.00    -0.192 OA
HETATM   14  O3  UNL     1       1.318  -2.444  -1.571  1.00  0.00    -0.035 OA
ENDBRANCH   3  13
ENDBRANCH   2   3
ENDBRANCH   1   2
BRANCH   1  15
HETATM   15  C12 UNL     1      -1.026  -0.150   1.173  1.00  0.00    -0.022 C 
HETATM   16  C13 UNL     1      -1.458   0.294   2.371  1.00  0.00    -0.004 C 
BRANCH  16  17
HETATM   17  C14 UNL     1      -2.850   0.619   2.723  1.00  0.00    -0.000 A 
HETATM   18  C15 UNL     1      -3.094   1.388   3.871  1.00  0.00     0.002 A 
HETATM   19  C16 UNL     1      -4.396   1.651   4.295  1.00  0.00     0.027 A 
HETATM   20  C17 UNL     1      -5.501   1.145   3.602  1.00  0.00     0.131 A 
HETATM   21  C18 UNL     1      -5.253   0.356   2.475  1.00  0.00     0.027 A 
HETATM   22  O4  UNL     1      -6.771   1.377   4.027  1.00  0.00    -0.190 OA
HETATM   23  C19 UNL     1      -3.953   0.093   2.038  1.00  0.00     0.002 A 
ENDBRANCH  16  17
ENDBRANCH   1  15
BRANCH   1  24
HETATM   24  C20 UNL     1       1.066   0.273  -0.186  1.00  0.00     0.033 C 
HETATM   25  C21 UNL     1       2.089   1.190   0.137  1.00  0.00     0.134 C 
HETATM   26  O5  UNL     1       2.503   1.345   1.426  1.00  0.00    -0.190 OA
HETATM   27  C22 UNL     1       2.692   1.950  -0.879  1.00  0.00     0.086 C 
HETATM   28  C23 UNL     1       2.365   1.810  -2.239  1.00  0.00     0.101 C 
HETATM   29  C24 UNL     1       1.324   0.923  -2.511  1.00  0.00     0.051 C 
HETATM   30  C25 UNL     1       0.626   0.229  -1.518  1.00  0.00     0.131 C 
HETATM   31  O6  UNL     1      -0.381  -0.590  -1.906  1.00  0.00    -0.190 OA
BRANCH  27  32
HETATM   32  C27 UNL     1       3.746   2.956  -0.507  1.00  0.00     0.200 C 
HETATM   33  O9  UNL     1       4.652   2.652   0.262  1.00  0.00    -0.286 OA
BRANCH  32  34
HETATM   34  C28 UNL     1       3.686   4.323  -1.096  1.00  0.00     0.042 C 
HETATM   35  C29 UNL     1       2.573   4.855  -1.653  1.00  0.00     0.003 C 
BRANCH  35  36
HETATM   36  C30 UNL     1       2.499   6.156  -2.337  1.00  0.00     0.000 A 
HETATM   37  C31 UNL     1       1.407   6.407  -3.185  1.00  0.00     0.002 A 
HETATM   38  C32 UNL     1       1.310   7.599  -3.899  1.00  0.00     0.027 A 
HETATM   39  C33 UNL     1       2.283   8.598  -3.784  1.00  0.00     0.131 A 
HETATM   40  C34 UNL     1       3.346   8.365  -2.907  1.00  0.00     0.027 A 
HETATM   41  O8  UNL     1       2.198   9.758  -4.488  1.00  0.00    -0.190 OA
HETATM   42  C35 UNL     1       3.456   7.170  -2.191  1.00  0.00     0.002 A 
ENDBRANCH  35  36
ENDBRANCH  32  34
ENDBRANCH  27  32
BRANCH  28  43
HETATM   43  O7  UNL     1       3.100   2.463  -3.198  1.00  0.00    -0.328 OA
HETATM   44  C26 UNL     1       3.001   2.034  -4.535  1.00  0.00     0.181 C 
ENDBRANCH  28  43
ENDBRANCH   1  24
TORSDOF 13
