REMARK  9 active torsions:
REMARK  status: ('A' for Active; 'I' for Inactive)
REMARK    1  A    between atoms: C4_4  and  C7_7 
REMARK    2  A    between atoms: C7_7  and  C8_8 
REMARK    3  A    between atoms: C8_8  and  C9_9 
REMARK    4  A    between atoms: C10_11  and  C30_36 
REMARK    5  A    between atoms: C12_13  and  C14_15 
REMARK    6  A    between atoms: C17_18  and  O5_33 
REMARK    7  A    between atoms: C18_19  and  C20_22 
REMARK    8  A    between atoms: C20_22  and  C21_23 
REMARK    9  A    between atoms: C22_24  and  C23_25 
ROOT
HETATM    1  C9  UNL     1       1.483  -1.121  -0.272  1.00  0.00     0.116 C 
HETATM    2  O1  UNL     1       0.693  -1.675  -1.287  1.00  0.00    -0.355 OA
HETATM    3  C10 UNL     1       0.015  -2.841  -0.876  1.00  0.00     0.138 C 
HETATM    4  C11 UNL     1      -0.936  -2.547   0.286  1.00  0.00     0.039 C 
HETATM    5  C12 UNL     1      -0.395  -1.566   1.345  1.00  0.00     0.032 C 
HETATM    6  C13 UNL     1       0.552  -0.501   0.769  1.00  0.00     0.034 C 
ENDROOT
BRANCH   5   7
HETATM    7  C14 UNL     1      -1.532  -0.956   2.159  1.00  0.00     0.029 C 
HETATM    8  C15 UNL     1      -1.673  -1.282   3.518  1.00  0.00     0.131 C 
HETATM    9  C16 UNL     1      -2.767  -0.774   4.218  1.00  0.00     0.051 C 
HETATM   10  O6  UNL     1      -0.818  -2.131   4.151  1.00  0.00    -0.190 OA
HETATM   11  C17 UNL     1      -3.706   0.105   3.665  1.00  0.00     0.101 C 
HETATM   12  C18 UNL     1      -3.579   0.354   2.288  1.00  0.00     0.086 C 
HETATM   13  C19 UNL     1      -2.476  -0.116   1.547  1.00  0.00     0.134 C 
HETATM   14  O2  UNL     1      -2.383   0.152   0.215  1.00  0.00    -0.190 OA
BRANCH  11  15
HETATM   15  O5  UNL     1      -4.810   0.464   4.391  1.00  0.00    -0.328 OA
HETATM   16  C29 UNL     1      -4.674   1.692   5.068  1.00  0.00     0.181 C 
ENDBRANCH  11  15
BRANCH  12  17
HETATM   17  C20 UNL     1      -4.626   1.171   1.586  1.00  0.00     0.200 C 
HETATM   18  O4  UNL     1      -5.821   1.096   1.848  1.00  0.00    -0.286 OA
BRANCH  17  19
HETATM   19  C21 UNL     1      -4.152   2.082   0.504  1.00  0.00     0.042 C 
HETATM   20  C22 UNL     1      -4.814   2.199  -0.658  1.00  0.00     0.003 C 
BRANCH  20  21
HETATM   21  C23 UNL     1      -4.203   2.972  -1.788  1.00  0.00     0.000 A 
HETATM   22  C24 UNL     1      -3.493   2.278  -2.770  1.00  0.00     0.002 A 
HETATM   23  C25 UNL     1      -2.826   2.974  -3.780  1.00  0.00     0.027 A 
HETATM   24  C26 UNL     1      -2.846   4.371  -3.830  1.00  0.00     0.131 A 
HETATM   25  C27 UNL     1      -3.548   5.053  -2.830  1.00  0.00     0.027 A 
HETATM   26  O3  UNL     1      -2.190   5.052  -4.806  1.00  0.00    -0.190 OA
HETATM   27  C28 UNL     1      -4.210   4.368  -1.808  1.00  0.00     0.002 A 
ENDBRANCH  20  21
ENDBRANCH  17  19
ENDBRANCH  12  17
ENDBRANCH   5   7
BRANCH   3  28
HETATM   28  C30 UNL     1       0.953  -4.028  -0.738  1.00  0.00     0.005 A 
HETATM   29  C31 UNL     1       1.460  -4.635  -1.894  1.00  0.00     0.000 A 
HETATM   30  C32 UNL     1       2.306  -5.742  -1.825  1.00  0.00     0.027 A 
HETATM   31  C33 UNL     1       2.689  -6.284  -0.594  1.00  0.00     0.131 A 
HETATM   32  C34 UNL     1       2.190  -5.673   0.560  1.00  0.00     0.027 A 
HETATM   33  O7  UNL     1       3.513  -7.359  -0.513  1.00  0.00    -0.190 OA
HETATM   34  C35 UNL     1       1.336  -4.572   0.493  1.00  0.00     0.000 A 
ENDBRANCH   3  28
BRANCH   1  35
HETATM   35  C8  UNL     1       2.436  -0.090  -0.898  1.00  0.00     0.034 C 
BRANCH  35  36
HETATM   36  C7  UNL     1       3.584   0.308   0.046  1.00  0.00     0.029 C 
BRANCH  36  37
HETATM   37  C4  UNL     1       4.595   1.268  -0.545  1.00  0.00    -0.022 A 
HETATM   38  C3  UNL     1       5.969   1.030  -0.423  1.00  0.00    -0.002 A 
HETATM   39  C2  UNL     1       6.907   1.943  -0.909  1.00  0.00     0.027 A 
HETATM   40  C1  UNL     1       6.511   3.125  -1.541  1.00  0.00     0.131 A 
HETATM   41  C6  UNL     1       5.139   3.350  -1.684  1.00  0.00     0.027 A 
HETATM   42  O8  UNL     1       7.417   4.030  -1.996  1.00  0.00    -0.190 OA
HETATM   43  C5  UNL     1       4.198   2.443  -1.192  1.00  0.00    -0.002 A 
ENDBRANCH  36  37
ENDBRANCH  35  36
ENDBRANCH   1  35
TORSDOF 9
