REMARK  5 active torsions:
REMARK  status: ('A' for Active; 'I' for Inactive)
REMARK    1  A    between atoms: C5_5  and  C7_8 
REMARK    2  A    between atoms: C7_8  and  C8_9 
REMARK    3  A    between atoms: C9_10  and  C10_11 
REMARK    4  A    between atoms: C11_13  and  O3_19 
REMARK    5  A    between atoms: C12_14  and  O2_17 
ROOT
HETATM    1  C1  UNL     1       1.216   3.310  -2.159  1.00  0.00     0.255 C 
HETATM    2  C2  UNL     1      -0.303   3.309  -1.976  1.00  0.00     0.061 C 
HETATM    3  C3  UNL     1      -0.860   1.924  -2.147  1.00  0.00    -0.020 A 
HETATM    4  C4  UNL     1      -0.014   0.806  -2.023  1.00  0.00     0.007 A 
HETATM    5  C5  UNL     1       1.464   0.960  -1.660  1.00  0.00     0.246 C 
HETATM    6  N1  UNL     1       1.831   2.330  -1.276  1.00  0.00     0.142 N 
HETATM    7  C6  UNL     1       3.275   2.545  -1.265  1.00  0.00     0.286 C 
HETATM    8  C17 UNL     1      -0.555  -0.477  -2.225  1.00  0.00     0.024 A 
HETATM    9  C18 UNL     1      -1.914  -0.606  -2.486  1.00  0.00     0.119 A 
HETATM   10  C19 UNL     1      -2.742   0.505  -2.575  1.00  0.00     0.119 A 
HETATM   11  C20 UNL     1      -2.231   1.787  -2.417  1.00  0.00     0.022 A 
HETATM   12  O4  UNL     1      -4.034   0.093  -2.834  1.00  0.00    -0.300 OA
HETATM   13  C21 UNL     1      -4.025  -1.339  -2.898  1.00  0.00     0.304 A 
HETATM   14  O5  UNL     1      -2.667  -1.746  -2.690  1.00  0.00    -0.300 OA
ENDROOT
BRANCH   5  15
HETATM   15  C7  UNL     1       1.908  -0.100  -0.617  1.00  0.00     0.064 C 
BRANCH  15  16
HETATM   16  C8  UNL     1       1.033  -0.309   0.610  1.00  0.00    -0.015 C 
HETATM   17  C9  UNL     1       1.056  -1.501   1.371  1.00  0.00     0.062 C 
HETATM   18  C11 UNL     1       0.205  -1.709   2.483  1.00  0.00     0.119 C 
HETATM   19  C12 UNL     1      -0.800  -0.756   2.768  1.00  0.00     0.116 C 
HETATM   20  C13 UNL     1      -0.786   0.431   2.031  1.00  0.00     0.026 C 
HETATM   21  C14 UNL     1       0.127   0.672   1.008  1.00  0.00    -0.002 C 
BRANCH  17  22
HETATM   22  C10 UNL     1       2.070  -2.544   1.032  1.00  0.00     0.236 C 
HETATM   23  O1  UNL     1       2.059  -3.712   1.391  1.00  0.00    -0.283 OA
ENDBRANCH  17  22
BRANCH  18  24
HETATM   24  O3  UNL     1       0.232  -2.894   3.170  1.00  0.00    -0.326 OA
HETATM   25  C16 UNL     1       1.062  -2.868   4.309  1.00  0.00     0.181 C 
ENDBRANCH  18  24
BRANCH  19  26
HETATM   26  O2  UNL     1      -1.795  -0.886   3.710  1.00  0.00    -0.326 OA
HETATM   27  C15 UNL     1      -2.402  -2.141   3.910  1.00  0.00     0.181 C 
ENDBRANCH  19  26
ENDBRANCH  15  16
ENDBRANCH   5  15
TORSDOF 5
