REMARK  5 active torsions:
REMARK  status: ('A' for Active; 'I' for Inactive)
REMARK    1  A    between atoms: C1_1  and  C2_2 
REMARK    2  A    between atoms: C1_1  and  C20_24 
REMARK    3  A    between atoms: C2_2  and  C3_3 
REMARK    4  A    between atoms: C4_4  and  C5_5 
REMARK    5  A    between atoms: C14_14  and  C16_17 
ROOT
HETATM    1  C3  UNL     1       1.072   0.635  -0.103  1.00  0.00     0.025 C 
HETATM    2  C4  UNL     1       2.325  -0.203   0.286  1.00  0.00     0.030 C 
HETATM    3  C8  UNL     1       2.425  -1.510  -0.500  1.00  0.00     0.074 C 
HETATM    4  C9  UNL     1       1.198  -2.360  -0.249  1.00  0.00     0.175 C 
HETATM    5  C10 UNL     1      -0.121  -1.671  -0.169  1.00  0.00     0.058 A 
HETATM    6  C11 UNL     1      -0.187  -0.262  -0.129  1.00  0.00     0.010 A 
HETATM    7  C12 UNL     1      -1.466   0.316  -0.200  1.00  0.00     0.152 A 
HETATM    8  C13 UNL     1      -2.626  -0.470  -0.194  1.00  0.00     0.154 A 
HETATM    9  C14 UNL     1      -2.547  -1.868  -0.167  1.00  0.00     0.030 A 
HETATM   10  C15 UNL     1      -1.280  -2.474  -0.179  1.00  0.00     0.132 A 
HETATM   11  O1  UNL     1      -1.176  -3.830  -0.259  1.00  0.00    -0.190 OA
HETATM   12  O2  UNL     1      -3.822   0.179  -0.244  1.00  0.00    -0.188 OA
HETATM   13  O3  UNL     1      -1.647   1.662  -0.290  1.00  0.00    -0.188 OA
HETATM   14  O4  UNL     1       1.359  -3.571  -0.141  1.00  0.00    -0.291 OA
HETATM   15  C19 UNL     1       1.178   1.183  -1.544  1.00  0.00     0.005 C 
ENDROOT
BRANCH   1  16
HETATM   16  C2  UNL     1       0.940   1.751   0.986  1.00  0.00     0.016 C 
BRANCH  16  17
HETATM   17  C1  UNL     1       1.351   3.174   0.573  1.00  0.00     0.098 C 
BRANCH  17  18
HETATM   18  C20 UNL     1       1.210   4.184   1.698  1.00  0.00     0.185 C 
HETATM   19  O5  UNL     1       1.166   5.445   1.228  1.00  0.00    -0.647 OA
HETATM   20  O6  UNL     1       1.130   3.948   2.880  1.00  0.00    -0.647 OA
ENDBRANCH  17  18
ENDBRANCH  16  17
ENDBRANCH   1  16
BRANCH   2  21
HETATM   21  C5  UNL     1       3.670   0.516   0.349  1.00  0.00    -0.043 C 
HETATM   22  C6  UNL     1       4.196   0.888   1.530  1.00  0.00    -0.009 C 
HETATM   23  C7  UNL     1       4.457   0.776  -0.916  1.00  0.00     0.026 C 
ENDBRANCH   2  21
BRANCH   9  24
HETATM   24  C16 UNL     1      -3.822  -2.712  -0.170  1.00  0.00     0.026 C 
HETATM   25  C17 UNL     1      -4.741  -2.430   1.032  1.00  0.00     0.005 C 
HETATM   26  C18 UNL     1      -4.573  -2.606  -1.507  1.00  0.00     0.005 C 
ENDBRANCH   9  24
TORSDOF 5
