REMARK  6 active torsions:
REMARK  status: ('A' for Active; 'I' for Inactive)
REMARK    1  A    between atoms: C1_1  and  C2_2 
REMARK    2  A    between atoms: C1_1  and  C20_24 
REMARK    3  A    between atoms: C2_2  and  C3_3 
REMARK    4  A    between atoms: C4_4  and  C5_5 
REMARK    5  A    between atoms: C14_14  and  C16_17 
REMARK    6  A    between atoms: C20_24  and  O5_25 
ROOT
HETATM    1  C3  UNL     1      -1.091  -0.376  -0.038  1.00  0.00     0.026 C 
HETATM    2  C4  UNL     1      -2.208   0.561   0.511  1.00  0.00     0.030 C 
HETATM    3  C8  UNL     1      -2.294   1.909  -0.211  1.00  0.00     0.073 C 
HETATM    4  C9  UNL     1      -0.955   2.600  -0.158  1.00  0.00     0.172 C 
HETATM    5  C10 UNL     1       0.275   1.768  -0.236  1.00  0.00     0.046 C 
HETATM    6  C11 UNL     1       0.226   0.419  -0.158  1.00  0.00     0.020 C 
HETATM    7  C12 UNL     1       1.524  -0.306  -0.283  1.00  0.00     0.216 C 
HETATM    8  C13 UNL     1       2.776   0.432  -0.573  1.00  0.00     0.164 C 
HETATM    9  C14 UNL     1       2.797   1.779  -0.609  1.00  0.00     0.018 C 
HETATM   10  C15 UNL     1       1.544   2.574  -0.368  1.00  0.00     0.198 C 
HETATM   11  O1  UNL     1       1.622   3.383   0.802  1.00  0.00    -0.214 OA
HETATM   12  O2  UNL     1       3.854  -0.359  -0.831  1.00  0.00    -0.187 OA
HETATM   13  O3  UNL     1       1.635  -1.525  -0.241  1.00  0.00    -0.285 OA
HETATM   14  O4  UNL     1      -0.850   3.815  -0.046  1.00  0.00    -0.292 OA
HETATM   15  C19 UNL     1      -1.361  -0.847  -1.483  1.00  0.00     0.005 C 
ENDROOT
BRANCH   1  16
HETATM   16  C2  UNL     1      -0.962  -1.552   0.981  1.00  0.00     0.015 C 
BRANCH  16  17
HETATM   17  C1  UNL     1      -0.961  -2.995   0.444  1.00  0.00     0.096 C 
BRANCH  17  18
HETATM   18  C20 UNL     1      -0.778  -4.034   1.541  1.00  0.00     0.272 C 
HETATM   19  O6  UNL     1      -0.637  -3.788   2.717  1.00  0.00    -0.264 OA
BRANCH  18  20
HETATM   20  O5  UNL     1      -0.810  -5.290   1.015  1.00  0.00    -0.299 OA
HETATM   21  C21 UNL     1      -0.668  -6.350   1.932  1.00  0.00     0.184 C 
ENDBRANCH  18  20
ENDBRANCH  17  18
ENDBRANCH  16  17
ENDBRANCH   1  16
BRANCH   2  22
HETATM   22  C5  UNL     1      -3.610  -0.013   0.695  1.00  0.00    -0.043 C 
HETATM   23  C6  UNL     1      -4.169  -0.084   1.916  1.00  0.00    -0.009 C 
HETATM   24  C7  UNL     1      -4.412  -0.465  -0.502  1.00  0.00     0.026 C 
ENDBRANCH   2  22
BRANCH   9  25
HETATM   25  C16 UNL     1       4.069   2.517  -1.011  1.00  0.00     0.023 C 
HETATM   26  C17 UNL     1       4.003   2.911  -2.497  1.00  0.00     0.004 C 
HETATM   27  C18 UNL     1       4.408   3.737  -0.141  1.00  0.00     0.004 C 
ENDBRANCH   9  25
TORSDOF 6
