REMARK  13 active torsions:
REMARK  status: ('A' for Active; 'I' for Inactive)
REMARK    1  A    between atoms: C3_3  and  O7_44 
REMARK    2  A    between atoms: C5_5  and  C7_7 
REMARK    3  A    between atoms: C8_8  and  C9_9 
REMARK    4  A    between atoms: C8_8  and  C18_21 
REMARK       I    between atoms: C9_9  and  N1_10 
REMARK    5  A    between atoms: N1_10  and  C10_11 
REMARK    6  A    between atoms: C10_11  and  C11_12 
REMARK    7  A    between atoms: C11_12  and  C12_13 
REMARK    8  A    between atoms: C18_21  and  C27_32 
REMARK    9  A    between atoms: C19_22  and  C20_23 
REMARK   10  A    between atoms: C22_25  and  O4_30 
REMARK       I    between atoms: C27_32  and  N2_33 
REMARK   11  A    between atoms: N2_33  and  C28_34 
REMARK   12  A    between atoms: C28_34  and  C29_35 
REMARK   13  A    between atoms: C29_35  and  C30_36 
ROOT
HETATM    1  C7  UNL     1      12.734  -8.504   0.783  1.00  0.00     0.005 C 
HETATM    2  C8  UNL     1      13.543  -9.562   0.530  1.00  0.00     0.062 C 
ENDROOT
BRANCH   2   3
HETATM    3  C9  UNL     1      13.282 -10.844   1.267  1.00  0.00     0.275 C 
HETATM    4  N1  UNL     1      12.050 -11.431   1.185  1.00  0.00    -0.234 NA
HETATM    5  O2  UNL     1      14.185 -11.419   1.853  1.00  0.00    -0.266 OA
BRANCH   4   6
HETATM    6  C10 UNL     1      10.886 -10.829   0.523  1.00  0.00     0.134 C 
BRANCH   6   7
HETATM    7  C11 UNL     1       9.821 -11.871   0.148  1.00  0.00     0.053 C 
BRANCH   7   8
HETATM    8  C12 UNL     1       8.486 -11.212  -0.146  1.00  0.00    -0.020 A 
HETATM    9  C13 UNL     1       8.388 -10.112  -1.006  1.00  0.00    -0.002 A 
HETATM   10  C14 UNL     1       7.168  -9.463  -1.212  1.00  0.00     0.027 A 
HETATM   11  C15 UNL     1       5.997  -9.893  -0.581  1.00  0.00     0.131 A 
HETATM   12  C16 UNL     1       6.092 -11.009   0.256  1.00  0.00     0.027 A 
HETATM   13  O1  UNL     1       4.810  -9.258  -0.769  1.00  0.00    -0.190 OA
HETATM   14  C17 UNL     1       7.311 -11.655   0.472  1.00  0.00    -0.002 A 
ENDBRANCH   7   8
ENDBRANCH   6   7
ENDBRANCH   4   6
ENDBRANCH   2   3
BRANCH   2  15
HETATM   15  C18 UNL     1      14.689  -9.575  -0.397  1.00  0.00     0.062 C 
HETATM   16  C19 UNL     1      15.474  -8.515  -0.709  1.00  0.00     0.005 C 
BRANCH  16  17
HETATM   17  C20 UNL     1      15.557  -7.231   0.010  1.00  0.00     0.002 A 
HETATM   18  C21 UNL     1      16.018  -6.088  -0.662  1.00  0.00     0.026 A 
HETATM   19  C22 UNL     1      16.192  -4.851  -0.030  1.00  0.00     0.119 A 
HETATM   20  C23 UNL     1      15.940  -4.785   1.352  1.00  0.00     0.153 A 
HETATM   21  C24 UNL     1      15.542  -5.929   2.045  1.00  0.00     0.029 A 
HETATM   22  O3  UNL     1      16.133  -3.610   2.009  1.00  0.00    -0.188 OA
HETATM   23  C25 UNL     1      15.378  -7.151   1.394  1.00  0.00     0.002 A 
BRANCH  19  24
HETATM   24  O4  UNL     1      16.680  -3.721  -0.640  1.00  0.00    -0.326 OA
HETATM   25  C26 UNL     1      17.303  -3.854  -1.897  1.00  0.00     0.181 C 
ENDBRANCH  19  24
ENDBRANCH  16  17
BRANCH  15  26
HETATM   26  C27 UNL     1      14.962 -10.889  -1.075  1.00  0.00     0.275 C 
HETATM   27  N2  UNL     1      16.209 -11.447  -1.013  1.00  0.00    -0.234 NA
HETATM   28  O6  UNL     1      14.054 -11.510  -1.599  1.00  0.00    -0.266 OA
BRANCH  27  29
HETATM   29  C28 UNL     1      17.387 -10.796  -0.428  1.00  0.00     0.134 C 
BRANCH  29  30
HETATM   30  C29 UNL     1      18.484 -11.806  -0.052  1.00  0.00     0.053 C 
BRANCH  30  31
HETATM   31  C30 UNL     1      19.827 -11.122   0.117  1.00  0.00    -0.020 A 
HETATM   32  C31 UNL     1      19.965  -9.968   0.897  1.00  0.00    -0.002 A 
HETATM   33  C32 UNL     1      21.187  -9.301   0.987  1.00  0.00     0.027 A 
HETATM   34  C33 UNL     1      22.323  -9.764   0.316  1.00  0.00     0.131 A 
HETATM   35  C34 UNL     1      22.190 -10.930  -0.443  1.00  0.00     0.027 A 
HETATM   36  O5  UNL     1      23.513  -9.111   0.394  1.00  0.00    -0.190 OA
HETATM   37  C35 UNL     1      20.967 -11.595  -0.544  1.00  0.00    -0.002 A 
ENDBRANCH  30  31
ENDBRANCH  29  30
ENDBRANCH  27  29
ENDBRANCH  15  26
ENDBRANCH   2  15
BRANCH   1  38
HETATM   38  C5  UNL     1      12.633  -7.267  -0.011  1.00  0.00     0.002 C 
HETATM   39  C4  UNL     1      12.203  -6.082   0.601  1.00  0.00     0.026 C 
HETATM   40  C3  UNL     1      11.966  -4.908  -0.122  1.00  0.00     0.119 C 
HETATM   41  C2  UNL     1      12.316  -4.886  -1.482  1.00  0.00     0.153 C 
HETATM   42  C1  UNL     1      12.687  -6.074  -2.114  1.00  0.00     0.029 C 
HETATM   43  O8  UNL     1      12.210  -3.722  -2.177  1.00  0.00    -0.188 OA
HETATM   44  C6  UNL     1      12.799  -7.267  -1.401  1.00  0.00     0.002 C 
BRANCH  40  45
HETATM   45  O7  UNL     1      11.612  -3.745   0.507  1.00  0.00    -0.326 OA
HETATM   46  C36 UNL     1      10.223  -3.626   0.715  1.00  0.00     0.181 C 
ENDBRANCH  40  45
ENDBRANCH   1  38
TORSDOF 13
