REMARK  5 active torsions:
REMARK  status: ('A' for Active; 'I' for Inactive)
REMARK    1  A    between atoms: C1_1  and  C2_3 
REMARK    2  A    between atoms: C1_1  and  C18_26 
REMARK    3  A    between atoms: C6_8  and  O3_13 
REMARK    4  A    between atoms: O3_13  and  C11_14 
REMARK    5  A    between atoms: C12_16  and  C16_23 
ROOT
HETATM    1  C2  UNL     1       1.813  -1.098   3.620  1.00  0.00     0.039 C 
HETATM    2  C3  UNL     1       1.442  -0.913   2.337  1.00  0.00    -0.014 C 
HETATM    3  C4  UNL     1       2.296  -1.605   1.264  1.00  0.00     0.144 C 
HETATM    4  O2  UNL     1       2.768  -2.849   1.759  1.00  0.00    -0.222 OA
HETATM    5  C5  UNL     1       1.518  -1.969  -0.007  1.00  0.00     0.064 C 
HETATM    6  C6  UNL     1       0.659  -0.821  -0.524  1.00  0.00     0.121 C 
HETATM    7  C7  UNL     1      -0.346  -0.485   0.575  1.00  0.00     0.034 C 
HETATM    8  C8  UNL     1       0.309   0.017   1.882  1.00  0.00     0.020 C 
HETATM    9  C9  UNL     1      -0.862   0.141   2.886  1.00  0.00     0.004 C 
HETATM   10  C10 UNL     1       0.862   1.444   1.660  1.00  0.00     0.004 C 
HETATM   11  C17 UNL     1       3.549  -0.783   0.941  1.00  0.00     0.037 C 
ENDROOT
BRANCH   6  12
HETATM   12  O3  UNL     1       0.037  -1.212  -1.721  1.00  0.00    -0.331 OA
BRANCH  12  13
HETATM   13  C11 UNL     1      -0.721  -0.182  -2.324  1.00  0.00     0.270 C 
HETATM   14  O4  UNL     1      -2.068  -0.434  -1.983  1.00  0.00    -0.326 OA
HETATM   15  C12 UNL     1      -2.924   0.586  -2.429  1.00  0.00     0.184 C 
HETATM   16  C13 UNL     1      -2.853   0.686  -3.950  1.00  0.00     0.215 C 
HETATM   17  C14 UNL     1      -1.420   0.869  -4.412  1.00  0.00     0.220 C 
HETATM   18  O7  UNL     1      -3.600   1.785  -4.412  1.00  0.00    -0.218 OA
HETATM   19  C15 UNL     1      -0.572  -0.240  -3.826  1.00  0.00     0.241 C 
HETATM   20  O6  UNL     1      -1.365   0.822  -5.814  1.00  0.00    -0.218 OA
HETATM   21  O5  UNL     1       0.772  -0.026  -4.174  1.00  0.00    -0.215 OA
BRANCH  15  22
HETATM   22  C16 UNL     1      -4.335   0.298  -1.923  1.00  0.00     0.214 C 
HETATM   23  O8  UNL     1      -4.840   1.421  -1.227  1.00  0.00    -0.218 OA
ENDBRANCH  15  22
ENDBRANCH  12  13
ENDBRANCH   6  12
BRANCH   1  24
HETATM   24  C1  UNL     1       1.154  -0.543   4.872  1.00  0.00     0.230 C 
HETATM   25  O1  UNL     1       0.369  -1.244   5.491  1.00  0.00    -0.283 OA
BRANCH  24  26
HETATM   26  C18 UNL     1       1.508   0.840   5.322  1.00  0.00     0.212 C 
HETATM   27  C19 UNL     1       2.797   1.490   4.853  1.00  0.00     0.081 C 
HETATM   28  O9  UNL     1       0.780   1.457   6.086  1.00  0.00    -0.288 OA
ENDBRANCH  24  26
ENDBRANCH   1  24
TORSDOF 5
