REMARK  0 active torsions:
REMARK  status: ('A' for Active; 'I' for Inactive)
ROOT
HETATM    1  C1  UNL     1      -3.733   0.641  -0.122  1.00  0.00     0.000 A 
HETATM    2  C2  UNL     1      -3.724  -0.764  -0.188  1.00  0.00     0.002 A 
HETATM    3  C3  UNL     1      -2.529  -1.480  -0.186  1.00  0.00     0.018 A 
HETATM    4  C4  UNL     1      -1.326  -0.765  -0.102  1.00  0.00     0.067 A 
HETATM    5  C5  UNL     1      -1.343   0.644  -0.030  1.00  0.00     0.018 A 
HETATM    6  C6  UNL     1      -2.545   1.364  -0.043  1.00  0.00     0.002 A 
HETATM    7  C7  UNL     1       0.026   1.093   0.102  1.00  0.00     0.020 A 
HETATM    8  C8  UNL     1       0.813  -0.069   0.105  1.00  0.00     0.080 A 
HETATM    9  N1  UNL     1       0.016  -1.209  -0.032  1.00  0.00    -0.274 N 
HETATM   10  C9  UNL     1       0.620  -2.443  -0.034  1.00  0.00     0.265 A 
HETATM   11  C10 UNL     1       2.095  -2.495   0.135  1.00  0.00     0.062 A 
HETATM   12  C11 UNL     1       2.835  -1.364   0.282  1.00  0.00     0.020 A 
HETATM   13  C12 UNL     1       2.196  -0.054   0.272  1.00  0.00     0.086 A 
HETATM   14  N2  UNL     1       2.839   1.140   0.391  1.00  0.00    -0.087 NA
HETATM   15  C13 UNL     1       2.058   2.237   0.530  1.00  0.00     0.082 C 
HETATM   16  C14 UNL     1       0.668   2.308   0.324  1.00  0.00     0.017 C 
HETATM   17  O1  UNL     1       3.531   1.280  -0.727  1.00  0.00    -0.109 OA
HETATM   18  O2  UNL     1      -0.032  -3.485  -0.167  1.00  0.00    -0.267 OA
ENDROOT
TORSDOF 0
