REMARK  6 active torsions:
REMARK  status: ('A' for Active; 'I' for Inactive)
REMARK    1  A    between atoms: C2_2  and  O10_43 
REMARK    2  A    between atoms: C10_10  and  O1_11 
REMARK    3  A    between atoms: O1_11  and  C11_12 
REMARK    4  A    between atoms: C12_14  and  C16_21 
REMARK    5  A    between atoms: O10_43  and  C34_44 
REMARK    6  A    between atoms: C35_46  and  C39_53 
ROOT
HETATM    1  C1  UNL     1      -2.474   0.294  -3.771  1.00  0.00     0.030 C 
HETATM    2  C2  UNL     1      -2.658  -1.150  -3.280  1.00  0.00     0.118 C 
HETATM    3  C3  UNL     1      -1.919  -1.445  -1.970  1.00  0.00     0.032 C 
HETATM    4  C4  UNL     1      -0.522  -0.815  -1.846  1.00  0.00     0.030 C 
HETATM    5  C5  UNL     1      -0.590   0.722  -2.066  1.00  0.00     0.002 C 
HETATM    6  C6  UNL     1      -1.080   0.899  -3.525  1.00  0.00     0.003 C 
HETATM    7  C7  UNL     1       0.845   1.307  -1.867  1.00  0.00     0.000 C 
HETATM    8  C8  UNL     1       1.357   0.926  -0.456  1.00  0.00     0.003 C 
HETATM    9  C9  UNL     1       1.529  -0.599  -0.369  1.00  0.00     0.030 C 
HETATM   10  C10 UNL     1       0.156  -1.255  -0.534  1.00  0.00     0.118 C 
HETATM   11  C17 UNL     1       2.605   1.719  -0.074  1.00  0.00     0.003 C 
HETATM   12  C18 UNL     1       2.331   3.241  -0.128  1.00  0.00     0.003 C 
HETATM   13  C19 UNL     1       2.201   3.551  -1.634  1.00  0.00     0.000 C 
HETATM   14  C20 UNL     1       1.017   2.794  -2.278  1.00  0.00     0.000 C 
HETATM   15  C21 UNL     1       3.614   3.804   0.548  1.00  0.00     0.032 C 
HETATM   16  C22 UNL     1       4.173   2.682   1.433  1.00  0.00     0.118 C 
HETATM   17  C23 UNL     1       3.203   1.504   1.323  1.00  0.00     0.030 C 
HETATM   18  O7  UNL     1       4.328   3.147   2.742  1.00  0.00    -0.335 OA
HETATM   19  C24 UNL     1       3.582   4.330   2.909  1.00  0.00     0.215 C 
HETATM   20  C25 UNL     1       3.579   4.994   1.526  1.00  0.00     0.057 C 
HETATM   21  C26 UNL     1       4.794   5.907   1.270  1.00  0.00     0.005 C 
HETATM   22  O8  UNL     1       2.281   3.892   3.229  1.00  0.00    -0.333 OA
HETATM   23  C27 UNL     1       1.633   4.506   4.310  1.00  0.00     0.145 C 
HETATM   24  C28 UNL     1       1.873   6.010   4.303  1.00  0.00     0.033 C 
HETATM   25  C29 UNL     1       3.367   6.266   4.549  1.00  0.00     0.041 C 
HETATM   26  C30 UNL     1       4.217   5.096   4.054  1.00  0.00     0.203 C 
HETATM   27  O9  UNL     1       4.441   4.182   5.106  1.00  0.00    -0.218 OA
HETATM   28  C31 UNL     1       0.983   6.733   5.325  1.00  0.00     0.003 C 
HETATM   29  C32 UNL     1       1.015   3.672   0.562  1.00  0.00     0.000 C 
HETATM   30  C33 UNL     1      -1.609   1.405  -1.116  1.00  0.00     0.000 C 
ENDROOT
BRANCH   2  31
HETATM   31  O10 UNL     1      -4.039  -1.347  -3.103  1.00  0.00    -0.332 OA
BRANCH  31  32
HETATM   32  C34 UNL     1      -4.444  -2.676  -2.837  1.00  0.00     0.270 C 
HETATM   33  O11 UNL     1      -5.180  -3.060  -3.981  1.00  0.00    -0.326 OA
HETATM   34  C35 UNL     1      -5.705  -4.360  -3.877  1.00  0.00     0.184 C 
HETATM   35  C36 UNL     1      -6.648  -4.447  -2.682  1.00  0.00     0.215 C 
HETATM   36  C37 UNL     1      -5.916  -4.056  -1.416  1.00  0.00     0.220 C 
HETATM   37  O14 UNL     1      -7.129  -5.757  -2.504  1.00  0.00    -0.218 OA
HETATM   38  C38 UNL     1      -5.339  -2.675  -1.615  1.00  0.00     0.241 C 
HETATM   39  O13 UNL     1      -6.814  -4.044  -0.336  1.00  0.00    -0.218 OA
HETATM   40  O12 UNL     1      -4.607  -2.335  -0.465  1.00  0.00    -0.215 OA
BRANCH  34  41
HETATM   41  C39 UNL     1      -6.425  -4.695  -5.175  1.00  0.00     0.214 C 
HETATM   42  O15 UNL     1      -5.494  -4.747  -6.238  1.00  0.00    -0.218 OA
ENDBRANCH  34  41
ENDBRANCH  31  32
ENDBRANCH   2  31
BRANCH  10  43
HETATM   43  O1  UNL     1       0.242  -2.653  -0.561  1.00  0.00    -0.332 OA
BRANCH  43  44
HETATM   44  C11 UNL     1       0.683  -3.267   0.630  1.00  0.00     0.270 C 
HETATM   45  O2  UNL     1       1.937  -3.818   0.285  1.00  0.00    -0.326 OA
HETATM   46  C12 UNL     1       2.522  -4.556   1.326  1.00  0.00     0.184 C 
HETATM   47  C13 UNL     1       1.596  -5.692   1.750  1.00  0.00     0.215 C 
HETATM   48  C14 UNL     1       0.243  -5.145   2.150  1.00  0.00     0.220 C 
HETATM   49  O5  UNL     1       2.120  -6.390   2.852  1.00  0.00    -0.218 OA
HETATM   50  C15 UNL     1      -0.302  -4.358   0.982  1.00  0.00     0.241 C 
HETATM   51  O4  UNL     1      -0.625  -6.207   2.453  1.00  0.00    -0.218 OA
HETATM   52  O3  UNL     1      -1.535  -3.786   1.343  1.00  0.00    -0.215 OA
BRANCH  46  53
HETATM   53  C16 UNL     1       3.858  -5.098   0.833  1.00  0.00     0.214 C 
HETATM   54  O6  UNL     1       4.736  -4.029   0.539  1.00  0.00    -0.218 OA
ENDBRANCH  46  53
ENDBRANCH  43  44
ENDBRANCH  10  43
TORSDOF 6
