REMARK  1 active torsions:
REMARK  status: ('A' for Active; 'I' for Inactive)
REMARK    1  A    between atoms: C9_10  and  C11_12 
ROOT
HETATM    1  C1  UNL     1      -0.038  -2.110   2.555  1.00  0.00     0.070 C 
HETATM    2  C2  UNL     1      -1.480  -1.753   2.216  1.00  0.00     0.175 C 
HETATM    3  C3  UNL     1      -1.626  -0.553   1.309  1.00  0.00     0.013 C 
HETATM    4  C4  UNL     1      -0.347   0.051   0.744  1.00  0.00     0.146 C 
HETATM    5  C5  UNL     1       0.548  -1.095   0.214  1.00  0.00     0.058 C 
HETATM    6  C6  UNL     1       0.945  -2.034   1.381  1.00  0.00     0.158 C 
HETATM    7  O1  UNL     1       1.219  -3.332   0.909  1.00  0.00    -0.223 OA
HETATM    8  C7  UNL     1       1.841  -0.507  -0.410  1.00  0.00     0.005 C 
HETATM    9  C8  UNL     1       1.579   0.542  -1.500  1.00  0.00     0.004 C 
HETATM   10  C9  UNL     1       0.707   1.680  -0.952  1.00  0.00     0.021 C 
HETATM   11  C10 UNL     1      -0.587   1.135  -0.321  1.00  0.00     0.039 C 
HETATM   12  C14 UNL     1      -0.184  -1.896  -0.895  1.00  0.00     0.005 C 
HETATM   13  O2  UNL     1       0.319   0.703   1.810  1.00  0.00    -0.222 OA
HETATM   14  C15 UNL     1      -2.861  -0.084   1.062  1.00  0.00    -0.004 C 
HETATM   15  O3  UNL     1      -2.126  -2.872   1.636  1.00  0.00    -0.219 OA
ENDROOT
BRANCH  10  16
HETATM   16  C11 UNL     1       0.423   2.728  -2.012  1.00  0.00    -0.044 C 
HETATM   17  C12 UNL     1       0.992   4.105  -1.768  1.00  0.00     0.026 C 
HETATM   18  C13 UNL     1      -0.288   2.455  -3.118  1.00  0.00    -0.009 C 
ENDBRANCH  10  16
TORSDOF 1
