REMARK  1 active torsions:
REMARK  status: ('A' for Active; 'I' for Inactive)
REMARK    1  A    between atoms: C9_10  and  C11_12 
ROOT
HETATM    1  C1  UNL     1      -3.394   1.207  -1.329  1.00  0.00     0.203 C 
HETATM    2  C2  UNL     1      -3.269  -0.267  -1.268  1.00  0.00     0.034 C 
HETATM    3  C3  UNL     1      -2.104  -0.892  -0.998  1.00  0.00    -0.014 C 
HETATM    4  C4  UNL     1      -0.816  -0.115  -0.777  1.00  0.00     0.144 C 
HETATM    5  C5  UNL     1      -1.139   1.266  -0.165  1.00  0.00     0.065 C 
HETATM    6  C6  UNL     1      -2.136   2.016  -1.069  1.00  0.00     0.215 C 
HETATM    7  O1  UNL     1      -1.581   2.327  -2.334  1.00  0.00    -0.215 OA
HETATM    8  C7  UNL     1       0.164   2.078   0.012  1.00  0.00     0.006 C 
HETATM    9  C8  UNL     1       1.227   1.343   0.844  1.00  0.00     0.003 C 
HETATM   10  C9  UNL     1       1.544  -0.048   0.261  1.00  0.00     0.031 C 
HETATM   11  C10 UNL     1       0.240  -0.851   0.061  1.00  0.00     0.037 C 
HETATM   12  C14 UNL     1      -1.820   1.137   1.225  1.00  0.00     0.006 C 
HETATM   13  O3  UNL     1      -0.248   0.060  -2.061  1.00  0.00    -0.222 OA
HETATM   14  C15 UNL     1      -2.040  -2.401  -0.998  1.00  0.00     0.029 C 
HETATM   15  O4  UNL     1      -4.438   1.770  -1.631  1.00  0.00    -0.289 OA
ENDROOT
BRANCH  10  16
HETATM   16  C11 UNL     1       2.630  -0.817   1.049  1.00  0.00     0.127 C 
HETATM   17  C12 UNL     1       3.266  -1.925   0.200  1.00  0.00     0.033 C 
HETATM   18  C13 UNL     1       2.132  -1.411   2.370  1.00  0.00     0.033 C 
HETATM   19  O2  UNL     1       3.668   0.077   1.367  1.00  0.00    -0.226 OA
ENDBRANCH  10  16
TORSDOF 1
