REMARK  1 active torsions:
REMARK  status: ('A' for Active; 'I' for Inactive)
REMARK    1  A    between atoms: C9_10  and  C11_12 
ROOT
HETATM    1  C1  UNL     1       3.334  -1.515  -0.615  1.00  0.00     0.004 C 
HETATM    2  C2  UNL     1       3.472  -0.242  -0.220  1.00  0.00     0.001 C 
HETATM    3  C3  UNL     1       2.313   0.685   0.074  1.00  0.00     0.145 C 
HETATM    4  C4  UNL     1       0.960   0.056  -0.322  1.00  0.00     0.035 C 
HETATM    5  C5  UNL     1       0.875  -1.466  -0.028  1.00  0.00     0.035 C 
HETATM    6  C6  UNL     1       1.996  -2.164  -0.820  1.00  0.00     0.174 C 
HETATM    7  O1  UNL     1       2.079  -3.537  -0.483  1.00  0.00    -0.219 OA
HETATM    8  C7  UNL     1      -0.487  -1.990  -0.541  1.00  0.00     0.003 C 
HETATM    9  C8  UNL     1      -1.691  -1.232   0.038  1.00  0.00     0.003 C 
HETATM   10  C9  UNL     1      -1.615   0.278  -0.259  1.00  0.00     0.028 C 
HETATM   11  C10 UNL     1      -0.260   0.824   0.232  1.00  0.00     0.005 C 
HETATM   12  C14 UNL     1       1.022  -1.797   1.475  1.00  0.00     0.003 C 
HETATM   13  O3  UNL     1       2.318   0.979   1.455  1.00  0.00    -0.222 OA
HETATM   14  C15 UNL     1       2.573   2.008  -0.661  1.00  0.00     0.038 C 
ENDROOT
BRANCH  10  15
HETATM   15  C11 UNL     1      -2.864   1.075   0.214  1.00  0.00     0.127 C 
HETATM   16  C12 UNL     1      -3.604   1.671  -0.991  1.00  0.00     0.033 C 
HETATM   17  C13 UNL     1      -2.585   2.196   1.222  1.00  0.00     0.033 C 
HETATM   18  O2  UNL     1      -3.774   0.210   0.848  1.00  0.00    -0.226 OA
ENDBRANCH  10  15
TORSDOF 1
