REMARK  1 active torsions:
REMARK  status: ('A' for Active; 'I' for Inactive)
REMARK    1  A    between atoms: C9_9  and  C11_11 
ROOT
HETATM    1  C1  UNL     1       2.949   1.165   2.404  1.00  0.00     0.037 C 
HETATM    2  C2  UNL     1       3.373   0.008   1.587  1.00  0.00     0.191 C 
HETATM    3  C3  UNL     1       2.430  -0.486   0.548  1.00  0.00     0.010 C 
HETATM    4  C4  UNL     1       1.287   0.190   0.289  1.00  0.00    -0.039 C 
HETATM    5  C5  UNL     1       0.924   1.510   0.952  1.00  0.00     0.034 C 
HETATM    6  C6  UNL     1       1.819   1.832   2.126  1.00  0.00    -0.020 C 
HETATM    7  C7  UNL     1      -0.521   1.432   1.485  1.00  0.00     0.010 C 
HETATM    8  C8  UNL     1      -1.530   0.946   0.435  1.00  0.00     0.034 C 
HETATM    9  C9  UNL     1      -1.135  -0.405  -0.179  1.00  0.00     0.156 C 
HETATM   10  C10 UNL     1       0.283  -0.288  -0.747  1.00  0.00     0.055 C 
HETATM   11  O2  UNL     1      -1.098  -1.343   0.868  1.00  0.00    -0.223 OA
HETATM   12  C14 UNL     1       1.106   2.668  -0.051  1.00  0.00     0.008 C 
HETATM   13  C15 UNL     1       2.807  -1.758  -0.180  1.00  0.00     0.034 C 
HETATM   14  O3  UNL     1       4.445  -0.540   1.824  1.00  0.00    -0.287 OA
ENDROOT
BRANCH   9  15
HETATM   15  C11 UNL     1      -2.174  -0.943  -1.182  1.00  0.00     0.153 C 
HETATM   16  C12 UNL     1      -1.805  -2.312  -1.771  1.00  0.00     0.036 C 
HETATM   17  C13 UNL     1      -2.495   0.015  -2.333  1.00  0.00     0.036 C 
HETATM   18  O1  UNL     1      -3.361  -1.137  -0.453  1.00  0.00    -0.223 OA
ENDBRANCH   9  15
TORSDOF 1
