REMARK  2 active torsions:
REMARK  status: ('A' for Active; 'I' for Inactive)
REMARK    1  A    between atoms: C13_15  and  C15_17 
REMARK    2  A    between atoms: C16_20  and  C18_23 
ROOT
HETATM    1  C1  UNL     1      -3.061  -1.491  -0.084  1.00  0.00     0.044 A 
HETATM    2  C2  UNL     1      -3.843  -0.347  -0.345  1.00  0.00     0.067 A 
HETATM    3  C3  UNL     1      -5.244  -0.452  -0.415  1.00  0.00     0.134 A 
HETATM    4  C4  UNL     1      -5.830  -1.714  -0.233  1.00  0.00     0.028 A 
HETATM    5  C5  UNL     1      -5.064  -2.847   0.017  1.00  0.00     0.002 A 
HETATM    6  C6  UNL     1      -3.674  -2.735   0.095  1.00  0.00     0.003 A 
HETATM    7  O1  UNL     1      -6.059   0.610  -0.656  1.00  0.00    -0.190 OA
HETATM    8  C7  UNL     1      -3.190   0.977  -0.548  1.00  0.00     0.198 A 
HETATM    9  C8  UNL     1      -1.706   1.039  -0.527  1.00  0.00     0.042 A 
HETATM   10  C9  UNL     1      -0.938  -0.113  -0.275  1.00  0.00     0.042 A 
HETATM   11  C10 UNL     1      -1.581  -1.419  -0.000  1.00  0.00     0.196 A 
HETATM   12  O2  UNL     1      -0.908  -2.399   0.305  1.00  0.00    -0.287 OA
HETATM   13  C11 UNL     1       0.452   0.008  -0.289  1.00  0.00     0.035 A 
HETATM   14  C12 UNL     1       1.058   1.243  -0.511  1.00  0.00     0.091 A 
HETATM   15  C13 UNL     1       0.324   2.405  -0.744  1.00  0.00     0.033 A 
HETATM   16  C14 UNL     1      -1.072   2.272  -0.756  1.00  0.00     0.004 A 
HETATM   17  O4  UNL     1       2.430   1.145  -0.456  1.00  0.00    -0.328 OA
HETATM   18  C16 UNL     1       2.810  -0.221  -0.261  1.00  0.00     0.183 A 
HETATM   19  C17 UNL     1       1.512  -1.025  -0.035  1.00  0.00     0.206 A 
HETATM   20  O5  UNL     1       1.361  -1.490   1.289  1.00  0.00    -0.216 OA
HETATM   21  O7  UNL     1      -3.843   1.999  -0.746  1.00  0.00    -0.286 OA
ENDROOT
BRANCH  18  22
HETATM   22  C18 UNL     1       3.922  -0.342   0.791  1.00  0.00     0.155 C 
HETATM   23  C19 UNL     1       5.068   0.634   0.497  1.00  0.00     0.036 C 
HETATM   24  C20 UNL     1       4.486  -1.764   0.865  1.00  0.00     0.036 C 
HETATM   25  O6  UNL     1       3.389  -0.001   2.043  1.00  0.00    -0.223 OA
ENDBRANCH  18  22
BRANCH  15  26
HETATM   26  C15 UNL     1       1.015   3.726  -0.967  1.00  0.00     0.211 C 
HETATM   27  O3  UNL     1       0.246   4.820  -0.487  1.00  0.00    -0.215 OA
ENDBRANCH  15  26
TORSDOF 2
