REMARK  4 active torsions:
REMARK  status: ('A' for Active; 'I' for Inactive)
REMARK    1  A    between atoms: C3_3  and  C32_38 
REMARK    2  A    between atoms: C10_10  and  C15_17 
REMARK    3  A    between atoms: C21_24  and  C26_31 
REMARK    4  A    between atoms: C32_38  and  C33_39 
ROOT
HETATM    1  C1  UNL     1       1.067  -2.416   0.592  1.00  0.00    -0.034 C 
HETATM    2  C2  UNL     1      -0.340  -2.349   1.135  1.00  0.00     0.010 C 
HETATM    3  C3  UNL     1      -1.207  -1.164   0.795  1.00  0.00    -0.021 C 
HETATM    4  C4  UNL     1      -0.618   0.223   0.760  1.00  0.00    -0.025 C 
HETATM    5  C5  UNL     1      -0.072   0.735  -0.372  1.00  0.00    -0.002 C 
HETATM    6  C6  UNL     1       0.164   0.112  -1.723  1.00  0.00     0.078 C 
HETATM    7  C7  UNL     1       1.586  -0.429  -1.869  1.00  0.00    -0.015 C 
HETATM    8  C8  UNL     1       2.363  -0.931  -0.817  1.00  0.00     0.003 C 
HETATM    9  C9  UNL     1       1.992  -1.230   0.609  1.00  0.00     0.074 C 
HETATM   10  C10 UNL     1       3.369  -1.529   1.246  1.00  0.00     0.151 C 
HETATM   11  O1  UNL     1       4.286  -1.718   0.172  1.00  0.00    -0.329 OA
HETATM   12  C11 UNL     1       3.687  -1.320  -1.007  1.00  0.00     0.092 C 
HETATM   13  C12 UNL     1       4.286  -1.308  -2.264  1.00  0.00     0.051 C 
HETATM   14  C13 UNL     1       3.514  -0.920  -3.361  1.00  0.00     0.133 C 
HETATM   15  C14 UNL     1       2.191  -0.513  -3.136  1.00  0.00     0.023 C 
HETATM   16  O2  UNL     1       4.027  -0.938  -4.619  1.00  0.00    -0.190 OA
HETATM   17  C21 UNL     1      -0.055   1.415  -2.568  1.00  0.00     0.151 C 
HETATM   18  O4  UNL     1       0.275   2.547  -1.753  1.00  0.00    -0.333 OA
HETATM   19  C22 UNL     1       0.256   2.177  -0.463  1.00  0.00     0.071 C 
HETATM   20  C23 UNL     1       0.140   3.078   0.728  1.00  0.00     0.084 C 
HETATM   21  C24 UNL     1       0.193   2.328   2.043  1.00  0.00     0.163 C 
HETATM   22  C25 UNL     1      -0.610   1.041   1.974  1.00  0.00     0.059 C 
HETATM   23  O5  UNL     1       1.432   2.241   2.606  1.00  0.00    -0.223 OA
HETATM   24  C39 UNL     1      -0.894  -3.581   1.817  1.00  0.00     0.110 C 
HETATM   25  C40 UNL     1       0.087  -4.722   1.969  1.00  0.00     0.087 C 
HETATM   26  C41 UNL     1       1.112  -4.982   0.888  1.00  0.00     0.163 C 
HETATM   27  C42 UNL     1       1.522  -3.765   0.094  1.00  0.00     0.056 C 
HETATM   28  O8  UNL     1       1.981  -6.020   0.997  1.00  0.00    -0.223 OA
HETATM   29  O9  UNL     1      -2.221  -3.869   1.778  1.00  0.00    -0.195 OA
ENDROOT
BRANCH   3  30
HETATM   30  C32 UNL     1      -2.659  -1.309   0.416  1.00  0.00     0.048 C 
BRANCH  30  31
HETATM   31  C33 UNL     1      -3.562  -0.148   0.732  1.00  0.00    -0.044 C 
HETATM   32  C34 UNL     1      -4.003   0.054   1.996  1.00  0.00    -0.032 C 
HETATM   33  C35 UNL     1      -4.828   1.250   2.358  1.00  0.00     0.058 C 
HETATM   34  C36 UNL     1      -5.400   2.123   1.263  1.00  0.00     0.157 C 
HETATM   35  C37 UNL     1      -4.585   2.079  -0.007  1.00  0.00     0.038 C 
HETATM   36  O7  UNL     1      -6.061   3.267   1.579  1.00  0.00    -0.223 OA
HETATM   37  C38 UNL     1      -3.920   0.772  -0.342  1.00  0.00     0.025 C 
ENDBRANCH  30  31
ENDBRANCH   3  30
BRANCH  10  38
HETATM   38  C15 UNL     1       3.723  -0.346   2.127  1.00  0.00     0.006 A 
HETATM   39  C16 UNL     1       3.400  -0.356   3.488  1.00  0.00     0.000 A 
HETATM   40  C17 UNL     1       3.612   0.770   4.285  1.00  0.00     0.027 A 
HETATM   41  C18 UNL     1       4.151   1.945   3.752  1.00  0.00     0.131 A 
HETATM   42  C19 UNL     1       4.445   1.960   2.385  1.00  0.00     0.027 A 
HETATM   43  O3  UNL     1       4.316   3.061   4.509  1.00  0.00    -0.190 OA
HETATM   44  C20 UNL     1       4.237   0.836   1.585  1.00  0.00     0.000 A 
ENDBRANCH  10  38
BRANCH  17  45
HETATM   45  C26 UNL     1      -1.470   1.513  -3.107  1.00  0.00     0.006 A 
HETATM   46  C27 UNL     1      -2.296   2.613  -2.848  1.00  0.00     0.000 A 
HETATM   47  C28 UNL     1      -3.592   2.678  -3.365  1.00  0.00     0.027 A 
HETATM   48  C29 UNL     1      -4.116   1.649  -4.153  1.00  0.00     0.131 A 
HETATM   49  C30 UNL     1      -3.285   0.559  -4.424  1.00  0.00     0.027 A 
HETATM   50  O6  UNL     1      -5.382   1.700  -4.644  1.00  0.00    -0.190 OA
HETATM   51  C31 UNL     1      -1.984   0.497  -3.921  1.00  0.00     0.000 A 
ENDBRANCH  17  45
TORSDOF 4
