REMARK  1 active torsions:
REMARK  status: ('A' for Active; 'I' for Inactive)
REMARK    1  A    between atoms: C1_1  and  O2_16 
ROOT
HETATM    1  C1  UNL     1      -3.103  -0.716   0.016  1.00  0.00     0.094 A 
HETATM    2  C2  UNL     1      -2.982  -2.135   0.002  1.00  0.00     0.026 A 
HETATM    3  C3  UNL     1      -1.771  -2.807  -0.011  1.00  0.00     0.021 A 
HETATM    4  C4  UNL     1      -0.597  -2.029  -0.011  1.00  0.00     0.082 A 
HETATM    5  C5  UNL     1      -0.681  -0.632   0.000  1.00  0.00     0.021 A 
HETATM    6  C6  UNL     1      -1.925   0.028   0.013  1.00  0.00     0.026 A 
HETATM    7  C7  UNL     1       0.669  -0.132  -0.003  1.00  0.00     0.019 A 
HETATM    8  C8  UNL     1       1.524  -1.239  -0.016  1.00  0.00     0.083 A 
HETATM    9  N1  UNL     1       0.746  -2.392  -0.022  1.00  0.00    -0.245 NA
HETATM   10  C9  UNL     1       2.922  -1.064  -0.021  1.00  0.00     0.046 A 
HETATM   11  C10 UNL     1       3.445   0.222  -0.012  1.00  0.00     0.129 A 
HETATM   12  C11 UNL     1       2.569   1.346   0.001  1.00  0.00     0.004 A 
HETATM   13  C12 UNL     1       1.190   1.175   0.005  1.00  0.00    -0.001 A 
HETATM   14  C13 UNL     1       3.144   2.743   0.012  1.00  0.00     0.033 C 
HETATM   15  O1  UNL     1       4.793   0.403  -0.015  1.00  0.00    -0.190 OA
ENDROOT
BRANCH   1  16
HETATM   16  O2  UNL     1      -4.367  -0.179   0.027  1.00  0.00    -0.328 OA
HETATM   17  C14 UNL     1      -4.503   1.224   0.027  1.00  0.00     0.181 C 
ENDBRANCH   1  16
TORSDOF 1
