REMARK  1 active torsions:
REMARK  status: ('A' for Active; 'I' for Inactive)
REMARK    1  A    between atoms: C3_3  and  O2_16 
ROOT
HETATM    1  C1  UNL     1      -3.611   0.080   0.022  1.00  0.00     0.002 A 
HETATM    2  C2  UNL     1      -3.507  -1.330   0.012  1.00  0.00     0.026 A 
HETATM    3  C3  UNL     1      -2.301  -2.023   0.001  1.00  0.00     0.112 A 
HETATM    4  C4  UNL     1      -1.145  -1.195  -0.003  1.00  0.00     0.103 A 
HETATM    5  C5  UNL     1      -1.239   0.208   0.007  1.00  0.00     0.021 A 
HETATM    6  C6  UNL     1      -2.479   0.873   0.020  1.00  0.00     0.002 A 
HETATM    7  C7  UNL     1       0.093   0.753   0.005  1.00  0.00     0.019 A 
HETATM    8  C8  UNL     1       0.976  -0.327  -0.006  1.00  0.00     0.084 A 
HETATM    9  N1  UNL     1       0.222  -1.495  -0.012  1.00  0.00    -0.243 NA
HETATM   10  C9  UNL     1       2.369  -0.115  -0.009  1.00  0.00     0.046 A 
HETATM   11  C10 UNL     1       2.857   1.185   0.003  1.00  0.00     0.129 A 
HETATM   12  C11 UNL     1       1.950   2.284   0.014  1.00  0.00     0.004 A 
HETATM   13  C12 UNL     1       0.577   2.075   0.014  1.00  0.00    -0.001 A 
HETATM   14  C13 UNL     1       2.489   3.696   0.029  1.00  0.00     0.033 C 
HETATM   15  O1  UNL     1       4.200   1.403   0.003  1.00  0.00    -0.190 OA
ENDROOT
BRANCH   3  16
HETATM   16  O2  UNL     1      -2.340  -3.394  -0.012  1.00  0.00    -0.327 OA
HETATM   17  C14 UNL     1      -1.133  -4.114  -0.051  1.00  0.00     0.181 C 
ENDBRANCH   3  16
TORSDOF 1
