REMARK  3 active torsions:
REMARK  status: ('A' for Active; 'I' for Inactive)
REMARK    1  A    between atoms: C3_3  and  C19_25 
REMARK    2  A    between atoms: C19_25  and  O7_26 
REMARK    3  A    between atoms: O7_26  and  C20_27 
ROOT
HETATM    1  C1  UNL     1      -5.245   0.454   0.402  1.00  0.00     0.030 C 
HETATM    2  C2  UNL     1      -5.286  -1.069   0.535  1.00  0.00     0.005 C 
HETATM    3  C3  UNL     1      -4.415  -1.752  -0.544  1.00  0.00     0.033 C 
HETATM    4  C4  UNL     1      -2.950  -1.218  -0.401  1.00  0.00     0.067 C 
HETATM    5  C5  UNL     1      -2.711   0.287  -0.099  1.00  0.00     0.061 C 
HETATM    6  C6  UNL     1      -3.834   0.950   0.703  1.00  0.00     0.127 C 
HETATM    7  O1  UNL     1      -3.817   2.337   0.536  1.00  0.00    -0.304 OA
HETATM    8  C7  UNL     1      -2.625   2.991   0.503  1.00  0.00     0.278 C 
HETATM    9  C8  UNL     1      -1.484   2.201   1.126  1.00  0.00     0.136 C 
HETATM   10  C9  UNL     1      -1.373   0.740   0.603  1.00  0.00     0.051 C 
HETATM   11  C10 UNL     1      -0.479  -0.106   1.559  1.00  0.00     0.153 C 
HETATM   12  C11 UNL     1      -0.357   0.338   3.022  1.00  0.00     0.037 C 
HETATM   13  C12 UNL     1      -0.332   1.858   3.204  1.00  0.00     0.029 C 
HETATM   14  C13 UNL     1      -1.666   2.360   2.655  1.00  0.00     0.021 C 
HETATM   15  C14 UNL     1       0.610   2.554   2.259  1.00  0.00     0.013 C 
HETATM   16  C15 UNL     1      -0.078   2.804   0.974  1.00  0.00     0.177 C 
HETATM   17  O2  UNL     1       0.406   3.273  -0.048  1.00  0.00    -0.291 OA
HETATM   18  C16 UNL     1       1.884   2.904   2.506  1.00  0.00    -0.002 C 
HETATM   19  O3  UNL     1      -0.756  -1.481   1.576  1.00  0.00    -0.223 OA
HETATM   20  O4  UNL     1      -2.517   4.151   0.167  1.00  0.00    -0.264 OA
HETATM   21  C17 UNL     1      -2.690   0.793  -1.566  1.00  0.00     0.147 C 
HETATM   22  O5  UNL     1      -2.221  -0.234  -2.409  1.00  0.00    -0.329 OA
HETATM   23  C18 UNL     1      -2.118  -1.411  -1.652  1.00  0.00     0.269 C 
HETATM   24  O6  UNL     1      -0.722  -1.446  -1.408  1.00  0.00    -0.190 OA
HETATM   25  C22 UNL     1      -4.427  -3.271  -0.216  1.00  0.00     0.003 C 
ENDROOT
BRANCH   3  26
HETATM   26  C19 UNL     1      -5.108  -1.567  -1.918  1.00  0.00     0.152 C 
BRANCH  26  27
HETATM   27  O7  UNL     1      -4.723  -2.554  -2.837  1.00  0.00    -0.302 OA
BRANCH  27  28
HETATM   28  C20 UNL     1      -5.140  -2.539  -4.136  1.00  0.00     0.272 C 
HETATM   29  O8  UNL     1      -4.850  -3.423  -4.914  1.00  0.00    -0.264 OA
HETATM   30  C21 UNL     1      -5.969  -1.343  -4.568  1.00  0.00     0.106 C 
ENDBRANCH  27  28
ENDBRANCH  26  27
ENDBRANCH   3  26
TORSDOF 3
