REMARK  1 active torsions:
REMARK  status: ('A' for Active; 'I' for Inactive)
REMARK    1  A    between atoms: C15_16  and  O1_18 
ROOT
HETATM    1  C1  UNL     1      -4.093   0.910  -1.550  1.00  0.00     0.119 A 
HETATM    2  C2  UNL     1      -4.042  -0.478  -1.591  1.00  0.00     0.119 A 
HETATM    3  C3  UNL     1      -2.829  -1.156  -1.640  1.00  0.00     0.024 A 
HETATM    4  C4  UNL     1      -1.642  -0.404  -1.642  1.00  0.00     0.007 A 
HETATM    5  C5  UNL     1      -1.700   1.001  -1.603  1.00  0.00    -0.020 A 
HETATM    6  C6  UNL     1      -2.931   1.673  -1.560  1.00  0.00     0.022 A 
HETATM    7  C7  UNL     1      -0.428   1.809  -1.606  1.00  0.00     0.064 C 
HETATM    8  C8  UNL     1       0.795   0.951  -1.250  1.00  0.00     0.246 C 
HETATM    9  N1  UNL     1       0.769  -0.247  -2.077  1.00  0.00     0.144 N 
HETATM   10  C9  UNL     1      -0.305  -1.129  -1.641  1.00  0.00     0.246 C 
HETATM   11  C10 UNL     1      -0.041  -1.706  -0.241  1.00  0.00     0.064 C 
HETATM   12  C11 UNL     1       0.395  -0.625   0.714  1.00  0.00    -0.020 A 
HETATM   13  C12 UNL     1       0.790   0.626   0.233  1.00  0.00     0.007 A 
HETATM   14  C13 UNL     1       1.168   1.594   1.165  1.00  0.00     0.027 A 
HETATM   15  C14 UNL     1       1.172   1.354   2.542  1.00  0.00     0.153 A 
HETATM   16  C15 UNL     1       0.777   0.100   3.036  1.00  0.00     0.119 A 
HETATM   17  C16 UNL     1       0.413  -0.870   2.090  1.00  0.00     0.022 A 
HETATM   18  O2  UNL     1       1.551   2.346   3.392  1.00  0.00    -0.188 OA
HETATM   19  C18 UNL     1       2.067  -0.903  -2.124  1.00  0.00     0.286 C 
HETATM   20  O3  UNL     1      -5.329  -0.979  -1.565  1.00  0.00    -0.300 OA
HETATM   21  C19 UNL     1      -6.227   0.137  -1.497  1.00  0.00     0.304 A 
HETATM   22  O4  UNL     1      -5.412   1.315  -1.501  1.00  0.00    -0.300 OA
ENDROOT
BRANCH  16  23
HETATM   23  O1  UNL     1       0.832  -0.114   4.391  1.00  0.00    -0.326 OA
HETATM   24  C17 UNL     1       0.750  -1.438   4.865  1.00  0.00     0.181 C 
ENDBRANCH  16  23
TORSDOF 1
