REMARK  6 active torsions:
REMARK  status: ('A' for Active; 'I' for Inactive)
REMARK    1  A    between atoms: C7_7  and  C14_16 
REMARK    2  A    between atoms: C7_7  and  C20_23 
REMARK    3  A    between atoms: C9_9  and  O1_11 
REMARK    4  A    between atoms: O1_11  and  C11_12 
REMARK    5  A    between atoms: C14_16  and  C15_17 
REMARK    6  A    between atoms: C15_17  and  C16_18 
ROOT
HETATM    1  C1  UNL     1      -5.156   0.865   0.352  1.00  0.00     0.032 C 
HETATM    2  C2  UNL     1      -5.652  -0.504  -0.079  1.00  0.00     0.142 A 
HETATM    3  C3  UNL     1      -4.883  -1.327  -0.915  1.00  0.00     0.142 A 
HETATM    4  C4  UNL     1      -3.454  -0.921  -1.357  1.00  0.00     0.030 C 
HETATM    5  C5  UNL     1      -2.890   0.239  -0.488  1.00  0.00     0.009 C 
HETATM    6  C6  UNL     1      -3.929   1.377  -0.418  1.00  0.00     0.003 C 
HETATM    7  C7  UNL     1      -1.386   0.628  -0.703  1.00  0.00     0.061 C 
HETATM    8  C8  UNL     1      -0.498  -0.650  -0.885  1.00  0.00     0.035 C 
HETATM    9  C9  UNL     1      -1.225  -1.914  -0.398  1.00  0.00     0.125 C 
HETATM   10  C10 UNL     1      -2.517  -2.157  -1.183  1.00  0.00     0.033 C 
HETATM   11  C13 UNL     1       0.168  -0.849  -2.263  1.00  0.00     0.003 C 
HETATM   12  C21 UNL     1      -3.499  -0.581  -2.869  1.00  0.00     0.003 C 
HETATM   13  O5  UNL     1      -5.953  -0.438  -1.583  1.00  0.00    -0.354 OA
ENDROOT
BRANCH   7  14
HETATM   14  C14 UNL     1      -0.903   1.373   0.586  1.00  0.00     0.012 C 
BRANCH  14  15
HETATM   15  C15 UNL     1       0.487   2.036   0.573  1.00  0.00     0.029 C 
BRANCH  15  16
HETATM   16  C16 UNL     1       0.792   2.687   1.893  1.00  0.00     0.005 A 
HETATM   17  C17 UNL     1       1.112   3.993   2.110  1.00  0.00     0.118 A 
HETATM   18  O3  UNL     1       1.307   4.234   3.437  1.00  0.00    -0.303 OA
HETATM   19  C18 UNL     1       1.101   3.047   4.074  1.00  0.00     0.122 A 
HETATM   20  C19 UNL     1       0.785   2.066   3.184  1.00  0.00     0.025 A 
ENDBRANCH  15  16
ENDBRANCH  14  15
ENDBRANCH   7  14
BRANCH   7  21
HETATM   21  C20 UNL     1      -1.194   1.606  -1.860  1.00  0.00     0.207 C 
HETATM   22  O4  UNL     1      -2.091   2.107  -2.494  1.00  0.00    -0.288 OA
ENDBRANCH   7  21
BRANCH   9  23
HETATM   23  O1  UNL     1      -0.394  -3.038  -0.525  1.00  0.00    -0.304 OA
BRANCH  23  24
HETATM   24  C11 UNL     1      -0.004  -3.845   0.504  1.00  0.00     0.272 C 
HETATM   25  O2  UNL     1       0.682  -4.828   0.317  1.00  0.00    -0.264 OA
HETATM   26  C12 UNL     1      -0.438  -3.454   1.905  1.00  0.00     0.106 C 
ENDBRANCH  23  24
ENDBRANCH   9  23
TORSDOF 6
