REMARK  10 active torsions:
REMARK  status: ('A' for Active; 'I' for Inactive)
REMARK    1  A    between atoms: C2_2  and  C3_3 
REMARK    2  A    between atoms: C2_2  and  C24_29 
REMARK    3  A    between atoms: C3_3  and  O2_5 
REMARK    4  A    between atoms: O2_5  and  C4_6 
REMARK    5  A    between atoms: C6_8  and  C23_27 
REMARK    6  A    between atoms: C7_9  and  C22_25 
REMARK    7  A    between atoms: C10_12  and  C15_18 
REMARK    8  A    between atoms: C15_18  and  C16_19 
REMARK    9  A    between atoms: C16_19  and  C17_20 
REMARK   10  A    between atoms: C17_20  and  C18_21 
ROOT
HETATM    1  C4  UNL     1       2.060   0.722  -0.825  1.00  0.00     0.146 C 
HETATM    2  C5  UNL     1       3.155  -0.286  -1.028  1.00  0.00     0.003 C 
HETATM    3  C6  UNL     1       3.008  -1.613  -0.831  1.00  0.00     0.027 C 
HETATM    4  C7  UNL     1       1.685  -2.245  -0.375  1.00  0.00     0.108 C 
HETATM    5  C8  UNL     1       0.513  -1.224  -0.246  1.00  0.00     0.016 C 
HETATM    6  C9  UNL     1       1.071   0.151   0.182  1.00  0.00     0.036 C 
HETATM    7  C10 UNL     1      -0.715  -1.643   0.640  1.00  0.00     0.001 C 
HETATM    8  C11 UNL     1      -0.751  -3.179   0.907  1.00  0.00     0.003 C 
HETATM    9  C12 UNL     1       0.599  -3.722   1.425  1.00  0.00     0.034 C 
HETATM   10  C13 UNL     1       1.840  -2.946   0.978  1.00  0.00     0.163 C 
HETATM   11  O3  UNL     1       2.936  -3.830   0.951  1.00  0.00    -0.223 OA
HETATM   12  C14 UNL     1      -1.373  -4.048  -0.208  1.00  0.00     0.000 C 
HETATM   13  C21 UNL     1      -0.705  -0.999   2.059  1.00  0.00     0.000 C 
ENDROOT
BRANCH   1  14
HETATM   14  O2  UNL     1       2.600   1.931  -0.340  1.00  0.00    -0.300 OA
BRANCH  14  15
HETATM   15  C3  UNL     1       1.790   3.025  -0.346  1.00  0.00     0.272 C 
HETATM   16  O1  UNL     1       0.698   3.071  -0.865  1.00  0.00    -0.264 OA
BRANCH  15  17
HETATM   17  C2  UNL     1       2.408   4.166   0.453  1.00  0.00     0.086 C 
HETATM   18  C1  UNL     1       2.547   3.785   1.937  1.00  0.00     0.010 C 
BRANCH  17  19
HETATM   19  C24 UNL     1       3.745   4.651  -0.134  1.00  0.00     0.010 C 
HETATM   20  C25 UNL     1       3.613   5.124  -1.588  1.00  0.00     0.001 C 
ENDBRANCH  17  19
ENDBRANCH  15  17
ENDBRANCH  14  15
ENDBRANCH   1  14
BRANCH   3  21
HETATM   21  C23 UNL     1       4.209  -2.440  -1.145  1.00  0.00     0.230 C 
HETATM   22  O5  UNL     1       4.181  -3.659  -1.215  1.00  0.00    -0.283 OA
ENDBRANCH   3  21
BRANCH   4  23
HETATM   23  C22 UNL     1       1.399  -3.285  -1.459  1.00  0.00     0.213 C 
HETATM   24  O4  UNL     1       1.579  -4.463  -1.251  1.00  0.00    -0.288 OA
ENDBRANCH   4  23
BRANCH   7  25
HETATM   25  C15 UNL     1      -2.047  -1.214  -0.049  1.00  0.00     0.005 C 
BRANCH  25  26
HETATM   26  C16 UNL     1      -2.253   0.276  -0.380  1.00  0.00     0.026 C 
BRANCH  26  27
HETATM   27  C17 UNL     1      -3.658   0.527  -0.898  1.00  0.00    -0.022 C 
HETATM   28  C20 UNL     1      -3.927   0.329  -2.206  1.00  0.00    -0.005 C 
BRANCH  27  29
HETATM   29  C18 UNL     1      -4.684   0.944   0.070  1.00  0.00    -0.004 C 
HETATM   30  C19 UNL     1      -5.935   1.354  -0.213  1.00  0.00    -0.000 C 
ENDBRANCH  27  29
ENDBRANCH  26  27
ENDBRANCH  25  26
ENDBRANCH   7  25
TORSDOF 10
