REMARK  10 active torsions:
REMARK  status: ('A' for Active; 'I' for Inactive)
REMARK    1  A    between atoms: C3_3  and  C4_4 
REMARK    2  A    between atoms: C4_4  and  C5_5 
REMARK    3  A    between atoms: C5_5  and  C6_6 
REMARK    4  A    between atoms: C8_8  and  C9_9 
REMARK    5  A    between atoms: C9_9  and  C10_10 
REMARK    6  A    between atoms: C10_10  and  C11_11 
REMARK    7  A    between atoms: C11_11  and  C12_12 
REMARK    8  A    between atoms: C12_12  and  C13_13 
REMARK    9  A    between atoms: C13_13  and  C14_14 
REMARK   10  A    between atoms: C14_14  and  C15_15 
ROOT
HETATM    1  C12 UNL     1      -0.258  -0.771   0.019  1.00  0.00     0.127 C 
HETATM    2  C26 UNL     1      -1.191  -0.841   1.231  1.00  0.00     0.033 C 
HETATM    3  O2  UNL     1      -1.048  -0.867  -1.138  1.00  0.00    -0.226 OA
ENDROOT
BRANCH   1   4
HETATM    4  C11 UNL     1       0.505   0.567  -0.032  1.00  0.00     0.031 C 
BRANCH   4   5
HETATM    5  C10 UNL     1      -0.373   1.830  -0.060  1.00  0.00     0.007 C 
BRANCH   5   6
HETATM    6  C9  UNL     1       0.452   3.115  -0.263  1.00  0.00     0.025 C 
BRANCH   6   7
HETATM    7  C8  UNL     1      -0.428   4.343  -0.244  1.00  0.00    -0.035 C 
HETATM    8  C6  UNL     1      -0.038   5.601   0.031  1.00  0.00    -0.048 C 
HETATM    9  C7  UNL     1       1.397   5.975   0.326  1.00  0.00     0.026 C 
BRANCH   8  10
HETATM   10  C5  UNL     1      -0.997   6.779   0.087  1.00  0.00     0.026 C 
BRANCH  10  11
HETATM   11  C4  UNL     1      -2.483   6.482  -0.173  1.00  0.00     0.030 C 
BRANCH  11  12
HETATM   12  C3  UNL     1      -3.360   7.701  -0.015  1.00  0.00    -0.034 C 
HETATM   13  C1  UNL     1      -4.704   7.685   0.037  1.00  0.00    -0.048 C 
HETATM   14  C2  UNL     1      -5.502   8.952   0.238  1.00  0.00     0.026 C 
HETATM   15  C27 UNL     1      -5.534   6.429  -0.088  1.00  0.00     0.026 C 
ENDBRANCH  11  12
ENDBRANCH  10  11
ENDBRANCH   8  10
ENDBRANCH   6   7
ENDBRANCH   5   6
ENDBRANCH   4   5
ENDBRANCH   1   4
BRANCH   1  16
HETATM   16  C13 UNL     1       0.752  -1.936   0.007  1.00  0.00     0.035 C 
BRANCH  16  17
HETATM   17  C14 UNL     1       0.140  -3.343  -0.093  1.00  0.00     0.029 C 
BRANCH  17  18
HETATM   18  C15 UNL     1       1.101  -4.515  -0.112  1.00  0.00    -0.023 A 
HETATM   19  C16 UNL     1       0.584  -5.814  -0.133  1.00  0.00    -0.007 A 
HETATM   20  C17 UNL     1       1.408  -6.943  -0.135  1.00  0.00     0.000 A 
HETATM   21  C18 UNL     1       2.806  -6.803  -0.119  1.00  0.00     0.092 A 
HETATM   22  C25 UNL     1       0.798  -8.325  -0.148  1.00  0.00     0.033 C 
HETATM   23  C19 UNL     1       3.334  -5.504  -0.104  1.00  0.00     0.004 A 
HETATM   24  O1  UNL     1       3.587  -7.925  -0.112  1.00  0.00    -0.312 OA
HETATM   25  C20 UNL     1       2.491  -4.387  -0.099  1.00  0.00    -0.006 A 
HETATM   26  C21 UNL     1       4.825  -5.290  -0.090  1.00  0.00     0.056 A 
HETATM   27  C22 UNL     1       5.566  -6.588  -0.191  1.00  0.00    -0.001 A 
HETATM   28  C23 UNL     1       4.939  -7.775  -0.197  1.00  0.00     0.074 A 
HETATM   29  C24 UNL     1       5.727  -9.061  -0.292  1.00  0.00     0.058 C 
ENDBRANCH  17  18
ENDBRANCH  16  17
ENDBRANCH   1  16
TORSDOF 10
