REMARK  1 active torsions:
REMARK  status: ('A' for Active; 'I' for Inactive)
REMARK    1  A    between atoms: C4_4  and  C17_17 
ROOT
HETATM    1  C1  UNL     1      -4.879   0.402  -0.815  1.00  0.00     0.063 C 
HETATM    2  C2  UNL     1      -5.836  -0.525  -1.570  1.00  0.00     0.172 C 
HETATM    3  C3  UNL     1      -5.335  -1.902  -1.432  1.00  0.00     0.031 C 
HETATM    4  C4  UNL     1      -4.251  -1.941  -0.642  1.00  0.00    -0.014 C 
HETATM    5  C5  UNL     1      -3.914  -0.573  -0.060  1.00  0.00     0.028 C 
HETATM    6  C6  UNL     1      -3.926  -0.608   1.486  1.00  0.00     0.009 C 
HETATM    7  C7  UNL     1      -3.604   0.647   2.325  1.00  0.00     0.022 C 
HETATM    8  C8  UNL     1      -2.442   1.531   1.921  1.00  0.00    -0.048 C 
HETATM    9  C9  UNL     1      -1.355   1.058   1.287  1.00  0.00    -0.034 C 
HETATM   10  C10 UNL     1      -0.239   1.881   0.687  1.00  0.00     0.030 C 
HETATM   11  C11 UNL     1      -0.738   2.694  -0.525  1.00  0.00     0.026 C 
HETATM   12  C12 UNL     1      -1.678   1.866  -1.384  1.00  0.00    -0.048 C 
HETATM   13  C13 UNL     1      -3.009   2.054  -1.290  1.00  0.00    -0.034 C 
HETATM   14  C14 UNL     1      -4.119   1.224  -1.891  1.00  0.00     0.033 C 
HETATM   15  C15 UNL     1      -1.008   0.789  -2.204  1.00  0.00     0.026 C 
HETATM   16  C16 UNL     1      -2.598   2.980   2.323  1.00  0.00     0.026 C 
HETATM   17  O2  UNL     1      -6.818  -0.190  -2.216  1.00  0.00    -0.291 OA
HETATM   18  C20 UNL     1      -5.768   1.316   0.043  1.00  0.00     0.008 C 
ENDROOT
BRANCH   4  19
HETATM   19  C17 UNL     1      -3.476  -3.224  -0.390  1.00  0.00     0.142 C 
HETATM   20  C18 UNL     1      -1.966  -2.988  -0.299  1.00  0.00     0.037 C 
HETATM   21  C19 UNL     1      -4.011  -3.973   0.832  1.00  0.00     0.037 C 
HETATM   22  O1  UNL     1      -3.654  -4.092  -1.495  1.00  0.00    -0.222 OA
ENDBRANCH   4  19
TORSDOF 1
