REMARK  14 active torsions:
REMARK  status: ('A' for Active; 'I' for Inactive)
REMARK    1  A    between atoms: C1_1  and  C6_8 
REMARK    2  A    between atoms: C6_8  and  C7_9 
REMARK    3  A    between atoms: C7_9  and  C8_10 
REMARK    4  A    between atoms: C8_10  and  C9_11 
REMARK    5  A    between atoms: C10_12  and  C11_13 
REMARK    6  A    between atoms: C11_13  and  C12_14 
REMARK    7  A    between atoms: C12_14  and  C13_15 
REMARK    8  A    between atoms: C13_15  and  C14_16 
REMARK    9  A    between atoms: C14_16  and  C15_17 
REMARK   10  A    between atoms: C15_17  and  C16_18 
REMARK   11  A    between atoms: C16_18  and  C17_19 
REMARK   12  A    between atoms: C17_19  and  C18_20 
REMARK   13  A    between atoms: C18_20  and  C19_21 
REMARK   14  A    between atoms: C19_21  and  C20_22 
ROOT
HETATM    1  C9  UNL     1       7.141   0.715  -1.587  1.00  0.00    -0.031 C 
HETATM    2  C10 UNL     1       6.260   1.134  -0.664  1.00  0.00    -0.031 C 
ENDROOT
BRANCH   2   3
HETATM    3  C11 UNL     1       5.099   0.332  -0.131  1.00  0.00     0.026 C 
BRANCH   3   4
HETATM    4  C12 UNL     1       3.862   1.210   0.116  1.00  0.00     0.005 C 
BRANCH   4   5
HETATM    5  C13 UNL     1       2.683   0.388   0.663  1.00  0.00     0.000 C 
BRANCH   5   6
HETATM    6  C14 UNL     1       1.489   1.273   1.056  1.00  0.00     0.000 C 
BRANCH   6   7
HETATM    7  C15 UNL     1       0.361   0.451   1.699  1.00  0.00     0.000 C 
BRANCH   7   8
HETATM    8  C16 UNL     1      -0.767   1.342   2.242  1.00  0.00     0.000 C 
BRANCH   8   9
HETATM    9  C17 UNL     1      -1.823   0.527   3.007  1.00  0.00     0.000 C 
BRANCH   9  10
HETATM   10  C18 UNL     1      -2.809   1.396   3.808  1.00  0.00     0.000 C 
BRANCH  10  11
HETATM   11  C19 UNL     1      -2.446   1.632   5.287  1.00  0.00     0.000 C 
BRANCH  11  12
HETATM   12  C20 UNL     1      -1.187   2.473   5.560  1.00  0.00     0.000 C 
HETATM   13  C21 UNL     1       0.095   1.644   5.726  1.00  0.00     0.000 C 
ENDBRANCH  11  12
ENDBRANCH  10  11
ENDBRANCH   9  10
ENDBRANCH   8   9
ENDBRANCH   7   8
ENDBRANCH   6   7
ENDBRANCH   5   6
ENDBRANCH   4   5
ENDBRANCH   3   4
ENDBRANCH   2   3
BRANCH   1  14
HETATM   14  C8  UNL     1       7.132  -0.640  -2.249  1.00  0.00     0.026 C 
BRANCH  14  15
HETATM   15  C7  UNL     1       8.509  -1.021  -2.817  1.00  0.00     0.009 C 
BRANCH  15  16
HETATM   16  C6  UNL     1       8.488  -2.409  -3.476  1.00  0.00     0.032 C 
BRANCH  16  17
HETATM   17  C1  UNL     1       9.811  -2.732  -4.101  1.00  0.00     0.039 A 
HETATM   18  C2  UNL     1      10.111  -2.775  -5.407  1.00  0.00     0.004 A 
HETATM   19  C3  UNL     1      11.570  -3.111  -5.610  1.00  0.00     0.146 A 
HETATM   20  O1  UNL     1      12.114  -3.279  -4.311  1.00  0.00    -0.297 OA
HETATM   21  C5  UNL     1      12.309  -1.999  -6.347  1.00  0.00     0.038 C 
HETATM   22  C4  UNL     1      11.090  -3.053  -3.438  1.00  0.00     0.292 A 
HETATM   23  O2  UNL     1      11.218  -3.113  -2.221  1.00  0.00    -0.260 OA
ENDBRANCH  16  17
ENDBRANCH  15  16
ENDBRANCH  14  15
ENDBRANCH   1  14
TORSDOF 14
