REMARK  1 active torsions:
REMARK  status: ('A' for Active; 'I' for Inactive)
REMARK    1  A    between atoms: C4_4  and  C19_22 
ROOT
HETATM    1  C1  UNL     1      -0.625   1.424  -0.428  1.00  0.00     0.048 C 
HETATM    2  C2  UNL     1      -2.116   1.132  -0.285  1.00  0.00    -0.020 A 
HETATM    3  C3  UNL     1      -2.682  -0.122   0.000  1.00  0.00    -0.019 A 
HETATM    4  C4  UNL     1      -1.819  -1.359  -0.064  1.00  0.00     0.049 C 
HETATM    5  C5  UNL     1      -1.232  -1.404  -1.488  1.00  0.00     0.035 C 
HETATM    6  C6  UNL     1       0.157  -0.820  -1.472  1.00  0.00    -0.023 A 
HETATM    7  C7  UNL     1       0.427   0.442  -0.922  1.00  0.00    -0.022 A 
HETATM    8  C8  UNL     1       1.776   0.846  -0.808  1.00  0.00    -0.000 A 
HETATM    9  C9  UNL     1       2.800  -0.030  -1.190  1.00  0.00     0.027 A 
HETATM   10  C10 UNL     1       2.543  -1.265  -1.784  1.00  0.00     0.131 A 
HETATM   11  C11 UNL     1       1.208  -1.639  -1.905  1.00  0.00     0.023 A 
HETATM   12  O1  UNL     1       3.557  -2.096  -2.142  1.00  0.00    -0.190 OA
HETATM   13  C12 UNL     1       2.109   2.145  -0.173  1.00  0.00     0.021 A 
HETATM   14  C13 UNL     1       1.184   2.661   0.747  1.00  0.00    -0.018 A 
HETATM   15  C14 UNL     1      -0.137   1.958   0.934  1.00  0.00     0.035 C 
HETATM   16  C15 UNL     1       1.457   3.849   1.431  1.00  0.00     0.023 A 
HETATM   17  C16 UNL     1       2.635   4.562   1.210  1.00  0.00     0.133 A 
HETATM   18  C17 UNL     1       3.510   4.065   0.240  1.00  0.00     0.055 A 
HETATM   19  C18 UNL     1       3.283   2.872  -0.451  1.00  0.00     0.133 A 
HETATM   20  O2  UNL     1       4.181   2.500  -1.403  1.00  0.00    -0.190 OA
HETATM   21  O3  UNL     1       2.886   5.724   1.867  1.00  0.00    -0.190 OA
HETATM   22  C25 UNL     1      -4.055  -0.201   0.266  1.00  0.00     0.025 A 
HETATM   23  C26 UNL     1      -4.899   0.910   0.228  1.00  0.00     0.156 A 
HETATM   24  C27 UNL     1      -4.353   2.154  -0.090  1.00  0.00     0.156 A 
HETATM   25  C28 UNL     1      -2.979   2.239  -0.320  1.00  0.00     0.025 A 
HETATM   26  O6  UNL     1      -5.160   3.247  -0.129  1.00  0.00    -0.188 OA
HETATM   27  O7  UNL     1      -6.229   0.799   0.481  1.00  0.00    -0.188 OA
ENDROOT
BRANCH   4  28
HETATM   28  C19 UNL     1      -2.477  -2.687   0.271  1.00  0.00    -0.016 A 
HETATM   29  C20 UNL     1      -2.027  -3.449   1.356  1.00  0.00     0.026 A 
HETATM   30  C21 UNL     1      -2.536  -4.718   1.643  1.00  0.00     0.156 A 
HETATM   31  C22 UNL     1      -3.535  -5.256   0.825  1.00  0.00     0.156 A 
HETATM   32  O5  UNL     1      -2.064  -5.455   2.683  1.00  0.00    -0.188 OA
HETATM   33  C23 UNL     1      -3.994  -4.508  -0.262  1.00  0.00     0.029 A 
HETATM   34  O4  UNL     1      -4.025  -6.496   1.083  1.00  0.00    -0.188 OA
HETATM   35  C24 UNL     1      -3.465  -3.248  -0.546  1.00  0.00    -0.002 A 
ENDBRANCH   4  28
TORSDOF 1
