REMARK  0 active torsions:
REMARK  status: ('A' for Active; 'I' for Inactive)
ROOT
HETATM    1  C1  UNL     1      -4.284  -0.073  -0.478  1.00  0.00     0.024 A 
HETATM    2  C2  UNL     1      -5.042  -1.242  -0.356  1.00  0.00     0.133 A 
HETATM    3  C3  UNL     1      -4.363  -2.458  -0.208  1.00  0.00     0.055 A 
HETATM    4  C4  UNL     1      -2.966  -2.561  -0.189  1.00  0.00     0.132 A 
HETATM    5  C5  UNL     1      -2.251  -1.367  -0.317  1.00  0.00     0.018 A 
HETATM    6  C6  UNL     1      -2.893  -0.159  -0.470  1.00  0.00    -0.015 A 
HETATM    7  C7  UNL     1      -1.898   0.956  -0.514  1.00  0.00     0.046 C 
HETATM    8  C8  UNL     1      -0.600   0.600  -1.321  1.00  0.00    -0.030 C 
HETATM    9  C9  UNL     1      -0.069  -0.789  -1.571  1.00  0.00     0.065 C 
HETATM   10  C10 UNL     1      -0.771  -1.137  -0.285  1.00  0.00    -0.013 C 
HETATM   11  C11 UNL     1      -0.229  -0.695   1.063  1.00  0.00    -0.003 A 
HETATM   12  C12 UNL     1      -0.635   0.514   1.645  1.00  0.00     0.004 A 
HETATM   13  C13 UNL     1      -1.574   1.438   0.908  1.00  0.00     0.037 C 
HETATM   14  C14 UNL     1      -0.172   0.883   2.917  1.00  0.00     0.129 A 
HETATM   15  C15 UNL     1       0.688   0.019   3.599  1.00  0.00     0.054 A 
HETATM   16  C16 UNL     1       1.115  -1.191   3.052  1.00  0.00     0.133 A 
HETATM   17  C17 UNL     1       0.644  -1.523   1.781  1.00  0.00     0.027 A 
HETATM   18  O1  UNL     1       1.941  -2.017   3.747  1.00  0.00    -0.190 OA
HETATM   19  O2  UNL     1      -0.564   2.049   3.498  1.00  0.00    -0.190 OA
HETATM   20  C18 UNL     1       0.561  -0.236  -2.697  1.00  0.00     0.011 C 
HETATM   21  C19 UNL     1       1.044   0.913  -3.323  1.00  0.00     0.153 C 
HETATM   22  C20 UNL     1       0.825   2.106  -2.677  1.00  0.00     0.155 C 
HETATM   23  C21 UNL     1      -0.126   1.878  -1.705  1.00  0.00     0.022 C 
HETATM   24  O3  UNL     1       1.230   3.311  -3.142  1.00  0.00    -0.188 OA
HETATM   25  O4  UNL     1       1.760   0.903  -4.478  1.00  0.00    -0.188 OA
HETATM   26  O5  UNL     1      -2.348  -3.756  -0.005  1.00  0.00    -0.190 OA
HETATM   27  O6  UNL     1      -6.400  -1.203  -0.344  1.00  0.00    -0.190 OA
ENDROOT
TORSDOF 0
