REMARK  3 active torsions:
REMARK  status: ('A' for Active; 'I' for Inactive)
REMARK    1  A    between atoms: C1_1  and  O8_28 
REMARK    2  A    between atoms: O8_28  and  C21_29 
REMARK    3  A    between atoms: C22_31  and  C26_38 
ROOT
HETATM    1  C1  UNL     1      -4.278  -0.584  -0.663  1.00  0.00     0.170 C 
HETATM    2  C2  UNL     1      -4.992  -1.495   0.310  1.00  0.00    -0.003 C 
HETATM    3  C3  UNL     1      -4.404  -1.834   1.470  1.00  0.00    -0.046 C 
HETATM    4  C4  UNL     1      -3.049  -1.223   1.758  1.00  0.00     0.023 C 
HETATM    5  C5  UNL     1      -3.166   0.310   1.558  1.00  0.00     0.039 C 
HETATM    6  C6  UNL     1      -3.703   0.606   0.121  1.00  0.00     0.184 C 
HETATM    7  O1  UNL     1      -4.683   1.622   0.161  1.00  0.00    -0.221 OA
HETATM    8  C7  UNL     1      -1.722   0.898   1.665  1.00  0.00     0.065 C 
HETATM    9  C8  UNL     1      -0.822   0.418   2.817  1.00  0.00     0.061 C 
HETATM   10  C9  UNL     1      -0.928  -1.078   3.120  1.00  0.00     0.127 C 
HETATM   11  C10 UNL     1      -2.373  -1.598   3.090  1.00  0.00     0.034 C 
HETATM   12  O2  UNL     1      -0.204  -1.913   2.257  1.00  0.00    -0.302 OA
HETATM   13  C11 UNL     1       0.620  -1.482   1.279  1.00  0.00     0.302 C 
HETATM   14  C12 UNL     1       1.190  -0.087   1.392  1.00  0.00     0.237 C 
HETATM   15  C13 UNL     1       0.669   0.760   2.544  1.00  0.00     0.048 C 
HETATM   16  C14 UNL     1       0.911   2.277   2.350  1.00  0.00     0.039 C 
HETATM   17  C15 UNL     1      -0.227   2.948   1.577  1.00  0.00     0.206 C 
HETATM   18  C16 UNL     1      -1.587   2.386   1.941  1.00  0.00     0.247 C 
HETATM   19  O3  UNL     1      -2.536   3.140   1.225  1.00  0.00    -0.193 OA
HETATM   20  O4  UNL     1      -1.799   2.527   3.317  1.00  0.00    -0.331 OA
HETATM   21  C17 UNL     1      -1.337   1.341   3.932  1.00  0.00     0.147 C 
HETATM   22  O5  UNL     1      -0.068   2.808   0.186  1.00  0.00    -0.218 OA
HETATM   23  C18 UNL     1       2.294   2.670   1.805  1.00  0.00     0.003 C 
HETATM   24  O6  UNL     1       2.593  -0.272   1.472  1.00  0.00    -0.213 OA
HETATM   25  O7  UNL     1       1.028  -2.194   0.386  1.00  0.00    -0.261 OA
HETATM   26  C19 UNL     1      -4.204   0.820   2.598  1.00  0.00     0.003 C 
HETATM   27  C20 UNL     1      -5.050  -2.765   2.460  1.00  0.00     0.026 C 
ENDROOT
BRANCH   1  28
HETATM   28  O8  UNL     1      -3.284  -1.350  -1.315  1.00  0.00    -0.324 OA
BRANCH  28  29
HETATM   29  C21 UNL     1      -2.654  -0.735  -2.418  1.00  0.00     0.270 C 
HETATM   30  O9  UNL     1      -3.379  -1.132  -3.563  1.00  0.00    -0.326 OA
HETATM   31  C22 UNL     1      -2.872  -0.555  -4.743  1.00  0.00     0.184 C 
HETATM   32  C23 UNL     1      -1.411  -0.957  -4.940  1.00  0.00     0.215 C 
HETATM   33  C24 UNL     1      -0.593  -0.604  -3.716  1.00  0.00     0.220 C 
HETATM   34  O12 UNL     1      -0.827  -0.289  -6.031  1.00  0.00    -0.218 OA
HETATM   35  C25 UNL     1      -1.236  -1.254  -2.513  1.00  0.00     0.241 C 
HETATM   36  O11 UNL     1       0.721  -1.077  -3.864  1.00  0.00    -0.218 OA
HETATM   37  O10 UNL     1      -0.493  -0.903  -1.372  1.00  0.00    -0.215 OA
BRANCH  31  38
HETATM   38  C26 UNL     1      -3.763  -0.994  -5.898  1.00  0.00     0.214 C 
HETATM   39  O13 UNL     1      -3.603  -0.123  -7.001  1.00  0.00    -0.218 OA
ENDBRANCH  31  38
ENDBRANCH  28  29
ENDBRANCH   1  28
TORSDOF 3
