REMARK  2 active torsions:
REMARK  status: ('A' for Active; 'I' for Inactive)
REMARK    1  A    between atoms: C9_11  and  C12_15 
REMARK    2  A    between atoms: C16_19  and  O4_21 
ROOT
HETATM    1  C1  UNL     1      -5.504   0.193   0.067  1.00  0.00     0.102 A 
HETATM    2  C2  UNL     1      -5.666   1.586  -0.010  1.00  0.00     0.025 A 
HETATM    3  C3  UNL     1      -4.511   2.349  -0.084  1.00  0.00     0.007 A 
HETATM    4  C4  UNL     1      -3.228   1.741  -0.083  1.00  0.00     0.062 A 
HETATM    5  C5  UNL     1      -3.042   0.360  -0.007  1.00  0.00     0.105 A 
HETATM    6  C6  UNL     1      -4.235  -0.389   0.067  1.00  0.00     0.048 A 
HETATM    7  C7  UNL     1      -4.460  -1.812   0.155  1.00  0.00     0.031 A 
HETATM    8  C8  UNL     1      -5.809  -1.972   0.202  1.00  0.00     0.123 A 
HETATM    9  O1  UNL     1      -6.472  -0.770   0.149  1.00  0.00    -0.305 OA
HETATM   10  O2  UNL     1      -1.828  -0.261  -0.007  1.00  0.00    -0.307 OA
HETATM   11  C9  UNL     1      -0.688   0.499  -0.043  1.00  0.00     0.103 A 
HETATM   12  C10 UNL     1      -0.739   1.853  -0.119  1.00  0.00     0.067 A 
HETATM   13  C11 UNL     1      -2.021   2.590  -0.159  1.00  0.00     0.200 A 
HETATM   14  O3  UNL     1      -2.058   3.816  -0.239  1.00  0.00    -0.286 OA
ENDROOT
BRANCH  11  15
HETATM   15  C12 UNL     1       0.623  -0.194  -0.003  1.00  0.00     0.025 A 
HETATM   16  C13 UNL     1       0.635  -1.598   0.076  1.00  0.00     0.002 A 
HETATM   17  C14 UNL     1       1.836  -2.302   0.115  1.00  0.00     0.002 A 
HETATM   18  C15 UNL     1       3.056  -1.624   0.078  1.00  0.00     0.024 A 
HETATM   19  C16 UNL     1       3.109  -0.226   0.002  1.00  0.00     0.094 A 
HETATM   20  C17 UNL     1       1.875   0.444  -0.037  1.00  0.00     0.026 A 
BRANCH  19  21
HETATM   21  O4  UNL     1       4.261   0.521  -0.041  1.00  0.00    -0.328 OA
HETATM   22  C18 UNL     1       5.499  -0.150  -0.021  1.00  0.00     0.181 C 
ENDBRANCH  19  21
ENDBRANCH  11  15
TORSDOF 2
