REMARK  0 active torsions:
REMARK  status: ('A' for Active; 'I' for Inactive)
ROOT
HETATM    1  C1  UNL     1      -5.381  -0.393  -1.738  1.00  0.00     0.203 C 
HETATM    2  C2  UNL     1      -5.560  -1.700  -1.072  1.00  0.00     0.032 C 
HETATM    3  C3  UNL     1      -4.556  -2.284  -0.388  1.00  0.00    -0.041 C 
HETATM    4  C4  UNL     1      -3.183  -1.638  -0.334  1.00  0.00     0.024 C 
HETATM    5  C5  UNL     1      -3.271  -0.082  -0.320  1.00  0.00     0.042 C 
HETATM    6  C6  UNL     1      -4.063   0.336  -1.574  1.00  0.00     0.213 C 
HETATM    7  O1  UNL     1      -4.386   1.717  -1.554  1.00  0.00    -0.215 OA
HETATM    8  C7  UNL     1      -1.813   0.477  -0.402  1.00  0.00     0.042 C 
HETATM    9  C8  UNL     1      -0.824  -0.069   0.663  1.00  0.00     0.069 C 
HETATM   10  C9  UNL     1      -0.836  -1.600   0.673  1.00  0.00     0.155 C 
HETATM   11  C10 UNL     1      -2.250  -2.172   0.773  1.00  0.00     0.037 C 
HETATM   12  O2  UNL     1      -0.250  -2.087  -0.519  1.00  0.00    -0.223 OA
HETATM   13  C11 UNL     1       0.614   0.439   0.429  1.00  0.00     0.118 C 
HETATM   14  C12 UNL     1       0.441   1.887   0.839  1.00  0.00     0.130 C 
HETATM   15  C13 UNL     1      -0.130   2.387  -0.487  1.00  0.00     0.180 C 
HETATM   16  C14 UNL     1      -1.591   1.973  -0.701  1.00  0.00     0.182 C 
HETATM   17  O3  UNL     1      -2.438   2.799   0.057  1.00  0.00    -0.221 OA
HETATM   18  O4  UNL     1       0.628   1.742  -1.481  1.00  0.00    -0.299 OA
HETATM   19  C15 UNL     1       1.025   0.531  -1.015  1.00  0.00     0.274 C 
HETATM   20  O5  UNL     1       1.579  -0.353  -1.628  1.00  0.00    -0.264 OA
HETATM   21  O6  UNL     1      -0.468   1.911   1.890  1.00  0.00    -0.356 OA
HETATM   22  C16 UNL     1      -0.996   0.613   2.023  1.00  0.00     0.145 C 
HETATM   23  C17 UNL     1       1.736   2.589   1.238  1.00  0.00     0.033 C 
HETATM   24  C18 UNL     1      -4.097   0.353   0.918  1.00  0.00     0.003 C 
HETATM   25  C19 UNL     1      -4.755  -3.641   0.244  1.00  0.00     0.026 C 
HETATM   26  O7  UNL     1      -6.253   0.188  -2.372  1.00  0.00    -0.289 OA
ENDROOT
TORSDOF 0
