REMARK  4 active torsions:
REMARK  status: ('A' for Active; 'I' for Inactive)
REMARK    1  A    between atoms: C1_1  and  C21_29 
REMARK    2  A    between atoms: C5_5  and  O2_7 
REMARK    3  A    between atoms: O2_7  and  C6_8 
REMARK    4  A    between atoms: C6_8  and  C7_9 
ROOT
HETATM    1  C7  UNL     1      -0.398  -1.086  -0.566  1.00  0.00     0.025 C 
HETATM    2  C8  UNL     1      -1.722  -0.517   0.004  1.00  0.00     0.005 C 
HETATM    3  C9  UNL     1      -2.759  -1.635   0.177  1.00  0.00     0.037 C 
HETATM    4  C10 UNL     1      -4.137  -1.260   0.724  1.00  0.00     0.102 C 
HETATM    5  C11 UNL     1      -4.832  -2.567   1.155  1.00  0.00     0.030 C 
HETATM    6  C12 UNL     1      -4.996  -3.554  -0.018  1.00  0.00     0.036 C 
HETATM    7  C13 UNL     1      -3.769  -3.597  -0.937  1.00  0.00     0.161 C 
HETATM    8  C14 UNL     1      -3.203  -2.189  -1.186  1.00  0.00     0.108 C 
HETATM    9  C15 UNL     1      -2.087  -2.083  -2.237  1.00  0.00     0.012 C 
HETATM   10  C16 UNL     1      -0.693  -2.194  -1.607  1.00  0.00     0.003 C 
HETATM   11  C17 UNL     1      -4.350  -1.242  -1.520  1.00  0.00     0.273 C 
HETATM   12  O3  UNL     1      -4.835  -0.734  -0.358  1.00  0.00    -0.307 OA
HETATM   13  O4  UNL     1      -4.772  -0.965  -2.620  1.00  0.00    -0.264 OA
HETATM   14  O5  UNL     1      -4.138  -4.207  -2.151  1.00  0.00    -0.223 OA
HETATM   15  C18 UNL     1      -4.114  -0.243   1.862  1.00  0.00     0.030 C 
ENDROOT
BRANCH   1  16
HETATM   16  C6  UNL     1       0.624   0.017  -0.975  1.00  0.00     0.096 C 
HETATM   17  C19 UNL     1       0.110   0.814  -2.183  1.00  0.00     0.030 C 
HETATM   18  C20 UNL     1       1.983  -0.615  -1.326  1.00  0.00     0.030 C 
BRANCH  16  19
HETATM   19  O2  UNL     1       0.732   0.840   0.160  1.00  0.00    -0.334 OA
BRANCH  19  20
HETATM   20  C5  UNL     1       1.668   1.896   0.144  1.00  0.00     0.270 C 
HETATM   21  C4  UNL     1       1.235   2.913   1.179  1.00  0.00     0.241 C 
HETATM   22  C3  UNL     1       2.266   4.017   1.260  1.00  0.00     0.220 C 
HETATM   23  O6  UNL     1      -0.004   3.466   0.812  1.00  0.00    -0.215 OA
HETATM   24  C2  UNL     1       3.621   3.403   1.552  1.00  0.00     0.215 C 
HETATM   25  O7  UNL     1       1.928   4.912   2.288  1.00  0.00    -0.218 OA
HETATM   26  C1  UNL     1       3.934   2.321   0.527  1.00  0.00     0.184 C 
HETATM   27  O8  UNL     1       4.580   4.431   1.512  1.00  0.00    -0.218 OA
HETATM   28  O1  UNL     1       2.911   1.360   0.544  1.00  0.00    -0.326 OA
BRANCH  26  29
HETATM   29  C21 UNL     1       5.256   1.625   0.814  1.00  0.00     0.214 C 
HETATM   30  O9  UNL     1       5.546   0.713  -0.227  1.00  0.00    -0.218 OA
ENDBRANCH  26  29
ENDBRANCH  19  20
ENDBRANCH  16  19
ENDBRANCH   1  16
TORSDOF 4
