REMARK  0 active torsions:
REMARK  status: ('A' for Active; 'I' for Inactive)
ROOT
HETATM    1  C1  UNL     1      -0.117   0.901   0.292  1.00  0.00     0.157 C 
HETATM    2  C2  UNL     1      -1.428   1.304   0.948  1.00  0.00     0.089 C 
HETATM    3  C3  UNL     1      -2.318   0.135   0.582  1.00  0.00     0.190 C 
HETATM    4  O1  UNL     1      -1.492  -1.003   0.567  1.00  0.00    -0.334 OA
HETATM    5  C4  UNL     1      -0.162  -0.610   0.362  1.00  0.00     0.155 C 
HETATM    6  C5  UNL     1       0.345  -1.036  -1.007  1.00  0.00     0.128 C 
HETATM    7  C6  UNL     1       0.141   0.192  -1.865  1.00  0.00     0.275 C 
HETATM    8  O2  UNL     1      -0.081   1.262  -1.059  1.00  0.00    -0.301 OA
HETATM    9  O3  UNL     1       0.204   0.232  -3.074  1.00  0.00    -0.264 OA
HETATM   10  O4  UNL     1      -2.835   0.289  -0.714  1.00  0.00    -0.337 OA
HETATM   11  C7  UNL     1      -4.021  -0.451  -0.818  1.00  0.00     0.118 C 
HETATM   12  C8  UNL     1      -4.384  -0.957   0.579  1.00  0.00     0.035 C 
HETATM   13  C9  UNL     1      -3.519  -0.073   1.478  1.00  0.00     0.059 C 
HETATM   14  C10 UNL     1      -5.111   0.435  -1.421  1.00  0.00     0.032 C 
ENDROOT
TORSDOF 0
