REMARK  3 active torsions:
REMARK  status: ('A' for Active; 'I' for Inactive)
REMARK    1  A    between atoms: C3_3  and  C19_21 
REMARK    2  A    between atoms: C12_12  and  C15_15 
REMARK    3  A    between atoms: C19_21  and  O3_22 
ROOT
HETATM    1  C1  UNL     1      -4.601  -0.377  -2.848  1.00  0.00     0.001 C 
HETATM    2  C2  UNL     1      -5.605  -1.116  -1.959  1.00  0.00     0.009 C 
HETATM    3  C3  UNL     1      -4.920  -1.810  -0.759  1.00  0.00     0.078 C 
HETATM    4  C4  UNL     1      -3.595  -1.076  -0.387  1.00  0.00     0.009 C 
HETATM    5  C5  UNL     1      -3.555   0.464  -0.600  1.00  0.00     0.001 C 
HETATM    6  C6  UNL     1      -3.893   0.763  -2.094  1.00  0.00     0.000 C 
HETATM    7  C7  UNL     1      -2.107   0.985  -0.291  1.00  0.00     0.000 C 
HETATM    8  C8  UNL     1      -1.413   0.448   0.993  1.00  0.00     0.007 C 
HETATM    9  C9  UNL     1      -1.585  -1.071   1.139  1.00  0.00     0.000 C 
HETATM   10  C10 UNL     1      -3.045  -1.502   0.985  1.00  0.00     0.001 C 
HETATM   11  C11 UNL     1       0.098   0.779   0.894  1.00  0.00     0.010 C 
HETATM   12  C12 UNL     1       0.120   2.300   1.097  1.00  0.00     0.082 C 
HETATM   13  C13 UNL     1      -0.482   2.969  -0.153  1.00  0.00     0.009 C 
HETATM   14  C14 UNL     1      -1.932   2.517  -0.402  1.00  0.00     0.001 C 
HETATM   15  C16 UNL     1      -0.856   2.431   2.255  1.00  0.00     0.152 C 
HETATM   16  C17 UNL     1      -1.786   1.233   2.271  1.00  0.00     0.065 C 
HETATM   17  O2  UNL     1      -0.849   3.347   3.042  1.00  0.00    -0.296 OA
HETATM   18  C18 UNL     1      -4.618   1.182   0.264  1.00  0.00     0.000 C 
HETATM   19  C21 UNL     1      -5.926  -1.895   0.413  1.00  0.00     0.010 C 
ENDROOT
BRANCH   3  20
HETATM   20  C19 UNL     1      -4.548  -3.232  -1.240  1.00  0.00     0.271 C 
HETATM   21  O4  UNL     1      -3.658  -3.477  -2.024  1.00  0.00    -0.264 OA
BRANCH  20  22
HETATM   22  O3  UNL     1      -5.348  -4.192  -0.704  1.00  0.00    -0.299 OA
HETATM   23  C20 UNL     1      -5.085  -5.520  -1.092  1.00  0.00     0.184 C 
ENDBRANCH  20  22
ENDBRANCH   3  20
BRANCH  12  24
HETATM   24  C15 UNL     1       1.490   2.853   1.473  1.00  0.00     0.189 C 
HETATM   25  O1  UNL     1       1.357   4.202   1.879  1.00  0.00    -0.220 OA
ENDBRANCH  12  24
TORSDOF 3
