REMARK  4 active torsions:
REMARK  status: ('A' for Active; 'I' for Inactive)
REMARK    1  A    between atoms: C15_15  and  C18_18 
REMARK    2  A    between atoms: C19_19  and  C20_20 
REMARK    3  A    between atoms: C20_20  and  C21_21 
REMARK    4  A    between atoms: C21_21  and  C22_22 
ROOT
HETATM    1  C1  UNL     1      -5.534  -1.674  -1.077  1.00  0.00     0.065 C 
HETATM    2  C2  UNL     1      -5.724  -3.138  -0.748  1.00  0.00     0.150 C 
HETATM    3  C3  UNL     1      -4.620  -3.839   0.049  1.00  0.00     0.051 C 
HETATM    4  C4  UNL     1      -4.057  -2.930   1.191  1.00  0.00     0.006 C 
HETATM    5  C5  UNL     1      -4.018  -1.383   0.995  1.00  0.00     0.001 C 
HETATM    6  C6  UNL     1      -5.282  -0.918   0.225  1.00  0.00     0.008 C 
HETATM    7  C7  UNL     1      -2.714  -0.968   0.245  1.00  0.00     0.005 C 
HETATM    8  C8  UNL     1      -1.354  -1.490   0.797  1.00  0.00     0.004 C 
HETATM    9  C9  UNL     1      -1.448  -2.996   1.121  1.00  0.00     0.000 C 
HETATM   10  C10 UNL     1      -2.740  -3.432   1.830  1.00  0.00     0.000 C 
HETATM   11  C11 UNL     1      -0.262  -1.251  -0.308  1.00  0.00     0.015 C 
HETATM   12  C12 UNL     1      -0.164   0.239  -0.512  1.00  0.00    -0.046 C 
HETATM   13  C13 UNL     1      -1.242   1.032  -0.480  1.00  0.00    -0.034 C 
HETATM   14  C14 UNL     1      -2.629   0.521  -0.176  1.00  0.00     0.025 C 
HETATM   15  C15 UNL     1       1.260   0.699  -0.674  1.00  0.00     0.036 C 
HETATM   16  C16 UNL     1       2.077  -0.607  -0.685  1.00  0.00     0.008 C 
HETATM   17  C17 UNL     1       1.195  -1.635   0.051  1.00  0.00     0.004 C 
HETATM   18  C26 UNL     1      -0.555  -1.861  -1.707  1.00  0.00     0.004 C 
HETATM   19  C27 UNL     1      -0.989  -0.729   2.103  1.00  0.00     0.000 C 
HETATM   20  C28 UNL     1      -4.158  -0.686   2.378  1.00  0.00     0.000 C 
HETATM   21  C29 UNL     1      -5.247  -5.121   0.662  1.00  0.00     0.007 C 
HETATM   22  C30 UNL     1      -3.600  -4.316  -1.004  1.00  0.00     0.007 C 
HETATM   23  O1  UNL     1      -6.699  -3.725  -1.163  1.00  0.00    -0.296 OA
ENDROOT
BRANCH  15  24
HETATM   24  C18 UNL     1       1.464   1.611  -1.867  1.00  0.00    -0.045 C 
HETATM   25  C19 UNL     1       1.850   2.895  -1.753  1.00  0.00    -0.034 C 
HETATM   26  C25 UNL     1       1.152   1.042  -3.234  1.00  0.00     0.026 C 
BRANCH  25  27
HETATM   27  C20 UNL     1       2.120   3.632  -0.464  1.00  0.00     0.025 C 
BRANCH  27  28
HETATM   28  C21 UNL     1       2.410   5.124  -0.706  1.00  0.00     0.005 C 
BRANCH  28  29
HETATM   29  C22 UNL     1       2.505   5.971   0.579  1.00  0.00     0.000 C 
HETATM   30  C23 UNL     1       3.636   5.504   1.509  1.00  0.00     0.000 C 
HETATM   31  C24 UNL     1       2.701   7.455   0.219  1.00  0.00     0.000 C 
ENDBRANCH  28  29
ENDBRANCH  27  28
ENDBRANCH  25  27
ENDBRANCH  15  24
TORSDOF 4
