REMARK  3 active torsions:
REMARK  status: ('A' for Active; 'I' for Inactive)
REMARK    1  A    between atoms: C11_13  and  C13_16 
REMARK    2  A    between atoms: C15_18  and  C16_19 
REMARK    3  A    between atoms: C16_19  and  C17_20 
ROOT
HETATM    1  C1  UNL     1      -4.994  -0.952   0.806  1.00  0.00     0.117 A 
HETATM    2  C2  UNL     1      -5.032   0.556   0.727  1.00  0.00     0.001 A 
HETATM    3  C3  UNL     1      -3.952   1.313   0.475  1.00  0.00     0.002 A 
HETATM    4  C4  UNL     1      -2.665   0.656   0.259  1.00  0.00     0.048 A 
HETATM    5  C5  UNL     1      -2.644  -0.742   0.326  1.00  0.00     0.098 A 
HETATM    6  O1  UNL     1      -3.735  -1.530   0.570  1.00  0.00    -0.331 OA
HETATM    7  C6  UNL     1      -1.400  -1.356   0.130  1.00  0.00     0.049 A 
HETATM    8  C7  UNL     1      -0.220  -0.658  -0.130  1.00  0.00     0.107 A 
HETATM    9  C8  UNL     1      -0.303   0.743  -0.211  1.00  0.00     0.087 A 
HETATM   10  C9  UNL     1      -1.514   1.424  -0.008  1.00  0.00     0.138 A 
HETATM   11  O2  UNL     1      -1.606   2.782  -0.042  1.00  0.00    -0.190 OA
HETATM   12  C10 UNL     1       0.965   1.470  -0.487  1.00  0.00     0.201 C 
HETATM   13  C11 UNL     1       2.212   0.676  -0.316  1.00  0.00     0.064 C 
HETATM   14  C12 UNL     1       2.106  -0.666  -0.214  1.00  0.00     0.126 C 
HETATM   15  O3  UNL     1       0.936  -1.349  -0.344  1.00  0.00    -0.305 OA
HETATM   16  O5  UNL     1       0.993   2.643  -0.843  1.00  0.00    -0.286 OA
HETATM   17  C24 UNL     1      -5.965  -1.516  -0.241  1.00  0.00     0.035 C 
HETATM   18  C25 UNL     1      -5.447  -1.376   2.209  1.00  0.00     0.035 C 
ENDROOT
BRANCH  13  19
HETATM   19  C13 UNL     1       3.517   1.364  -0.172  1.00  0.00     0.005 A 
HETATM   20  C14 UNL     1       4.700   0.770  -0.630  1.00  0.00    -0.002 A 
HETATM   21  C15 UNL     1       5.961   1.358  -0.459  1.00  0.00     0.008 A 
HETATM   22  C21 UNL     1       6.055   2.610   0.167  1.00  0.00     0.127 A 
HETATM   23  C22 UNL     1       4.874   3.217   0.609  1.00  0.00     0.027 A 
HETATM   24  O4  UNL     1       7.246   3.241   0.348  1.00  0.00    -0.191 OA
HETATM   25  C23 UNL     1       3.627   2.611   0.456  1.00  0.00     0.002 A 
BRANCH  21  26
HETATM   26  C16 UNL     1       7.178   0.606  -0.961  1.00  0.00     0.054 C 
BRANCH  26  27
HETATM   27  C17 UNL     1       7.284  -0.760  -0.327  1.00  0.00    -0.030 C 
HETATM   28  C18 UNL     1       8.142  -1.728  -0.693  1.00  0.00    -0.048 C 
HETATM   29  C19 UNL     1       8.149  -3.073  -0.005  1.00  0.00     0.026 C 
HETATM   30  C20 UNL     1       9.163  -1.579  -1.794  1.00  0.00     0.026 C 
ENDBRANCH  26  27
ENDBRANCH  21  26
ENDBRANCH  13  19
TORSDOF 3
