REMARK  7 active torsions:
REMARK  status: ('A' for Active; 'I' for Inactive)
REMARK    1  A    between atoms: C2_2  and  O7_30 
REMARK    2  A    between atoms: C5_5  and  C23_26 
REMARK    3  A    between atoms: C15_15  and  C18_18 
REMARK    4  A    between atoms: O7_30  and  C24_31 
REMARK    5  A    between atoms: C26_34  and  O10_38 
REMARK    6  A    between atoms: O10_38  and  C29_39 
REMARK    7  A    between atoms: C30_41  and  C34_48 
ROOT
HETATM    1  C1  UNL     1      -0.816  -0.992  -3.403  1.00  0.00     0.030 C 
HETATM    2  C2  UNL     1      -1.432  -1.824  -2.277  1.00  0.00     0.120 C 
HETATM    3  C3  UNL     1      -0.400  -2.795  -1.706  1.00  0.00     0.061 C 
HETATM    4  C4  UNL     1       1.060  -2.291  -1.672  1.00  0.00     0.138 C 
HETATM    5  C5  UNL     1       1.240  -0.757  -1.782  1.00  0.00     0.104 C 
HETATM    6  C6  UNL     1       0.537  -0.321  -3.096  1.00  0.00     0.015 C 
HETATM    7  C7  UNL     1       2.757  -0.341  -1.807  1.00  0.00     0.014 C 
HETATM    8  C8  UNL     1       3.735  -1.504  -2.083  1.00  0.00     0.029 C 
HETATM    9  C9  UNL     1       3.178  -2.387  -3.201  1.00  0.00     0.005 C 
HETATM   10  C10 UNL     1       1.850  -3.031  -2.773  1.00  0.00     0.031 C 
HETATM   11  C11 UNL     1       5.193  -1.081  -2.296  1.00  0.00     0.127 C 
HETATM   12  C12 UNL     1       5.761  -0.225  -1.148  1.00  0.00     0.029 C 
HETATM   13  C13 UNL     1       4.746   0.896  -0.800  1.00  0.00     0.003 C 
HETATM   14  C14 UNL     1       3.300   0.416  -0.577  1.00  0.00     0.001 C 
HETATM   15  C15 UNL     1       7.041   0.409  -1.768  1.00  0.00     0.023 C 
HETATM   16  C16 UNL     1       6.911   0.269  -3.299  1.00  0.00     0.007 C 
HETATM   17  C17 UNL     1       5.491  -0.259  -3.552  1.00  0.00     0.031 C 
HETATM   18  C22 UNL     1       6.050  -1.021   0.142  1.00  0.00     0.003 C 
HETATM   19  O3  UNL     1       5.964  -2.253  -2.398  1.00  0.00    -0.226 OA
HETATM   20  O6  UNL     1       1.567  -2.694  -0.419  1.00  0.00    -0.225 OA
ENDROOT
BRANCH   2  21
HETATM   21  O7  UNL     1      -1.918  -0.975  -1.278  1.00  0.00    -0.333 OA
BRANCH  21  22
HETATM   22  C24 UNL     1      -2.954  -1.510  -0.457  1.00  0.00     0.238 C 
HETATM   23  O8  UNL     1      -3.902  -0.463  -0.573  1.00  0.00    -0.331 OA
HETATM   24  C25 UNL     1      -4.865  -0.427   0.438  1.00  0.00     0.148 C 
HETATM   25  C26 UNL     1      -4.176  -0.248   1.790  1.00  0.00     0.175 C 
HETATM   26  C35 UNL     1      -5.836   0.719   0.143  1.00  0.00     0.035 C 
HETATM   27  C27 UNL     1      -3.422  -1.535   2.080  1.00  0.00     0.187 C 
HETATM   28  C28 UNL     1      -2.425  -1.763   0.954  1.00  0.00     0.097 C 
HETATM   29  O9  UNL     1      -4.311  -2.624   2.150  1.00  0.00    -0.221 OA
BRANCH  25  30
HETATM   30  O10 UNL     1      -3.292   0.834   1.654  1.00  0.00    -0.326 OA
BRANCH  30  31
HETATM   31  C29 UNL     1      -2.805   1.398   2.848  1.00  0.00     0.270 C 
HETATM   32  O11 UNL     1      -3.861   2.221   3.297  1.00  0.00    -0.326 OA
HETATM   33  C30 UNL     1      -3.531   2.962   4.440  1.00  0.00     0.184 C 
HETATM   34  C31 UNL     1      -2.377   3.900   4.106  1.00  0.00     0.215 C 
HETATM   35  C32 UNL     1      -1.184   3.090   3.645  1.00  0.00     0.220 C 
HETATM   36  O14 UNL     1      -1.975   4.657   5.220  1.00  0.00    -0.218 OA
HETATM   37  C33 UNL     1      -1.594   2.226   2.473  1.00  0.00     0.241 C 
HETATM   38  O13 UNL     1      -0.151   3.959   3.253  1.00  0.00    -0.218 OA
HETATM   39  O12 UNL     1      -0.502   1.402   2.134  1.00  0.00    -0.215 OA
BRANCH  33  40
HETATM   40  C34 UNL     1      -4.787   3.693   4.898  1.00  0.00     0.214 C 
HETATM   41  O15 UNL     1      -4.672   4.062   6.257  1.00  0.00    -0.218 OA
ENDBRANCH  33  40
ENDBRANCH  30  31
ENDBRANCH  25  30
ENDBRANCH  21  22
ENDBRANCH   2  21
BRANCH   5  42
HETATM   42  C23 UNL     1       0.591  -0.068  -0.574  1.00  0.00     0.186 C 
HETATM   43  O4  UNL     1       0.092   1.154  -0.838  1.00  0.00    -0.647 OA
HETATM   44  O5  UNL     1       0.534  -0.511   0.548  1.00  0.00    -0.647 OA
ENDBRANCH   5  42
BRANCH  15  45
HETATM   45  C18 UNL     1       8.364  -0.072  -1.217  1.00  0.00    -0.009 A 
HETATM   46  C19 UNL     1       9.062   0.557  -0.257  1.00  0.00     0.062 A 
HETATM   47  C20 UNL     1      10.248  -0.287  -0.022  1.00  0.00     0.296 A 
HETATM   48  O1  UNL     1      10.276  -1.399  -0.806  1.00  0.00    -0.294 OA
HETATM   49  O2  UNL     1      11.118  -0.014   0.798  1.00  0.00    -0.259 OA
HETATM   50  C21 UNL     1       9.098  -1.339  -1.607  1.00  0.00     0.175 A 
ENDBRANCH  15  45
TORSDOF 7
