REMARK  7 active torsions:
REMARK  status: ('A' for Active; 'I' for Inactive)
REMARK    1  A    between atoms: C16_16  and  C25_25 
REMARK    2  A    between atoms: C25_25  and  O2_27 
REMARK    3  A    between atoms: O2_27  and  C26_28 
REMARK    4  A    between atoms: C27_30  and  C31_37 
REMARK    5  A    between atoms: C38_47  and  C49_65 
REMARK    6  A    between atoms: C44_54  and  C48_61 
REMARK    7  A    between atoms: C49_65  and  O18_67 
ROOT
HETATM    1  C1  UNL     1      -2.076   2.138   0.126  1.00  0.00     0.030 C 
HETATM    2  C2  UNL     1      -2.777   0.764  -0.108  1.00  0.00     0.118 C 
HETATM    3  C3  UNL     1      -2.295   0.142  -1.442  1.00  0.00     0.025 C 
HETATM    4  C4  UNL     1      -0.598  -0.238  -1.154  1.00  0.00     0.005 C 
HETATM    5  C5  UNL     1       0.297   1.165  -0.204  1.00  0.00     0.001 C 
HETATM    6  C6  UNL     1      -0.623   2.405  -0.393  1.00  0.00     0.003 C 
HETATM    7  C7  UNL     1       1.982   1.300  -0.465  1.00  0.00     0.005 C 
HETATM    8  C8  UNL     1       3.070   0.069  -0.776  1.00  0.00     0.004 C 
HETATM    9  C9  UNL     1       2.510  -1.447  -1.272  1.00  0.00     0.003 C 
HETATM   10  C10 UNL     1       0.740  -1.811  -1.536  1.00  0.00     0.031 C 
HETATM   11  C11 UNL     1       4.263   0.698  -1.682  1.00  0.00     0.015 C 
HETATM   12  C12 UNL     1       4.856   1.904  -0.911  1.00  0.00    -0.049 C 
HETATM   13  C13 UNL     1       4.121   2.627  -0.041  1.00  0.00    -0.035 C 
HETATM   14  C14 UNL     1       2.695   2.373   0.392  1.00  0.00     0.025 C 
HETATM   15  C15 UNL     1       6.317   2.317  -1.097  1.00  0.00     0.027 C 
HETATM   16  C16 UNL     1       7.305   1.135  -1.231  1.00  0.00     0.082 C 
HETATM   17  C17 UNL     1       6.762   0.203  -2.332  1.00  0.00     0.010 C 
HETATM   18  C18 UNL     1       5.369  -0.361  -1.996  1.00  0.00     0.004 C 
HETATM   19  C19 UNL     1       8.729   1.639  -1.565  1.00  0.00     0.010 C 
HETATM   20  C20 UNL     1       8.798   2.696  -2.674  1.00  0.00     0.001 C 
HETATM   21  C21 UNL     1       7.886   3.909  -2.407  1.00  0.00     0.000 C 
HETATM   22  C22 UNL     1       6.449   3.390  -2.196  1.00  0.00     0.004 C 
HETATM   23  C23 UNL     1       7.915   4.838  -3.642  1.00  0.00     0.000 C 
HETATM   24  C24 UNL     1       8.378   4.735  -1.199  1.00  0.00     0.000 C 
HETATM   25  C32 UNL     1       3.863   1.244  -3.075  1.00  0.00     0.004 C 
HETATM   26  C33 UNL     1       3.946  -0.235   0.524  1.00  0.00     0.000 C 
HETATM   27  C34 UNL     1       0.245   1.285   1.420  1.00  0.00     0.000 C 
HETATM   28  C35 UNL     1      -2.586   1.302  -2.527  1.00  0.00     0.002 C 
HETATM   29  C36 UNL     1      -3.442  -0.776  -2.033  1.00  0.00     0.002 C 
HETATM   30  O8  UNL     1      -2.670  -0.148   0.976  1.00  0.00    -0.332 OA
HETATM   31  C37 UNL     1      -3.652  -1.205   1.007  1.00  0.00     0.267 C 
HETATM   32  O9  UNL     1      -4.234  -0.896   2.259  1.00  0.00    -0.319 OA
HETATM   33  C38 UNL     1      -5.375  -1.658   2.563  1.00  0.00     0.236 C 
HETATM   34  C39 UNL     1      -5.070  -3.147   2.562  1.00  0.00     0.222 C 
HETATM   35  C40 UNL     1      -4.403  -3.555   1.260  1.00  0.00     0.217 C 
HETATM   36  C41 UNL     1      -3.173  -2.686   1.023  1.00  0.00     0.204 C 
HETATM   37  O10 UNL     1      -2.480  -3.246  -0.104  1.00  0.00    -0.349 OA
HETATM   38  C42 UNL     1      -1.445  -2.454  -0.623  1.00  0.00     0.149 C 
HETATM   39  C43 UNL     1      -1.246  -2.457  -2.257  1.00  0.00     0.037 C 
HETATM   40  C44 UNL     1      -0.406  -1.184  -3.077  1.00  0.00     0.066 C 
HETATM   41  C45 UNL     1       0.908  -0.260  -2.087  1.00  0.00     0.160 C 
HETATM   42  C46 UNL     1       0.719  -0.880  -0.122  1.00  0.00     0.212 C 
HETATM   43  C47 UNL     1      -0.239  -2.218   0.349  1.00  0.00     0.212 C 
HETATM   44  O11 UNL     1      -0.596  -2.048   1.716  1.00  0.00    -0.218 OA
HETATM   45  O12 UNL     1       1.716  -1.077   0.855  1.00  0.00    -0.218 OA
HETATM   46  O13 UNL     1       0.825   1.063  -2.689  1.00  0.00    -0.223 OA
HETATM   47  O15 UNL     1      -4.009  -4.904   1.347  1.00  0.00    -0.218 OA
HETATM   48  O16 UNL     1      -6.255  -3.891   2.712  1.00  0.00    -0.217 OA
ENDROOT
BRANCH  16  49
HETATM   49  C25 UNL     1       7.518   0.300   0.051  1.00  0.00     0.273 C 
HETATM   50  O1  UNL     1       7.998  -0.811   0.039  1.00  0.00    -0.264 OA
BRANCH  49  51
HETATM   51  O2  UNL     1       7.118   0.947   1.167  1.00  0.00    -0.273 OA
BRANCH  51  52
HETATM   52  C26 UNL     1       7.048   0.271   2.405  1.00  0.00     0.276 C 
HETATM   53  O3  UNL     1       6.467  -0.987   2.153  1.00  0.00    -0.326 OA
HETATM   54  C27 UNL     1       6.169  -1.737   3.299  1.00  0.00     0.184 C 
HETATM   55  C28 UNL     1       5.189  -0.976   4.179  1.00  0.00     0.215 C 
HETATM   56  C29 UNL     1       5.783   0.363   4.564  1.00  0.00     0.220 C 
HETATM   57  O6  UNL     1       4.905  -1.687   5.358  1.00  0.00    -0.218 OA
HETATM   58  C30 UNL     1       6.156   1.105   3.301  1.00  0.00     0.241 C 
HETATM   59  O5  UNL     1       4.831   1.109   5.283  1.00  0.00    -0.218 OA
HETATM   60  O4  UNL     1       6.820   2.300   3.628  1.00  0.00    -0.215 OA
BRANCH  54  61
HETATM   61  C31 UNL     1       5.614  -3.073   2.820  1.00  0.00     0.214 C 
HETATM   62  O7  UNL     1       5.494  -3.987   3.891  1.00  0.00    -0.218 OA
ENDBRANCH  54  61
ENDBRANCH  51  52
ENDBRANCH  49  51
ENDBRANCH  16  49
BRANCH  40  63
HETATM   63  C48 UNL     1       0.099  -1.633  -4.472  1.00  0.00     0.185 C 
HETATM   64  O14 UNL     1       0.578  -0.515  -5.194  1.00  0.00    -0.221 OA
ENDBRANCH  40  63
BRANCH  33  65
HETATM   65  C49 UNL     1      -6.096  -1.199   3.833  1.00  0.00     0.302 C 
HETATM   66  O17 UNL     1      -7.307  -1.172   3.867  1.00  0.00    -0.261 OA
BRANCH  65  67
HETATM   67  O18 UNL     1      -5.384  -0.831   4.924  1.00  0.00    -0.297 OA
HETATM   68  C50 UNL     1      -3.978  -0.819   4.981  1.00  0.00     0.185 C 
ENDBRANCH  65  67
ENDBRANCH  33  65
TORSDOF 7
