REMARK  0 active torsions:
REMARK  status: ('A' for Active; 'I' for Inactive)
ROOT
HETATM    1  C1  UNL     1      -3.505  -1.019  -1.034  1.00  0.00     0.042 C 
HETATM    2  C2  UNL     1      -2.966  -1.221   0.408  1.00  0.00     0.056 C 
HETATM    3  C3  UNL     1      -2.173  -0.090   1.055  1.00  0.00     0.133 C 
HETATM    4  C4  UNL     1      -1.202   0.618   0.093  1.00  0.00     0.056 C 
HETATM    5  C5  UNL     1      -1.863   1.788  -0.639  1.00  0.00     0.009 C 
HETATM    6  C6  UNL     1      -2.774   1.334  -1.788  1.00  0.00     0.031 C 
HETATM    7  C7  UNL     1      -3.954   0.393  -1.481  1.00  0.00     0.128 C 
HETATM    8  C8  UNL     1      -4.992   1.049  -0.569  1.00  0.00     0.033 C 
HETATM    9  O1  UNL     1      -4.596   0.238  -2.730  1.00  0.00    -0.226 OA
HETATM   10  C9  UNL     1      -0.072   0.978   1.018  1.00  0.00     0.043 C 
HETATM   11  C10 UNL     1      -0.258   0.102   2.186  1.00  0.00     0.292 C 
HETATM   12  O2  UNL     1      -1.445  -0.554   2.169  1.00  0.00    -0.301 OA
HETATM   13  O3  UNL     1       0.576  -0.044   3.075  1.00  0.00    -0.260 OA
HETATM   14  C11 UNL     1       0.932   1.856   0.861  1.00  0.00     0.001 C 
HETATM   15  C12 UNL     1      -4.183  -1.676   1.179  1.00  0.00     0.015 C 
HETATM   16  C13 UNL     1      -5.187  -2.244   0.261  1.00  0.00     0.169 C 
HETATM   17  C14 UNL     1      -4.635  -2.077  -1.139  1.00  0.00     0.072 C 
HETATM   18  O4  UNL     1      -6.269  -2.737   0.548  1.00  0.00    -0.292 OA
HETATM   19  C15 UNL     1      -4.391  -1.628   2.508  1.00  0.00    -0.002 C 
ENDROOT
TORSDOF 0
