REMARK  4 active torsions:
REMARK  status: ('A' for Active; 'I' for Inactive)
REMARK    1  A    between atoms: C2_2  and  C10_14 
REMARK    2  A    between atoms: C13_17  and  O5_20 
REMARK    3  A    between atoms: O5_20  and  C16_21 
REMARK    4  A    between atoms: C17_23  and  C21_30 
ROOT
HETATM    1  C10 UNL     1      -1.282  -1.252  -1.435  1.00  0.00     0.006 A 
HETATM    2  C11 UNL     1      -1.121  -0.345  -2.484  1.00  0.00     0.000 A 
HETATM    3  C12 UNL     1      -0.350   0.807  -2.315  1.00  0.00     0.024 A 
HETATM    4  C13 UNL     1       0.276   1.141  -1.104  1.00  0.00     0.097 A 
HETATM    5  C14 UNL     1       0.129   0.199  -0.075  1.00  0.00     0.024 A 
HETATM    6  C15 UNL     1      -0.623  -0.966  -0.235  1.00  0.00     0.000 A 
ENDROOT
BRANCH   1   7
HETATM    7  C2  UNL     1      -2.134  -2.499  -1.574  1.00  0.00     0.150 C 
HETATM    8  C1  UNL     1      -1.259  -3.734  -1.764  1.00  0.00     0.089 C 
HETATM    9  C5  UNL     1      -2.124  -4.975  -1.841  1.00  0.00     0.115 C 
HETATM   10  C4  UNL     1      -3.321  -4.977  -0.913  1.00  0.00     0.065 C 
HETATM   11  O2  UNL     1      -1.838  -5.958  -2.665  1.00  0.00    -0.195 OA
HETATM   12  C3  UNL     1      -3.613  -3.814  -0.266  1.00  0.00     0.082 C 
HETATM   13  C6  UNL     1      -4.044  -6.251  -0.663  1.00  0.00     0.136 C 
HETATM   14  O1  UNL     1      -2.946  -2.633  -0.435  1.00  0.00    -0.332 OA
HETATM   15  C9  UNL     1      -4.772  -3.834   0.685  1.00  0.00     0.105 C 
HETATM   16  C8  UNL     1      -5.763  -4.963   0.608  1.00  0.00     0.117 C 
HETATM   17  C7  UNL     1      -5.181  -6.230   0.078  1.00  0.00     0.051 C 
HETATM   18  O3  UNL     1      -6.820  -5.011   1.461  1.00  0.00    -0.194 OA
HETATM   19  O4  UNL     1      -3.572  -7.447  -1.112  1.00  0.00    -0.190 OA
ENDBRANCH   1   7
BRANCH   4  20
HETATM   20  O5  UNL     1       1.014   2.296  -1.057  1.00  0.00    -0.304 OA
BRANCH  20  21
HETATM   21  C16 UNL     1       1.969   2.520  -0.042  1.00  0.00     0.274 C 
HETATM   22  O6  UNL     1       1.526   3.677   0.636  1.00  0.00    -0.326 OA
HETATM   23  C17 UNL     1       2.402   4.078   1.659  1.00  0.00     0.184 C 
HETATM   24  C18 UNL     1       3.786   4.365   1.085  1.00  0.00     0.215 C 
HETATM   25  C19 UNL     1       4.313   3.146   0.355  1.00  0.00     0.220 C 
HETATM   26  O9  UNL     1       4.704   4.679   2.103  1.00  0.00    -0.218 OA
HETATM   27  C20 UNL     1       3.304   2.768  -0.705  1.00  0.00     0.241 C 
HETATM   28  O8  UNL     1       5.545   3.451  -0.244  1.00  0.00    -0.218 OA
HETATM   29  O7  UNL     1       3.712   1.589  -1.350  1.00  0.00    -0.215 OA
BRANCH  23  30
HETATM   30  C21 UNL     1       1.813   5.305   2.344  1.00  0.00     0.214 C 
HETATM   31  O10 UNL     1       0.651   4.941   3.062  1.00  0.00    -0.218 OA
ENDBRANCH  23  30
ENDBRANCH  20  21
ENDBRANCH   4  20
TORSDOF 4
