REMARK  6 active torsions:
REMARK  status: ('A' for Active; 'I' for Inactive)
REMARK    1  A    between atoms: C3_3  and  O4_19 
REMARK    2  A    between atoms: O4_19  and  C16_20 
REMARK    3  A    between atoms: C17_22  and  C21_29 
REMARK    4  A    between atoms: C21_29  and  O9_30 
REMARK    5  A    between atoms: O9_30  and  C22_31 
REMARK    6  A    between atoms: C23_33  and  C27_40 
ROOT
HETATM    1  C16 UNL     1      -2.539  -0.143   1.758  1.00  0.00     0.274 C 
HETATM    2  O5  UNL     1      -2.161  -0.995   0.692  1.00  0.00    -0.326 OA
HETATM    3  C17 UNL     1      -0.835  -1.453   0.870  1.00  0.00     0.180 C 
HETATM    4  C18 UNL     1      -0.700  -2.249   2.163  1.00  0.00     0.215 C 
HETATM    5  C19 UNL     1      -1.188  -1.431   3.340  1.00  0.00     0.220 C 
HETATM    6  C20 UNL     1      -2.587  -0.947   3.039  1.00  0.00     0.241 C 
HETATM    7  O6  UNL     1      -3.050  -0.168   4.115  1.00  0.00    -0.215 OA
HETATM    8  O7  UNL     1      -1.193  -2.226   4.497  1.00  0.00    -0.218 OA
HETATM    9  O8  UNL     1       0.650  -2.563   2.408  1.00  0.00    -0.218 OA
ENDROOT
BRANCH   1  10
HETATM   10  O4  UNL     1      -3.813   0.402   1.509  1.00  0.00    -0.303 OA
BRANCH  10  11
HETATM   11  C3  UNL     1      -4.060   1.762   1.474  1.00  0.00     0.100 A 
HETATM   12  C2  UNL     1      -5.330   2.127   0.987  1.00  0.00     0.024 A 
HETATM   13  C1  UNL     1      -5.753   3.443   0.819  1.00  0.00     0.002 A 
HETATM   14  C6  UNL     1      -4.863   4.489   1.054  1.00  0.00     0.003 A 
HETATM   15  C5  UNL     1      -3.586   4.191   1.536  1.00  0.00     0.044 A 
HETATM   16  C4  UNL     1      -3.229   2.856   1.810  1.00  0.00     0.065 A 
HETATM   17  C7  UNL     1      -2.613   5.311   1.714  1.00  0.00     0.196 C 
HETATM   18  C10 UNL     1      -1.911   2.698   2.494  1.00  0.00     0.200 C 
HETATM   19  C9  UNL     1      -0.828   3.608   2.032  1.00  0.00     0.067 A 
HETATM   20  O1  UNL     1      -1.778   1.988   3.478  1.00  0.00    -0.286 OA
HETATM   21  C8  UNL     1      -1.177   4.923   1.709  1.00  0.00     0.044 A 
HETATM   22  C11 UNL     1       0.480   3.136   1.914  1.00  0.00     0.134 A 
HETATM   23  C14 UNL     1      -0.173   5.829   1.357  1.00  0.00    -0.001 A 
HETATM   24  C13 UNL     1       1.162   5.405   1.293  1.00  0.00    -0.020 A 
HETATM   25  C12 UNL     1       1.460   4.060   1.530  1.00  0.00     0.023 A 
HETATM   26  C15 UNL     1       2.271   6.361   0.924  1.00  0.00     0.031 C 
HETATM   27  O2  UNL     1       0.791   1.825   2.096  1.00  0.00    -0.190 OA
HETATM   28  O3  UNL     1      -2.959   6.489   1.696  1.00  0.00    -0.287 OA
ENDBRANCH  10  11
ENDBRANCH   1  10
BRANCH   3  29
HETATM   29  C21 UNL     1      -0.367  -2.244  -0.351  1.00  0.00     0.177 C 
BRANCH  29  30
HETATM   30  O9  UNL     1       0.563  -1.452  -1.044  1.00  0.00    -0.326 OA
BRANCH  30  31
HETATM   31  C22 UNL     1       1.140  -2.084  -2.165  1.00  0.00     0.270 C 
HETATM   32  O10 UNL     1       2.465  -2.405  -1.789  1.00  0.00    -0.326 OA
HETATM   33  C23 UNL     1       3.220  -2.957  -2.841  1.00  0.00     0.184 C 
HETATM   34  C24 UNL     1       3.251  -2.006  -4.036  1.00  0.00     0.215 C 
HETATM   35  C25 UNL     1       1.846  -1.648  -4.472  1.00  0.00     0.220 C 
HETATM   36  O13 UNL     1       3.900  -2.595  -5.135  1.00  0.00    -0.218 OA
HETATM   37  C26 UNL     1       1.141  -1.063  -3.275  1.00  0.00     0.241 C 
HETATM   38  O12 UNL     1       1.892  -0.693  -5.499  1.00  0.00    -0.218 OA
HETATM   39  O11 UNL     1      -0.186  -0.748  -3.612  1.00  0.00    -0.215 OA
BRANCH  33  40
HETATM   40  C27 UNL     1       4.628  -3.259  -2.328  1.00  0.00     0.214 C 
HETATM   41  O14 UNL     1       4.902  -4.644  -2.417  1.00  0.00    -0.218 OA
ENDBRANCH  33  40
ENDBRANCH  30  31
ENDBRANCH  29  30
ENDBRANCH   3  29
TORSDOF 6
