REMARK  6 active torsions:
REMARK  status: ('A' for Active; 'I' for Inactive)
REMARK    1  A    between atoms: C15_16  and  C18_19 
REMARK    2  A    between atoms: C18_19  and  C19_20 
REMARK    3  A    between atoms: C20_22  and  O5_31 
REMARK    4  A    between atoms: C22_24  and  O3_26 
REMARK    5  A    between atoms: O5_31  and  C27_32 
REMARK    6  A    between atoms: C28_34  and  C32_41 
ROOT
HETATM    1  C19 UNL     1       1.786  -1.074  -1.813  1.00  0.00     0.120 C 
HETATM    2  O2  UNL     1       2.320  -0.706  -0.572  1.00  0.00    -0.332 OA
HETATM    3  C20 UNL     1       2.735   0.642  -0.421  1.00  0.00     0.269 C 
HETATM    4  C21 UNL     1       3.745   1.091  -1.472  1.00  0.00     0.201 C 
HETATM    5  C22 UNL     1       3.209   0.802  -2.894  1.00  0.00     0.126 C 
HETATM    6  C23 UNL     1       2.749  -0.662  -2.931  1.00  0.00     0.060 C 
HETATM    7  C25 UNL     1       4.291   1.008  -3.972  1.00  0.00     0.033 C 
HETATM    8  C26 UNL     1       4.105   2.579  -1.336  1.00  0.00     0.041 C 
HETATM    9  O4  UNL     1       4.922   0.358  -1.244  1.00  0.00    -0.218 OA
ENDROOT
BRANCH   1  10
HETATM   10  C18 UNL     1       0.273  -0.776  -1.940  1.00  0.00     0.027 C 
HETATM   11  C33 UNL     1      -0.240  -1.145  -3.353  1.00  0.00     0.003 C 
BRANCH  10  12
HETATM   12  C15 UNL     1      -0.665  -1.468  -0.900  1.00  0.00     0.002 C 
HETATM   13  C12 UNL     1      -1.520  -0.553   0.020  1.00  0.00     0.000 C 
HETATM   14  C11 UNL     1      -2.050  -1.566   1.074  1.00  0.00     0.000 C 
HETATM   15  C13 UNL     1      -2.641   0.229  -0.703  1.00  0.00     0.000 C 
HETATM   16  C34 UNL     1      -0.627   0.488   0.726  1.00  0.00     0.000 C 
HETATM   17  C8  UNL     1      -3.370  -2.315   0.751  1.00  0.00     0.005 C 
HETATM   18  C17 UNL     1      -0.839  -2.469   1.353  1.00  0.00     0.000 C 
HETATM   19  C7  UNL     1      -4.277  -1.585  -0.257  1.00  0.00     0.006 C 
HETATM   20  C9  UNL     1      -3.306  -3.783   0.300  1.00  0.00     0.025 C 
HETATM   21  C5  UNL     1      -5.759  -2.048  -0.180  1.00  0.00     0.043 C 
HETATM   22  C14 UNL     1      -4.035  -0.075  -0.141  1.00  0.00     0.000 C 
HETATM   23  C4  UNL     1      -5.806  -3.569  -0.041  1.00  0.00    -0.044 C 
HETATM   24  C6  UNL     1      -6.568  -1.655  -1.449  1.00  0.00     0.158 C 
HETATM   25  C35 UNL     1      -6.430  -1.429   1.072  1.00  0.00     0.007 C 
HETATM   26  C3  UNL     1      -7.172  -4.228  -0.058  1.00  0.00     0.055 C 
HETATM   27  C10 UNL     1      -4.705  -4.322   0.137  1.00  0.00    -0.035 C 
HETATM   28  C2  UNL     1      -8.097  -3.645  -1.125  1.00  0.00     0.159 C 
HETATM   29  C1  UNL     1      -7.301  -2.818  -2.124  1.00  0.00     0.067 C 
HETATM   30  O11 UNL     1      -9.083  -2.833  -0.532  1.00  0.00    -0.223 OA
HETATM   31  O1  UNL     1      -5.773  -1.065  -2.452  1.00  0.00    -0.223 OA
HETATM   32  C16 UNL     1      -0.093  -2.577   0.015  1.00  0.00     0.000 C 
ENDBRANCH  10  12
ENDBRANCH   1  10
BRANCH   3  33
HETATM   33  O5  UNL     1       3.298   0.524   0.883  1.00  0.00    -0.302 OA
BRANCH  33  34
HETATM   34  C27 UNL     1       3.314   1.692   1.679  1.00  0.00     0.272 C 
HETATM   35  O6  UNL     1       4.691   1.978   1.827  1.00  0.00    -0.326 OA
HETATM   36  C28 UNL     1       4.925   3.167   2.538  1.00  0.00     0.184 C 
HETATM   37  C29 UNL     1       4.354   3.046   3.947  1.00  0.00     0.215 C 
HETATM   38  C30 UNL     1       2.890   2.667   3.887  1.00  0.00     0.220 C 
HETATM   39  O9  UNL     1       4.453   4.266   4.639  1.00  0.00    -0.218 OA
HETATM   40  C31 UNL     1       2.754   1.410   3.057  1.00  0.00     0.241 C 
HETATM   41  O8  UNL     1       2.406   2.433   5.185  1.00  0.00    -0.218 OA
HETATM   42  O7  UNL     1       1.394   1.078   2.995  1.00  0.00    -0.215 OA
BRANCH  36  43
HETATM   43  C32 UNL     1       6.425   3.420   2.571  1.00  0.00     0.214 C 
HETATM   44  O10 UNL     1       6.906   3.614   1.256  1.00  0.00    -0.218 OA
ENDBRANCH  36  43
ENDBRANCH  33  34
ENDBRANCH   3  33
BRANCH   5  45
HETATM   45  O3  UNL     1       2.107   1.645  -3.080  1.00  0.00    -0.354 OA
HETATM   46  C24 UNL     1       1.702   1.883  -4.410  1.00  0.00     0.174 C 
ENDBRANCH   5  45
TORSDOF 6
