REMARK  8 active torsions:
REMARK  status: ('A' for Active; 'I' for Inactive)
REMARK    1  A    between atoms: C15_16  and  C18_19 
REMARK    2  A    between atoms: C18_19  and  C19_20 
REMARK    3  A    between atoms: C19_20  and  C20_21 
REMARK    4  A    between atoms: C20_21  and  C21_22 
REMARK    5  A    between atoms: C22_23  and  C23_24 
REMARK    6  A    between atoms: C23_24  and  O2_25 
REMARK    7  A    between atoms: O2_25  and  C24_26 
REMARK    8  A    between atoms: C25_28  and  C29_35 
ROOT
HETATM    1  C18 UNL     1       0.451   2.553  -1.935  1.00  0.00     0.031 C 
HETATM    2  C32 UNL     1       0.006   3.852  -2.643  1.00  0.00     0.003 C 
ENDROOT
BRANCH   1   3
HETATM    3  C15 UNL     1      -0.438   2.153  -0.726  1.00  0.00     0.003 C 
HETATM    4  C12 UNL     1      -0.919   3.206   0.315  1.00  0.00     0.000 C 
HETATM    5  C11 UNL     1      -1.413   2.286   1.473  1.00  0.00     0.000 C 
HETATM    6  C13 UNL     1      -2.046   4.154  -0.165  1.00  0.00     0.000 C 
HETATM    7  C33 UNL     1       0.272   4.071   0.805  1.00  0.00     0.000 C 
HETATM    8  C8  UNL     1      -2.836   1.661   1.329  1.00  0.00     0.005 C 
HETATM    9  C17 UNL     1      -0.278   1.258   1.595  1.00  0.00     0.000 C 
HETATM   10  C7  UNL     1      -3.755   2.424   0.357  1.00  0.00     0.006 C 
HETATM   11  C9  UNL     1      -2.933   0.170   0.976  1.00  0.00     0.025 C 
HETATM   12  C5  UNL     1      -5.263   2.060   0.471  1.00  0.00     0.043 C 
HETATM   13  C14 UNL     1      -3.411   3.912   0.492  1.00  0.00     0.000 C 
HETATM   14  C4  UNL     1      -5.412   0.552   0.663  1.00  0.00    -0.044 C 
HETATM   15  C6  UNL     1      -6.062   2.459  -0.803  1.00  0.00     0.158 C 
HETATM   16  C34 UNL     1      -5.888   2.751   1.706  1.00  0.00     0.007 C 
HETATM   17  C3  UNL     1      -6.816  -0.018   0.634  1.00  0.00     0.055 C 
HETATM   18  C10 UNL     1      -4.367  -0.268   0.866  1.00  0.00    -0.035 C 
HETATM   19  C2  UNL     1      -7.607   0.479  -0.573  1.00  0.00     0.159 C 
HETATM   20  C1  UNL     1      -6.719   1.277  -1.520  1.00  0.00     0.067 C 
HETATM   21  O9  UNL     1      -8.671   1.296  -0.143  1.00  0.00    -0.223 OA
HETATM   22  O1  UNL     1      -5.282   3.129  -1.768  1.00  0.00    -0.223 OA
HETATM   23  C16 UNL     1       0.202   1.050   0.150  1.00  0.00     0.000 C 
ENDBRANCH   1   3
BRANCH   1  24
HETATM   24  C19 UNL     1       0.544   1.469  -3.036  1.00  0.00     0.156 C 
HETATM   25  O8  UNL     1      -0.743   0.966  -3.326  1.00  0.00    -0.223 OA
BRANCH  24  26
HETATM   26  C20 UNL     1       1.481   0.278  -2.810  1.00  0.00     0.054 C 
BRANCH  26  27
HETATM   27  C21 UNL     1       2.947   0.627  -2.621  1.00  0.00    -0.047 C 
HETATM   28  C22 UNL     1       3.731   0.152  -1.627  1.00  0.00    -0.022 C 
HETATM   29  C30 UNL     1       5.193   0.525  -1.480  1.00  0.00     0.028 C 
HETATM   30  C31 UNL     1       3.493   1.508  -3.728  1.00  0.00     0.026 C 
BRANCH  28  31
HETATM   31  C23 UNL     1       3.298  -0.845  -0.568  1.00  0.00     0.167 C 
BRANCH  31  32
HETATM   32  O2  UNL     1       3.988  -2.070  -0.740  1.00  0.00    -0.325 OA
BRANCH  32  33
HETATM   33  C24 UNL     1       3.778  -2.970   0.326  1.00  0.00     0.270 C 
HETATM   34  O3  UNL     1       4.647  -2.547   1.355  1.00  0.00    -0.326 OA
HETATM   35  C25 UNL     1       4.538  -3.341   2.507  1.00  0.00     0.184 C 
HETATM   36  C26 UNL     1       4.922  -4.779   2.171  1.00  0.00     0.215 C 
HETATM   37  C27 UNL     1       4.052  -5.303   1.046  1.00  0.00     0.220 C 
HETATM   38  O6  UNL     1       4.757  -5.630   3.278  1.00  0.00    -0.218 OA
HETATM   39  C28 UNL     1       4.161  -4.358  -0.130  1.00  0.00     0.241 C 
HETATM   40  O5  UNL     1       4.492  -6.582   0.668  1.00  0.00    -0.218 OA
HETATM   41  O4  UNL     1       3.283  -4.780  -1.142  1.00  0.00    -0.215 OA
BRANCH  35  42
HETATM   42  C29 UNL     1       5.422  -2.728   3.587  1.00  0.00     0.214 C 
HETATM   43  O7  UNL     1       4.871  -2.973   4.866  1.00  0.00    -0.218 OA
ENDBRANCH  35  42
ENDBRANCH  32  33
ENDBRANCH  31  32
ENDBRANCH  28  31
ENDBRANCH  26  27
ENDBRANCH  24  26
ENDBRANCH   1  24
TORSDOF 8
