REMARK  6 active torsions:
REMARK  status: ('A' for Active; 'I' for Inactive)
REMARK    1  A    between atoms: C2_2  and  O8_40 
REMARK    2  A    between atoms: C13_13  and  O1_15 
REMARK    3  A    between atoms: O1_15  and  C15_16 
REMARK    4  A    between atoms: C20_24  and  C24_28 
REMARK    5  A    between atoms: C24_28  and  C25_29 
REMARK    6  A    between atoms: O8_40  and  C33_41 
ROOT
HETATM    1  C1  UNL     1      -5.288  -0.466  -0.329  1.00  0.00     0.030 C 
HETATM    2  C2  UNL     1      -4.867  -1.814   0.286  1.00  0.00     0.118 C 
HETATM    3  C3  UNL     1      -4.082  -2.655  -0.751  1.00  0.00     0.025 C 
HETATM    4  C4  UNL     1      -2.733  -1.926  -1.013  1.00  0.00     0.002 C 
HETATM    5  C5  UNL     1      -2.815  -0.401  -0.894  1.00  0.00     0.000 A 
HETATM    6  C6  UNL     1      -4.187   0.184  -1.192  1.00  0.00     0.003 C 
HETATM    7  C7  UNL     1      -1.527   0.350  -1.202  1.00  0.00     0.003 A 
HETATM    8  C8  UNL     1      -0.294  -0.508  -1.545  1.00  0.00     0.007 C 
HETATM    9  C9  UNL     1      -0.587  -1.808  -2.337  1.00  0.00     0.000 C 
HETATM   10  C10 UNL     1      -2.059  -2.254  -2.349  1.00  0.00     0.000 C 
HETATM   11  C11 UNL     1       0.827   0.367  -2.159  1.00  0.00     0.059 C 
HETATM   12  C12 UNL     1       0.980   1.724  -1.400  1.00  0.00     0.037 C 
HETATM   13  C13 UNL     1      -0.260   2.560  -1.802  1.00  0.00     0.125 C 
HETATM   14  C14 UNL     1      -1.567   1.733  -1.853  1.00  0.00     0.030 C 
HETATM   15  C17 UNL     1       2.386   2.248  -1.858  1.00  0.00     0.064 C 
HETATM   16  C18 UNL     1       3.218   0.982  -2.105  1.00  0.00     0.271 C 
HETATM   17  C19 UNL     1       2.232  -0.174  -1.971  1.00  0.00     0.203 C 
HETATM   18  O3  UNL     1       2.539  -1.331  -1.801  1.00  0.00    -0.291 OA
HETATM   19  O4  UNL     1       4.298   0.838  -1.221  1.00  0.00    -0.327 OA
HETATM   20  C20 UNL     1       5.280   1.825  -1.343  1.00  0.00     0.151 C 
HETATM   21  C21 UNL     1       4.647   3.219  -1.459  1.00  0.00     0.033 C 
HETATM   22  C22 UNL     1       3.191   3.224  -0.965  1.00  0.00     0.008 C 
HETATM   23  C23 UNL     1       2.652   4.664  -0.952  1.00  0.00     0.000 C 
HETATM   24  O7  UNL     1       3.792   0.926  -3.399  1.00  0.00    -0.188 OA
HETATM   25  C28 UNL     1       1.044   1.552   0.139  1.00  0.00     0.003 C 
HETATM   26  C29 UNL     1       0.674   0.512  -3.698  1.00  0.00     0.008 C 
HETATM   27  C30 UNL     1      -2.056   0.267   0.221  1.00  0.00     0.000 A 
HETATM   28  C31 UNL     1      -3.799  -4.079  -0.210  1.00  0.00     0.002 C 
HETATM   29  C32 UNL     1      -4.943  -2.871  -2.019  1.00  0.00     0.002 C 
ENDROOT
BRANCH   2  30
HETATM   30  O8  UNL     1      -4.058  -1.525   1.399  1.00  0.00    -0.332 OA
BRANCH  30  31
HETATM   31  C33 UNL     1      -4.271  -2.304   2.553  1.00  0.00     0.270 C 
HETATM   32  O9  UNL     1      -5.345  -1.700   3.241  1.00  0.00    -0.326 OA
HETATM   33  C34 UNL     1      -5.615  -2.352   4.460  1.00  0.00     0.181 C 
HETATM   34  C35 UNL     1      -4.404  -2.306   5.380  1.00  0.00     0.215 C 
HETATM   35  C36 UNL     1      -3.206  -2.925   4.693  1.00  0.00     0.220 C 
HETATM   36  O12 UNL     1      -4.649  -3.030   6.560  1.00  0.00    -0.218 OA
HETATM   37  C37 UNL     1      -3.008  -2.205   3.381  1.00  0.00     0.241 C 
HETATM   38  O11 UNL     1      -2.062  -2.771   5.493  1.00  0.00    -0.218 OA
HETATM   39  O10 UNL     1      -1.937  -2.802   2.694  1.00  0.00    -0.215 OA
ENDBRANCH  30  31
ENDBRANCH   2  30
BRANCH  13  40
HETATM   40  O1  UNL     1      -0.423   3.635  -0.926  1.00  0.00    -0.304 OA
BRANCH  40  41
HETATM   41  C15 UNL     1      -0.982   4.826  -1.293  1.00  0.00     0.272 C 
HETATM   42  O2  UNL     1      -1.171   5.718  -0.493  1.00  0.00    -0.264 OA
HETATM   43  C16 UNL     1      -1.323   5.008  -2.762  1.00  0.00     0.106 C 
ENDBRANCH  40  41
ENDBRANCH  13  40
BRANCH  20  44
HETATM   44  C24 UNL     1       6.275   1.686  -0.185  1.00  0.00     0.207 C 
HETATM   45  O6  UNL     1       7.320   2.607  -0.416  1.00  0.00    -0.218 OA
BRANCH  44  46
HETATM   46  C25 UNL     1       6.869   0.282   0.028  1.00  0.00     0.157 C 
HETATM   47  C26 UNL     1       8.237   0.326   0.723  1.00  0.00     0.036 C 
HETATM   48  C27 UNL     1       5.948  -0.618   0.864  1.00  0.00     0.036 C 
HETATM   49  O5  UNL     1       7.060  -0.337  -1.219  1.00  0.00    -0.223 OA
ENDBRANCH  44  46
ENDBRANCH  20  44
TORSDOF 6
