REMARK  6 active torsions:
REMARK  status: ('A' for Active; 'I' for Inactive)
REMARK    1  A    between atoms: C2_2  and  O6_38 
REMARK    2  A    between atoms: C18_20  and  C22_24 
REMARK    3  A    between atoms: C22_24  and  C23_25 
REMARK    4  A    between atoms: C22_24  and  O4_29 
REMARK    5  A    between atoms: O4_29  and  C26_30 
REMARK    6  A    between atoms: O6_38  and  C33_39 
ROOT
HETATM    1  C1  UNL     1      -4.961  -0.659  -2.549  1.00  0.00     0.030 C 
HETATM    2  C2  UNL     1      -4.735  -1.961  -1.754  1.00  0.00     0.118 C 
HETATM    3  C3  UNL     1      -3.666  -2.860  -2.421  1.00  0.00     0.025 C 
HETATM    4  C4  UNL     1      -2.314  -2.077  -2.531  1.00  0.00     0.002 C 
HETATM    5  C5  UNL     1      -2.454  -0.564  -2.324  1.00  0.00     0.000 A 
HETATM    6  C6  UNL     1      -3.659  -0.025  -3.086  1.00  0.00     0.003 C 
HETATM    7  C7  UNL     1      -1.188   0.240  -2.032  1.00  0.00     0.000 A 
HETATM    8  C8  UNL     1       0.104  -0.497  -1.623  1.00  0.00     0.007 C 
HETATM    9  C9  UNL     1       0.176  -1.912  -2.218  1.00  0.00     0.000 C 
HETATM   10  C10 UNL     1      -1.088  -2.704  -1.848  1.00  0.00     0.000 C 
HETATM   11  C11 UNL     1       1.367   0.366  -1.825  1.00  0.00     0.054 C 
HETATM   12  C12 UNL     1       1.115   1.823  -1.334  1.00  0.00     0.009 C 
HETATM   13  C13 UNL     1       0.175   2.488  -2.354  1.00  0.00     0.001 C 
HETATM   14  C14 UNL     1      -1.018   1.584  -2.749  1.00  0.00     0.000 C 
HETATM   15  C15 UNL     1       2.551   2.410  -1.225  1.00  0.00     0.035 C 
HETATM   16  C16 UNL     1       3.384   1.248  -0.657  1.00  0.00     0.172 C 
HETATM   17  C17 UNL     1       2.548   0.002  -0.933  1.00  0.00     0.177 C 
HETATM   18  O1  UNL     1       2.797  -1.105  -0.515  1.00  0.00    -0.293 OA
HETATM   19  O2  UNL     1       3.580   1.416   0.723  1.00  0.00    -0.349 OA
HETATM   20  C18 UNL     1       4.448   2.472   1.051  1.00  0.00     0.146 C 
HETATM   21  C19 UNL     1       4.260   3.648   0.087  1.00  0.00     0.032 C 
HETATM   22  C20 UNL     1       2.810   3.703  -0.428  1.00  0.00     0.005 C 
HETATM   23  C21 UNL     1       2.558   4.968  -1.262  1.00  0.00     0.000 C 
HETATM   24  C28 UNL     1       0.428   1.907   0.054  1.00  0.00     0.001 C 
HETATM   25  C29 UNL     1       1.898   0.232  -3.271  1.00  0.00     0.007 C 
HETATM   26  C30 UNL     1      -2.275   0.101  -0.986  1.00  0.00     0.000 A 
HETATM   27  C31 UNL     1      -4.175  -3.271  -3.828  1.00  0.00     0.002 C 
HETATM   28  C32 UNL     1      -3.541  -4.189  -1.640  1.00  0.00     0.002 C 
ENDROOT
BRANCH   2  29
HETATM   29  O6  UNL     1      -4.306  -1.611  -0.467  1.00  0.00    -0.332 OA
BRANCH  29  30
HETATM   30  C33 UNL     1      -4.962  -2.221   0.620  1.00  0.00     0.270 C 
HETATM   31  O7  UNL     1      -6.178  -1.525   0.784  1.00  0.00    -0.326 OA
HETATM   32  C34 UNL     1      -6.896  -1.978   1.909  1.00  0.00     0.181 C 
HETATM   33  C35 UNL     1      -6.090  -1.775   3.182  1.00  0.00     0.215 C 
HETATM   34  C36 UNL     1      -4.765  -2.496   3.072  1.00  0.00     0.220 C 
HETATM   35  O10 UNL     1      -6.775  -2.292   4.296  1.00  0.00    -0.218 OA
HETATM   36  C37 UNL     1      -4.072  -2.001   1.825  1.00  0.00     0.241 C 
HETATM   37  O9  UNL     1      -3.969  -2.210   4.194  1.00  0.00    -0.218 OA
HETATM   38  O8  UNL     1      -2.866  -2.705   1.668  1.00  0.00    -0.215 OA
ENDBRANCH  29  30
ENDBRANCH   2  29
BRANCH  20  39
HETATM   39  C22 UNL     1       5.880   1.937   1.216  1.00  0.00     0.179 C 
BRANCH  39  40
HETATM   40  C23 UNL     1       6.940   2.898   1.788  1.00  0.00     0.155 C 
HETATM   41  C24 UNL     1       7.385   3.992   0.812  1.00  0.00     0.036 C 
HETATM   42  C25 UNL     1       6.521   3.523   3.120  1.00  0.00     0.036 C 
HETATM   43  O3  UNL     1       8.098   2.133   2.030  1.00  0.00    -0.223 OA
ENDBRANCH  39  40
BRANCH  39  44
HETATM   44  O4  UNL     1       5.807   0.817   2.070  1.00  0.00    -0.299 OA
BRANCH  44  45
HETATM   45  C26 UNL     1       5.912  -0.430   1.533  1.00  0.00     0.273 C 
HETATM   46  C27 UNL     1       5.715  -1.484   2.606  1.00  0.00     0.106 C 
HETATM   47  O5  UNL     1       6.115  -0.680   0.366  1.00  0.00    -0.264 OA
ENDBRANCH  44  45
ENDBRANCH  39  44
ENDBRANCH  20  39
TORSDOF 6
