REMARK  8 active torsions:
REMARK  status: ('A' for Active; 'I' for Inactive)
REMARK    1  A    between atoms: C2_2  and  O7_25 
REMARK    2  A    between atoms: C5_5  and  C7_7 
REMARK    3  A    between atoms: C8_8  and  C9_9 
REMARK    4  A    between atoms: C9_9  and  O1_10 
REMARK    5  A    between atoms: O1_10  and  C10_11 
REMARK    6  A    between atoms: C10_11  and  C11_12 
REMARK    7  A    between atoms: C11_12  and  C12_13 
REMARK    8  A    between atoms: C12_13  and  C13_14 
ROOT
HETATM    1  C9  UNL     1      -0.593  -0.883   1.156  1.00  0.00     0.296 C 
HETATM    2  O5  UNL     1      -1.343  -1.824   1.404  1.00  0.00    -0.259 OA
ENDROOT
BRANCH   1   3
HETATM    3  C8  UNL     1       0.876  -1.077   1.214  1.00  0.00     0.068 C 
HETATM    4  C7  UNL     1       1.474  -2.254   1.523  1.00  0.00     0.005 C 
BRANCH   4   5
HETATM    5  C5  UNL     1       2.928  -2.469   1.588  1.00  0.00     0.002 A 
HETATM    6  C4  UNL     1       3.430  -3.735   1.930  1.00  0.00     0.029 A 
HETATM    7  C3  UNL     1       4.796  -4.031   2.017  1.00  0.00     0.153 A 
HETATM    8  C2  UNL     1       5.744  -3.020   1.754  1.00  0.00     0.119 A 
HETATM    9  O6  UNL     1       5.142  -5.300   2.361  1.00  0.00    -0.188 OA
HETATM   10  C1  UNL     1       5.236  -1.759   1.410  1.00  0.00     0.026 A 
HETATM   11  C6  UNL     1       3.875  -1.473   1.325  1.00  0.00     0.002 A 
BRANCH   8  12
HETATM   12  O7  UNL     1       7.113  -3.138   1.792  1.00  0.00    -0.326 OA
HETATM   13  C19 UNL     1       7.717  -4.368   2.105  1.00  0.00     0.181 C 
ENDBRANCH   8  12
ENDBRANCH   4   5
ENDBRANCH   1   3
BRANCH   1  14
HETATM   14  O1  UNL     1      -1.099   0.347   0.849  1.00  0.00    -0.290 OA
BRANCH  14  15
HETATM   15  C10 UNL     1      -2.503   0.515   0.874  1.00  0.00     0.216 C 
BRANCH  15  16
HETATM   16  C11 UNL     1      -2.890   1.966   0.594  1.00  0.00     0.185 C 
HETATM   17  O4  UNL     1      -2.061   2.848   0.600  1.00  0.00    -0.293 OA
BRANCH  16  18
HETATM   18  C12 UNL     1      -4.353   2.279   0.321  1.00  0.00     0.093 C 
BRANCH  18  19
HETATM   19  C13 UNL     1      -4.544   2.784  -1.090  1.00  0.00    -0.013 A 
HETATM   20  C14 UNL     1      -4.909   4.110  -1.348  1.00  0.00     0.026 A 
HETATM   21  C15 UNL     1      -5.091   4.588  -2.650  1.00  0.00     0.156 A 
HETATM   22  C16 UNL     1      -4.900   3.722  -3.732  1.00  0.00     0.156 A 
HETATM   23  O3  UNL     1      -5.447   5.877  -2.894  1.00  0.00    -0.188 OA
HETATM   24  C17 UNL     1      -4.531   2.397  -3.484  1.00  0.00     0.029 A 
HETATM   25  O2  UNL     1      -5.070   4.176  -5.000  1.00  0.00    -0.188 OA
HETATM   26  C18 UNL     1      -4.357   1.930  -2.180  1.00  0.00    -0.002 A 
ENDBRANCH  18  19
ENDBRANCH  16  18
ENDBRANCH  15  16
ENDBRANCH  14  15
ENDBRANCH   1  14
TORSDOF 8
