REMARK  4 active torsions:
REMARK  status: ('A' for Active; 'I' for Inactive)
REMARK    1  A    between atoms: C1_1  and  C9_11 
REMARK    2  A    between atoms: C10_12  and  C11_13 
REMARK    3  A    between atoms: C19_23  and  C21_26 
REMARK    4  A    between atoms: C21_26  and  O3_27 
ROOT
HETATM    1  C9  UNL     1      -0.868  -0.900   1.525  1.00  0.00     0.022 A 
HETATM    2  C10 UNL     1      -1.476   0.199   0.867  1.00  0.00     0.026 A 
HETATM    3  C19 UNL     1      -2.764   0.350   1.383  1.00  0.00     0.144 A 
HETATM    4  N3  UNL     1      -2.923  -0.639   2.341  1.00  0.00    -0.239 NA
HETATM    5  C20 UNL     1      -1.793  -1.399   2.425  1.00  0.00     0.099 A 
ENDROOT
BRANCH   1   6
HETATM    6  C1  UNL     1       0.452  -1.512   1.312  1.00  0.00     0.022 A 
HETATM    7  C2  UNL     1       0.676  -2.870   1.392  1.00  0.00     0.099 A 
HETATM    8  N1  UNL     1       1.981  -3.142   1.023  1.00  0.00    -0.244 NA
HETATM    9  C3  UNL     1       2.615  -1.960   0.713  1.00  0.00     0.082 A 
HETATM   10  C4  UNL     1       1.696  -0.924   0.919  1.00  0.00     0.021 A 
HETATM   11  C8  UNL     1       3.929  -1.709   0.247  1.00  0.00     0.021 A 
HETATM   12  C5  UNL     1       2.117   0.419   0.740  1.00  0.00     0.029 A 
HETATM   13  C6  UNL     1       3.379   0.684   0.248  1.00  0.00     0.131 A 
HETATM   14  C7  UNL     1       4.274  -0.397   0.001  1.00  0.00     0.029 A 
HETATM   15  O1  UNL     1       3.776   1.962   0.008  1.00  0.00    -0.190 OA
ENDBRANCH   1   6
BRANCH   2  16
HETATM   16  C11 UNL     1      -0.842   1.010  -0.190  1.00  0.00     0.022 A 
HETATM   17  C12 UNL     1      -0.720   2.381  -0.192  1.00  0.00     0.099 A 
HETATM   18  N2  UNL     1       0.037   2.766  -1.282  1.00  0.00    -0.244 NA
HETATM   19  C13 UNL     1       0.415   1.645  -1.990  1.00  0.00     0.082 A 
HETATM   20  C14 UNL     1      -0.136   0.538  -1.339  1.00  0.00     0.021 A 
HETATM   21  C18 UNL     1       1.224   1.493  -3.143  1.00  0.00     0.021 A 
HETATM   22  C15 UNL     1       0.081  -0.768  -1.849  1.00  0.00     0.029 A 
HETATM   23  C16 UNL     1       0.873  -0.935  -2.966  1.00  0.00     0.131 A 
HETATM   24  C17 UNL     1       1.442   0.210  -3.598  1.00  0.00     0.029 A 
HETATM   25  O2  UNL     1       1.116  -2.185  -3.444  1.00  0.00    -0.190 OA
ENDBRANCH   2  16
BRANCH   3  26
HETATM   26  C21 UNL     1      -3.774   1.344   0.942  1.00  0.00     0.314 C 
HETATM   27  O4  UNL     1      -3.480   2.003  -0.056  1.00  0.00    -0.257 OA
BRANCH  26  28
HETATM   28  O3  UNL     1      -5.001   1.577   1.498  1.00  0.00    -0.295 OA
HETATM   29  C22 UNL     1      -5.427   0.849   2.621  1.00  0.00     0.185 C 
ENDBRANCH  26  28
ENDBRANCH   3  26
TORSDOF 4
