REMARK  6 active torsions:
REMARK  status: ('A' for Active; 'I' for Inactive)
REMARK    1  A    between atoms: C8_9  and  C9_10 
REMARK    2  A    between atoms: C9_10  and  C10_11 
REMARK    3  A    between atoms: C10_11  and  N2_12 
REMARK       I    between atoms: N2_12  and  C11_13 
REMARK    4  A    between atoms: C11_13  and  C12_14 
REMARK    5  A    between atoms: C13_15  and  C14_16 
REMARK    6  A    between atoms: C18_20  and  O1_22 
ROOT
HETATM    1  N2  UNL     1       0.159  -0.428  -0.090  1.00  0.00    -0.234 NA
HETATM    2  C11 UNL     1      -0.068   0.903  -0.308  1.00  0.00     0.275 C 
HETATM    3  O3  UNL     1       0.810   1.639  -0.694  1.00  0.00    -0.266 OA
ENDROOT
BRANCH   1   4
HETATM    4  C10 UNL     1       1.478  -1.025  -0.315  1.00  0.00     0.134 C 
BRANCH   4   5
HETATM    5  C9  UNL     1       1.472  -2.522   0.005  1.00  0.00     0.054 C 
BRANCH   5   6
HETATM    6  C8  UNL     1       2.763  -3.281  -0.174  1.00  0.00     0.001 A 
HETATM    7  C5  UNL     1       3.991  -2.906  -0.579  1.00  0.00     0.017 A 
HETATM    8  C4  UNL     1       4.541  -1.748  -0.973  1.00  0.00     0.029 A 
HETATM    9  C6  UNL     1       4.758  -4.007  -0.545  1.00  0.00     0.081 A 
HETATM   10  C3  UNL     1       5.840  -1.692  -1.327  1.00  0.00     0.131 A 
HETATM   11  C2  UNL     1       6.576  -2.819  -1.278  1.00  0.00     0.029 A 
HETATM   12  O4  UNL     1       6.393  -0.514  -1.725  1.00  0.00    -0.190 OA
HETATM   13  C1  UNL     1       6.050  -3.990  -0.888  1.00  0.00     0.021 A 
HETATM   14  N1  UNL     1       4.051  -4.980  -0.149  1.00  0.00    -0.244 NA
HETATM   15  C7  UNL     1       2.865  -4.597   0.081  1.00  0.00     0.095 A 
ENDBRANCH   5   6
ENDBRANCH   4   5
ENDBRANCH   1   4
BRANCH   2  16
HETATM   16  C12 UNL     1      -1.341   1.304  -0.053  1.00  0.00     0.062 C 
HETATM   17  C13 UNL     1      -1.739   2.581  -0.208  1.00  0.00     0.005 C 
BRANCH  17  18
HETATM   18  C14 UNL     1      -2.965   3.104   0.013  1.00  0.00     0.002 A 
HETATM   19  C15 UNL     1      -3.161   4.418  -0.207  1.00  0.00     0.002 A 
HETATM   20  C16 UNL     1      -4.365   4.979  -0.028  1.00  0.00     0.029 A 
HETATM   21  C17 UNL     1      -5.413   4.257   0.398  1.00  0.00     0.153 A 
HETATM   22  C18 UNL     1      -5.237   2.951   0.678  1.00  0.00     0.119 A 
HETATM   23  O2  UNL     1      -6.637   4.827   0.564  1.00  0.00    -0.188 OA
HETATM   24  C19 UNL     1      -4.031   2.399   0.440  1.00  0.00     0.026 A 
BRANCH  22  25
HETATM   25  O1  UNL     1      -6.308   2.191   1.074  1.00  0.00    -0.326 OA
HETATM   26  C20 UNL     1      -6.302   1.864   2.446  1.00  0.00     0.181 C 
ENDBRANCH  22  25
ENDBRANCH  17  18
ENDBRANCH   2  16
TORSDOF 6
