REMARK  2 active torsions:
REMARK  status: ('A' for Active; 'I' for Inactive)
REMARK    1  A    between atoms: C11_12  and  O3_19 
REMARK    2  A    between atoms: C12_13  and  O2_17 
ROOT
HETATM    1  C1  UNL     1      -4.885   0.252   0.252  1.00  0.00     0.029 A 
HETATM    2  C2  UNL     1      -3.732  -0.515   0.089  1.00  0.00     0.147 A 
HETATM    3  C3  UNL     1      -2.480   0.142  -0.028  1.00  0.00     0.089 A 
HETATM    4  C4  UNL     1      -2.442   1.543   0.058  1.00  0.00     0.057 A 
HETATM    5  C5  UNL     1      -3.626   2.295   0.182  1.00  0.00     0.005 A 
HETATM    6  C6  UNL     1      -4.852   1.650   0.257  1.00  0.00     0.002 A 
HETATM    7  C7  UNL     1      -1.155   2.263  -0.021  1.00  0.00     0.200 C 
HETATM    8  C8  UNL     1       0.110   1.487  -0.045  1.00  0.00     0.082 A 
HETATM    9  C9  UNL     1       0.077   0.082  -0.163  1.00  0.00     0.090 A 
HETATM   10  N1  UNL     1      -1.232  -0.496  -0.263  1.00  0.00    -0.322 N 
HETATM   11  C10 UNL     1      -1.319  -1.838  -0.899  1.00  0.00     0.131 C 
HETATM   12  C11 UNL     1       1.284  -0.677  -0.177  1.00  0.00     0.132 A 
HETATM   13  C12 UNL     1       2.518   0.000  -0.094  1.00  0.00     0.120 A 
HETATM   14  C13 UNL     1       2.495   1.402  -0.032  1.00  0.00     0.054 A 
HETATM   15  C14 UNL     1       1.339   2.174  -0.002  1.00  0.00     0.138 A 
HETATM   16  O1  UNL     1       1.472   3.524   0.126  1.00  0.00    -0.190 OA
HETATM   17  O4  UNL     1      -1.161   3.492  -0.040  1.00  0.00    -0.286 OA
HETATM   18  O5  UNL     1      -3.838  -1.861   0.260  1.00  0.00    -0.189 OA
ENDROOT
BRANCH  12  19
HETATM   19  O3  UNL     1       1.189  -2.050  -0.102  1.00  0.00    -0.325 OA
HETATM   20  C16 UNL     1       2.171  -2.829   0.537  1.00  0.00     0.182 C 
ENDBRANCH  12  19
BRANCH  13  21
HETATM   21  O2  UNL     1       3.695  -0.708  -0.105  1.00  0.00    -0.326 OA
HETATM   22  C15 UNL     1       4.928  -0.029  -0.130  1.00  0.00     0.181 C 
ENDBRANCH  13  21
TORSDOF 2
