REMARK  2 active torsions:
REMARK  status: ('A' for Active; 'I' for Inactive)
REMARK    1  A    between atoms: C16_16  and  O1_25 
REMARK    2  A    between atoms: O1_25  and  C25_26 
ROOT
HETATM    1  C1  UNL     1      -3.349  -0.861  -2.983  1.00  0.00     0.033 C 
HETATM    2  C2  UNL     1      -3.507  -2.375  -3.055  1.00  0.00     0.152 C 
HETATM    3  C3  UNL     1      -2.638  -3.110  -2.015  1.00  0.00     0.028 C 
HETATM    4  C4  UNL     1      -2.834  -2.505  -0.582  1.00  0.00     0.002 C 
HETATM    5  C5  UNL     1      -2.977  -0.960  -0.411  1.00  0.00     0.001 C 
HETATM    6  C6  UNL     1      -3.786  -0.370  -1.602  1.00  0.00     0.003 C 
HETATM    7  C7  UNL     1      -1.572  -0.276  -0.287  1.00  0.00     0.005 C 
HETATM    8  C8  UNL     1      -0.499  -0.861   0.677  1.00  0.00     0.004 C 
HETATM    9  C9  UNL     1      -0.518  -2.406   0.595  1.00  0.00     0.000 C 
HETATM   10  C10 UNL     1      -1.902  -3.062   0.515  1.00  0.00     0.000 C 
HETATM   11  C11 UNL     1       0.935  -0.285   0.296  1.00  0.00     0.015 C 
HETATM   12  C12 UNL     1       0.914   1.247   0.332  1.00  0.00    -0.047 C 
HETATM   13  C13 UNL     1      -0.240   1.888   0.072  1.00  0.00    -0.035 C 
HETATM   14  C14 UNL     1      -1.592   1.254  -0.127  1.00  0.00     0.025 C 
HETATM   15  C15 UNL     1       2.249   1.994   0.434  1.00  0.00     0.043 C 
HETATM   16  C16 UNL     1       3.213   1.381   1.474  1.00  0.00     0.105 C 
HETATM   17  C17 UNL     1       3.360  -0.125   1.208  1.00  0.00     0.029 C 
HETATM   18  C18 UNL     1       2.009  -0.844   1.264  1.00  0.00     0.006 C 
HETATM   19  C19 UNL     1       4.601   2.034   1.340  1.00  0.00     0.028 C 
HETATM   20  C20 UNL     1       4.565   3.560   1.469  1.00  0.00     0.003 C 
HETATM   21  C21 UNL     1       3.591   4.198   0.463  1.00  0.00     0.001 C 
HETATM   22  C22 UNL     1       2.190   3.544   0.544  1.00  0.00     0.006 C 
HETATM   23  C23 UNL     1       1.434   4.091   1.776  1.00  0.00     0.000 C 
HETATM   24  C24 UNL     1       4.169   4.194  -0.967  1.00  0.00     0.000 C 
HETATM   25  C26 UNL     1       1.399  -0.633  -1.149  1.00  0.00     0.004 C 
HETATM   26  C27 UNL     1      -0.813  -0.460   2.146  1.00  0.00     0.000 C 
HETATM   27  C28 UNL     1      -3.906  -0.682   0.808  1.00  0.00     0.000 C 
HETATM   28  C29 UNL     1      -1.185  -3.111  -2.541  1.00  0.00     0.003 C 
HETATM   29  C30 UNL     1      -3.063  -4.607  -2.026  1.00  0.00     0.003 C 
HETATM   30  O3  UNL     1      -4.869  -2.701  -2.888  1.00  0.00    -0.224 OA
ENDROOT
BRANCH  16  31
HETATM   31  O1  UNL     1       2.654   1.615   2.730  1.00  0.00    -0.299 OA
BRANCH  31  32
HETATM   32  C25 UNL     1       3.251   1.199   3.877  1.00  0.00     0.360 C 
HETATM   33  O2  UNL     1       2.784   1.390   4.978  1.00  0.00    -0.253 OA
ENDBRANCH  31  32
ENDBRANCH  16  31
TORSDOF 2
