REMARK  10 active torsions:
REMARK  status: ('A' for Active; 'I' for Inactive)
REMARK    1  A    between atoms: C3_3  and  O2_7 
REMARK    2  A    between atoms: O2_7  and  C6_8 
REMARK    3  A    between atoms: C6_8  and  O3_9 
REMARK    4  A    between atoms: C6_8  and  C11_17 
REMARK    5  A    between atoms: O3_9  and  C7_10 
REMARK    6  A    between atoms: C7_10  and  C8_11 
REMARK    7  A    between atoms: C7_10  and  C10_15 
REMARK    8  A    between atoms: C8_11  and  O4_12 
REMARK    9  A    between atoms: C11_17  and  C12_19 
REMARK   10  A    between atoms: C12_19  and  O8_20 
ROOT
HETATM    1  C6  UNL     1      -0.981   0.066  -0.134  1.00  0.00     0.280 C 
ENDROOT
BRANCH   1   2
HETATM    2  O2  UNL     1       0.356  -0.160  -0.560  1.00  0.00    -0.303 OA
BRANCH   2   3
HETATM    3  C3  UNL     1       1.246   0.925  -0.385  1.00  0.00     0.247 C 
HETATM    4  C2  UNL     1       2.663   0.464  -0.726  1.00  0.00     0.119 C 
HETATM    5  C1  UNL     1       3.602   1.671  -0.805  1.00  0.00     0.182 C 
HETATM    6  C14 UNL     1       3.364  -0.468   0.295  1.00  0.00     0.137 C 
HETATM    7  C5  UNL     1       2.935   2.903  -1.330  1.00  0.00     0.032 C 
HETATM    8  C16 UNL     1       4.112   1.829   0.609  1.00  0.00     0.186 C 
HETATM    9  O12 UNL     1       4.698   1.354  -1.639  1.00  0.00    -0.218 OA
HETATM   10  C4  UNL     1       1.619   2.941  -1.570  1.00  0.00     0.117 C 
HETATM   11  O1  UNL     1       0.772   1.915  -1.274  1.00  0.00    -0.304 OA
HETATM   12  C15 UNL     1       4.403   0.396   1.036  1.00  0.00     0.067 C 
HETATM   13  O10 UNL     1       5.260   2.638   0.618  1.00  0.00    -0.220 OA
HETATM   14  O11 UNL     1       4.055  -1.459  -0.428  1.00  0.00    -0.226 OA
HETATM   15  C17 UNL     1       2.480  -1.215   1.291  1.00  0.00     0.033 C 
ENDBRANCH   2   3
ENDBRANCH   1   2
BRANCH   1  16
HETATM   16  O3  UNL     1      -1.694  -0.583  -1.171  1.00  0.00    -0.318 OA
BRANCH  16  17
HETATM   17  C7  UNL     1      -3.092  -0.705  -1.013  1.00  0.00     0.236 C 
BRANCH  17  18
HETATM   18  C8  UNL     1      -3.817   0.632  -0.861  1.00  0.00     0.302 C 
HETATM   19  O5  UNL     1      -3.503   1.651  -1.434  1.00  0.00    -0.261 OA
BRANCH  18  20
HETATM   20  O4  UNL     1      -4.875   0.516  -0.011  1.00  0.00    -0.297 OA
HETATM   21  C9  UNL     1      -5.643   1.679   0.190  1.00  0.00     0.185 C 
ENDBRANCH  18  20
ENDBRANCH  17  18
BRANCH  17  22
HETATM   22  C10 UNL     1      -3.607  -1.440  -2.244  1.00  0.00     0.222 C 
HETATM   23  O6  UNL     1      -4.978  -1.740  -2.085  1.00  0.00    -0.217 OA
ENDBRANCH  17  22
ENDBRANCH  16  17
ENDBRANCH   1  16
BRANCH   1  24
HETATM   24  C11 UNL     1      -1.182  -0.509   1.259  1.00  0.00     0.293 C 
HETATM   25  O7  UNL     1      -2.370   0.022   1.820  1.00  0.00    -0.207 OA
BRANCH  24  26
HETATM   26  C12 UNL     1      -1.165  -2.028   1.389  1.00  0.00     0.308 C 
HETATM   27  O9  UNL     1      -0.780  -2.814   0.553  1.00  0.00    -0.261 OA
BRANCH  26  28
HETATM   28  O8  UNL     1      -1.665  -2.376   2.605  1.00  0.00    -0.297 OA
HETATM   29  C13 UNL     1      -1.731  -3.754   2.882  1.00  0.00     0.185 C 
ENDBRANCH  26  28
ENDBRANCH  24  26
ENDBRANCH   1  24
TORSDOF 10
