REMARK  2 active torsions:
REMARK  status: ('A' for Active; 'I' for Inactive)
REMARK    1  A    between atoms: C2_2  and  O3_17 
REMARK    2  A    between atoms: C11_12  and  C13_14 
ROOT
HETATM    1  C1  UNL     1      -2.784  -0.178   0.026  1.00  0.00     0.024 A 
HETATM    2  C2  UNL     1      -2.727  -1.600   0.030  1.00  0.00     0.096 A 
HETATM    3  C3  UNL     1      -1.464  -2.188   0.025  1.00  0.00     0.043 A 
HETATM    4  C4  UNL     1      -0.312  -1.374   0.019  1.00  0.00     0.083 A 
HETATM    5  C5  UNL     1      -0.406   0.021   0.012  1.00  0.00     0.019 A 
HETATM    6  C6  UNL     1      -1.667   0.643   0.017  1.00  0.00     0.004 A 
HETATM    7  C7  UNL     1       0.937   0.544   0.004  1.00  0.00     0.019 A 
HETATM    8  C8  UNL     1       1.806  -0.558   0.011  1.00  0.00     0.081 A 
HETATM    9  N1  UNL     1       1.040  -1.716   0.019  1.00  0.00    -0.245 NA
HETATM   10  C9  UNL     1       3.205  -0.380   0.012  1.00  0.00     0.019 A 
HETATM   11  C10 UNL     1       3.691   0.917   0.002  1.00  0.00     0.008 A 
HETATM   12  C11 UNL     1       2.813   2.036  -0.012  1.00  0.00     0.065 A 
HETATM   13  C12 UNL     1       1.430   1.860  -0.012  1.00  0.00     0.008 A 
ENDROOT
BRANCH  12  14
HETATM   14  C13 UNL     1       3.367   3.413  -0.030  1.00  0.00     0.211 C 
HETATM   15  O1  UNL     1       2.583   4.511  -0.068  1.00  0.00    -0.644 OA
HETATM   16  O2  UNL     1       4.578   3.604  -0.014  1.00  0.00    -0.644 OA
ENDBRANCH  12  14
BRANCH   2  17
HETATM   17  O3  UNL     1      -3.913  -2.294   0.032  1.00  0.00    -0.328 OA
HETATM   18  C14 UNL     1      -3.872  -3.702   0.001  1.00  0.00     0.181 C 
ENDBRANCH   2  17
TORSDOF 2
