REMARK  6 active torsions:
REMARK  status: ('A' for Active; 'I' for Inactive)
REMARK    1  A    between atoms: C1_1  and  O12_38 
REMARK    2  A    between atoms: C2_2  and  O11_36 
REMARK    3  A    between atoms: C7_7  and  C19_27 
REMARK    4  A    between atoms: C10_10  and  O1_11 
REMARK    5  A    between atoms: O1_11  and  C11_12 
REMARK    6  A    between atoms: C12_14  and  C16_21 
ROOT
HETATM    1  C1  UNL     1       0.973   2.740   2.956  1.00  0.00     0.116 A 
HETATM    2  C2  UNL     1       0.030   1.704   3.283  1.00  0.00     0.116 A 
HETATM    3  C3  UNL     1      -0.340   0.832   2.274  1.00  0.00     0.028 A 
HETATM    4  C4  UNL     1       0.160   0.862   0.935  1.00  0.00     0.024 A 
HETATM    5  C5  UNL     1       1.079   1.882   0.629  1.00  0.00     0.004 A 
HETATM    6  C6  UNL     1       1.481   2.765   1.672  1.00  0.00     0.026 A 
HETATM    7  C7  UNL     1       1.586   2.014  -0.701  1.00  0.00     0.005 A 
HETATM    8  C8  UNL     1       1.079   1.117  -1.608  1.00  0.00     0.064 A 
HETATM    9  C9  UNL     1       0.178   0.064  -1.313  1.00  0.00     0.035 A 
HETATM   10  C10 UNL     1      -0.312  -0.105  -0.033  1.00  0.00     0.095 A 
HETATM   11  C17 UNL     1      -0.079  -0.669  -2.615  1.00  0.00     0.181 A 
HETATM   12  O7  UNL     1       0.639   0.015  -3.645  1.00  0.00    -0.293 OA
HETATM   13  C18 UNL     1       1.328   1.032  -3.056  1.00  0.00     0.296 A 
HETATM   14  O8  UNL     1       2.051   1.800  -3.682  1.00  0.00    -0.259 OA
ENDROOT
BRANCH  10  15
HETATM   15  O1  UNL     1      -1.146  -1.093   0.428  1.00  0.00    -0.304 OA
BRANCH  15  16
HETATM   16  C11 UNL     1      -1.369  -2.287  -0.278  1.00  0.00     0.274 C 
HETATM   17  O2  UNL     1      -2.568  -2.077  -0.987  1.00  0.00    -0.326 OA
HETATM   18  C12 UNL     1      -2.979  -3.202  -1.718  1.00  0.00     0.184 C 
HETATM   19  C13 UNL     1      -3.173  -4.399  -0.793  1.00  0.00     0.215 C 
HETATM   20  C14 UNL     1      -1.909  -4.666  -0.002  1.00  0.00     0.220 C 
HETATM   21  O5  UNL     1      -3.473  -5.559  -1.530  1.00  0.00    -0.218 OA
HETATM   22  C15 UNL     1      -1.547  -3.396   0.733  1.00  0.00     0.241 C 
HETATM   23  O4  UNL     1      -2.136  -5.704   0.917  1.00  0.00    -0.218 OA
HETATM   24  O3  UNL     1      -0.335  -3.586   1.420  1.00  0.00    -0.215 OA
BRANCH  18  25
HETATM   25  C16 UNL     1      -4.274  -2.845  -2.434  1.00  0.00     0.214 C 
HETATM   26  O6  UNL     1      -4.044  -1.771  -3.324  1.00  0.00    -0.218 OA
ENDBRANCH  18  25
ENDBRANCH  15  16
ENDBRANCH  10  15
BRANCH   2  27
HETATM   27  O11 UNL     1      -0.535   1.669   4.534  1.00  0.00    -0.326 OA
HETATM   28  C26 UNL     1      -1.696   0.903   4.756  1.00  0.00     0.181 C 
ENDBRANCH   2  27
BRANCH   7  29
HETATM   29  C19 UNL     1       2.585   3.048  -1.105  1.00  0.00     0.002 A 
HETATM   30  C20 UNL     1       2.232   4.406  -1.125  1.00  0.00     0.002 A 
HETATM   31  C21 UNL     1       3.152   5.392  -1.501  1.00  0.00     0.026 A 
HETATM   32  C22 UNL     1       4.431   4.969  -1.854  1.00  0.00     0.119 A 
HETATM   33  C23 UNL     1       4.783   3.623  -1.840  1.00  0.00     0.119 A 
HETATM   34  O10 UNL     1       5.521   5.717  -2.257  1.00  0.00    -0.300 OA
HETATM   35  C24 UNL     1       3.875   2.636  -1.469  1.00  0.00     0.026 A 
HETATM   36  O9  UNL     1       6.102   3.494  -2.232  1.00  0.00    -0.300 OA
HETATM   37  C25 UNL     1       6.601   4.809  -2.507  1.00  0.00     0.304 A 
ENDBRANCH   7  29
BRANCH   1  38
HETATM   38  O12 UNL     1       1.485   3.680   3.824  1.00  0.00    -0.326 OA
HETATM   39  C27 UNL     1       1.313   3.550   5.214  1.00  0.00     0.181 C 
ENDBRANCH   1  38
TORSDOF 6
