REMARK  4 active torsions:
REMARK  status: ('A' for Active; 'I' for Inactive)
REMARK    1  A    between atoms: O1_2  and  C2_3 
REMARK    2  A    between atoms: C3_4  and  O2_5 
REMARK    3  A    between atoms: C12_14  and  C13_15 
REMARK    4  A    between atoms: C21_26  and  O6_27 
ROOT
HETATM    1  C2  UNL     1       0.706   2.524   2.268  1.00  0.00     0.116 A 
HETATM    2  C3  UNL     1      -0.308   1.567   2.606  1.00  0.00     0.116 A 
HETATM    3  C5  UNL     1      -0.574   0.548   1.713  1.00  0.00     0.026 A 
HETATM    4  C6  UNL     1       0.108   0.393   0.470  1.00  0.00     0.004 A 
HETATM    5  C7  UNL     1       1.081   1.355   0.121  1.00  0.00     0.027 A 
HETATM    6  C8  UNL     1       1.357   2.396   1.055  1.00  0.00     0.028 A 
HETATM    7  C9  UNL     1       1.774   1.302  -1.138  1.00  0.00     0.132 A 
HETATM    8  C10 UNL     1       1.445   0.262  -1.967  1.00  0.00     0.065 A 
HETATM    9  C11 UNL     1       0.478  -0.698  -1.607  1.00  0.00     0.066 A 
HETATM   10  C12 UNL     1      -0.214  -0.685  -0.421  1.00  0.00     0.005 A 
HETATM   11  C20 UNL     1       0.432  -1.619  -2.755  1.00  0.00     0.298 A 
HETATM   12  O5  UNL     1       1.290  -1.253  -3.761  1.00  0.00    -0.268 OA
HETATM   13  C21 UNL     1       1.994  -0.075  -3.329  1.00  0.00     0.270 A 
HETATM   14  O7  UNL     1      -0.295  -2.605  -2.817  1.00  0.00    -0.259 OA
HETATM   15  O8  UNL     1       2.703   2.219  -1.512  1.00  0.00    -0.190 OA
ENDROOT
BRANCH  10  16
HETATM   16  C13 UNL     1      -1.247  -1.717  -0.108  1.00  0.00     0.002 A 
HETATM   17  C14 UNL     1      -1.027  -2.642   0.925  1.00  0.00     0.002 A 
HETATM   18  C15 UNL     1      -1.994  -3.592   1.273  1.00  0.00     0.026 A 
HETATM   19  C16 UNL     1      -3.183  -3.584   0.548  1.00  0.00     0.119 A 
HETATM   20  C17 UNL     1      -3.404  -2.672  -0.480  1.00  0.00     0.119 A 
HETATM   21  O4  UNL     1      -4.297  -4.389   0.684  1.00  0.00    -0.300 OA
HETATM   22  C18 UNL     1      -2.447  -1.724  -0.832  1.00  0.00     0.026 A 
HETATM   23  O3  UNL     1      -4.662  -2.882  -1.010  1.00  0.00    -0.300 OA
HETATM   24  C19 UNL     1      -5.260  -3.968  -0.290  1.00  0.00     0.304 A 
ENDBRANCH  10  16
BRANCH   2  25
HETATM   25  O2  UNL     1      -0.954   1.729   3.809  1.00  0.00    -0.326 OA
HETATM   26  C4  UNL     1      -1.940   0.797   4.188  1.00  0.00     0.181 C 
ENDBRANCH   2  25
BRANCH  13  27
HETATM   27  O6  UNL     1       3.364  -0.442  -3.247  1.00  0.00    -0.325 OA
HETATM   28  C22 UNL     1       4.150   0.168  -4.245  1.00  0.00     0.177 C 
ENDBRANCH  13  27
BRANCH   1  29
HETATM   29  O1  UNL     1       0.954   3.522   3.181  1.00  0.00    -0.326 OA
HETATM   30  C1  UNL     1       1.932   4.492   2.890  1.00  0.00     0.181 C 
ENDBRANCH   1  29
TORSDOF 4
