REMARK  2 active torsions:
REMARK  status: ('A' for Active; 'I' for Inactive)
REMARK    1  A    between atoms: C6_6  and  O1_7 
REMARK    2  A    between atoms: C12_14  and  O2_20 
ROOT
HETATM    1  C1  UNL     1      -2.456   1.847   0.260  1.00  0.00     0.051 A 
HETATM    2  C2  UNL     1      -2.493   0.498   0.616  1.00  0.00     0.133 A 
HETATM    3  C3  UNL     1      -1.287  -0.201   0.625  1.00  0.00     0.025 A 
HETATM    4  C4  UNL     1      -0.072   0.395   0.269  1.00  0.00     0.010 A 
HETATM    5  C5  UNL     1      -0.080   1.758  -0.064  1.00  0.00     0.000 A 
HETATM    6  C6  UNL     1      -1.272   2.508  -0.095  1.00  0.00     0.092 A 
HETATM    7  C8  UNL     1       1.218   2.485  -0.337  1.00  0.00     0.063 C 
HETATM    8  C9  UNL     1       2.446   1.574  -0.416  1.00  0.00     0.256 C 
HETATM    9  N1  UNL     1       2.381   0.435   0.473  1.00  0.00     0.141 N 
HETATM   10  C10 UNL     1       1.223  -0.414   0.258  1.00  0.00     0.228 C 
HETATM   11  C11 UNL     1       1.349  -1.258  -1.026  1.00  0.00     0.069 C 
HETATM   12  C12 UNL     1       0.369  -2.437  -1.068  1.00  0.00     0.122 C 
HETATM   13  C13 UNL     1       0.530  -3.341   0.163  1.00  0.00     0.055 C 
HETATM   14  C14 UNL     1       0.951  -2.625   1.422  1.00  0.00    -0.030 C 
HETATM   15  C15 UNL     1       1.268  -1.326   1.447  1.00  0.00    -0.014 C 
HETATM   16  C16 UNL     1       1.893  -0.569   2.590  1.00  0.00     0.059 C 
HETATM   17  C17 UNL     1       2.350   0.737   1.898  1.00  0.00     0.255 C 
HETATM   18  O3  UNL     1      -3.653  -0.115   0.969  1.00  0.00    -0.190 OA
ENDROOT
BRANCH   6  19
HETATM   19  O1  UNL     1      -1.202   3.847  -0.396  1.00  0.00    -0.328 OA
HETATM   20  C7  UNL     1      -2.337   4.652  -0.174  1.00  0.00     0.181 C 
ENDBRANCH   6  19
BRANCH  12  21
HETATM   21  O2  UNL     1       0.599  -3.147  -2.258  1.00  0.00    -0.354 OA
HETATM   22  C18 UNL     1      -0.425  -4.067  -2.573  1.00  0.00     0.174 C 
ENDBRANCH  12  21
TORSDOF 2
