REMARK  10 active torsions:
REMARK  status: ('A' for Active; 'I' for Inactive)
REMARK    1  A    between atoms: C4_4  and  C20_27 
REMARK    2  A    between atoms: C5_5  and  O1_7 
REMARK    3  A    between atoms: O1_7  and  C7_8 
REMARK    4  A    between atoms: C9_10  and  O5_17 
REMARK    5  A    between atoms: C11_12  and  C12_14 
REMARK    6  A    between atoms: O5_17  and  C13_18 
REMARK    7  A    between atoms: C13_18  and  C14_19 
REMARK    8  A    between atoms: C20_27  and  O8_28 
REMARK    9  A    between atoms: O8_28  and  C21_29 
REMARK   10  A    between atoms: C21_29  and  C22_30 
ROOT
HETATM    1  C7  UNL     1       0.685   2.733   0.325  1.00  0.00     0.274 C 
HETATM    2  C8  UNL     1      -0.062   2.819  -0.988  1.00  0.00     0.239 C 
HETATM    3  C9  UNL     1      -1.230   1.849  -1.085  1.00  0.00     0.193 C 
HETATM    4  C10 UNL     1      -2.057   1.924   0.195  1.00  0.00     0.212 C 
HETATM    5  C11 UNL     1      -1.245   1.945   1.481  1.00  0.00     0.184 C 
HETATM    6  O2  UNL     1      -0.190   2.866   1.425  1.00  0.00    -0.326 OA
HETATM    7  O4  UNL     1      -2.803   3.122   0.146  1.00  0.00    -0.218 OA
HETATM    8  O7  UNL     1      -0.563   4.131  -1.132  1.00  0.00    -0.215 OA
ENDROOT
BRANCH   1   9
HETATM    9  O1  UNL     1       1.365   1.511   0.498  1.00  0.00    -0.304 OA
BRANCH   9  10
HETATM   10  C5  UNL     1       2.657   1.337   0.074  1.00  0.00     0.095 A 
HETATM   11  C4  UNL     1       3.302   0.120   0.383  1.00  0.00     0.030 A 
HETATM   12  C3  UNL     1       4.633  -0.094   0.002  1.00  0.00     0.000 A 
HETATM   13  C2  UNL     1       5.356   0.879  -0.685  1.00  0.00    -0.000 A 
HETATM   14  C1  UNL     1       4.728   2.076  -1.017  1.00  0.00     0.002 A 
HETATM   15  C6  UNL     1       3.399   2.288  -0.645  1.00  0.00     0.024 A 
BRANCH  11  16
HETATM   16  C20 UNL     1       2.560  -0.988   1.116  1.00  0.00     0.180 C 
BRANCH  16  17
HETATM   17  O8  UNL     1       1.686  -1.635   0.212  1.00  0.00    -0.294 OA
BRANCH  17  18
HETATM   18  C21 UNL     1       0.651  -2.422   0.627  1.00  0.00     0.311 C 
HETATM   19  O11 UNL     1      -0.423  -2.437   0.062  1.00  0.00    -0.261 OA
BRANCH  18  20
HETATM   20  C22 UNL     1       0.910  -3.506   1.689  1.00  0.00     0.272 C 
HETATM   21  C23 UNL     1       0.278  -3.099   3.021  1.00  0.00     0.192 C 
HETATM   22  O9  UNL     1      -0.007  -1.950   3.269  1.00  0.00    -0.293 OA
HETATM   23  C24 UNL     1      -0.010  -4.233   3.982  1.00  0.00     0.073 C 
HETATM   24  C25 UNL     1      -0.998  -5.202   3.325  1.00  0.00     0.034 C 
HETATM   25  C26 UNL     1      -0.571  -5.542   1.922  1.00  0.00    -0.027 C 
HETATM   26  C27 UNL     1       0.270  -4.788   1.198  1.00  0.00     0.016 C 
HETATM   27  O10 UNL     1       2.284  -3.828   1.877  1.00  0.00    -0.204 OA
ENDBRANCH  18  20
ENDBRANCH  17  18
ENDBRANCH  16  17
ENDBRANCH  11  16
ENDBRANCH   9  10
ENDBRANCH   1   9
BRANCH   3  28
HETATM   28  O5  UNL     1      -0.759   0.552  -1.322  1.00  0.00    -0.295 OA
BRANCH  28  29
HETATM   29  C13 UNL     1      -1.111  -0.143  -2.449  1.00  0.00     0.296 C 
HETATM   30  O6  UNL     1      -0.719  -1.300  -2.581  1.00  0.00    -0.259 OA
BRANCH  29  31
HETATM   31  C14 UNL     1      -1.931   0.357  -3.607  1.00  0.00     0.063 A 
HETATM   32  C15 UNL     1      -2.985  -0.436  -4.076  1.00  0.00     0.005 A 
HETATM   33  C16 UNL     1      -3.773   0.003  -5.143  1.00  0.00     0.000 A 
HETATM   34  C17 UNL     1      -3.498   1.225  -5.757  1.00  0.00     0.000 A 
HETATM   35  C18 UNL     1      -2.424   2.002  -5.314  1.00  0.00     0.000 A 
HETATM   36  C19 UNL     1      -1.637   1.569  -4.246  1.00  0.00     0.005 A 
ENDBRANCH  29  31
ENDBRANCH  28  29
ENDBRANCH   3  28
BRANCH   5  37
HETATM   37  C12 UNL     1      -0.788   0.584   1.975  1.00  0.00     0.214 C 
HETATM   38  O3  UNL     1      -1.872  -0.157   2.497  1.00  0.00    -0.218 OA
ENDBRANCH   5  37
TORSDOF 10
