REMARK  3 active torsions:
REMARK  status: ('A' for Active; 'I' for Inactive)
REMARK    1  A    between atoms: C10_12  and  C20_25 
REMARK    2  A    between atoms: C12_14  and  O3_16 
REMARK    3  A    between atoms: C20_25  and  C21_26 
ROOT
HETATM    1  C1  UNL     1       2.118   0.680   0.398  1.00  0.00     0.099 A 
HETATM    2  C2  UNL     1       2.391  -0.687   0.596  1.00  0.00     0.086 A 
HETATM    3  C3  UNL     1       3.659  -1.248   0.349  1.00  0.00     0.136 A 
HETATM    4  C4  UNL     1       4.670  -0.410  -0.129  1.00  0.00     0.028 A 
HETATM    5  C5  UNL     1       4.428   0.941  -0.362  1.00  0.00     0.004 A 
HETATM    6  C6  UNL     1       3.161   1.464  -0.107  1.00  0.00     0.024 A 
HETATM    7  O1  UNL     1       3.935  -2.565   0.542  1.00  0.00    -0.190 OA
HETATM    8  C7  UNL     1       1.294  -1.557   1.081  1.00  0.00     0.198 C 
HETATM    9  C8  UNL     1      -0.036  -0.919   1.058  1.00  0.00     0.043 C 
HETATM   10  C9  UNL     1      -0.257   0.538   0.748  1.00  0.00     0.151 C 
HETATM   11  O2  UNL     1       0.913   1.290   0.612  1.00  0.00    -0.329 OA
HETATM   12  C10 UNL     1      -1.201   0.730  -0.447  1.00  0.00     0.176 C 
HETATM   13  C11 UNL     1      -2.416  -0.198  -0.225  1.00  0.00     0.206 C 
HETATM   14  C12 UNL     1      -2.443  -0.890   1.146  1.00  0.00     0.164 C 
HETATM   15  C13 UNL     1      -1.147  -1.660   1.230  1.00  0.00     0.009 C 
HETATM   16  C15 UNL     1      -2.258   0.196   2.220  1.00  0.00     0.044 C 
HETATM   17  C16 UNL     1      -1.193   1.224   1.770  1.00  0.00     0.060 C 
HETATM   18  C17 UNL     1      -1.748   2.422   0.972  1.00  0.00     0.096 C 
HETATM   19  C18 UNL     1      -0.909   3.692   1.206  1.00  0.00     0.030 C 
HETATM   20  C19 UNL     1      -3.210   2.807   1.244  1.00  0.00     0.030 C 
HETATM   21  O4  UNL     1      -1.633   2.066  -0.370  1.00  0.00    -0.354 OA
HETATM   22  O5  UNL     1      -3.241  -0.381  -1.091  1.00  0.00    -0.291 OA
HETATM   23  O6  UNL     1       1.438  -2.722   1.444  1.00  0.00    -0.287 OA
ENDROOT
BRANCH  12  24
HETATM   24  C20 UNL     1      -0.579   0.526  -1.835  1.00  0.00     0.063 C 
BRANCH  24  25
HETATM   25  C21 UNL     1       0.102  -0.807  -2.015  1.00  0.00    -0.032 C 
HETATM   26  C22 UNL     1       1.245  -1.041  -2.685  1.00  0.00    -0.048 C 
HETATM   27  C23 UNL     1       1.848  -2.426  -2.737  1.00  0.00     0.026 C 
HETATM   28  C24 UNL     1       2.033   0.003  -3.440  1.00  0.00     0.026 C 
ENDBRANCH  24  25
ENDBRANCH  12  24
BRANCH  14  29
HETATM   29  O3  UNL     1      -3.592  -1.645   1.474  1.00  0.00    -0.345 OA
HETATM   30  C14 UNL     1      -3.926  -2.668   0.561  1.00  0.00     0.175 C 
ENDBRANCH  14  29
TORSDOF 3
