REMARK  7 active torsions:
REMARK  status: ('A' for Active; 'I' for Inactive)
REMARK    1  A    between atoms: C3_3  and  C19_23 
REMARK    2  A    between atoms: C12_13  and  C14_16 
REMARK    3  A    between atoms: C14_16  and  C15_17 
REMARK    4  A    between atoms: C19_23  and  C20_24 
REMARK    5  A    between atoms: C21_25  and  C23_27 
REMARK    6  A    between atoms: C23_27  and  C24_28 
REMARK    7  A    between atoms: C24_28  and  C25_29 
ROOT
HETATM    1  C1  UNL     1      -0.172   4.572  -2.757  1.00  0.00     0.156 A 
HETATM    2  C2  UNL     1       0.013   4.756  -1.386  1.00  0.00     0.158 A 
HETATM    3  C3  UNL     1      -0.072   3.672  -0.487  1.00  0.00     0.050 A 
HETATM    4  C4  UNL     1      -0.308   2.368  -0.961  1.00  0.00     0.105 A 
HETATM    5  C5  UNL     1      -0.470   2.201  -2.348  1.00  0.00     0.064 A 
HETATM    6  C6  UNL     1      -0.391   3.281  -3.232  1.00  0.00     0.035 A 
HETATM    7  C7  UNL     1      -0.712   0.848  -2.909  1.00  0.00     0.201 C 
HETATM    8  C8  UNL     1      -0.563  -0.278  -1.953  1.00  0.00     0.087 A 
HETATM    9  C9  UNL     1      -0.399   0.047  -0.600  1.00  0.00     0.107 A 
HETATM   10  O1  UNL     1      -0.421   1.317  -0.100  1.00  0.00    -0.307 OA
HETATM   11  C10 UNL     1      -0.218  -1.025   0.275  1.00  0.00     0.052 A 
HETATM   12  C11 UNL     1      -0.204  -2.364  -0.125  1.00  0.00     0.131 A 
HETATM   13  C12 UNL     1      -0.387  -2.653  -1.484  1.00  0.00     0.033 A 
HETATM   14  C13 UNL     1      -0.565  -1.610  -2.409  1.00  0.00     0.134 A 
HETATM   15  O2  UNL     1      -0.714  -1.907  -3.730  1.00  0.00    -0.190 OA
HETATM   16  O3  UNL     1       0.009  -3.336   0.802  1.00  0.00    -0.190 OA
HETATM   17  O4  UNL     1      -0.980   0.693  -4.098  1.00  0.00    -0.286 OA
HETATM   18  O5  UNL     1       0.195   6.030  -0.941  1.00  0.00    -0.188 OA
HETATM   19  O6  UNL     1      -0.079   5.633  -3.603  1.00  0.00    -0.188 OA
ENDROOT
BRANCH   3  20
HETATM   20  C19 UNL     1       0.054   4.049   0.985  1.00  0.00     0.004 C 
BRANCH  20  21
HETATM   21  C20 UNL     1       0.124   3.021   2.088  1.00  0.00    -0.008 C 
HETATM   22  C21 UNL     1      -0.411   3.158   3.318  1.00  0.00    -0.044 C 
HETATM   23  C22 UNL     1      -1.173   4.385   3.777  1.00  0.00     0.026 C 
BRANCH  22  24
HETATM   24  C23 UNL     1      -0.295   2.117   4.418  1.00  0.00     0.027 C 
BRANCH  24  25
HETATM   25  C24 UNL     1       0.265   0.733   4.059  1.00  0.00     0.030 C 
BRANCH  25  26
HETATM   26  C25 UNL     1       0.224  -0.211   5.239  1.00  0.00    -0.034 C 
HETATM   27  C26 UNL     1       0.531  -1.520   5.209  1.00  0.00    -0.048 C 
HETATM   28  C27 UNL     1       0.418  -2.385   6.442  1.00  0.00     0.026 C 
HETATM   29  C28 UNL     1       0.994  -2.247   3.970  1.00  0.00     0.026 C 
ENDBRANCH  25  26
ENDBRANCH  24  25
ENDBRANCH  22  24
ENDBRANCH  20  21
ENDBRANCH   3  20
BRANCH  13  30
HETATM   30  C14 UNL     1      -0.415  -4.086  -1.979  1.00  0.00     0.056 C 
BRANCH  30  31
HETATM   31  C15 UNL     1       0.747  -4.373  -2.894  1.00  0.00    -0.030 C 
HETATM   32  C16 UNL     1       0.761  -5.282  -3.885  1.00  0.00    -0.048 C 
HETATM   33  C17 UNL     1       1.977  -5.469  -4.762  1.00  0.00     0.026 C 
HETATM   34  C18 UNL     1      -0.391  -6.204  -4.212  1.00  0.00     0.026 C 
ENDBRANCH  30  31
ENDBRANCH  13  30
TORSDOF 7
