REMARK  2 active torsions:
REMARK  status: ('A' for Active; 'I' for Inactive)
REMARK    1  A    between atoms: C11_13  and  O5_20 
REMARK    2  A    between atoms: C12_14  and  O4_18 
ROOT
HETATM    1  C1  UNL     1      -2.323  -3.206   0.752  1.00  0.00     0.023 A 
HETATM    2  C2  UNL     1      -1.462  -2.241   0.222  1.00  0.00    -0.018 A 
HETATM    3  C3  UNL     1      -1.288  -1.008   0.873  1.00  0.00     0.021 A 
HETATM    4  C4  UNL     1      -1.960  -0.773   2.088  1.00  0.00     0.133 A 
HETATM    5  C5  UNL     1      -2.796  -1.773   2.595  1.00  0.00     0.055 A 
HETATM    6  C6  UNL     1      -3.018  -2.987   1.942  1.00  0.00     0.133 A 
HETATM    7  O1  UNL     1      -3.837  -3.938   2.462  1.00  0.00    -0.190 OA
HETATM    8  O2  UNL     1      -1.784   0.353   2.829  1.00  0.00    -0.190 OA
HETATM    9  C7  UNL     1      -0.368  -0.030   0.242  1.00  0.00     0.002 A 
HETATM   10  C8  UNL     1       0.658  -0.477  -0.605  1.00  0.00     0.003 A 
HETATM   11  C9  UNL     1       0.737  -1.963  -0.882  1.00  0.00     0.033 C 
HETATM   12  C10 UNL     1      -0.679  -2.530  -1.033  1.00  0.00     0.031 C 
HETATM   13  C11 UNL     1       1.577   0.416  -1.187  1.00  0.00     0.114 A 
HETATM   14  C12 UNL     1       1.431   1.808  -0.989  1.00  0.00     0.141 A 
HETATM   15  C13 UNL     1       0.356   2.267  -0.204  1.00  0.00     0.155 A 
HETATM   16  C14 UNL     1      -0.503   1.350   0.403  1.00  0.00     0.029 A 
HETATM   17  O3  UNL     1       0.132   3.586   0.039  1.00  0.00    -0.188 OA
ENDROOT
BRANCH  13  18
HETATM   18  O5  UNL     1       2.584  -0.099  -1.973  1.00  0.00    -0.326 OA
HETATM   19  C16 UNL     1       3.905   0.283  -1.655  1.00  0.00     0.181 C 
ENDBRANCH  13  18
BRANCH  14  20
HETATM   20  O4  UNL     1       2.286   2.640  -1.673  1.00  0.00    -0.324 OA
HETATM   21  C15 UNL     1       1.865   3.924  -2.066  1.00  0.00     0.182 C 
ENDBRANCH  14  20
TORSDOF 2
