REMARK  20 active torsions:
REMARK  status: ('A' for Active; 'I' for Inactive)
REMARK    1  A    between atoms: C3_3  and  O4_11 
REMARK    2  A    between atoms: C5_6  and  C6_7 
REMARK    3  A    between atoms: C6_7  and  O3_9 
REMARK    4  A    between atoms: O4_11  and  C8_12 
REMARK    5  A    between atoms: C9_14  and  C13_21 
REMARK    6  A    between atoms: C14_23  and  C17_27 
REMARK    7  A    between atoms: C17_27  and  O11_28 
REMARK    8  A    between atoms: O11_28  and  C18_29 
REMARK    9  A    between atoms: C18_29  and  C19_31 
REMARK   10  A    between atoms: C20_32  and  C47_72 
REMARK   11  A    between atoms: C21_33  and  C29_42 
REMARK   12  A    between atoms: C22_34  and  C23_35 
REMARK   13  A    between atoms: C29_42  and  O14_43 
REMARK   14  A    between atoms: O14_43  and  C30_44 
REMARK   15  A    between atoms: C30_44  and  C31_45 
REMARK   16  A    between atoms: C36_51  and  C45_67 
REMARK   17  A    between atoms: C38_54  and  O17_55 
REMARK   18  A    between atoms: O17_55  and  C39_56 
REMARK   19  A    between atoms: C40_58  and  C44_65 
REMARK   20  A    between atoms: C45_67  and  O24_69 
ROOT
HETATM    1  C19 UNL     1      -1.141   1.917  -0.610  1.00  0.00     0.096 C 
HETATM    2  C20 UNL     1       0.298   1.440  -0.262  1.00  0.00     0.042 C 
HETATM    3  C21 UNL     1       0.548   1.109  -1.765  1.00  0.00     0.096 C 
HETATM    4  C22 UNL     1      -0.627   2.090  -2.065  1.00  0.00     0.042 C 
ENDROOT
BRANCH   1   5
HETATM    5  C18 UNL     1      -1.569   3.186   0.120  1.00  0.00     0.272 C 
HETATM    6  O12 UNL     1      -0.755   4.041   0.400  1.00  0.00    -0.264 OA
BRANCH   5   7
HETATM    7  O11 UNL     1      -2.878   3.316   0.479  1.00  0.00    -0.302 OA
BRANCH   7   8
HETATM    8  C17 UNL     1      -3.887   2.461   0.015  1.00  0.00     0.154 C 
BRANCH   8   9
HETATM    9  C14 UNL     1      -5.169   2.691   0.817  1.00  0.00     0.066 C 
HETATM   10  C2  UNL     1      -5.297   1.813   2.076  1.00  0.00     0.066 C 
HETATM   11  C1  UNL     1      -6.772   2.014   2.436  1.00  0.00     0.037 C 
HETATM   12  C3  UNL     1      -4.463   2.093   3.308  1.00  0.00     0.242 C 
HETATM   13  C5  UNL     1      -7.082   1.070   3.558  1.00  0.00     0.065 C 
HETATM   14  C16 UNL     1      -7.460   1.790   1.085  1.00  0.00     0.038 C 
HETATM   15  C4  UNL     1      -6.106   0.745   4.426  1.00  0.00     0.120 C 
HETATM   16  O1  UNL     1      -4.819   1.201   4.351  1.00  0.00    -0.304 OA
HETATM   17  C15 UNL     1      -6.461   2.336   0.053  1.00  0.00     0.155 C 
HETATM   18  O10 UNL     1      -6.213   1.344  -0.918  1.00  0.00    -0.223 OA
BRANCH  13  19
HETATM   19  C6  UNL     1      -8.475   0.537   3.729  1.00  0.00     0.294 C 
HETATM   20  O2  UNL     1      -9.369   1.368   3.599  1.00  0.00    -0.259 OA
BRANCH  19  21
HETATM   21  O3  UNL     1      -8.810  -0.770   3.950  1.00  0.00    -0.296 OA
HETATM   22  C7  UNL     1      -7.807  -1.757   3.875  1.00  0.00     0.185 C 
ENDBRANCH  19  21
ENDBRANCH  13  19
BRANCH  12  23
HETATM   23  O4  UNL     1      -3.118   1.756   3.050  1.00  0.00    -0.304 OA
BRANCH  23  24
HETATM   24  C8  UNL     1      -2.219   2.179   4.057  1.00  0.00     0.272 C 
HETATM   25  O5  UNL     1      -1.587   3.327   3.534  1.00  0.00    -0.326 OA
HETATM   26  C9  UNL     1      -0.577   3.836   4.372  1.00  0.00     0.184 C 
HETATM   27  C10 UNL     1       0.482   2.768   4.645  1.00  0.00     0.215 C 
HETATM   28  C11 UNL     1      -0.148   1.513   5.214  1.00  0.00     0.220 C 
HETATM   29  O8  UNL     1       1.447   3.192   5.575  1.00  0.00    -0.218 OA
HETATM   30  C12 UNL     1      -1.208   1.078   4.237  1.00  0.00     0.241 C 
HETATM   31  O7  UNL     1       0.840   0.520   5.343  1.00  0.00    -0.218 OA
HETATM   32  O6  UNL     1      -1.841  -0.087   4.695  1.00  0.00    -0.215 OA
BRANCH  26  33
HETATM   33  C13 UNL     1      -0.001   5.064   3.676  1.00  0.00     0.214 C 
HETATM   34  O9  UNL     1       0.760   5.843   4.575  1.00  0.00    -0.218 OA
ENDBRANCH  26  33
ENDBRANCH  23  24
ENDBRANCH  12  23
ENDBRANCH   8   9
ENDBRANCH   7   8
ENDBRANCH   5   7
ENDBRANCH   1   5
BRANCH   2  35
HETATM   35  C47 UNL     1       0.471   0.399   0.823  1.00  0.00    -0.021 A 
HETATM   36  C48 UNL     1       1.613   0.449   1.633  1.00  0.00    -0.002 A 
HETATM   37  C49 UNL     1       1.782  -0.415   2.715  1.00  0.00     0.027 A 
HETATM   38  C50 UNL     1       0.818  -1.374   3.038  1.00  0.00     0.131 A 
HETATM   39  C51 UNL     1      -0.296  -1.467   2.201  1.00  0.00     0.027 A 
HETATM   40  O26 UNL     1       0.995  -2.251   4.058  1.00  0.00    -0.190 OA
HETATM   41  C52 UNL     1      -0.478  -0.585   1.133  1.00  0.00    -0.002 A 
ENDBRANCH   2  35
BRANCH   4  42
HETATM   42  C23 UNL     1      -1.526   1.749  -3.229  1.00  0.00    -0.021 A 
HETATM   43  C24 UNL     1      -1.173   2.192  -4.510  1.00  0.00    -0.002 A 
HETATM   44  C25 UNL     1      -1.988   1.950  -5.617  1.00  0.00     0.027 A 
HETATM   45  C26 UNL     1      -3.194   1.255  -5.492  1.00  0.00     0.131 A 
HETATM   46  C27 UNL     1      -3.537   0.789  -4.221  1.00  0.00     0.027 A 
HETATM   47  O13 UNL     1      -4.002   1.026  -6.561  1.00  0.00    -0.190 OA
HETATM   48  C28 UNL     1      -2.719   1.025  -3.114  1.00  0.00    -0.002 A 
ENDBRANCH   4  42
BRANCH   3  49
HETATM   49  C29 UNL     1       0.345  -0.329  -2.224  1.00  0.00     0.272 C 
HETATM   50  O25 UNL     1      -0.526  -1.025  -1.749  1.00  0.00    -0.264 OA
BRANCH  49  51
HETATM   51  O14 UNL     1       1.203  -0.822  -3.169  1.00  0.00    -0.302 OA
BRANCH  51  52
HETATM   52  C30 UNL     1       2.058  -0.004  -3.924  1.00  0.00     0.154 C 
BRANCH  52  53
HETATM   53  C31 UNL     1       2.804  -0.843  -4.970  1.00  0.00     0.066 C 
HETATM   54  C32 UNL     1       4.177  -1.380  -4.522  1.00  0.00     0.066 C 
HETATM   55  C33 UNL     1       4.798  -1.839  -5.844  1.00  0.00     0.037 C 
HETATM   56  C38 UNL     1       4.256  -2.522  -3.535  1.00  0.00     0.242 C 
HETATM   57  C34 UNL     1       4.550  -0.610  -6.724  1.00  0.00     0.038 C 
HETATM   58  C36 UNL     1       6.212  -2.265  -5.563  1.00  0.00     0.065 C 
HETATM   59  C35 UNL     1       3.175  -0.093  -6.268  1.00  0.00     0.155 C 
HETATM   60  O15 UNL     1       3.251   1.296  -6.054  1.00  0.00    -0.223 OA
HETATM   61  C37 UNL     1       6.499  -2.778  -4.351  1.00  0.00     0.120 C 
HETATM   62  O16 UNL     1       5.601  -2.914  -3.329  1.00  0.00    -0.304 OA
BRANCH  58  63
HETATM   63  C45 UNL     1       7.249  -2.195  -6.644  1.00  0.00     0.294 C 
HETATM   64  O23 UNL     1       6.819  -2.423  -7.772  1.00  0.00    -0.259 OA
BRANCH  63  65
HETATM   65  O24 UNL     1       8.572  -1.875  -6.506  1.00  0.00    -0.296 OA
HETATM   66  C46 UNL     1       9.072  -1.408  -5.276  1.00  0.00     0.185 C 
ENDBRANCH  63  65
ENDBRANCH  58  63
BRANCH  56  67
HETATM   67  O17 UNL     1       3.873  -2.033  -2.272  1.00  0.00    -0.304 OA
BRANCH  67  68
HETATM   68  C39 UNL     1       3.688  -3.033  -1.294  1.00  0.00     0.272 C 
HETATM   69  O18 UNL     1       2.301  -3.301  -1.316  1.00  0.00    -0.326 OA
HETATM   70  C40 UNL     1       1.873  -4.123  -0.258  1.00  0.00     0.184 C 
HETATM   71  C41 UNL     1       2.222  -3.429   1.048  1.00  0.00     0.215 C 
HETATM   72  C42 UNL     1       3.720  -3.278   1.173  1.00  0.00     0.220 C 
HETATM   73  O21 UNL     1       1.738  -4.058   2.208  1.00  0.00    -0.218 OA
HETATM   74  C43 UNL     1       4.146  -2.418   0.009  1.00  0.00     0.241 C 
HETATM   75  O20 UNL     1       4.026  -2.627   2.378  1.00  0.00    -0.218 OA
HETATM   76  O19 UNL     1       5.547  -2.307  -0.004  1.00  0.00    -0.215 OA
BRANCH  70  77
HETATM   77  C44 UNL     1       0.378  -4.352  -0.436  1.00  0.00     0.214 C 
HETATM   78  O22 UNL     1      -0.059  -5.419   0.381  1.00  0.00    -0.218 OA
ENDBRANCH  70  77
ENDBRANCH  67  68
ENDBRANCH  56  67
ENDBRANCH  52  53
ENDBRANCH  51  52
ENDBRANCH  49  51
ENDBRANCH   3  49
TORSDOF 20
