REMARK  1 active torsions:
REMARK  status: ('A' for Active; 'I' for Inactive)
REMARK    1  A    between atoms: C20_23  and  O5_25 
ROOT
HETATM    1  C1  UNL     1       0.367   2.274  -1.285  1.00  0.00     0.001 C 
HETATM    2  C2  UNL     1       0.380   1.204  -0.167  1.00  0.00     0.017 C 
HETATM    3  C3  UNL     1       1.757   0.512  -0.066  1.00  0.00     0.111 C 
HETATM    4  C4  UNL     1       2.579   0.732  -1.350  1.00  0.00     0.165 C 
HETATM    5  C5  UNL     1       2.938   2.209  -1.209  1.00  0.00     0.056 C 
HETATM    6  C6  UNL     1       1.681   3.071  -1.418  1.00  0.00     0.007 C 
HETATM    7  C7  UNL     1       3.328   2.221   0.245  1.00  0.00     0.015 C 
HETATM    8  C8  UNL     1       2.665   1.255   0.924  1.00  0.00     0.173 C 
HETATM    9  O1  UNL     1       2.798   1.003   2.096  1.00  0.00    -0.291 OA
HETATM   10  C9  UNL     1       4.210   3.058   0.807  1.00  0.00    -0.002 C 
HETATM   11  O2  UNL     1       3.742  -0.060  -1.323  1.00  0.00    -0.223 OA
HETATM   12  C10 UNL     1       1.504  -0.952   0.287  1.00  0.00     0.157 C 
HETATM   13  C11 UNL     1       0.560  -1.191   1.463  1.00  0.00     0.180 C 
HETATM   14  C12 UNL     1      -0.828  -0.608   1.163  1.00  0.00     0.040 C 
HETATM   15  C13 UNL     1      -0.738   0.099  -0.225  1.00  0.00     0.055 C 
HETATM   16  C14 UNL     1      -2.104   0.734  -0.585  1.00  0.00     0.008 C 
HETATM   17  C15 UNL     1      -3.304   0.259   0.244  1.00  0.00     0.033 C 
HETATM   18  C16 UNL     1      -3.218  -1.232   0.520  1.00  0.00     0.152 C 
HETATM   19  C17 UNL     1      -2.030  -1.576   1.441  1.00  0.00     0.031 C 
HETATM   20  C18 UNL     1      -1.740  -3.089   1.267  1.00  0.00     0.003 C 
HETATM   21  C19 UNL     1      -2.429  -1.407   2.932  1.00  0.00     0.003 C 
HETATM   22  O3  UNL     1      -4.442  -1.665   1.070  1.00  0.00    -0.224 OA
HETATM   23  C20 UNL     1      -0.313  -1.016  -1.195  1.00  0.00     0.235 C 
HETATM   24  O4  UNL     1       0.940  -1.575  -0.836  1.00  0.00    -0.330 OA
HETATM   25  O6  UNL     1       1.041  -0.666   2.679  1.00  0.00    -0.221 OA
ENDROOT
BRANCH  23  26
HETATM   26  O5  UNL     1      -0.172  -0.541  -2.516  1.00  0.00    -0.328 OA
HETATM   27  C21 UNL     1      -0.276  -1.560  -3.486  1.00  0.00     0.177 C 
ENDBRANCH  23  26
TORSDOF 1
