REMARK  0 active torsions:
REMARK  status: ('A' for Active; 'I' for Inactive)
ROOT
HETATM    1  C1  UNL     1       0.215   1.952  -0.127  1.00  0.00     0.200 C 
HETATM    2  C2  UNL     1       0.194   0.614   0.118  1.00  0.00     0.016 C 
HETATM    3  C3  UNL     1       1.356  -0.055   0.288  1.00  0.00     0.044 C 
HETATM    4  C4  UNL     1       2.568   0.567   0.221  1.00  0.00     0.173 C 
HETATM    5  C5  UNL     1       2.736   1.922  -0.304  1.00  0.00     0.090 A 
HETATM    6  C6  UNL     1       1.488   2.766  -0.254  1.00  0.00     0.219 C 
HETATM    7  O1  UNL     1       1.280   3.609  -1.384  1.00  0.00    -0.215 OA
HETATM    8  C7  UNL     1       3.723   2.103  -1.437  1.00  0.00     0.011 A 
HETATM    9  C8  UNL     1       4.079   2.600  -0.059  1.00  0.00     0.010 A 
HETATM   10  C9  UNL     1       4.154   4.108   0.136  1.00  0.00     0.001 C 
HETATM   11  O2  UNL     1       3.566  -0.057   0.507  1.00  0.00    -0.291 OA
HETATM   12  C10 UNL     1       1.384  -1.538   0.630  1.00  0.00     0.207 C 
HETATM   13  C11 UNL     1       0.107  -2.341   0.392  1.00  0.00     0.191 C 
HETATM   14  C12 UNL     1      -1.015  -1.564  -0.307  1.00  0.00     0.055 C 
HETATM   15  C13 UNL     1      -1.136  -0.144   0.313  1.00  0.00     0.028 C 
HETATM   16  C14 UNL     1      -2.369   0.506  -0.358  1.00  0.00     0.009 C 
HETATM   17  C15 UNL     1      -3.673  -0.244  -0.078  1.00  0.00     0.022 C 
HETATM   18  C16 UNL     1      -3.537  -1.733  -0.221  1.00  0.00    -0.052 C 
HETATM   19  C17 UNL     1      -2.341  -2.334  -0.376  1.00  0.00    -0.049 C 
HETATM   20  C18 UNL     1      -2.271  -3.802  -0.742  1.00  0.00     0.026 C 
HETATM   21  C19 UNL     1      -4.869  -2.453  -0.202  1.00  0.00     0.026 C 
HETATM   22  C20 UNL     1      -1.375  -0.186   1.841  1.00  0.00     0.005 C 
HETATM   23  O3  UNL     1       0.439  -3.490  -0.362  1.00  0.00    -0.220 OA
HETATM   24  O4  UNL     1       2.438  -2.186  -0.068  1.00  0.00    -0.216 OA
HETATM   25  O5  UNL     1      -0.744   2.673  -0.288  1.00  0.00    -0.289 OA
ENDROOT
TORSDOF 0
