REMARK  1 active torsions:
REMARK  status: ('A' for Active; 'I' for Inactive)
REMARK    1  A    between atoms: C6_6  and  C7_7 
ROOT
HETATM    1  C1  UNL     1       2.462   1.270  -0.028  1.00  0.00     0.154 A 
HETATM    2  C2  UNL     1       1.788   0.138   0.249  1.00  0.00     0.152 A 
HETATM    3  C3  UNL     1       0.444   0.068   0.104  1.00  0.00     0.013 A 
HETATM    4  C4  UNL     1      -0.198   1.180  -0.307  1.00  0.00     0.065 A 
HETATM    5  C5  UNL     1       0.476   2.323  -0.589  1.00  0.00     0.132 A 
HETATM    6  C6  UNL     1       1.820   2.370  -0.459  1.00  0.00     0.030 A 
HETATM    7  O1  UNL     1      -0.186   3.446  -0.998  1.00  0.00    -0.190 OA
HETATM    8  C10 UNL     1      -1.554   1.170  -0.446  1.00  0.00     0.222 C 
HETATM    9  C11 UNL     1      -2.320   0.057  -0.300  1.00  0.00     0.162 C 
HETATM   10  C12 UNL     1      -1.806  -1.136   0.055  1.00  0.00    -0.013 C 
HETATM   11  C13 UNL     1      -0.341  -1.199   0.504  1.00  0.00     0.038 C 
HETATM   12  C14 UNL     1       0.290  -2.482  -0.082  1.00  0.00     0.008 C 
HETATM   13  C15 UNL     1      -0.505  -3.760   0.191  1.00  0.00     0.001 C 
HETATM   14  C16 UNL     1      -1.901  -3.629  -0.407  1.00  0.00     0.004 C 
HETATM   15  C17 UNL     1      -2.688  -2.408   0.118  1.00  0.00     0.018 C 
HETATM   16  C18 UNL     1      -3.950  -2.394  -0.794  1.00  0.00     0.004 C 
HETATM   17  C19 UNL     1      -3.230  -2.662   1.541  1.00  0.00     0.004 C 
HETATM   18  C20 UNL     1      -0.299  -1.183   2.052  1.00  0.00     0.009 C 
HETATM   19  O2  UNL     1      -3.640   0.256  -0.585  1.00  0.00    -0.187 OA
HETATM   20  O3  UNL     1      -2.187   2.152  -0.768  1.00  0.00    -0.284 OA
HETATM   21  O4  UNL     1       2.539  -0.899   0.718  1.00  0.00    -0.188 OA
HETATM   22  O5  UNL     1       3.809   1.269   0.166  1.00  0.00    -0.188 OA
ENDROOT
BRANCH   6  23
HETATM   23  C7  UNL     1       2.615   3.643  -0.779  1.00  0.00     0.026 C 
HETATM   24  C8  UNL     1       3.184   4.297   0.492  1.00  0.00     0.005 C 
HETATM   25  C9  UNL     1       3.675   3.445  -1.880  1.00  0.00     0.005 C 
ENDBRANCH   6  23
TORSDOF 1
