REMARK  5 active torsions:
REMARK  status: ('A' for Active; 'I' for Inactive)
REMARK    1  A    between atoms: C2_2  and  O3_16 
REMARK    2  A    between atoms: C7_7  and  O2_14 
REMARK    3  A    between atoms: O3_16  and  C13_17 
REMARK    4  A    between atoms: C13_17  and  C14_18 
REMARK    5  A    between atoms: C14_18  and  C15_19 
ROOT
HETATM    1  C1  UNL     1       0.838   1.288  -0.505  1.00  0.00     0.024 A 
HETATM    2  C2  UNL     1       0.827  -0.058  -0.520  1.00  0.00     0.096 A 
HETATM    3  C3  UNL     1      -0.390  -0.627  -0.410  1.00  0.00     0.043 A 
HETATM    4  C4  UNL     1      -1.527   0.087  -0.308  1.00  0.00     0.087 A 
HETATM    5  C5  UNL     1      -1.493   1.436  -0.304  1.00  0.00     0.040 A 
HETATM    6  C6  UNL     1      -0.283   2.018  -0.404  1.00  0.00     0.005 A 
HETATM    7  C7  UNL     1      -2.625   2.174  -0.200  1.00  0.00     0.099 A 
HETATM    8  C8  UNL     1      -3.742   1.427  -0.104  1.00  0.00     0.066 A 
HETATM    9  C9  UNL     1      -3.698   0.082  -0.114  1.00  0.00     0.184 A 
HETATM   10  N1  UNL     1      -2.614  -0.557  -0.214  1.00  0.00    -0.222 NA
HETATM   11  O1  UNL     1      -4.821  -0.415  -0.014  1.00  0.00    -0.287 OA
HETATM   12  C10 UNL     1      -5.642   0.493   0.065  1.00  0.00     0.125 A 
HETATM   13  C11 UNL     1      -5.052   1.692   0.016  1.00  0.00     0.032 A 
ENDROOT
BRANCH   2  14
HETATM   14  O3  UNL     1       2.022  -0.731  -0.612  1.00  0.00    -0.328 OA
BRANCH  14  15
HETATM   15  C13 UNL     1       2.030  -2.126  -0.459  1.00  0.00     0.186 C 
BRANCH  15  16
HETATM   16  C14 UNL     1       3.465  -2.631  -0.502  1.00  0.00     0.201 C 
HETATM   17  O4  UNL     1       3.460  -4.044  -0.410  1.00  0.00    -0.216 OA
BRANCH  16  18
HETATM   18  C15 UNL     1       4.395  -2.117   0.575  1.00  0.00    -0.012 C 
HETATM   19  C16 UNL     1       5.715  -2.028   0.342  1.00  0.00    -0.007 C 
HETATM   20  C17 UNL     1       3.823  -1.805   1.936  1.00  0.00     0.029 C 
ENDBRANCH  16  18
ENDBRANCH  15  16
ENDBRANCH  14  15
ENDBRANCH   2  14
BRANCH   7  21
HETATM   21  O2  UNL     1      -2.527   3.547  -0.202  1.00  0.00    -0.328 OA
HETATM   22  C12 UNL     1      -3.670   4.357  -0.094  1.00  0.00     0.181 C 
ENDBRANCH   7  21
TORSDOF 5
