REMARK  7 active torsions:
REMARK  status: ('A' for Active; 'I' for Inactive)
REMARK    1  A    between atoms: C3_3  and  C41_53 
REMARK    2  A    between atoms: C23_23  and  O2_28 
REMARK    3  A    between atoms: C24_24  and  C26_26 
REMARK    4  A    between atoms: O2_28  and  C27_29 
REMARK    5  A    between atoms: C30_33  and  O5_36 
REMARK    6  A    between atoms: O5_36  and  C32_37 
REMARK    7  A    between atoms: C33_39  and  C37_46 
ROOT
HETATM    1  C1  UNL     1       4.961   4.182  -1.771  1.00  0.00     0.005 C 
HETATM    2  C2  UNL     1       4.559   3.615  -0.392  1.00  0.00     0.030 C 
HETATM    3  C3  UNL     1       5.726   3.008   0.418  1.00  0.00     0.110 C 
HETATM    4  C4  UNL     1       6.987   3.901   0.350  1.00  0.00     0.013 C 
HETATM    5  C5  UNL     1       7.348   4.430  -1.043  1.00  0.00     0.001 C 
HETATM    6  C6  UNL     1       6.173   5.136  -1.746  1.00  0.00     0.000 C 
HETATM    7  C7  UNL     1       6.587   5.464  -3.199  1.00  0.00     0.000 C 
HETATM    8  C8  UNL     1       5.825   6.468  -1.049  1.00  0.00     0.000 C 
HETATM    9  C9  UNL     1       6.000   1.562  -0.027  1.00  0.00     0.162 C 
HETATM   10  C10 UNL     1       4.755   0.694   0.144  1.00  0.00     0.037 C 
HETATM   11  C11 UNL     1       3.438   1.189  -0.523  1.00  0.00     0.017 C 
HETATM   12  C12 UNL     1       3.334   2.710  -0.493  1.00  0.00    -0.049 C 
HETATM   13  C13 UNL     1       2.155   3.269  -0.814  1.00  0.00    -0.035 C 
HETATM   14  C14 UNL     1       0.915   2.462  -1.084  1.00  0.00     0.025 C 
HETATM   15  C15 UNL     1       0.791   1.324  -0.057  1.00  0.00     0.005 C 
HETATM   16  C16 UNL     1       2.141   0.533   0.149  1.00  0.00     0.004 C 
HETATM   17  C17 UNL     1       2.020  -0.930  -0.332  1.00  0.00     0.000 C 
HETATM   18  C18 UNL     1       0.733  -1.627   0.084  1.00  0.00     0.000 C 
HETATM   19  C19 UNL     1      -0.511  -0.920  -0.485  1.00  0.00     0.005 C 
HETATM   20  C20 UNL     1      -0.596   0.562  -0.033  1.00  0.00     0.001 C 
HETATM   21  C21 UNL     1      -1.738   1.255  -0.830  1.00  0.00     0.003 C 
HETATM   22  C22 UNL     1      -2.927   0.338  -1.181  1.00  0.00     0.030 C 
HETATM   23  C23 UNL     1      -2.595  -1.013  -1.857  1.00  0.00     0.120 C 
HETATM   24  C24 UNL     1      -1.051  -1.278  -1.911  1.00  0.00     0.056 C 
HETATM   25  C25 UNL     1      -0.736  -2.762  -2.237  1.00  0.00     0.005 C 
HETATM   26  C38 UNL     1      -1.145   0.579   1.435  1.00  0.00     0.000 C 
HETATM   27  C39 UNL     1       2.338   0.465   1.696  1.00  0.00     0.000 C 
HETATM   28  C40 UNL     1       3.577   0.829  -2.030  1.00  0.00     0.004 C 
HETATM   29  O12 UNL     1       6.481   1.472  -1.344  1.00  0.00    -0.223 OA
ENDROOT
BRANCH  23  30
HETATM   30  O2  UNL     1      -3.288  -2.007  -1.132  1.00  0.00    -0.332 OA
BRANCH  30  31
HETATM   31  C27 UNL     1      -3.847  -3.063  -1.885  1.00  0.00     0.270 C 
HETATM   32  O3  UNL     1      -5.080  -2.631  -2.418  1.00  0.00    -0.326 OA
HETATM   33  C28 UNL     1      -6.131  -2.569  -1.490  1.00  0.00     0.180 C 
HETATM   34  C29 UNL     1      -6.337  -3.918  -0.827  1.00  0.00     0.211 C 
HETATM   35  C30 UNL     1      -5.097  -4.295  -0.028  1.00  0.00     0.186 C 
HETATM   36  O11 UNL     1      -7.468  -3.882   0.007  1.00  0.00    -0.218 OA
HETATM   37  C31 UNL     1      -3.947  -4.317  -1.030  1.00  0.00     0.238 C 
HETATM   38  O4  UNL     1      -4.105  -5.434  -1.877  1.00  0.00    -0.215 OA
BRANCH  35  39
HETATM   39  O5  UNL     1      -4.880  -3.329   0.963  1.00  0.00    -0.326 OA
BRANCH  39  40
HETATM   40  C32 UNL     1      -4.024  -3.710   2.016  1.00  0.00     0.270 C 
HETATM   41  O6  UNL     1      -4.817  -4.241   3.055  1.00  0.00    -0.326 OA
HETATM   42  C33 UNL     1      -5.628  -3.338   3.764  1.00  0.00     0.184 C 
HETATM   43  C34 UNL     1      -4.907  -2.064   4.185  1.00  0.00     0.215 C 
HETATM   44  C35 UNL     1      -4.067  -1.448   3.080  1.00  0.00     0.220 C 
HETATM   45  O9  UNL     1      -4.056  -2.377   5.264  1.00  0.00    -0.218 OA
HETATM   46  C36 UNL     1      -3.204  -2.523   2.461  1.00  0.00     0.241 C 
HETATM   47  O8  UNL     1      -4.892  -0.866   2.096  1.00  0.00    -0.218 OA
HETATM   48  O7  UNL     1      -2.213  -2.936   3.375  1.00  0.00    -0.215 OA
BRANCH  42  49
HETATM   49  C37 UNL     1      -6.974  -3.110   3.090  1.00  0.00     0.214 C 
HETATM   50  O10 UNL     1      -7.901  -2.610   4.034  1.00  0.00    -0.218 OA
ENDBRANCH  42  49
ENDBRANCH  39  40
ENDBRANCH  35  39
ENDBRANCH  30  31
ENDBRANCH  23  30
BRANCH  24  51
HETATM   51  C26 UNL     1      -0.519  -0.509  -3.147  1.00  0.00     0.184 C 
HETATM   52  O1  UNL     1       0.851  -0.716  -3.397  1.00  0.00    -0.221 OA
ENDBRANCH  24  51
BRANCH   3  53
HETATM   53  C41 UNL     1       5.325   2.998   1.906  1.00  0.00     0.187 C 
HETATM   54  O13 UNL     1       4.353   3.512   2.407  1.00  0.00    -0.647 OA
HETATM   55  O14 UNL     1       6.223   2.360   2.681  1.00  0.00    -0.647 OA
ENDBRANCH   3  53
TORSDOF 7
