REMARK  3 active torsions:
REMARK  status: ('A' for Active; 'I' for Inactive)
REMARK    1  A    between atoms: C1_1  and  O6_25 
REMARK    2  A    between atoms: C10_10  and  C11_11 
REMARK    3  A    between atoms: C15_15  and  O1_17 
ROOT
HETATM    1  C1  UNL     1      -2.711   1.915   0.979  1.00  0.00     0.119 A 
HETATM    2  C2  UNL     1      -2.641   0.594   1.241  1.00  0.00     0.153 A 
HETATM    3  C3  UNL     1      -1.458  -0.037   1.172  1.00  0.00     0.025 A 
HETATM    4  C4  UNL     1      -0.318   0.590   0.838  1.00  0.00    -0.020 A 
HETATM    5  C5  UNL     1      -0.366   1.911   0.593  1.00  0.00    -0.023 A 
HETATM    6  C6  UNL     1      -1.556   2.536   0.667  1.00  0.00     0.022 A 
HETATM    7  C7  UNL     1       0.867   2.713   0.217  1.00  0.00     0.036 C 
HETATM    8  C8  UNL     1       2.240   2.025   0.504  1.00  0.00     0.094 C 
HETATM    9  C9  UNL     1       2.046   0.602  -0.006  1.00  0.00     0.048 C 
HETATM   10  C10 UNL     1       0.988  -0.170   0.790  1.00  0.00     0.047 C 
HETATM   11  C18 UNL     1       3.456   0.200   0.276  1.00  0.00     0.153 C 
HETATM   12  O3  UNL     1       4.145   1.412   0.353  1.00  0.00    -0.302 OA
HETATM   13  C19 UNL     1       3.702   2.649  -0.047  1.00  0.00     0.272 C 
HETATM   14  O4  UNL     1       2.945   3.530  -0.372  1.00  0.00    -0.264 OA
HETATM   15  O5  UNL     1      -3.759  -0.111   1.574  1.00  0.00    -0.188 OA
ENDROOT
BRANCH  10  16
HETATM   16  C11 UNL     1       0.848  -1.578   0.243  1.00  0.00    -0.016 A 
HETATM   17  C12 UNL     1       1.245  -2.638   0.964  1.00  0.00    -0.002 A 
HETATM   18  C13 UNL     1       1.109  -3.874   0.468  1.00  0.00     0.029 A 
HETATM   19  C14 UNL     1       0.583  -4.084  -0.750  1.00  0.00     0.153 A 
HETATM   20  C15 UNL     1       0.176  -3.036  -1.498  1.00  0.00     0.119 A 
HETATM   21  O2  UNL     1       0.454  -5.350  -1.234  1.00  0.00    -0.188 OA
HETATM   22  C16 UNL     1       0.326  -1.802  -0.976  1.00  0.00     0.022 A 
BRANCH  20  23
HETATM   23  O1  UNL     1      -0.347  -3.307  -2.740  1.00  0.00    -0.326 OA
HETATM   24  C17 UNL     1      -0.695  -2.237  -3.586  1.00  0.00     0.181 C 
ENDBRANCH  20  23
ENDBRANCH  10  16
BRANCH   1  25
HETATM   25  O6  UNL     1      -3.938   2.529   1.069  1.00  0.00    -0.326 OA
HETATM   26  C20 UNL     1      -4.015   3.928   0.921  1.00  0.00     0.181 C 
ENDBRANCH   1  25
TORSDOF 3
