REMARK  8 active torsions:
REMARK  status: ('A' for Active; 'I' for Inactive)
REMARK    1  A    between atoms: C4_4  and  C17_21 
REMARK    2  A    between atoms: C7_7  and  C14_15 
REMARK    3  A    between atoms: C7_7  and  O2_17 
REMARK    4  A    between atoms: O2_17  and  C15_18 
REMARK    5  A    between atoms: C18_22  and  O7_47 
REMARK    6  A    between atoms: C25_30  and  O5_43 
REMARK    7  A    between atoms: C33_39  and  C34_40 
REMARK    8  A    between atoms: O5_43  and  C36_44 
ROOT
HETATM    1  C17 UNL     1      -0.000   1.520  -0.390  1.00  0.00     0.005 C 
HETATM    2  C18 UNL     1       0.436   2.528   0.412  1.00  0.00     0.092 C 
HETATM    3  C19 UNL     1       1.342   2.241   1.371  1.00  0.00     0.043 C 
HETATM    4  C20 UNL     1       1.835   1.006   1.479  1.00  0.00     0.083 A 
HETATM    5  C21 UNL     1       1.464   0.040   0.641  1.00  0.00     0.015 A 
HETATM    6  C22 UNL     1       0.589   0.307  -0.331  1.00  0.00    -0.001 C 
HETATM    7  C23 UNL     1       2.068  -1.086   1.053  1.00  0.00    -0.003 A 
HETATM    8  C24 UNL     1       2.802  -0.760   2.133  1.00  0.00     0.082 A 
HETATM    9  N2  UNL     1       2.632   0.490   2.316  1.00  0.00    -0.248 NA
HETATM   10  C25 UNL     1       3.584  -1.688   3.058  1.00  0.00     0.165 C 
HETATM   11  C26 UNL     1       2.578  -2.726   3.628  1.00  0.00     0.252 C 
HETATM   12  N3  UNL     1       2.169  -3.765   2.679  1.00  0.00     0.138 N 
HETATM   13  C27 UNL     1       1.275  -3.370   1.602  1.00  0.00     0.255 C 
HETATM   14  C28 UNL     1       1.847  -2.459   0.505  1.00  0.00     0.063 C 
HETATM   15  C29 UNL     1       3.309  -4.537   2.203  1.00  0.00     0.250 C 
HETATM   16  C30 UNL     1       4.608  -3.980   2.809  1.00  0.00     0.036 C 
HETATM   17  C31 UNL     1       4.698  -2.496   2.382  1.00  0.00     0.038 C 
HETATM   18  C32 UNL     1       4.479  -4.193   4.329  1.00  0.00     0.007 C 
HETATM   19  C33 UNL     1       3.228  -3.453   4.839  1.00  0.00     0.065 C 
ENDROOT
BRANCH   1  20
HETATM   20  C4  UNL     1      -1.144   1.722  -1.397  1.00  0.00     0.065 C 
HETATM   21  C3  UNL     1      -2.275   0.742  -1.103  1.00  0.00     0.059 A 
HETATM   22  C2  UNL     1      -3.565   0.725  -1.516  1.00  0.00    -0.005 A 
HETATM   23  N4  UNL     1      -2.145  -0.287  -0.361  1.00  0.00    -0.250 NA
HETATM   24  C1  UNL     1      -4.371   1.656  -2.392  1.00  0.00     0.064 C 
HETATM   25  C40 UNL     1      -4.122  -0.383  -0.992  1.00  0.00     0.015 A 
HETATM   26  C8  UNL     1      -3.669   2.656  -3.333  1.00  0.00     0.252 C 
HETATM   27  C7  UNL     1      -2.692   1.946  -4.319  1.00  0.00     0.165 C 
HETATM   28  N1  UNL     1      -3.102   3.792  -2.608  1.00  0.00     0.144 N 
HETATM   29  C6  UNL     1      -1.238   2.338  -4.008  1.00  0.00     0.051 C 
HETATM   30  C5  UNL     1      -0.552   1.631  -2.818  1.00  0.00     0.017 C 
HETATM   31  C11 UNL     1      -1.090   3.846  -3.981  1.00  0.00    -0.013 C 
HETATM   32  C10 UNL     1      -2.265   4.628  -3.448  1.00  0.00     0.272 C 
HETATM   33  C12 UNL     1       0.032   4.439  -4.431  1.00  0.00    -0.032 C 
HETATM   34  C13 UNL     1       0.297   5.919  -4.511  1.00  0.00     0.030 C 
HETATM   35  C9  UNL     1      -4.094   4.616  -1.925  1.00  0.00     0.286 C 
HETATM   36  C39 UNL     1      -3.185  -0.996  -0.266  1.00  0.00     0.081 A 
HETATM   37  C41 UNL     1      -5.348  -0.919  -1.074  1.00  0.00     0.001 A 
HETATM   38  C44 UNL     1      -3.400  -2.139   0.392  1.00  0.00     0.019 A 
HETATM   39  C43 UNL     1      -4.627  -2.679   0.298  1.00  0.00     0.002 A 
HETATM   40  C42 UNL     1      -5.586  -2.073  -0.425  1.00  0.00     0.000 A 
BRANCH  27  41
HETATM   41  C14 UNL     1      -3.044   2.350  -5.763  1.00  0.00     0.212 C 
HETATM   42  O1  UNL     1      -4.291   1.795  -6.133  1.00  0.00    -0.218 OA
ENDBRANCH  27  41
BRANCH  27  43
HETATM   43  O2  UNL     1      -2.836   0.564  -4.171  1.00  0.00    -0.302 OA
BRANCH  43  44
HETATM   44  C15 UNL     1      -2.223  -0.342  -4.975  1.00  0.00     0.272 C 
HETATM   45  C16 UNL     1      -2.574  -1.741  -4.506  1.00  0.00     0.106 C 
HETATM   46  O3  UNL     1      -1.486  -0.100  -5.902  1.00  0.00    -0.264 OA
ENDBRANCH  43  44
ENDBRANCH  27  43
ENDBRANCH   1  20
BRANCH   2  47
HETATM   47  O7  UNL     1      -0.135   3.778   0.402  1.00  0.00    -0.328 OA
HETATM   48  C38 UNL     1       0.504   4.686  -0.467  1.00  0.00     0.181 C 
ENDBRANCH   2  47
BRANCH  10  49
HETATM   49  O5  UNL     1       4.010  -0.825   4.099  1.00  0.00    -0.299 OA
BRANCH  49  50
HETATM   50  C36 UNL     1       5.197  -0.839   4.763  1.00  0.00     0.273 C 
HETATM   51  C37 UNL     1       5.225   0.303   5.763  1.00  0.00     0.106 C 
HETATM   52  O6  UNL     1       6.119  -1.607   4.626  1.00  0.00    -0.264 OA
ENDBRANCH  49  50
ENDBRANCH  10  49
BRANCH  19  53
HETATM   53  C34 UNL     1       2.250  -4.308   5.663  1.00  0.00     0.154 C 
HETATM   54  C35 UNL     1       2.816  -4.701   7.027  1.00  0.00     0.036 C 
HETATM   55  O4  UNL     1       1.879  -5.484   4.984  1.00  0.00    -0.223 OA
ENDBRANCH  19  53
TORSDOF 8
