REMARK  7 active torsions:
REMARK  status: ('A' for Active; 'I' for Inactive)
REMARK    1  A    between atoms: C2_2  and  O7_54 
REMARK    2  A    between atoms: C9_10  and  O2_23 
REMARK    3  A    between atoms: C17_19  and  C18_20 
REMARK    4  A    between atoms: O2_23  and  C20_24 
REMARK    5  A    between atoms: C40_47  and  O4_48 
REMARK    6  A    between atoms: C40_47  and  C43_52 
REMARK    7  A    between atoms: O4_48  and  C41_49 
ROOT
HETATM    1  C1  UNL     1      -3.781   0.681   0.029  1.00  0.00     0.020 C 
HETATM    2  C2  UNL     1      -3.426  -0.726   0.165  1.00  0.00     0.079 C 
HETATM    3  C3  UNL     1      -1.925  -1.099   0.053  1.00  0.00     0.103 A 
HETATM    4  C4  UNL     1      -0.846   0.263  -0.104  1.00  0.00     0.134 A 
HETATM    5  C5  UNL     1      -1.451   1.623  -0.118  1.00  0.00    -0.002 A 
HETATM    6  C6  UNL     1      -2.866   1.775  -0.046  1.00  0.00    -0.001 C 
HETATM    7  C7  UNL     1      -0.507   2.560  -0.281  1.00  0.00    -0.007 A 
HETATM    8  C8  UNL     1       0.635   1.877  -0.443  1.00  0.00     0.077 A 
HETATM    9  N1  UNL     1       0.363   0.635  -0.331  1.00  0.00    -0.270 NA
HETATM   10  C9  UNL     1       2.002   2.469  -0.764  1.00  0.00     0.165 C 
HETATM   11  C10 UNL     1       1.939   3.422  -1.989  1.00  0.00     0.256 C 
HETATM   12  N2  UNL     1       1.364   4.712  -1.668  1.00  0.00     0.139 N 
HETATM   13  C11 UNL     1      -0.080   4.749  -1.538  1.00  0.00     0.255 C 
HETATM   14  C12 UNL     1      -0.714   4.044  -0.333  1.00  0.00     0.063 C 
HETATM   15  C13 UNL     1       2.096   5.311  -0.561  1.00  0.00     0.250 C 
HETATM   16  C14 UNL     1       3.399   4.542  -0.099  1.00  0.00     0.037 C 
HETATM   17  C15 UNL     1       2.522   3.322   0.417  1.00  0.00     0.038 C 
HETATM   18  C16 UNL     1       4.061   4.712  -1.530  1.00  0.00     0.011 C 
HETATM   19  C17 UNL     1       3.343   3.801  -2.556  1.00  0.00     0.092 C 
HETATM   20  C22 UNL     1      -1.846  -2.641  -0.124  1.00  0.00    -0.017 C 
HETATM   21  C23 UNL     1      -2.261  -3.437   1.080  1.00  0.00     0.070 A 
HETATM   22  N3  UNL     1      -2.802  -4.589   1.088  1.00  0.00    -0.246 NA
HETATM   23  C24 UNL     1      -3.028  -5.005   2.263  1.00  0.00     0.081 A 
HETATM   24  C25 UNL     1      -2.610  -4.058   3.110  1.00  0.00     0.015 A 
HETATM   25  C26 UNL     1      -2.712  -4.224   4.434  1.00  0.00     0.001 A 
HETATM   26  C27 UNL     1      -3.251  -5.370   4.883  1.00  0.00     0.000 A 
HETATM   27  C28 UNL     1      -3.674  -6.319   4.028  1.00  0.00     0.002 A 
HETATM   28  C29 UNL     1      -3.568  -6.148   2.698  1.00  0.00     0.019 A 
HETATM   29  C30 UNL     1      -2.125  -3.056   2.363  1.00  0.00     0.002 A 
HETATM   30  C31 UNL     1      -1.512  -1.790   2.882  1.00  0.00     0.069 C 
HETATM   31  C32 UNL     1      -0.934  -0.810   1.812  1.00  0.00     0.043 C 
HETATM   32  N4  UNL     1      -2.056   0.194   1.052  1.00  0.00    -0.348 N 
HETATM   33  C33 UNL     1      -3.084   0.443   2.162  1.00  0.00     0.125 C 
HETATM   34  C34 UNL     1      -2.185   0.059  -1.009  1.00  0.00     0.113 A 
HETATM   35  C35 UNL     1      -0.800  -0.878  -1.702  1.00  0.00    -0.025 C 
HETATM   36  C36 UNL     1      -0.551  -0.755  -3.021  1.00  0.00    -0.032 C 
HETATM   37  C37 UNL     1       0.549  -1.415  -3.807  1.00  0.00     0.030 C 
HETATM   38  C38 UNL     1       0.140  -1.802  -0.683  1.00  0.00     0.057 C 
HETATM   39  C39 UNL     1      -0.615  -3.115  -0.876  1.00  0.00     0.031 C 
HETATM   40  C40 UNL     1       0.311  -1.552   0.969  1.00  0.00     0.164 C 
ENDROOT
BRANCH  40  41
HETATM   41  O4  UNL     1       0.431  -2.838   1.547  1.00  0.00    -0.298 OA
BRANCH  41  42
HETATM   42  C41 UNL     1       1.444  -3.696   1.274  1.00  0.00     0.273 C 
HETATM   43  O5  UNL     1       2.351  -3.524   0.493  1.00  0.00    -0.264 OA
HETATM   44  C42 UNL     1       1.266  -4.958   2.097  1.00  0.00     0.106 C 
ENDBRANCH  41  42
ENDBRANCH  40  41
BRANCH  40  45
HETATM   45  C43 UNL     1       1.685  -0.948   1.409  1.00  0.00     0.215 C 
HETATM   46  O6  UNL     1       1.699   0.428   1.733  1.00  0.00    -0.218 OA
ENDBRANCH  40  45
BRANCH   2  47
HETATM   47  O7  UNL     1      -4.382  -1.718   0.226  1.00  0.00    -0.332 OA
HETATM   48  C44 UNL     1      -5.727  -1.392  -0.028  1.00  0.00     0.181 C 
ENDBRANCH   2  47
BRANCH  10  49
HETATM   49  O2  UNL     1       2.816   1.395  -1.191  1.00  0.00    -0.299 OA
BRANCH  49  50
HETATM   50  C20 UNL     1       3.810   0.810  -0.495  1.00  0.00     0.273 C 
HETATM   51  C21 UNL     1       4.489  -0.229  -1.369  1.00  0.00     0.106 C 
HETATM   52  O3  UNL     1       4.133   1.024   0.648  1.00  0.00    -0.264 OA
ENDBRANCH  49  50
ENDBRANCH  10  49
BRANCH  19  53
HETATM   53  C18 UNL     1       3.300   4.457  -3.936  1.00  0.00     0.153 C 
HETATM   54  C19 UNL     1       4.632   4.719  -4.619  1.00  0.00     0.072 C 
HETATM   55  O1  UNL     1       2.260   4.735  -4.490  1.00  0.00    -0.296 OA
ENDBRANCH  19  53
TORSDOF 7
