REMARK  7 active torsions:
REMARK  status: ('A' for Active; 'I' for Inactive)
REMARK    1  A    between atoms: C9_10  and  C22_26 
REMARK    2  A    between atoms: C16_18  and  C17_19 
REMARK    3  A    between atoms: C17_19  and  O2_21 
REMARK    4  A    between atoms: C23_27  and  O5_51 
REMARK    5  A    between atoms: C33_39  and  C41_47 
REMARK    6  A    between atoms: C38_44  and  C39_45 
REMARK    7  A    between atoms: C41_47  and  O4_49 
ROOT
HETATM    1  C22 UNL     1       0.463   1.293  -1.811  1.00  0.00     0.023 A 
HETATM    2  C23 UNL     1       0.766   1.804  -3.033  1.00  0.00     0.092 A 
HETATM    3  C24 UNL     1       1.309   0.986  -3.960  1.00  0.00     0.024 A 
HETATM    4  C25 UNL     1       1.486  -0.331  -3.776  1.00  0.00     0.003 A 
HETATM    5  C26 UNL     1       1.115  -0.843  -2.599  1.00  0.00     0.015 A 
HETATM    6  C27 UNL     1       0.604  -0.035  -1.661  1.00  0.00     0.079 A 
HETATM    7  N3  UNL     1       0.344  -0.786  -0.675  1.00  0.00    -0.250 NA
HETATM    8  C28 UNL     1       0.648  -2.005  -0.864  1.00  0.00     0.065 A 
HETATM    9  C29 UNL     1       1.177  -2.094  -2.110  1.00  0.00    -0.005 A 
HETATM   10  C30 UNL     1       1.756  -3.306  -2.841  1.00  0.00     0.051 C 
HETATM   11  C31 UNL     1       2.740  -4.169  -2.003  1.00  0.00     0.102 C 
HETATM   12  N4  UNL     1       2.305  -4.037  -0.645  1.00  0.00    -0.369 N 
HETATM   13  C32 UNL     1       0.952  -4.449  -0.367  1.00  0.00     0.091 C 
HETATM   14  C33 UNL     1       0.485  -3.090   0.202  1.00  0.00     0.131 C 
HETATM   15  C34 UNL     1       1.556  -2.741   1.316  1.00  0.00     0.019 C 
HETATM   16  C35 UNL     1       2.317  -4.044   1.848  1.00  0.00     0.023 C 
HETATM   17  C36 UNL     1       3.145  -4.260   0.498  1.00  0.00     0.097 C 
HETATM   18  C37 UNL     1       1.799  -5.541   1.774  1.00  0.00     0.004 C 
HETATM   19  C38 UNL     1       0.875  -5.697   0.541  1.00  0.00     0.021 C 
ENDROOT
BRANCH   1  20
HETATM   20  C9  UNL     1      -0.018   2.186  -0.653  1.00  0.00     0.066 C 
HETATM   21  C8  UNL     1      -1.516   2.028  -0.466  1.00  0.00     0.059 A 
HETATM   22  C7  UNL     1      -2.435   2.925  -0.028  1.00  0.00    -0.002 A 
HETATM   23  N1  UNL     1      -2.157   0.963  -0.741  1.00  0.00    -0.250 NA
HETATM   24  C5  UNL     1      -3.622   2.297  -0.068  1.00  0.00     0.015 A 
HETATM   25  C15 UNL     1      -2.236   4.348   0.466  1.00  0.00     0.065 C 
HETATM   26  C4  UNL     1      -3.398   1.059  -0.520  1.00  0.00     0.081 A 
HETATM   27  C6  UNL     1      -4.865   2.683   0.248  1.00  0.00     0.001 A 
HETATM   28  C3  UNL     1      -4.380   0.164  -0.673  1.00  0.00     0.019 A 
HETATM   29  C2  UNL     1      -5.626   0.550  -0.351  1.00  0.00     0.002 A 
HETATM   30  C1  UNL     1      -5.864   1.794   0.103  1.00  0.00     0.000 A 
HETATM   31  C14 UNL     1      -0.910   4.427   1.223  1.00  0.00     0.020 C 
HETATM   32  N2  UNL     1      -0.385   5.645   1.799  1.00  0.00    -0.251 NA
HETATM   33  C16 UNL     1      -0.691   3.317   2.275  1.00  0.00     0.051 C 
HETATM   34  C13 UNL     1       1.080   5.508   1.906  1.00  0.00     0.099 C 
HETATM   35  C19 UNL     1      -0.746   6.845   1.064  1.00  0.00     0.094 C 
HETATM   36  C12 UNL     1       1.626   4.072   2.022  1.00  0.00    -0.028 C 
HETATM   37  C11 UNL     1       0.716   2.833   1.927  1.00  0.00     0.048 C 
HETATM   38  C20 UNL     1       2.948   3.862   2.187  1.00  0.00    -0.033 C 
HETATM   39  C10 UNL     1       0.898   2.038   0.598  1.00  0.00     0.019 C 
HETATM   40  C21 UNL     1       4.030   4.906   2.273  1.00  0.00     0.030 C 
BRANCH  33  41
HETATM   41  C17 UNL     1      -1.888   2.497   2.772  1.00  0.00     0.293 C 
HETATM   42  O1  UNL     1      -2.967   3.039   2.895  1.00  0.00    -0.259 OA
BRANCH  41  43
HETATM   43  O2  UNL     1      -1.657   1.302   3.385  1.00  0.00    -0.296 OA
HETATM   44  C18 UNL     1      -0.948   0.280   2.737  1.00  0.00     0.185 C 
ENDBRANCH  41  43
ENDBRANCH  33  41
ENDBRANCH   1  20
BRANCH   2  45
HETATM   45  O5  UNL     1       0.695   3.147  -3.315  1.00  0.00    -0.328 OA
HETATM   46  C43 UNL     1      -0.556   3.550  -3.827  1.00  0.00     0.181 C 
ENDBRANCH   2  45
BRANCH  14  47
HETATM   47  C41 UNL     1      -0.925  -3.181   0.803  1.00  0.00     0.278 C 
HETATM   48  O3  UNL     1      -1.073  -3.270   2.004  1.00  0.00    -0.264 OA
BRANCH  47  49
HETATM   49  O4  UNL     1      -2.017  -3.203  -0.017  1.00  0.00    -0.299 OA
HETATM   50  C42 UNL     1      -1.999  -3.004  -1.407  1.00  0.00     0.184 C 
ENDBRANCH  47  49
ENDBRANCH  14  47
BRANCH  19  51
HETATM   51  C39 UNL     1       1.194  -7.019  -0.189  1.00  0.00     0.002 C 
HETATM   52  C40 UNL     1       0.241  -7.364  -1.341  1.00  0.00     0.000 C 
ENDBRANCH  19  51
TORSDOF 7
