REMARK  3 active torsions:
REMARK  status: ('A' for Active; 'I' for Inactive)
REMARK    1  A    between atoms: C18_19  and  O3_23 
REMARK    2  A    between atoms: O3_23  and  C21_24 
REMARK    3  A    between atoms: C22_26  and  C26_33 
ROOT
HETATM    1  C1  UNL     1       0.710   2.099  -5.214  1.00  0.00     0.188 C 
HETATM    2  O1  UNL     1       1.039   0.824  -4.715  1.00  0.00    -0.337 OA
HETATM    3  C2  UNL     1       0.062   0.385  -3.816  1.00  0.00     0.118 C 
HETATM    4  C3  UNL     1      -1.216   1.198  -4.002  1.00  0.00     0.032 C 
HETATM    5  C4  UNL     1      -0.805   2.254  -5.045  1.00  0.00     0.054 C 
HETATM    6  C5  UNL     1      -1.640   2.041  -6.326  1.00  0.00     0.005 C 
HETATM    7  C6  UNL     1      -1.676   1.648  -2.588  1.00  0.00     0.003 C 
HETATM    8  C7  UNL     1      -0.361   1.721  -1.794  1.00  0.00     0.003 C 
HETATM    9  C8  UNL     1       0.494   0.570  -2.358  1.00  0.00     0.030 C 
HETATM   10  C9  UNL     1      -0.516   1.759  -0.260  1.00  0.00     0.000 C 
HETATM   11  C10 UNL     1      -1.423   0.640   0.291  1.00  0.00     0.002 C 
HETATM   12  C11 UNL     1      -2.772   0.676  -0.455  1.00  0.00     0.000 C 
HETATM   13  C12 UNL     1      -2.579   0.549  -1.975  1.00  0.00     0.000 C 
HETATM   14  C13 UNL     1      -1.548   0.621   1.847  1.00  0.00     0.028 C 
HETATM   15  C14 UNL     1      -0.122   0.654   2.471  1.00  0.00     0.005 C 
HETATM   16  C15 UNL     1       0.752   1.802   1.932  1.00  0.00     0.000 C 
HETATM   17  C16 UNL     1       0.868   1.768   0.408  1.00  0.00     0.000 C 
HETATM   18  C17 UNL     1       0.606  -0.701   2.364  1.00  0.00     0.030 C 
HETATM   19  C18 UNL     1      -0.185  -1.871   2.964  1.00  0.00     0.120 C 
HETATM   20  C19 UNL     1      -1.565  -1.418   3.444  1.00  0.00     0.063 C 
HETATM   21  C20 UNL     1      -2.264  -0.683   2.301  1.00  0.00     0.154 C 
HETATM   22  O2  UNL     1      -3.604  -0.455   2.672  1.00  0.00    -0.223 OA
HETATM   23  C27 UNL     1      -2.323   1.859   2.367  1.00  0.00     0.003 C 
HETATM   24  C28 UNL     1      -2.440   2.987  -2.589  1.00  0.00     0.000 C 
HETATM   25  C29 UNL     1       1.561   3.140  -4.473  1.00  0.00     0.061 C 
HETATM   26  C30 UNL     1       2.937   3.323  -5.125  1.00  0.00     0.029 C 
HETATM   27  C31 UNL     1       2.685   3.813  -6.524  1.00  0.00    -0.015 C 
HETATM   28  C32 UNL     1       1.429   3.263  -7.144  1.00  0.00     0.167 C 
HETATM   29  O9  UNL     1       1.072   2.016  -6.579  1.00  0.00    -0.330 OA
HETATM   30  C33 UNL     1       3.491   4.681  -7.153  1.00  0.00    -0.007 C 
ENDROOT
BRANCH  19  31
HETATM   31  O3  UNL     1       0.514  -2.450   4.032  1.00  0.00    -0.332 OA
BRANCH  31  32
HETATM   32  C21 UNL     1       1.534  -3.334   3.619  1.00  0.00     0.270 C 
HETATM   33  O4  UNL     1       0.955  -4.611   3.438  1.00  0.00    -0.326 OA
HETATM   34  C22 UNL     1       0.560  -5.299   4.596  1.00  0.00     0.184 C 
HETATM   35  C23 UNL     1       1.640  -5.316   5.670  1.00  0.00     0.215 C 
HETATM   36  C24 UNL     1       2.259  -3.955   5.925  1.00  0.00     0.220 C 
HETATM   37  O7  UNL     1       2.665  -6.204   5.273  1.00  0.00    -0.218 OA
HETATM   38  C25 UNL     1       2.677  -3.336   4.608  1.00  0.00     0.241 C 
HETATM   39  O6  UNL     1       1.347  -3.096   6.572  1.00  0.00    -0.218 OA
HETATM   40  O5  UNL     1       3.749  -4.072   4.065  1.00  0.00    -0.215 OA
BRANCH  34  41
HETATM   41  C26 UNL     1      -0.824  -4.880   5.084  1.00  0.00     0.214 C 
HETATM   42  O8  UNL     1      -1.343  -5.868   5.954  1.00  0.00    -0.218 OA
ENDBRANCH  34  41
ENDBRANCH  31  32
ENDBRANCH  19  31
TORSDOF 3
