REMARK  15 active torsions:
REMARK  status: ('A' for Active; 'I' for Inactive)
REMARK    1  A    between atoms: C3_3  and  C41_54 
REMARK    2  A    between atoms: C23_23  and  O2_28 
REMARK    3  A    between atoms: C24_24  and  C26_26 
REMARK    4  A    between atoms: O2_28  and  C27_29 
REMARK    5  A    between atoms: C28_31  and  C37_47 
REMARK    6  A    between atoms: C30_33  and  O5_36 
REMARK    7  A    between atoms: O5_36  and  C32_37 
REMARK    8  A    between atoms: C41_54  and  O15_56 
REMARK    9  A    between atoms: O15_56  and  C42_57 
REMARK   10  A    between atoms: C46_62  and  O17_63 
REMARK   11  A    between atoms: O17_63  and  C47_64 
REMARK   12  A    between atoms: C49_67  and  O21_72 
REMARK   13  A    between atoms: O21_72  and  C52_73 
REMARK   14  A    between atoms: C55_77  and  O24_80 
REMARK   15  A    between atoms: O24_80  and  C57_81 
ROOT
HETATM    1  C1  UNL     1       2.630   5.187  -4.228  1.00  0.00     0.005 C 
HETATM    2  C2  UNL     1       2.266   4.374  -2.967  1.00  0.00     0.029 C 
HETATM    3  C3  UNL     1       3.444   3.596  -2.337  1.00  0.00     0.110 C 
HETATM    4  C4  UNL     1       4.709   4.480  -2.258  1.00  0.00     0.012 C 
HETATM    5  C5  UNL     1       5.051   5.249  -3.540  1.00  0.00     0.001 C 
HETATM    6  C6  UNL     1       3.877   6.084  -4.083  1.00  0.00     0.000 C 
HETATM    7  C7  UNL     1       4.264   6.638  -5.474  1.00  0.00     0.000 C 
HETATM    8  C8  UNL     1       3.585   7.290  -3.165  1.00  0.00     0.000 C 
HETATM    9  C9  UNL     1       3.685   2.282  -3.102  1.00  0.00     0.162 C 
HETATM   10  C10 UNL     1       2.438   1.404  -3.061  1.00  0.00     0.037 C 
HETATM   11  C11 UNL     1       1.098   2.037  -3.522  1.00  0.00     0.017 C 
HETATM   12  C12 UNL     1       1.023   3.527  -3.210  1.00  0.00    -0.049 C 
HETATM   13  C13 UNL     1      -0.158   4.149  -3.367  1.00  0.00    -0.035 C 
HETATM   14  C14 UNL     1      -1.420   3.416  -3.736  1.00  0.00     0.025 C 
HETATM   15  C15 UNL     1      -1.504   2.100  -2.941  1.00  0.00     0.005 C 
HETATM   16  C16 UNL     1      -0.146   1.312  -2.843  1.00  0.00     0.004 C 
HETATM   17  C17 UNL     1      -0.261  -0.114  -3.420  1.00  0.00     0.000 C 
HETATM   18  C18 UNL     1      -1.478  -0.857  -2.890  1.00  0.00     0.000 C 
HETATM   19  C19 UNL     1      -2.761  -0.187  -3.397  1.00  0.00     0.005 C 
HETATM   20  C20 UNL     1      -2.875   1.313  -2.988  1.00  0.00     0.003 C 
HETATM   21  C21 UNL     1      -3.958   1.991  -3.877  1.00  0.00     0.035 C 
HETATM   22  C22 UNL     1      -5.122   1.106  -4.340  1.00  0.00     0.179 C 
HETATM   23  C23 UNL     1      -4.784  -0.312  -4.838  1.00  0.00     0.150 C 
HETATM   24  C24 UNL     1      -3.236  -0.536  -4.844  1.00  0.00     0.058 C 
HETATM   25  C25 UNL     1      -2.899  -2.002  -5.219  1.00  0.00     0.005 C 
HETATM   26  O12 UNL     1      -6.084   1.040  -3.313  1.00  0.00    -0.221 OA
HETATM   27  C38 UNL     1      -3.468   1.373  -1.543  1.00  0.00     0.000 C 
HETATM   28  C39 UNL     1       0.112   1.137  -1.310  1.00  0.00     0.000 C 
HETATM   29  C40 UNL     1       1.095   1.909  -5.070  1.00  0.00     0.004 C 
HETATM   30  O13 UNL     1       4.081   2.469  -4.437  1.00  0.00    -0.223 OA
ENDROOT
BRANCH   3  31
HETATM   31  C41 UNL     1       3.106   3.269  -0.862  1.00  0.00     0.276 C 
HETATM   32  O14 UNL     1       2.211   3.763  -0.215  1.00  0.00    -0.264 OA
BRANCH  31  33
HETATM   33  O15 UNL     1       3.974   2.353  -0.354  1.00  0.00    -0.273 OA
BRANCH  33  34
HETATM   34  C42 UNL     1       3.884   1.971   1.001  1.00  0.00     0.273 C 
HETATM   35  O16 UNL     1       5.223   1.794   1.420  1.00  0.00    -0.326 OA
HETATM   36  C43 UNL     1       5.878   0.741   0.757  1.00  0.00     0.181 C 
HETATM   37  C44 UNL     1       5.190  -0.576   1.042  1.00  0.00     0.214 C 
HETATM   38  C45 UNL     1       3.721  -0.547   0.685  1.00  0.00     0.217 C 
HETATM   39  O31 UNL     1       5.814  -1.610   0.316  1.00  0.00    -0.218 OA
HETATM   40  C46 UNL     1       3.044   0.718   1.207  1.00  0.00     0.207 C 
HETATM   41  O30 UNL     1       3.622  -0.621  -0.716  1.00  0.00    -0.218 OA
BRANCH  40  42
HETATM   42  O17 UNL     1       2.762   0.530   2.572  1.00  0.00    -0.324 OA
BRANCH  42  43
HETATM   43  C47 UNL     1       1.654   1.266   3.061  1.00  0.00     0.270 C 
HETATM   44  O18 UNL     1       2.069   1.943   4.225  1.00  0.00    -0.329 OA
HETATM   45  C48 UNL     1       2.444   1.101   5.280  1.00  0.00     0.148 C 
HETATM   46  C49 UNL     1       1.334   0.127   5.700  1.00  0.00     0.178 C 
HETATM   47  C63 UNL     1       2.881   1.994   6.445  1.00  0.00     0.035 C 
HETATM   48  C50 UNL     1       0.767  -0.599   4.478  1.00  0.00     0.217 C 
HETATM   49  C51 UNL     1       0.478   0.362   3.343  1.00  0.00     0.241 C 
HETATM   50  O20 UNL     1      -0.447  -1.245   4.780  1.00  0.00    -0.218 OA
HETATM   51  O19 UNL     1      -0.645   1.128   3.713  1.00  0.00    -0.215 OA
BRANCH  46  52
HETATM   52  O21 UNL     1       1.933  -0.774   6.597  1.00  0.00    -0.326 OA
BRANCH  52  53
HETATM   53  C52 UNL     1       1.074  -1.585   7.367  1.00  0.00     0.270 C 
HETATM   54  O22 UNL     1       1.281  -1.258   8.726  1.00  0.00    -0.326 OA
HETATM   55  C53 UNL     1       2.531  -1.651   9.231  1.00  0.00     0.180 C 
HETATM   56  C54 UNL     1       2.736  -3.149   9.095  1.00  0.00     0.211 C 
HETATM   57  C55 UNL     1       2.638  -3.578   7.637  1.00  0.00     0.186 C 
HETATM   58  O29 UNL     1       1.776  -3.831   9.869  1.00  0.00    -0.218 OA
HETATM   59  C56 UNL     1       1.314  -3.056   7.082  1.00  0.00     0.238 C 
HETATM   60  O23 UNL     1       0.257  -3.790   7.657  1.00  0.00    -0.215 OA
BRANCH  57  61
HETATM   61  O24 UNL     1       3.736  -3.012   6.979  1.00  0.00    -0.326 OA
BRANCH  61  62
HETATM   62  C57 UNL     1       4.022  -3.514   5.693  1.00  0.00     0.270 C 
HETATM   63  O25 UNL     1       5.113  -4.406   5.797  1.00  0.00    -0.329 OA
HETATM   64  C58 UNL     1       6.319  -3.831   6.236  1.00  0.00     0.151 C 
HETATM   65  C59 UNL     1       6.728  -2.658   5.356  1.00  0.00     0.212 C 
HETATM   66  C62 UNL     1       7.388  -4.926   6.222  1.00  0.00     0.035 C 
HETATM   67  C60 UNL     1       5.599  -1.659   5.248  1.00  0.00     0.220 C 
HETATM   68  O28 UNL     1       7.839  -1.983   5.893  1.00  0.00    -0.218 OA
HETATM   69  C61 UNL     1       4.357  -2.373   4.760  1.00  0.00     0.241 C 
HETATM   70  O27 UNL     1       5.992  -0.624   4.384  1.00  0.00    -0.218 OA
HETATM   71  O26 UNL     1       4.517  -2.884   3.460  1.00  0.00    -0.215 OA
ENDBRANCH  61  62
ENDBRANCH  57  61
ENDBRANCH  52  53
ENDBRANCH  46  52
ENDBRANCH  42  43
ENDBRANCH  40  42
ENDBRANCH  33  34
ENDBRANCH  31  33
ENDBRANCH   3  31
BRANCH  24  72
HETATM   72  C26 UNL     1      -2.501   0.286  -5.931  1.00  0.00     0.185 C 
HETATM   73  O1  UNL     1      -3.356   0.636  -6.998  1.00  0.00    -0.221 OA
ENDBRANCH  24  72
BRANCH  23  74
HETATM   74  O2  UNL     1      -5.476  -1.239  -4.017  1.00  0.00    -0.329 OA
BRANCH  74  75
HETATM   75  C27 UNL     1      -5.950  -2.421  -4.631  1.00  0.00     0.270 C 
HETATM   76  O3  UNL     1      -7.259  -2.211  -5.116  1.00  0.00    -0.326 OA
HETATM   77  C28 UNL     1      -8.320  -2.285  -4.202  1.00  0.00     0.184 C 
HETATM   78  C29 UNL     1      -8.240  -3.490  -3.275  1.00  0.00     0.211 C 
HETATM   79  C30 UNL     1      -6.881  -3.665  -2.615  1.00  0.00     0.186 C 
HETATM   80  O10 UNL     1      -8.551  -4.660  -4.002  1.00  0.00    -0.218 OA
HETATM   81  C31 UNL     1      -5.829  -3.623  -3.711  1.00  0.00     0.238 C 
HETATM   82  O4  UNL     1      -5.940  -4.791  -4.492  1.00  0.00    -0.215 OA
BRANCH  77  83
HETATM   83  C37 UNL     1      -8.578  -0.982  -3.461  1.00  0.00     0.214 C 
HETATM   84  O11 UNL     1      -8.561   0.119  -4.347  1.00  0.00    -0.218 OA
ENDBRANCH  77  83
BRANCH  79  85
HETATM   85  O5  UNL     1      -6.671  -2.628  -1.699  1.00  0.00    -0.326 OA
BRANCH  85  86
HETATM   86  C32 UNL     1      -5.788  -2.925  -0.639  1.00  0.00     0.270 C 
HETATM   87  O6  UNL     1      -6.549  -3.450   0.427  1.00  0.00    -0.326 OA
HETATM   88  C33 UNL     1      -7.445  -2.530   1.005  1.00  0.00     0.181 C 
HETATM   89  C34 UNL     1      -6.742  -1.283   1.517  1.00  0.00     0.215 C 
HETATM   90  C35 UNL     1      -5.915  -0.632   0.424  1.00  0.00     0.220 C 
HETATM   91  O9  UNL     1      -5.890  -1.633   2.584  1.00  0.00    -0.218 OA
HETATM   92  C36 UNL     1      -5.034  -1.688  -0.212  1.00  0.00     0.241 C 
HETATM   93  O8  UNL     1      -6.775  -0.063  -0.536  1.00  0.00    -0.218 OA
HETATM   94  O7  UNL     1      -4.024  -2.053   0.703  1.00  0.00    -0.215 OA
ENDBRANCH  85  86
ENDBRANCH  79  85
ENDBRANCH  74  75
ENDBRANCH  23  74
TORSDOF 15
