REMARK  16 active torsions:
REMARK  status: ('A' for Active; 'I' for Inactive)
REMARK    1  A    between atoms: C3_3  and  C41_53 
REMARK    2  A    between atoms: C23_23  and  O2_28 
REMARK    3  A    between atoms: C24_24  and  C26_26 
REMARK    4  A    between atoms: O2_28  and  C27_29 
REMARK    5  A    between atoms: C28_31  and  C37_47 
REMARK    6  A    between atoms: C30_33  and  O5_36 
REMARK    7  A    between atoms: O5_36  and  C32_37 
REMARK    8  A    between atoms: C41_53  and  O14_55 
REMARK    9  A    between atoms: O14_55  and  C42_56 
REMARK   10  A    between atoms: C46_61  and  O16_62 
REMARK   11  A    between atoms: O16_62  and  C47_63 
REMARK   12  A    between atoms: C49_66  and  O20_71 
REMARK   13  A    between atoms: O20_71  and  C52_72 
REMARK   14  A    between atoms: C55_76  and  O23_79 
REMARK   15  A    between atoms: O23_79  and  C57_80 
REMARK   16  A    between atoms: C59_83  and  C61_87 
ROOT
HETATM    1  C1  UNL     1      -0.604   5.984   4.082  1.00  0.00     0.004 C 
HETATM    2  C2  UNL     1      -0.735   5.417   2.654  1.00  0.00     0.027 C 
HETATM    3  C3  UNL     1      -1.439   6.360   1.660  1.00  0.00     0.082 C 
HETATM    4  C4  UNL     1      -0.912   7.807   1.796  1.00  0.00     0.010 C 
HETATM    5  C5  UNL     1      -0.808   8.321   3.236  1.00  0.00     0.001 C 
HETATM    6  C6  UNL     1       0.020   7.393   4.144  1.00  0.00     0.000 C 
HETATM    7  C7  UNL     1      -0.056   7.919   5.595  1.00  0.00     0.000 C 
HETATM    8  C8  UNL     1       1.508   7.377   3.735  1.00  0.00     0.000 C 
HETATM    9  C9  UNL     1      -2.950   6.267   1.946  1.00  0.00     0.010 C 
HETATM   10  C10 UNL     1      -3.457   4.842   1.672  1.00  0.00     0.004 C 
HETATM   11  C11 UNL     1      -2.784   3.687   2.474  1.00  0.00     0.015 C 
HETATM   12  C12 UNL     1      -1.297   4.000   2.650  1.00  0.00    -0.049 C 
HETATM   13  C13 UNL     1      -0.469   3.014   3.019  1.00  0.00    -0.035 C 
HETATM   14  C14 UNL     1      -0.910   1.584   3.079  1.00  0.00     0.025 C 
HETATM   15  C15 UNL     1      -1.790   1.274   1.855  1.00  0.00     0.005 C 
HETATM   16  C16 UNL     1      -3.038   2.226   1.831  1.00  0.00     0.004 C 
HETATM   17  C17 UNL     1      -4.170   1.464   2.557  1.00  0.00     0.000 C 
HETATM   18  C18 UNL     1      -4.451   0.042   2.063  1.00  0.00     0.000 C 
HETATM   19  C19 UNL     1      -3.248  -0.926   2.089  1.00  0.00     0.005 C 
HETATM   20  C20 UNL     1      -1.960  -0.266   1.513  1.00  0.00     0.003 C 
HETATM   21  C21 UNL     1      -0.739  -1.130   1.945  1.00  0.00     0.035 C 
HETATM   22  C22 UNL     1      -0.935  -2.646   2.040  1.00  0.00     0.179 C 
HETATM   23  C23 UNL     1      -2.199  -3.137   2.775  1.00  0.00     0.150 C 
HETATM   24  C24 UNL     1      -3.106  -1.953   3.267  1.00  0.00     0.058 C 
HETATM   25  C25 UNL     1      -4.503  -2.492   3.685  1.00  0.00     0.005 C 
HETATM   26  O12 UNL     1      -0.828  -3.204   0.747  1.00  0.00    -0.221 OA
HETATM   27  C38 UNL     1      -1.987  -0.393  -0.047  1.00  0.00     0.000 C 
HETATM   28  C39 UNL     1      -3.498   2.398   0.356  1.00  0.00     0.000 C 
HETATM   29  C40 UNL     1      -3.370   3.794   3.910  1.00  0.00     0.004 C 
ENDROOT
BRANCH   3  30
HETATM   30  C41 UNL     1      -1.207   6.013   0.174  1.00  0.00     0.273 C 
HETATM   31  O13 UNL     1      -1.588   6.726  -0.730  1.00  0.00    -0.264 OA
BRANCH  30  32
HETATM   32  O14 UNL     1      -0.491   4.872  -0.019  1.00  0.00    -0.273 OA
BRANCH  32  33
HETATM   33  C42 UNL     1       0.853   4.932  -0.452  1.00  0.00     0.273 C 
HETATM   34  O15 UNL     1       1.064   6.067  -1.283  1.00  0.00    -0.326 OA
HETATM   35  C43 UNL     1       0.825   5.906  -2.662  1.00  0.00     0.181 C 
HETATM   36  C44 UNL     1       1.854   4.947  -3.292  1.00  0.00     0.214 C 
HETATM   37  C45 UNL     1       2.061   3.694  -2.358  1.00  0.00     0.217 C 
HETATM   38  O30 UNL     1       1.429   4.543  -4.580  1.00  0.00    -0.218 OA
HETATM   39  C46 UNL     1       1.285   3.544  -0.988  1.00  0.00     0.207 C 
HETATM   40  O29 UNL     1       3.129   4.374  -1.689  1.00  0.00    -0.218 OA
BRANCH  39  41
HETATM   41  O16 UNL     1       2.104   2.876  -0.053  1.00  0.00    -0.324 OA
BRANCH  41  42
HETATM   42  C47 UNL     1       1.839   1.497   0.121  1.00  0.00     0.270 C 
HETATM   43  O17 UNL     1       2.799   1.059   1.064  1.00  0.00    -0.329 OA
HETATM   44  C48 UNL     1       4.120   1.015   0.589  1.00  0.00     0.148 C 
HETATM   45  C49 UNL     1       4.232   0.076  -0.611  1.00  0.00     0.178 C 
HETATM   46  C62 UNL     1       5.009   0.590   1.759  1.00  0.00     0.035 C 
HETATM   47  C50 UNL     1       3.277   0.582  -1.679  1.00  0.00     0.217 C 
HETATM   48  C51 UNL     1       1.870   0.687  -1.153  1.00  0.00     0.241 C 
HETATM   49  O19 UNL     1       3.228  -0.338  -2.728  1.00  0.00    -0.218 OA
HETATM   50  O18 UNL     1       1.397  -0.625  -0.945  1.00  0.00    -0.215 OA
BRANCH  45  51
HETATM   51  O20 UNL     1       5.512   0.099  -1.182  1.00  0.00    -0.326 OA
BRANCH  51  52
HETATM   52  C52 UNL     1       6.309  -1.041  -0.937  1.00  0.00     0.270 C 
HETATM   53  O21 UNL     1       7.641  -0.606  -1.109  1.00  0.00    -0.326 OA
HETATM   54  C53 UNL     1       7.943  -0.262  -2.438  1.00  0.00     0.180 C 
HETATM   55  C54 UNL     1       7.782  -1.459  -3.355  1.00  0.00     0.211 C 
HETATM   56  C55 UNL     1       6.381  -2.049  -3.291  1.00  0.00     0.186 C 
HETATM   57  O28 UNL     1       8.713  -2.447  -2.971  1.00  0.00    -0.218 OA
HETATM   58  C56 UNL     1       5.992  -2.231  -1.824  1.00  0.00     0.238 C 
HETATM   59  O22 UNL     1       6.698  -3.345  -1.326  1.00  0.00    -0.215 OA
BRANCH  56  60
HETATM   60  O23 UNL     1       5.469  -1.194  -3.924  1.00  0.00    -0.326 OA
BRANCH  60  61
HETATM   61  C57 UNL     1       4.737  -1.778  -4.986  1.00  0.00     0.270 C 
HETATM   62  O24 UNL     1       3.937  -0.713  -5.466  1.00  0.00    -0.326 OA
HETATM   63  C58 UNL     1       2.594  -1.128  -5.573  1.00  0.00     0.181 C 
HETATM   64  C59 UNL     1       2.539  -2.623  -5.325  1.00  0.00     0.217 C 
HETATM   65  C60 UNL     1       3.805  -2.880  -4.536  1.00  0.00     0.241 C 
HETATM   66  O26 UNL     1       2.682  -3.271  -6.564  1.00  0.00    -0.218 OA
HETATM   67  O25 UNL     1       4.302  -4.155  -4.858  1.00  0.00    -0.215 OA
BRANCH  64  68
HETATM   68  C61 UNL     1       1.263  -3.125  -4.663  1.00  0.00     0.218 C 
HETATM   69  O27 UNL     1       1.089  -2.591  -3.362  1.00  0.00    -0.218 OA
ENDBRANCH  64  68
ENDBRANCH  60  61
ENDBRANCH  56  60
ENDBRANCH  51  52
ENDBRANCH  45  51
ENDBRANCH  41  42
ENDBRANCH  39  41
ENDBRANCH  32  33
ENDBRANCH  30  32
ENDBRANCH   3  30
BRANCH  24  70
HETATM   70  C26 UNL     1      -2.513  -1.417   4.593  1.00  0.00     0.185 C 
HETATM   71  O1  UNL     1      -3.291  -0.389   5.165  1.00  0.00    -0.221 OA
ENDBRANCH  24  70
BRANCH  23  72
HETATM   72  O2  UNL     1      -2.852  -4.029   1.899  1.00  0.00    -0.329 OA
BRANCH  72  73
HETATM   73  C27 UNL     1      -3.446  -5.186   2.447  1.00  0.00     0.270 C 
HETATM   74  O3  UNL     1      -2.469  -6.168   2.718  1.00  0.00    -0.326 OA
HETATM   75  C28 UNL     1      -1.998  -6.953   1.655  1.00  0.00     0.184 C 
HETATM   76  C29 UNL     1      -3.091  -7.445   0.717  1.00  0.00     0.211 C 
HETATM   77  C30 UNL     1      -4.055  -6.350   0.288  1.00  0.00     0.186 C 
HETATM   78  O10 UNL     1      -3.813  -8.486   1.340  1.00  0.00    -0.218 OA
HETATM   79  C31 UNL     1      -4.567  -5.671   1.550  1.00  0.00     0.238 C 
HETATM   80  O4  UNL     1      -5.368  -6.574   2.277  1.00  0.00    -0.215 OA
BRANCH  75  81
HETATM   81  C37 UNL     1      -0.809  -6.311   0.954  1.00  0.00     0.214 C 
HETATM   82  O11 UNL     1      -0.088  -7.282   0.222  1.00  0.00    -0.218 OA
ENDBRANCH  75  81
BRANCH  77  83
HETATM   83  O5  UNL     1      -3.373  -5.438  -0.529  1.00  0.00    -0.326 OA
BRANCH  83  84
HETATM   84  C32 UNL     1      -4.190  -4.682  -1.394  1.00  0.00     0.270 C 
HETATM   85  O6  UNL     1      -4.358  -5.412  -2.588  1.00  0.00    -0.326 OA
HETATM   86  C33 UNL     1      -3.183  -5.543  -3.350  1.00  0.00     0.181 C 
HETATM   87  C34 UNL     1      -2.628  -4.191  -3.766  1.00  0.00     0.215 C 
HETATM   88  C35 UNL     1      -2.368  -3.315  -2.554  1.00  0.00     0.220 C 
HETATM   89  O9  UNL     1      -3.552  -3.548  -4.613  1.00  0.00    -0.218 OA
HETATM   90  C36 UNL     1      -3.592  -3.317  -1.655  1.00  0.00     0.241 C 
HETATM   91  O8  UNL     1      -1.236  -3.794  -1.867  1.00  0.00    -0.218 OA
HETATM   92  O7  UNL     1      -4.585  -2.514  -2.255  1.00  0.00    -0.215 OA
ENDBRANCH  83  84
ENDBRANCH  77  83
ENDBRANCH  72  73
ENDBRANCH  23  72
TORSDOF 16
