REMARK  1 active torsions:
REMARK  status: ('A' for Active; 'I' for Inactive)
REMARK    1  A    between atoms: C3_3  and  C29_32 
ROOT
HETATM    1  C1  UNL     1       3.172   2.127  -1.282  1.00  0.00     0.007 C 
HETATM    2  C2  UNL     1       2.477   2.026   0.102  1.00  0.00     0.028 C 
HETATM    3  C3  UNL     1       3.396   1.498   1.220  1.00  0.00     0.092 C 
HETATM    4  C4  UNL     1       4.752   2.217   1.219  1.00  0.00     0.189 C 
HETATM    5  C5  UNL     1       5.408   2.337  -0.142  1.00  0.00     0.183 C 
HETATM    6  C6  UNL     1       4.481   2.949  -1.198  1.00  0.00     0.033 C 
HETATM    7  C7  UNL     1       5.220   3.039  -2.547  1.00  0.00     0.003 C 
HETATM    8  O1  UNL     1       6.543   3.154   0.035  1.00  0.00    -0.221 OA
HETATM    9  O2  UNL     1       4.603   3.529   1.714  1.00  0.00    -0.220 OA
HETATM   10  C8  UNL     1       3.571  -0.022   1.032  1.00  0.00     0.011 C 
HETATM   11  C9  UNL     1       2.231  -0.764   1.143  1.00  0.00     0.004 C 
HETATM   12  C10 UNL     1       1.091  -0.251   0.220  1.00  0.00     0.015 C 
HETATM   13  C11 UNL     1       1.146   1.274   0.097  1.00  0.00    -0.049 C 
HETATM   14  C12 UNL     1       0.022   1.981  -0.119  1.00  0.00    -0.035 C 
HETATM   15  C13 UNL     1      -1.368   1.425  -0.228  1.00  0.00     0.025 C 
HETATM   16  C14 UNL     1      -1.461  -0.110  -0.145  1.00  0.00     0.005 C 
HETATM   17  C15 UNL     1      -0.340  -0.696   0.766  1.00  0.00     0.004 C 
HETATM   18  C16 UNL     1      -0.473  -2.240   0.793  1.00  0.00     0.000 C 
HETATM   19  C17 UNL     1      -1.899  -2.775   1.002  1.00  0.00     0.000 C 
HETATM   20  C18 UNL     1      -2.876  -2.210  -0.046  1.00  0.00     0.002 C 
HETATM   21  C19 UNL     1      -2.928  -0.657   0.025  1.00  0.00     0.001 C 
HETATM   22  C20 UNL     1      -3.779  -0.215  -1.195  1.00  0.00     0.003 C 
HETATM   23  C21 UNL     1      -5.197  -0.808  -1.259  1.00  0.00     0.033 C 
HETATM   24  C22 UNL     1      -5.446  -2.055  -0.411  1.00  0.00     0.152 C 
HETATM   25  C23 UNL     1      -4.227  -2.978  -0.218  1.00  0.00     0.028 C 
HETATM   26  C24 UNL     1      -4.528  -3.958   0.942  1.00  0.00     0.003 C 
HETATM   27  C25 UNL     1      -4.135  -3.860  -1.495  1.00  0.00     0.003 C 
HETATM   28  O3  UNL     1      -6.005  -1.696   0.833  1.00  0.00    -0.224 OA
HETATM   29  C26 UNL     1      -3.622  -0.125   1.301  1.00  0.00     0.000 C 
HETATM   30  C27 UNL     1      -0.552  -0.207   2.223  1.00  0.00     0.000 C 
HETATM   31  C28 UNL     1       1.397  -0.805  -1.200  1.00  0.00     0.004 C 
HETATM   32  C30 UNL     1       2.214   2.672  -2.359  1.00  0.00     0.000 C 
ENDROOT
BRANCH   3  33
HETATM   33  C29 UNL     1       2.792   1.742   2.607  1.00  0.00     0.209 C 
HETATM   34  O4  UNL     1       1.726   2.278   2.797  1.00  0.00    -0.288 OA
ENDBRANCH   3  33
TORSDOF 1
