REMARK  1 active torsions:
REMARK  status: ('A' for Active; 'I' for Inactive)
REMARK    1  A    between atoms: C9_10  and  C12_15 
ROOT
HETATM    1  C1  UNL     1      -1.538   1.716   2.260  1.00  0.00     0.175 C 
HETATM    2  O1  UNL     1      -2.039   0.562   1.657  1.00  0.00    -0.351 OA
HETATM    3  C2  UNL     1      -1.340   0.355   0.459  1.00  0.00     0.148 C 
HETATM    4  C3  UNL     1       0.041   1.047   0.580  1.00  0.00     0.087 C 
HETATM    5  C4  UNL     1      -0.051   1.721   1.972  1.00  0.00     0.185 C 
HETATM    6  C5  UNL     1       0.850   0.903   2.883  1.00  0.00     0.175 A 
HETATM    7  C6  UNL     1       1.643   0.021   2.145  1.00  0.00     0.173 A 
HETATM    8  C7  UNL     1       1.214   0.031   0.673  1.00  0.00     0.167 C 
HETATM    9  C8  UNL     1       0.886  -1.402   0.196  1.00  0.00     0.119 C 
HETATM   10  C9  UNL     1      -0.267  -1.576  -0.801  1.00  0.00     0.042 C 
HETATM   11  C10 UNL     1      -1.366  -1.148   0.164  1.00  0.00     0.152 C 
HETATM   12  O2  UNL     1      -1.076  -1.876   1.329  1.00  0.00    -0.302 OA
HETATM   13  C11 UNL     1       0.244  -2.171   1.346  1.00  0.00     0.274 C 
HETATM   14  O3  UNL     1       0.805  -2.869   2.161  1.00  0.00    -0.264 OA
HETATM   15  O4  UNL     1       2.304   0.482  -0.106  1.00  0.00    -0.223 OA
HETATM   16  O5  UNL     1       2.287   1.352   2.563  1.00  0.00    -0.349 OA
HETATM   17  O6  UNL     1       0.373   3.069   1.990  1.00  0.00    -0.221 OA
HETATM   18  C15 UNL     1       0.244   2.155  -0.483  1.00  0.00     0.008 C 
ENDROOT
BRANCH  10  19
HETATM   19  C12 UNL     1      -0.246  -0.973  -2.211  1.00  0.00     0.003 C 
HETATM   20  C13 UNL     1       1.059  -1.308  -2.950  1.00  0.00     0.000 C 
HETATM   21  C14 UNL     1      -1.451  -1.462  -3.039  1.00  0.00     0.000 C 
ENDBRANCH  10  19
TORSDOF 1
