REMARK  5 active torsions:
REMARK  status: ('A' for Active; 'I' for Inactive)
REMARK    1  A    between atoms: C2_2  and  O5_25 
REMARK    2  A    between atoms: C7_7  and  C13_15 
REMARK    3  A    between atoms: C13_15  and  C14_16 
REMARK    4  A    between atoms: C14_16  and  C15_18 
REMARK    5  A    between atoms: O5_25  and  C21_26 
ROOT
HETATM    1  C1  UNL     1      -2.639  -0.034   0.616  1.00  0.00     0.031 C 
HETATM    2  C2  UNL     1      -2.992  -0.444  -0.831  1.00  0.00     0.134 C 
HETATM    3  C3  UNL     1      -1.808  -1.220  -1.407  1.00  0.00     0.116 C 
HETATM    4  C4  UNL     1      -0.563  -0.333  -1.338  1.00  0.00     0.037 C 
HETATM    5  C5  UNL     1      -0.125  -0.167   0.120  1.00  0.00     0.003 C 
HETATM    6  C6  UNL     1      -1.244   0.617   0.841  1.00  0.00     0.003 C 
HETATM    7  C7  UNL     1       1.409   0.130   0.286  1.00  0.00     0.007 C 
HETATM    8  C8  UNL     1       2.121   0.402  -1.089  1.00  0.00     0.003 C 
HETATM    9  C9  UNL     1       1.730  -0.555  -2.265  1.00  0.00     0.030 C 
HETATM   10  C10 UNL     1       0.396  -1.263  -2.048  1.00  0.00     0.125 C 
HETATM   11  O1  UNL     1      -0.329  -1.682  -3.171  1.00  0.00    -0.304 OA
HETATM   12  C11 UNL     1      -1.672  -1.665  -2.857  1.00  0.00     0.274 C 
HETATM   13  O2  UNL     1      -2.575  -1.959  -3.608  1.00  0.00    -0.264 OA
HETATM   14  C12 UNL     1       2.132   1.891  -1.509  1.00  0.00     0.000 C 
HETATM   15  C19 UNL     1       2.083  -1.152   0.869  1.00  0.00     0.000 C 
HETATM   16  C20 UNL     1      -0.827   0.954  -2.171  1.00  0.00     0.003 C 
ENDROOT
BRANCH   7  17
HETATM   17  C13 UNL     1       1.653   1.236   1.351  1.00  0.00     0.069 C 
BRANCH  17  18
HETATM   18  C14 UNL     1       3.097   1.428   1.818  1.00  0.00     0.175 C 
HETATM   19  O3  UNL     1       3.881   2.037   1.124  1.00  0.00    -0.291 OA
BRANCH  18  20
HETATM   20  C15 UNL     1       3.528   0.937   3.008  1.00  0.00     0.061 A 
HETATM   21  C16 UNL     1       4.770   1.047   3.502  1.00  0.00     0.032 A 
HETATM   22  C17 UNL     1       4.707   0.406   4.675  1.00  0.00     0.123 A 
HETATM   23  O4  UNL     1       3.583  -0.044   4.893  1.00  0.00    -0.303 OA
HETATM   24  C18 UNL     1       2.859   0.244   3.940  1.00  0.00     0.126 A 
ENDBRANCH  18  20
ENDBRANCH  17  18
ENDBRANCH   7  17
BRANCH   2  25
HETATM   25  O5  UNL     1      -4.118  -1.274  -0.857  1.00  0.00    -0.304 OA
BRANCH  25  26
HETATM   26  C21 UNL     1      -5.344  -0.685  -0.911  1.00  0.00     0.272 C 
HETATM   27  C22 UNL     1      -6.424  -1.737  -1.060  1.00  0.00     0.106 C 
HETATM   28  O6  UNL     1      -5.547   0.507  -0.865  1.00  0.00    -0.264 OA
ENDBRANCH  25  26
ENDBRANCH   2  25
TORSDOF 5
