REMARK  5 active torsions:
REMARK  status: ('A' for Active; 'I' for Inactive)
REMARK    1  A    between atoms: C7_8  and  C19_24 
REMARK    2  A    between atoms: C11_12  and  O4_18 
REMARK    3  A    between atoms: C12_13  and  O2_14 
REMARK    4  A    between atoms: O2_14  and  C13_15 
REMARK    5  A    between atoms: O4_18  and  C15_19 
ROOT
HETATM    1  C1  UNL     1      -3.390   0.614   0.029  1.00  0.00     0.066 C 
HETATM    2  C2  UNL     1      -3.467  -0.641  -0.827  1.00  0.00     0.182 C 
HETATM    3  C3  UNL     1      -2.254  -1.505  -0.510  1.00  0.00     0.150 A 
HETATM    4  C4  UNL     1      -0.875  -0.878  -0.840  1.00  0.00     0.058 C 
HETATM    5  C5  UNL     1      -0.826   0.459  -0.035  1.00  0.00     0.036 C 
HETATM    6  C6  UNL     1      -2.065   1.361  -0.170  1.00  0.00     0.124 C 
HETATM    7  O1  UNL     1      -2.068   2.382   0.788  1.00  0.00    -0.334 OA
HETATM    8  C7  UNL     1      -0.887   2.976   1.137  1.00  0.00     0.092 C 
HETATM    9  C8  UNL     1       0.305   2.495   0.739  1.00  0.00    -0.002 C 
HETATM   10  C9  UNL     1       0.475   1.293  -0.174  1.00  0.00     0.025 C 
HETATM   11  C10 UNL     1       1.672   0.403   0.262  1.00  0.00     0.034 C 
HETATM   12  C11 UNL     1       1.699  -0.911  -0.542  1.00  0.00     0.152 C 
HETATM   13  C12 UNL     1       0.384  -1.708  -0.441  1.00  0.00     0.154 C 
HETATM   14  C17 UNL     1       3.045   1.105   0.191  1.00  0.00     0.003 C 
HETATM   15  C18 UNL     1       0.716   1.944  -1.556  1.00  0.00     0.005 C 
HETATM   16  C23 UNL     1      -0.870  -0.676  -2.378  1.00  0.00     0.005 C 
HETATM   17  C24 UNL     1      -2.424  -2.587   0.415  1.00  0.00     0.172 A 
HETATM   18  O7  UNL     1      -2.453  -3.031  -0.921  1.00  0.00    -0.351 OA
HETATM   19  O8  UNL     1      -4.705  -1.292  -0.596  1.00  0.00    -0.221 OA
ENDROOT
BRANCH   8  20
HETATM   20  C19 UNL     1      -0.928   4.105   1.872  1.00  0.00     0.049 A 
HETATM   21  C20 UNL     1      -2.041   4.712   2.317  1.00  0.00     0.031 A 
HETATM   22  C21 UNL     1      -1.608   5.787   2.983  1.00  0.00     0.123 A 
HETATM   23  O6  UNL     1      -0.382   5.860   2.971  1.00  0.00    -0.303 OA
HETATM   24  C22 UNL     1       0.051   4.900   2.335  1.00  0.00     0.125 A 
ENDBRANCH   8  20
BRANCH  12  25
HETATM   25  O4  UNL     1       2.734  -1.737  -0.082  1.00  0.00    -0.302 OA
BRANCH  25  26
HETATM   26  C15 UNL     1       3.894  -1.833  -0.788  1.00  0.00     0.272 C 
HETATM   27  C16 UNL     1       4.805  -2.869  -0.160  1.00  0.00     0.106 C 
HETATM   28  O5  UNL     1       4.165  -1.200  -1.784  1.00  0.00    -0.264 OA
ENDBRANCH  25  26
ENDBRANCH  12  25
BRANCH  13  29
HETATM   29  O2  UNL     1       0.491  -2.825  -1.285  1.00  0.00    -0.302 OA
BRANCH  29  30
HETATM   30  C13 UNL     1       0.853  -4.084  -0.898  1.00  0.00     0.272 C 
HETATM   31  O3  UNL     1       1.013  -4.973  -1.708  1.00  0.00    -0.264 OA
HETATM   32  C14 UNL     1       1.034  -4.362   0.586  1.00  0.00     0.106 C 
ENDBRANCH  29  30
ENDBRANCH  13  29
TORSDOF 5
