REMARK  2 active torsions:
REMARK  status: ('A' for Active; 'I' for Inactive)
REMARK    1  A    between atoms: C7_7  and  C12_12 
REMARK    2  A    between atoms: C13_13  and  C14_14 
ROOT
HETATM    1  C1  UNL     1      -1.691  -0.082   2.085  1.00  0.00     0.000 C 
HETATM    2  C2  UNL     1      -2.800  -0.894   1.410  1.00  0.00     0.000 C 
HETATM    3  C3  UNL     1      -2.620  -1.037  -0.120  1.00  0.00     0.000 C 
HETATM    4  C4  UNL     1      -1.188  -1.571  -0.445  1.00  0.00     0.001 C 
HETATM    5  C5  UNL     1       0.003  -0.904   0.303  1.00  0.00     0.007 C 
HETATM    6  C6  UNL     1      -0.330  -0.728   1.806  1.00  0.00     0.001 C 
HETATM    7  C7  UNL     1       0.363   0.468  -0.328  1.00  0.00     0.040 C 
HETATM    8  C8  UNL     1       0.049   0.564  -1.804  1.00  0.00    -0.041 C 
HETATM    9  C9  UNL     1       0.071  -0.727  -2.572  1.00  0.00     0.022 C 
HETATM   10  C10 UNL     1      -0.894  -1.751  -1.955  1.00  0.00     0.004 C 
HETATM   11  C11 UNL     1      -0.191   1.743  -2.400  1.00  0.00    -0.009 C 
HETATM   12  C18 UNL     1       1.224  -1.867   0.278  1.00  0.00     0.001 C 
HETATM   13  C19 UNL     1      -3.696  -2.060  -0.580  1.00  0.00     0.000 C 
HETATM   14  C20 UNL     1      -2.969   0.300  -0.808  1.00  0.00     0.000 C 
ENDROOT
BRANCH   7  15
HETATM   15  C12 UNL     1       1.793   0.904  -0.099  1.00  0.00    -0.022 C 
HETATM   16  C13 UNL     1       2.150   1.807   0.829  1.00  0.00    -0.002 C 
BRANCH  16  17
HETATM   17  C14 UNL     1       3.406   2.207   1.068  1.00  0.00     0.026 A 
HETATM   18  C15 UNL     1       3.793   3.110   1.982  1.00  0.00     0.029 A 
HETATM   19  C16 UNL     1       5.122   3.175   1.849  1.00  0.00     0.123 A 
HETATM   20  O1  UNL     1       5.528   2.416   0.971  1.00  0.00    -0.303 OA
HETATM   21  C17 UNL     1       4.557   1.833   0.491  1.00  0.00     0.123 A 
ENDBRANCH  16  17
ENDBRANCH   7  15
TORSDOF 2
