REMARK  3 active torsions:
REMARK  status: ('A' for Active; 'I' for Inactive)
REMARK    1  A    between atoms: C7_7  and  C12_12 
REMARK    2  A    between atoms: C12_12  and  C13_13 
REMARK    3  A    between atoms: C16_16  and  O3_20 
ROOT
HETATM    1  C1  UNL     1      -2.961   0.783  -0.555  1.00  0.00     0.000 C 
HETATM    2  C2  UNL     1      -3.878  -0.243   0.115  1.00  0.00     0.000 C 
HETATM    3  C3  UNL     1      -3.120  -1.310   0.942  1.00  0.00     0.000 C 
HETATM    4  C4  UNL     1      -2.121  -0.618   1.925  1.00  0.00     0.001 C 
HETATM    5  C5  UNL     1      -1.235   0.535   1.361  1.00  0.00     0.004 C 
HETATM    6  C6  UNL     1      -2.107   1.487   0.504  1.00  0.00     0.000 C 
HETATM    7  C7  UNL     1      -0.048  -0.032   0.527  1.00  0.00     0.023 C 
HETATM    8  C8  UNL     1       0.420  -1.389   1.020  1.00  0.00    -0.044 C 
HETATM    9  C9  UNL     1       0.185  -1.705   2.470  1.00  0.00     0.022 C 
HETATM   10  C10 UNL     1      -1.307  -1.590   2.814  1.00  0.00     0.004 C 
HETATM   11  C11 UNL     1       1.041  -2.257   0.204  1.00  0.00    -0.009 C 
HETATM   12  C19 UNL     1      -0.751   1.409   2.553  1.00  0.00     0.000 C 
HETATM   13  C20 UNL     1      -4.211  -2.082   1.736  1.00  0.00     0.000 C 
HETATM   14  C21 UNL     1      -2.472  -2.338  -0.011  1.00  0.00     0.000 C 
ENDROOT
BRANCH   7  15
HETATM   15  C12 UNL     1       1.163   0.895   0.263  1.00  0.00     0.030 C 
BRANCH  15  16
HETATM   16  C13 UNL     1       1.163   1.446  -1.144  1.00  0.00    -0.025 C 
HETATM   17  C14 UNL     1       2.193   1.365  -1.998  1.00  0.00     0.042 C 
HETATM   18  C15 UNL     1       3.546   0.755  -1.764  1.00  0.00     0.093 C 
HETATM   19  C17 UNL     1       2.178   1.823  -3.272  1.00  0.00     0.293 C 
HETATM   20  C16 UNL     1       4.291   1.104  -3.052  1.00  0.00     0.247 C 
HETATM   21  O1  UNL     1       3.344   1.653  -3.950  1.00  0.00    -0.272 OA
HETATM   22  O2  UNL     1       1.210   2.337  -3.791  1.00  0.00    -0.259 OA
BRANCH  20  23
HETATM   23  O3  UNL     1       5.224   2.135  -2.799  1.00  0.00    -0.328 OA
HETATM   24  C18 UNL     1       6.111   2.352  -3.875  1.00  0.00     0.177 C 
ENDBRANCH  20  23
ENDBRANCH  15  16
ENDBRANCH   7  15
TORSDOF 3
