REMARK  18 active torsions:
REMARK  status: ('A' for Active; 'I' for Inactive)
REMARK    1  A    between atoms: C2_2  and  C3_3 
REMARK    2  A    between atoms: C3_3  and  C4_4 
REMARK    3  A    between atoms: C4_4  and  C5_5 
REMARK    4  A    between atoms: C5_5  and  C6_6 
REMARK    5  A    between atoms: C6_6  and  C7_7 
REMARK    6  A    between atoms: C7_7  and  C8_8 
REMARK    7  A    between atoms: C8_8  and  C9_9 
REMARK    8  A    between atoms: C9_9  and  C10_10 
REMARK    9  A    between atoms: C10_10  and  O1_11 
REMARK   10  A    between atoms: O1_11  and  C11_12 
REMARK   11  A    between atoms: C14_15  and  C27_34 
REMARK   12  A    between atoms: C21_23  and  O3_24 
REMARK   13  A    between atoms: O3_24  and  C22_25 
REMARK   14  A    between atoms: C24_29  and  O6_30 
REMARK   15  A    between atoms: O6_30  and  C25_31 
REMARK   16  A    between atoms: C27_34  and  C28_35 
REMARK   17  A    between atoms: C28_35  and  C29_36 
REMARK   18  A    between atoms: C29_36  and  C30_37 
ROOT
HETATM    1  C11 UNL     1       0.563   0.845  -0.105  1.00  0.00     0.132 C 
HETATM    2  C12 UNL     1       1.535   2.040  -0.088  1.00  0.00     0.031 C 
HETATM    3  C13 UNL     1       1.950   2.580  -1.475  1.00  0.00     0.003 C 
HETATM    4  C14 UNL     1       0.719   3.038  -2.325  1.00  0.00     0.001 C 
HETATM    5  C15 UNL     1      -0.534   2.244  -1.827  1.00  0.00     0.013 C 
HETATM    6  C16 UNL     1      -0.261   0.779  -1.414  1.00  0.00     0.098 C 
HETATM    7  C17 UNL     1      -1.523  -0.041  -1.262  1.00  0.00     0.017 C 
HETATM    8  C18 UNL     1      -2.771   0.429  -1.382  1.00  0.00     0.003 C 
HETATM    9  C19 UNL     1      -3.035   1.858  -1.755  1.00  0.00     0.174 C 
HETATM   10  C20 UNL     1      -1.867   2.408  -2.581  1.00  0.00     0.038 C 
HETATM   11  O2  UNL     1      -3.244   2.619  -0.581  1.00  0.00    -0.219 OA
HETATM   12  C21 UNL     1      -1.138  -1.493  -1.234  1.00  0.00     0.265 C 
HETATM   13  O5  UNL     1       0.126  -1.522  -1.888  1.00  0.00    -0.302 OA
HETATM   14  C24 UNL     1       0.369  -0.220  -2.396  1.00  0.00     0.250 C 
HETATM   15  C33 UNL     1       0.443   4.549  -2.123  1.00  0.00     0.000 C 
HETATM   16  C34 UNL     1       3.048   3.641  -1.248  1.00  0.00     0.000 C 
ENDROOT
BRANCH   1  17
HETATM   17  O1  UNL     1      -0.308   0.985   0.990  1.00  0.00    -0.304 OA
BRANCH  17  18
HETATM   18  C10 UNL     1      -0.433  -0.030   1.885  1.00  0.00     0.272 C 
HETATM   19  O8  UNL     1       0.180  -1.072   1.841  1.00  0.00    -0.264 OA
BRANCH  18  20
HETATM   20  C9  UNL     1      -1.487   0.325   2.924  1.00  0.00     0.096 C 
BRANCH  20  21
HETATM   21  C8  UNL     1      -1.774  -0.793   3.940  1.00  0.00     0.010 C 
BRANCH  21  22
HETATM   22  C7  UNL     1      -0.598  -1.053   4.896  1.00  0.00     0.001 C 
BRANCH  22  23
HETATM   23  C6  UNL     1      -0.846  -2.272   5.800  1.00  0.00     0.000 C 
BRANCH  23  24
HETATM   24  C5  UNL     1       0.399  -2.626   6.628  1.00  0.00     0.000 C 
BRANCH  24  25
HETATM   25  C4  UNL     1       0.192  -3.890   7.478  1.00  0.00     0.000 C 
BRANCH  25  26
HETATM   26  C3  UNL     1       1.481  -4.303   8.206  1.00  0.00     0.000 C 
BRANCH  26  27
HETATM   27  C2  UNL     1       1.291  -5.580   9.039  1.00  0.00     0.000 C 
HETATM   28  C1  UNL     1       2.597  -6.015   9.718  1.00  0.00     0.000 C 
ENDBRANCH  26  27
ENDBRANCH  25  26
ENDBRANCH  24  25
ENDBRANCH  23  24
ENDBRANCH  22  23
ENDBRANCH  21  22
ENDBRANCH  20  21
ENDBRANCH  18  20
ENDBRANCH  17  18
ENDBRANCH   1  17
BRANCH  14  29
HETATM   29  O6  UNL     1      -0.280  -0.208  -3.652  1.00  0.00    -0.275 OA
BRANCH  29  30
HETATM   30  C25 UNL     1       0.400  -0.694  -4.727  1.00  0.00     0.274 C 
HETATM   31  C26 UNL     1      -0.415  -0.499  -5.989  1.00  0.00     0.106 C 
HETATM   32  O7  UNL     1       1.510  -1.175  -4.690  1.00  0.00    -0.264 OA
ENDBRANCH  29  30
ENDBRANCH  14  29
BRANCH   4  33
HETATM   33  C27 UNL     1       0.932   2.778  -3.839  1.00  0.00     0.005 C 
BRANCH  33  34
HETATM   34  C28 UNL     1       2.007   3.562  -4.607  1.00  0.00     0.026 C 
BRANCH  34  35
HETATM   35  C29 UNL     1       2.012   3.112  -6.064  1.00  0.00    -0.022 C 
HETATM   36  C32 UNL     1       2.850   2.120  -6.416  1.00  0.00    -0.005 C 
BRANCH  35  37
HETATM   37  C30 UNL     1       1.161   3.706  -6.923  1.00  0.00    -0.004 C 
HETATM   38  C31 UNL     1       0.994   3.446  -8.229  1.00  0.00    -0.000 C 
ENDBRANCH  35  37
ENDBRANCH  34  35
ENDBRANCH  33  34
ENDBRANCH   4  33
BRANCH  12  39
HETATM   39  O3  UNL     1      -1.957  -2.322  -2.045  1.00  0.00    -0.272 OA
BRANCH  39  40
HETATM   40  C22 UNL     1      -3.026  -2.912  -1.445  1.00  0.00     0.275 C 
HETATM   41  C23 UNL     1      -3.797  -3.742  -2.451  1.00  0.00     0.106 C 
HETATM   42  O4  UNL     1      -3.327  -2.778  -0.281  1.00  0.00    -0.264 OA
ENDBRANCH  39  40
ENDBRANCH  12  39
TORSDOF 18
