REMARK  1 active torsions:
REMARK  status: ('A' for Active; 'I' for Inactive)
REMARK    1  A    between atoms: C6_6  and  O1_7 
ROOT
HETATM    1  C1  UNL     1      -0.581   1.680   1.577  1.00  0.00     0.153 A 
HETATM    2  C2  UNL     1       0.309   1.818   0.581  1.00  0.00     0.027 A 
HETATM    3  C3  UNL     1       0.501   0.873  -0.354  1.00  0.00     0.009 A 
HETATM    4  C4  UNL     1      -0.237  -0.248  -0.279  1.00  0.00    -0.020 A 
HETATM    5  C5  UNL     1      -1.126  -0.384   0.720  1.00  0.00     0.022 A 
HETATM    6  C6  UNL     1      -1.320   0.555   1.667  1.00  0.00     0.119 A 
HETATM    7  C8  UNL     1      -0.071  -1.354  -1.294  1.00  0.00     0.061 C 
HETATM    8  C9  UNL     1       0.771  -0.910  -2.496  1.00  0.00     0.255 C 
HETATM    9  N1  UNL     1       1.935  -0.130  -2.108  1.00  0.00     0.144 N 
HETATM   10  C10 UNL     1       1.516   1.102  -1.455  1.00  0.00     0.277 C 
HETATM   11  C11 UNL     1       2.871  -0.884  -1.290  1.00  0.00     0.286 C 
HETATM   12  O2  UNL     1      -0.744   2.670   2.498  1.00  0.00    -0.188 OA
ENDROOT
BRANCH   6  13
HETATM   13  O1  UNL     1      -2.225   0.463   2.697  1.00  0.00    -0.326 OA
HETATM   14  C7  UNL     1      -3.113  -0.630   2.733  1.00  0.00     0.181 C 
ENDBRANCH   6  13
TORSDOF 1
