REMARK  7 active torsions:
REMARK  status: ('A' for Active; 'I' for Inactive)
REMARK    1  A    between atoms: C4_4  and  C7_7 
REMARK    2  A    between atoms: C14_15  and  C15_16 
REMARK    3  A    between atoms: C16_17  and  C17_18 
REMARK    4  A    between atoms: C23_25  and  C37_43 
REMARK    5  A    between atoms: C26_28  and  C30_34 
REMARK    6  A    between atoms: C39_45  and  C40_46 
REMARK    7  A    between atoms: C46_54  and  C51_61 
ROOT
HETATM    1  C15 UNL     1       0.792  -1.237  -0.735  1.00  0.00    -0.032 C 
HETATM    2  C16 UNL     1       1.276  -0.121   0.237  1.00  0.00     0.049 C 
HETATM    3  C23 UNL     1       1.616  -0.978   1.503  1.00  0.00     0.054 C 
HETATM    4  C24 UNL     1       0.372  -1.865   1.528  1.00  0.00     0.007 A 
HETATM    5  C25 UNL     1      -0.077  -1.993   0.271  1.00  0.00    -0.007 A 
HETATM    6  C26 UNL     1      -1.262  -2.573  -0.007  1.00  0.00     0.021 A 
HETATM    7  C27 UNL     1      -1.970  -3.146   0.977  1.00  0.00     0.133 A 
HETATM    8  C28 UNL     1      -1.487  -3.034   2.226  1.00  0.00     0.054 A 
HETATM    9  C29 UNL     1      -0.340  -2.399   2.540  1.00  0.00     0.129 A 
HETATM   10  O3  UNL     1      -0.028  -2.227   3.852  1.00  0.00    -0.190 OA
HETATM   11  O4  UNL     1      -3.176  -3.724   0.734  1.00  0.00    -0.190 OA
ENDROOT
BRANCH   3  12
HETATM   12  C37 UNL     1       2.183  -0.450   2.810  1.00  0.00    -0.017 C 
HETATM   13  C38 UNL     1       2.367   0.830   3.188  1.00  0.00     0.003 C 
HETATM   14  C39 UNL     1       2.249   2.117   2.414  1.00  0.00     0.078 C 
HETATM   15  C47 UNL     1       2.777   1.129   4.430  1.00  0.00     0.092 C 
HETATM   16  C46 UNL     1       2.262   3.088   3.610  1.00  0.00     0.152 C 
HETATM   17  O9  UNL     1       2.814   2.333   4.684  1.00  0.00    -0.329 OA
HETATM   18  C48 UNL     1       3.125   0.181   5.307  1.00  0.00     0.051 C 
HETATM   19  C49 UNL     1       3.066  -1.105   4.932  1.00  0.00     0.133 C 
HETATM   20  C50 UNL     1       2.605  -1.377   3.699  1.00  0.00     0.023 C 
HETATM   21  O10 UNL     1       3.439  -2.096   5.784  1.00  0.00    -0.190 OA
BRANCH  14  22
HETATM   22  C40 UNL     1       3.451   2.360   1.515  1.00  0.00    -0.011 A 
HETATM   23  C41 UNL     1       3.299   2.989   0.337  1.00  0.00     0.024 A 
HETATM   24  C42 UNL     1       4.328   3.226  -0.492  1.00  0.00     0.133 A 
HETATM   25  C43 UNL     1       5.552   2.845  -0.094  1.00  0.00     0.055 A 
HETATM   26  O8  UNL     1       4.130   3.842  -1.688  1.00  0.00    -0.190 OA
HETATM   27  C44 UNL     1       5.763   2.244   1.088  1.00  0.00     0.133 A 
HETATM   28  C45 UNL     1       4.699   2.010   1.874  1.00  0.00     0.024 A 
HETATM   29  O7  UNL     1       7.019   1.888   1.471  1.00  0.00    -0.190 OA
ENDBRANCH  14  22
BRANCH  16  30
HETATM   30  C51 UNL     1       0.839   3.548   3.878  1.00  0.00     0.006 A 
HETATM   31  C52 UNL     1       0.329   4.585   3.189  1.00  0.00     0.000 A 
HETATM   32  C53 UNL     1      -0.941   4.978   3.367  1.00  0.00     0.027 A 
HETATM   33  C54 UNL     1      -1.751   4.349   4.235  1.00  0.00     0.131 A 
HETATM   34  C55 UNL     1      -1.244   3.305   4.911  1.00  0.00     0.027 A 
HETATM   35  O11 UNL     1      -3.044   4.732   4.410  1.00  0.00    -0.190 OA
HETATM   36  C56 UNL     1       0.026   2.909   4.738  1.00  0.00     0.000 A 
ENDBRANCH  16  30
ENDBRANCH   3  12
BRANCH   2  37
HETATM   37  C17 UNL     1       0.160   0.915   0.367  1.00  0.00    -0.018 A 
HETATM   38  C18 UNL     1       0.100   1.937  -0.505  1.00  0.00    -0.002 A 
HETATM   39  C19 UNL     1      -0.852   2.880  -0.439  1.00  0.00     0.027 A 
HETATM   40  C20 UNL     1      -1.792   2.852   0.518  1.00  0.00     0.131 A 
HETATM   41  C21 UNL     1      -1.726   1.851   1.411  1.00  0.00     0.027 A 
HETATM   42  O2  UNL     1      -2.753   3.810   0.592  1.00  0.00    -0.190 OA
HETATM   43  C22 UNL     1      -0.773   0.910   1.339  1.00  0.00    -0.002 A 
ENDBRANCH   2  37
BRANCH   1  44
HETATM   44  C14 UNL     1       0.398  -0.993  -2.240  1.00  0.00     0.065 C 
HETATM   45  C9  UNL     1      -0.722  -0.037  -2.749  1.00  0.00    -0.018 A 
HETATM   46  C8  UNL     1      -2.073  -0.233  -2.686  1.00  0.00    -0.016 A 
HETATM   47  C10 UNL     1      -0.314   1.077  -3.394  1.00  0.00    -0.002 A 
HETATM   48  C7  UNL     1      -2.781  -1.477  -2.073  1.00  0.00     0.067 C 
HETATM   49  C13 UNL     1      -2.904   0.710  -3.172  1.00  0.00     0.024 A 
HETATM   50  C30 UNL     1      -1.778  -2.440  -1.413  1.00  0.00    -0.013 C 
HETATM   51  C31 UNL     1      -0.867  -3.070  -2.427  1.00  0.00    -0.003 A 
HETATM   52  C32 UNL     1       0.185  -2.364  -2.871  1.00  0.00     0.011 A 
HETATM   53  C36 UNL     1      -1.120  -4.298  -2.897  1.00  0.00     0.027 A 
HETATM   54  C33 UNL     1       0.994  -2.892  -3.810  1.00  0.00     0.130 A 
HETATM   55  C34 UNL     1       0.711  -4.124  -4.271  1.00  0.00     0.054 A 
HETATM   56  O6  UNL     1       2.075  -2.222  -4.293  1.00  0.00    -0.190 OA
HETATM   57  C35 UNL     1      -0.333  -4.848  -3.834  1.00  0.00     0.133 A 
HETATM   58  O5  UNL     1      -0.598  -6.090  -4.321  1.00  0.00    -0.190 OA
HETATM   59  C12 UNL     1      -2.482   1.839  -3.760  1.00  0.00     0.131 A 
HETATM   60  C11 UNL     1      -1.158   1.997  -3.880  1.00  0.00     0.027 A 
HETATM   61  O1  UNL     1      -3.362   2.759  -4.237  1.00  0.00    -0.190 OA
BRANCH  48  62
HETATM   62  C4  UNL     1      -3.562  -2.243  -3.131  1.00  0.00    -0.014 A 
HETATM   63  C3  UNL     1      -4.668  -2.930  -2.796  1.00  0.00    -0.002 A 
HETATM   64  C2  UNL     1      -5.354  -3.627  -3.715  1.00  0.00     0.027 A 
HETATM   65  C1  UNL     1      -4.958  -3.673  -4.998  1.00  0.00     0.131 A 
HETATM   66  C6  UNL     1      -3.844  -3.000  -5.327  1.00  0.00     0.027 A 
HETATM   67  O12 UNL     1      -5.646  -4.381  -5.933  1.00  0.00    -0.190 OA
HETATM   68  C5  UNL     1      -3.156  -2.299  -4.413  1.00  0.00    -0.002 A 
ENDBRANCH  48  62
ENDBRANCH   1  44
TORSDOF 7
