REMARK  4 active torsions:
REMARK  status: ('A' for Active; 'I' for Inactive)
REMARK    1  A    between atoms: C1_1  and  O6_25 
REMARK    2  A    between atoms: C11_12  and  O3_21 
REMARK    3  A    between atoms: C12_13  and  C14_16 
REMARK    4  A    between atoms: C14_16  and  C15_17 
ROOT
HETATM    1  C1  UNL     1      -0.233   5.410  -1.455  1.00  0.00     0.120 A 
HETATM    2  C2  UNL     1      -0.396   5.659  -0.140  1.00  0.00     0.155 A 
HETATM    3  C3  UNL     1      -0.371   4.644   0.737  1.00  0.00     0.054 A 
HETATM    4  C4  UNL     1      -0.195   3.362   0.375  1.00  0.00     0.105 A 
HETATM    5  C5  UNL     1      -0.037   3.105  -0.935  1.00  0.00     0.064 A 
HETATM    6  C6  UNL     1      -0.059   4.123  -1.818  1.00  0.00     0.032 A 
HETATM    7  C7  UNL     1       0.139   1.820  -1.357  1.00  0.00     0.201 A 
HETATM    8  C8  UNL     1       0.132   0.805  -0.442  1.00  0.00     0.087 A 
HETATM    9  C9  UNL     1      -0.036   1.111   0.858  1.00  0.00     0.107 A 
HETATM   10  O1  UNL     1      -0.181   2.385   1.321  1.00  0.00    -0.307 OA
HETATM   11  C10 UNL     1      -0.067   0.099   1.738  1.00  0.00     0.049 A 
HETATM   12  C11 UNL     1       0.032  -1.196   1.398  1.00  0.00     0.094 A 
HETATM   13  C12 UNL     1       0.285  -1.478   0.101  1.00  0.00     0.030 A 
HETATM   14  C13 UNL     1       0.299  -0.485  -0.820  1.00  0.00     0.134 A 
HETATM   15  O2  UNL     1       0.471  -0.814  -2.133  1.00  0.00    -0.190 OA
HETATM   16  O4  UNL     1       0.287   1.617  -2.542  1.00  0.00    -0.286 OA
HETATM   17  O5  UNL     1      -0.581   6.939   0.287  1.00  0.00    -0.188 OA
ENDROOT
BRANCH  13  18
HETATM   18  C14 UNL     1       0.498  -2.916  -0.368  1.00  0.00     0.056 C 
BRANCH  18  19
HETATM   19  C15 UNL     1       1.137  -3.870   0.610  1.00  0.00    -0.030 C 
HETATM   20  C16 UNL     1       0.659  -5.054   1.035  1.00  0.00    -0.048 C 
HETATM   21  C17 UNL     1       1.425  -5.881   2.042  1.00  0.00     0.026 C 
HETATM   22  C18 UNL     1      -0.644  -5.681   0.600  1.00  0.00     0.026 C 
ENDBRANCH  18  19
ENDBRANCH  13  18
BRANCH  12  23
HETATM   23  O3  UNL     1       0.014  -2.143   2.392  1.00  0.00    -0.328 OA
HETATM   24  C19 UNL     1      -1.278  -2.613   2.703  1.00  0.00     0.181 C 
ENDBRANCH  12  23
BRANCH   1  25
HETATM   25  O6  UNL     1      -0.274   6.482  -2.316  1.00  0.00    -0.326 OA
HETATM   26  C20 UNL     1      -0.198   6.258  -3.704  1.00  0.00     0.181 C 
ENDBRANCH   1  25
TORSDOF 4
