REMARK  5 active torsions:
REMARK  status: ('A' for Active; 'I' for Inactive)
REMARK    1  A    between atoms: C4_4  and  O3_18 
REMARK    2  A    between atoms: C5_5  and  C7_8 
REMARK    3  A    between atoms: C7_8  and  C8_9 
REMARK    4  A    between atoms: C9_10  and  C10_11 
REMARK    5  A    between atoms: C17_21  and  C19_23 
ROOT
HETATM    1  C1  UNL     1      -0.900  -0.964   0.582  1.00  0.00     0.029 A 
HETATM    2  C2  UNL     1      -0.907  -2.265   0.302  1.00  0.00     0.094 A 
HETATM    3  C3  UNL     1       0.211  -2.855  -0.124  1.00  0.00     0.048 A 
HETATM    4  C4  UNL     1       1.357  -2.156  -0.272  1.00  0.00     0.101 A 
HETATM    5  C5  UNL     1       1.328  -0.812  -0.034  1.00  0.00     0.086 A 
HETATM    6  C6  UNL     1       0.196  -0.210   0.413  1.00  0.00     0.134 A 
HETATM    7  O1  UNL     1       0.124   1.079   0.848  1.00  0.00    -0.190 OA
HETATM    8  O4  UNL     1      -1.984  -2.822   0.502  1.00  0.00    -0.329 OA
HETATM    9  C17 UNL     1      -2.950  -1.899   1.008  1.00  0.00     0.144 A 
HETATM   10  C18 UNL     1      -2.238  -0.534   1.112  1.00  0.00     0.065 A 
ENDROOT
BRANCH   5  11
HETATM   11  C7  UNL     1       2.492  -0.104  -0.197  1.00  0.00     0.200 C 
HETATM   12  O2  UNL     1       3.566  -0.654  -0.061  1.00  0.00    -0.286 OA
BRANCH  11  13
HETATM   13  C8  UNL     1       2.596   1.217  -0.529  1.00  0.00     0.042 C 
HETATM   14  C9  UNL     1       1.660   2.002  -1.095  1.00  0.00     0.003 C 
BRANCH  14  15
HETATM   15  C10 UNL     1       1.771   3.304  -1.438  1.00  0.00     0.000 A 
HETATM   16  C11 UNL     1       0.733   3.901  -2.062  1.00  0.00     0.000 A 
HETATM   17  C12 UNL     1       0.777   5.189  -2.440  1.00  0.00     0.000 A 
HETATM   18  C13 UNL     1       1.871   5.923  -2.196  1.00  0.00     0.000 A 
HETATM   19  C14 UNL     1       2.912   5.355  -1.571  1.00  0.00     0.000 A 
HETATM   20  C15 UNL     1       2.857   4.066  -1.198  1.00  0.00     0.000 A 
ENDBRANCH  14  15
ENDBRANCH  11  13
ENDBRANCH   5  11
BRANCH   4  21
HETATM   21  O3  UNL     1       2.504  -2.758  -0.746  1.00  0.00    -0.328 OA
HETATM   22  C16 UNL     1       2.437  -4.044  -1.319  1.00  0.00     0.181 C 
ENDBRANCH   4  21
BRANCH   9  23
HETATM   23  C19 UNL     1      -3.498  -2.377   2.333  1.00  0.00    -0.017 C 
HETATM   24  C20 UNL     1      -4.998  -2.434   2.474  1.00  0.00     0.029 C 
HETATM   25  C21 UNL     1      -2.678  -2.725   3.338  1.00  0.00    -0.007 C 
ENDBRANCH   9  23
TORSDOF 5
