REMARK  2 active torsions:
REMARK  status: ('A' for Active; 'I' for Inactive)
REMARK    1  A    between atoms: C11_14  and  O6_19 
REMARK    2  A    between atoms: C12_15  and  O5_17 
ROOT
HETATM    1  C1  UNL     1      -3.495   1.040  -0.424  1.00  0.00     0.028 A 
HETATM    2  C2  UNL     1      -4.048  -0.161  -0.212  1.00  0.00     0.002 A 
HETATM    3  C3  UNL     1      -3.260  -1.214   0.041  1.00  0.00     0.004 A 
HETATM    4  C4  UNL     1      -1.921  -1.075   0.083  1.00  0.00     0.046 A 
HETATM    5  C5  UNL     1      -1.379   0.143  -0.132  1.00  0.00     0.052 A 
HETATM    6  C6  UNL     1      -2.163   1.214  -0.388  1.00  0.00     0.133 A 
HETATM    7  O1  UNL     1      -1.669   2.463  -0.615  1.00  0.00    -0.190 OA
HETATM    8  C7  UNL     1      -0.040   0.231  -0.078  1.00  0.00     0.110 A 
HETATM    9  C8  UNL     1       0.740  -0.829   0.170  1.00  0.00     0.091 A 
HETATM   10  C9  UNL     1       0.208  -2.056   0.390  1.00  0.00     0.238 A 
HETATM   11  C10 UNL     1      -1.145  -2.168   0.342  1.00  0.00     0.234 A 
HETATM   12  O2  UNL     1      -1.659  -3.252   0.533  1.00  0.00    -0.283 OA
HETATM   13  O3  UNL     1       0.896  -3.024   0.627  1.00  0.00    -0.283 OA
HETATM   14  C11 UNL     1       2.005  -0.366   0.145  1.00  0.00     0.145 A 
HETATM   15  C12 UNL     1       1.828   0.941  -0.139  1.00  0.00     0.222 A 
HETATM   16  O4  UNL     1       0.639   1.241  -0.248  1.00  0.00    -0.284 OA
ENDROOT
BRANCH  14  17
HETATM   17  O6  UNL     1       3.252  -0.916   0.273  1.00  0.00    -0.324 OA
HETATM   18  C14 UNL     1       3.459  -2.295   0.112  1.00  0.00     0.182 C 
ENDBRANCH  14  17
BRANCH  15  19
HETATM   19  O5  UNL     1       2.832   1.857  -0.307  1.00  0.00    -0.306 OA
HETATM   20  C13 UNL     1       2.620   3.096   0.329  1.00  0.00     0.184 C 
ENDBRANCH  15  19
TORSDOF 2
