REMARK  1 active torsions:
REMARK  status: ('A' for Active; 'I' for Inactive)
REMARK    1  A    between atoms: C6_6  and  C7_7 
ROOT
HETATM    1  C1  UNL     1      -0.979  -0.126  -0.345  1.00  0.00     0.020 C 
HETATM    2  C2  UNL     1      -0.769  -1.592  -0.764  1.00  0.00     0.045 C 
HETATM    3  C3  UNL     1       0.392  -2.250  -0.044  1.00  0.00     0.213 C 
HETATM    4  C4  UNL     1       1.601  -1.346   0.097  1.00  0.00     0.199 C 
HETATM    5  C5  UNL     1       1.536  -0.007  -0.130  1.00  0.00     0.010 C 
HETATM    6  C6  UNL     1       0.362   0.608  -0.398  1.00  0.00    -0.013 C 
HETATM    7  C8  UNL     1       2.834   0.776  -0.037  1.00  0.00     0.034 C 
HETATM    8  O2  UNL     1       2.619  -1.918   0.418  1.00  0.00    -0.289 OA
HETATM    9  O3  UNL     1       0.026  -2.724   1.238  1.00  0.00    -0.215 OA
HETATM   10  C9  UNL     1      -1.544  -0.049   1.090  1.00  0.00     0.004 C 
HETATM   11  C10 UNL     1      -2.039   0.460  -1.306  1.00  0.00     0.004 C 
ENDROOT
BRANCH   6  12
HETATM   12  C7  UNL     1       0.299   2.106  -0.644  1.00  0.00     0.204 C 
HETATM   13  O1  UNL     1      -0.347   2.789   0.421  1.00  0.00    -0.216 OA
ENDBRANCH   6  12
TORSDOF 1
