REMARK  3 active torsions:
REMARK  status: ('A' for Active; 'I' for Inactive)
REMARK    1  A    between atoms: C5_5  and  C9_9 
REMARK    2  A    between atoms: C9_9  and  C10_10 
REMARK    3  A    between atoms: C10_10  and  C11_11 
ROOT
HETATM    1  C1  UNL     1      -2.718   0.301   0.696  1.00  0.00     0.037 C 
HETATM    2  C2  UNL     1      -2.839  -1.071   0.054  1.00  0.00     0.157 C 
HETATM    3  C3  UNL     1      -1.743  -1.970   0.600  1.00  0.00     0.054 C 
HETATM    4  C4  UNL     1      -0.374  -1.330   0.558  1.00  0.00    -0.047 C 
HETATM    5  C5  UNL     1      -0.185   0.005   0.464  1.00  0.00    -0.022 C 
HETATM    6  C6  UNL     1      -1.357   0.996   0.451  1.00  0.00     0.019 C 
HETATM    7  C7  UNL     1      -1.206   2.032   1.593  1.00  0.00     0.004 C 
HETATM    8  C8  UNL     1      -1.393   1.759  -0.893  1.00  0.00     0.004 C 
HETATM    9  C12 UNL     1       0.720  -2.372   0.672  1.00  0.00     0.026 C 
HETATM   10  O4  UNL     1      -2.732  -0.985  -1.346  1.00  0.00    -0.223 OA
ENDROOT
BRANCH   5  11
HETATM   11  C9  UNL     1       1.202   0.617   0.337  1.00  0.00     0.181 C 
HETATM   12  O3  UNL     1       2.009   0.336   1.469  1.00  0.00    -0.218 OA
BRANCH  11  13
HETATM   13  C10 UNL     1       1.936   0.236  -0.954  1.00  0.00     0.135 C 
BRANCH  13  14
HETATM   14  C11 UNL     1       3.390   0.665  -0.909  1.00  0.00     0.188 C 
HETATM   15  O1  UNL     1       4.084   0.223  -1.973  1.00  0.00    -0.647 OA
HETATM   16  O2  UNL     1       3.904   1.304  -0.023  1.00  0.00    -0.647 OA
ENDBRANCH  13  14
ENDBRANCH  11  13
ENDBRANCH   5  11
TORSDOF 3
