REMARK  8 active torsions:
REMARK  status: ('A' for Active; 'I' for Inactive)
REMARK    1  A    between atoms: C2_2  and  O3_31 
REMARK    2  A    between atoms: O3_31  and  C29_32 
REMARK    3  A    between atoms: C30_34  and  C46_62 
REMARK    4  A    between atoms: C32_36  and  O6_39 
REMARK    5  A    between atoms: O6_39  and  C34_40 
REMARK    6  A    between atoms: C35_42  and  C45_59 
REMARK    7  A    between atoms: C38_45  and  O8_46 
REMARK    8  A    between atoms: O8_46  and  C39_47 
ROOT
HETATM    1  C29 UNL     1      -5.197  -1.679  -0.363  1.00  0.00     0.270 C 
HETATM    2  O4  UNL     1      -6.327  -0.816  -0.487  1.00  0.00    -0.326 OA
HETATM    3  C30 UNL     1      -6.087   0.573  -0.631  1.00  0.00     0.184 C 
HETATM    4  C31 UNL     1      -5.339   1.199   0.550  1.00  0.00     0.211 C 
HETATM    5  C32 UNL     1      -3.998   0.519   0.827  1.00  0.00     0.186 C 
HETATM    6  C33 UNL     1      -4.294  -1.016   0.762  1.00  0.00     0.238 C 
HETATM    7  O5  UNL     1      -5.048  -1.258   1.951  1.00  0.00    -0.215 OA
HETATM    8  O16 UNL     1      -6.141   1.245   1.707  1.00  0.00    -0.218 OA
ENDROOT
BRANCH   1   9
HETATM    9  O3  UNL     1      -4.859  -1.929  -1.753  1.00  0.00    -0.332 OA
BRANCH   9  10
HETATM   10  C2  UNL     1      -4.087  -3.050  -2.370  1.00  0.00     0.118 C 
HETATM   11  C1  UNL     1      -3.299  -2.487  -3.689  1.00  0.00     0.030 C 
HETATM   12  C6  UNL     1      -1.793  -1.732  -3.632  1.00  0.00     0.003 C 
HETATM   13  C5  UNL     1      -0.988  -1.673  -2.202  1.00  0.00     0.007 C 
HETATM   14  C4  UNL     1      -1.367  -3.316  -1.520  1.00  0.00     0.003 C 
HETATM   15  C7  UNL     1       0.660  -0.755  -1.468  1.00  0.00     0.039 C 
HETATM   16  C27 UNL     1      -2.288  -1.333  -1.398  1.00  0.00     0.001 C 
HETATM   17  C3  UNL     1      -2.946  -3.831  -1.599  1.00  0.00     0.030 C 
HETATM   18  C10 UNL     1      -0.944  -3.486   0.258  1.00  0.00     0.004 C 
HETATM   19  C28 UNL     1      -0.816  -4.127  -2.753  1.00  0.00     0.000 C 
HETATM   20  C9  UNL     1       0.010  -2.298   1.360  1.00  0.00     0.022 C 
HETATM   21  C8  UNL     1       0.875  -0.857   0.497  1.00  0.00    -0.048 C 
HETATM   22  C11 UNL     1       2.046  -0.093   1.163  1.00  0.00    -0.046 C 
HETATM   23  C12 UNL     1       1.942   1.421   1.015  1.00  0.00     0.035 C 
HETATM   24  C17 UNL     1       2.597  -0.314   2.569  1.00  0.00     0.051 C 
HETATM   25  C13 UNL     1       2.061   1.602  -0.527  1.00  0.00    -0.027 C 
HETATM   26  C15 UNL     1       3.248   1.940   1.646  1.00  0.00     0.040 C 
HETATM   27  C26 UNL     1       0.822   1.950   1.956  1.00  0.00     0.009 C 
HETATM   28  C14 UNL     1       1.279   0.729  -1.571  1.00  0.00    -0.027 C 
HETATM   29  C16 UNL     1       3.607   0.843   2.653  1.00  0.00     0.122 C 
HETATM   30  C19 UNL     1       3.213   3.281   2.407  1.00  0.00     0.055 C 
HETATM   31  O1  UNL     1       3.604   1.495   3.878  1.00  0.00    -0.337 OA
HETATM   32  C18 UNL     1       3.989   2.829   3.642  1.00  0.00     0.187 C 
HETATM   33  O2  UNL     1       5.339   2.896   3.268  1.00  0.00    -0.335 OA
HETATM   34  C24 UNL     1       3.682   3.630   4.905  1.00  0.00     0.056 C 
HETATM   35  C21 UNL     1       6.226   2.452   4.249  1.00  0.00     0.145 C 
HETATM   36  C22 UNL     1       6.072   3.308   5.496  1.00  0.00     0.030 C 
HETATM   37  C23 UNL     1       4.634   3.172   6.019  1.00  0.00     0.007 C 
HETATM   38  C25 UNL     1       7.141   2.934   6.528  1.00  0.00     0.003 C 
HETATM   39  C20 UNL     1       3.732   4.479   1.595  1.00  0.00     0.005 C 
ENDBRANCH   9  10
ENDBRANCH   1   9
BRANCH   3  40
HETATM   40  C46 UNL     1      -5.446   0.940  -1.962  1.00  0.00     0.214 C 
HETATM   41  O17 UNL     1      -6.112   1.944  -2.689  1.00  0.00    -0.218 OA
ENDBRANCH   3  40
BRANCH   5  42
HETATM   42  O6  UNL     1      -3.066   1.163  -0.040  1.00  0.00    -0.326 OA
BRANCH  42  43
HETATM   43  C34 UNL     1      -1.649   1.166   0.201  1.00  0.00     0.267 C 
HETATM   44  O7  UNL     1      -1.188   2.499  -0.029  1.00  0.00    -0.326 OA
HETATM   45  C35 UNL     1      -1.223   3.154  -1.284  1.00  0.00     0.184 C 
HETATM   46  C36 UNL     1      -0.937   2.309  -2.502  1.00  0.00     0.215 C 
HETATM   47  C37 UNL     1      -1.239   0.805  -2.238  1.00  0.00     0.217 C 
HETATM   48  O14 UNL     1       0.225   2.615  -3.260  1.00  0.00    -0.218 OA
HETATM   49  C38 UNL     1      -0.883   0.059  -0.659  1.00  0.00     0.207 C 
HETATM   50  O13 UNL     1      -2.575   0.955  -2.690  1.00  0.00    -0.218 OA
BRANCH  45  51
HETATM   51  C45 UNL     1      -2.505   3.963  -1.465  1.00  0.00     0.214 C 
HETATM   52  O15 UNL     1      -2.331   5.286  -1.004  1.00  0.00    -0.218 OA
ENDBRANCH  45  51
BRANCH  49  53
HETATM   53  O8  UNL     1      -0.330  -1.670  -0.435  1.00  0.00    -0.324 OA
BRANCH  53  54
HETATM   54  C39 UNL     1       1.235  -2.570  -0.646  1.00  0.00     0.270 C 
HETATM   55  O9  UNL     1       2.553  -2.221  -0.148  1.00  0.00    -0.329 OA
HETATM   56  C40 UNL     1       3.604  -1.967  -1.052  1.00  0.00     0.151 C 
HETATM   57  C41 UNL     1       4.018  -3.275  -1.687  1.00  0.00     0.212 C 
HETATM   58  C44 UNL     1       4.855  -1.385  -0.370  1.00  0.00     0.035 C 
HETATM   59  C42 UNL     1       2.814  -4.024  -2.219  1.00  0.00     0.220 C 
HETATM   60  O12 UNL     1       4.906  -3.006  -2.743  1.00  0.00    -0.218 OA
HETATM   61  C43 UNL     1       1.594  -4.003  -1.279  1.00  0.00     0.241 C 
HETATM   62  O11 UNL     1       3.241  -5.354  -2.437  1.00  0.00    -0.218 OA
HETATM   63  O10 UNL     1       1.861  -5.015  -0.298  1.00  0.00    -0.215 OA
ENDBRANCH  53  54
ENDBRANCH  49  53
ENDBRANCH  42  43
ENDBRANCH   5  42
TORSDOF 8
