REMARK  8 active torsions:
REMARK  status: ('A' for Active; 'I' for Inactive)
REMARK    1  A    between atoms: C1_1  and  C2_2 
REMARK    2  A    between atoms: C1_1  and  C30_32 
REMARK    3  A    between atoms: C2_2  and  C3_3 
REMARK    4  A    between atoms: C18_18  and  C19_19 
REMARK    5  A    between atoms: C19_19  and  C21_21 
REMARK    6  A    between atoms: C21_21  and  C22_22 
REMARK    7  A    between atoms: C22_22  and  C23_23 
REMARK    8  A    between atoms: C24_24  and  C26_26 
ROOT
HETATM    1  C3  UNL     1      -0.958  -2.678  -0.801  1.00  0.00     0.018 C 
HETATM    2  C4  UNL     1      -0.086  -3.326  -1.860  1.00  0.00    -0.052 C 
HETATM    3  C5  UNL     1      -0.360  -3.324  -3.182  1.00  0.00    -0.051 C 
HETATM    4  C6  UNL     1       0.594  -3.831  -4.242  1.00  0.00     0.026 C 
HETATM    5  C7  UNL     1      -1.643  -2.788  -3.783  1.00  0.00     0.026 C 
HETATM    6  C8  UNL     1       1.144  -3.944  -1.250  1.00  0.00     0.021 C 
HETATM    7  C9  UNL     1       2.068  -2.763  -0.986  1.00  0.00     0.004 C 
HETATM    8  C10 UNL     1       1.412  -1.704  -0.070  1.00  0.00     0.001 C 
HETATM    9  C11 UNL     1      -0.136  -1.787   0.211  1.00  0.00     0.003 C 
HETATM   10  C12 UNL     1      -0.756  -0.354   0.202  1.00  0.00     0.000 C 
HETATM   11  C13 UNL     1       0.040   0.802   0.846  1.00  0.00     0.000 C 
HETATM   12  C14 UNL     1       1.578   0.723   0.726  1.00  0.00     0.000 C 
HETATM   13  C15 UNL     1       1.915  -0.281  -0.420  1.00  0.00     0.000 C 
HETATM   14  C16 UNL     1       3.451  -0.133  -0.481  1.00  0.00     0.000 C 
HETATM   15  C17 UNL     1       3.690   1.376  -0.272  1.00  0.00     0.000 C 
HETATM   16  C18 UNL     1       2.359   1.985   0.245  1.00  0.00     0.000 C 
HETATM   17  C27 UNL     1       1.371   0.145  -1.818  1.00  0.00     0.000 C 
HETATM   18  C28 UNL     1       2.156   0.365   2.126  1.00  0.00     0.000 C 
HETATM   19  C29 UNL     1      -0.327  -2.317   1.659  1.00  0.00     0.000 C 
ENDROOT
BRANCH  16  20
HETATM   20  C19 UNL     1       2.581   3.185   1.199  1.00  0.00     0.000 C 
HETATM   21  C20 UNL     1       3.448   4.276   0.539  1.00  0.00     0.000 C 
BRANCH  20  22
HETATM   22  C21 UNL     1       1.278   3.808   1.745  1.00  0.00     0.005 C 
BRANCH  22  23
HETATM   23  C22 UNL     1       0.426   4.569   0.713  1.00  0.00     0.026 C 
BRANCH  23  24
HETATM   24  C23 UNL     1      -0.956   4.844   1.260  1.00  0.00    -0.024 C 
HETATM   25  C24 UNL     1      -2.140   4.486   0.724  1.00  0.00     0.038 C 
HETATM   26  C25 UNL     1      -2.277   3.742  -0.592  1.00  0.00     0.037 C 
BRANCH  25  27
HETATM   27  C26 UNL     1      -3.297   4.791   1.379  1.00  0.00     0.206 C 
HETATM   28  O1  UNL     1      -4.351   4.452   0.882  1.00  0.00    -0.644 OA
HETATM   29  O2  UNL     1      -3.335   5.446   2.566  1.00  0.00    -0.644 OA
ENDBRANCH  25  27
ENDBRANCH  23  24
ENDBRANCH  22  23
ENDBRANCH  20  22
ENDBRANCH  16  20
BRANCH   1  30
HETATM   30  C2  UNL     1      -1.882  -3.793  -0.250  1.00  0.00     0.015 C 
BRANCH  30  31
HETATM   31  C1  UNL     1      -3.270  -3.317   0.213  1.00  0.00     0.098 C 
BRANCH  31  32
HETATM   32  C30 UNL     1      -3.999  -4.408   0.978  1.00  0.00     0.185 C 
HETATM   33  O3  UNL     1      -4.888  -5.099   0.532  1.00  0.00    -0.647 OA
HETATM   34  O4  UNL     1      -3.522  -4.504   2.237  1.00  0.00    -0.647 OA
ENDBRANCH  31  32
ENDBRANCH  30  31
ENDBRANCH   1  30
TORSDOF 8
