REMARK  10 active torsions:
REMARK  status: ('A' for Active; 'I' for Inactive)
REMARK    1  A    between atoms: C1_1  and  C2_2 
REMARK    2  A    between atoms: C2_2  and  C3_3 
REMARK    3  A    between atoms: C6_7  and  C7_8 
REMARK    4  A    between atoms: C7_8  and  C8_9 
REMARK    5  A    between atoms: C10_11  and  O4_19 
REMARK    6  A    between atoms: C11_12  and  O3_17 
REMARK    7  A    between atoms: C12_13  and  O2_15 
REMARK    8  A    between atoms: C18_23  and  O8_31 
REMARK    9  A    between atoms: C19_24  and  O7_29 
REMARK   10  A    between atoms: C20_25  and  O6_27 
ROOT
HETATM    1  C3  UNL     1      -1.113  -3.192   0.415  1.00  0.00     0.044 C 
HETATM    2  C4  UNL     1      -0.627  -4.633   0.285  1.00  0.00     0.153 C 
HETATM    3  O1  UNL     1       0.751  -4.615   0.547  1.00  0.00    -0.302 OA
HETATM    4  C5  UNL     1       1.259  -3.361   0.435  1.00  0.00     0.272 C 
HETATM    5  C6  UNL     1       0.148  -2.408   0.028  1.00  0.00     0.093 C 
HETATM    6  O5  UNL     1       2.419  -3.070   0.626  1.00  0.00    -0.264 OA
ENDROOT
BRANCH   1   7
HETATM    7  C2  UNL     1      -2.365  -2.908  -0.430  1.00  0.00     0.029 C 
BRANCH   7   8
HETATM    8  C1  UNL     1      -2.837  -1.474  -0.306  1.00  0.00    -0.018 A 
HETATM    9  C17 UNL     1      -2.759  -0.614  -1.330  1.00  0.00     0.022 A 
HETATM   10  C18 UNL     1      -3.155   0.668  -1.222  1.00  0.00     0.118 A 
HETATM   11  C19 UNL     1      -3.663   1.102  -0.040  1.00  0.00     0.138 A 
HETATM   12  C20 UNL     1      -3.740   0.260   1.024  1.00  0.00     0.118 A 
HETATM   13  C21 UNL     1      -3.334  -1.013   0.849  1.00  0.00     0.022 A 
BRANCH  10  14
HETATM   14  O8  UNL     1      -3.086   1.573  -2.260  1.00  0.00    -0.326 OA
HETATM   15  C24 UNL     1      -2.647   1.143  -3.528  1.00  0.00     0.181 C 
ENDBRANCH  10  14
BRANCH  11  16
HETATM   16  O7  UNL     1      -4.029   2.434  -0.004  1.00  0.00    -0.324 OA
HETATM   17  C23 UNL     1      -3.899   3.183   1.182  1.00  0.00     0.182 C 
ENDBRANCH  11  16
BRANCH  12  18
HETATM   18  O6  UNL     1      -4.252   0.708   2.219  1.00  0.00    -0.326 OA
HETATM   19  C22 UNL     1      -4.437  -0.190   3.289  1.00  0.00     0.181 C 
ENDBRANCH  12  18
ENDBRANCH   7   8
ENDBRANCH   1   7
BRANCH   5  20
HETATM   20  C7  UNL     1       0.263  -1.022   0.683  1.00  0.00     0.036 C 
BRANCH  20  21
HETATM   21  C8  UNL     1       1.533  -0.279   0.318  1.00  0.00    -0.018 C 
HETATM   22  C9  UNL     1       2.407   0.122   1.253  1.00  0.00     0.022 C 
HETATM   23  C10 UNL     1       3.528   0.808   0.956  1.00  0.00     0.118 C 
HETATM   24  C11 UNL     1       3.764   1.111  -0.343  1.00  0.00     0.138 C 
HETATM   25  C12 UNL     1       2.958   0.628  -1.316  1.00  0.00     0.118 C 
HETATM   26  C13 UNL     1       1.823   0.003  -0.960  1.00  0.00     0.022 C 
BRANCH  23  27
HETATM   27  O4  UNL     1       4.434   1.250   1.895  1.00  0.00    -0.326 OA
HETATM   28  C16 UNL     1       4.201   0.984   3.259  1.00  0.00     0.181 C 
ENDBRANCH  23  27
BRANCH  24  29
HETATM   29  O3  UNL     1       4.917   1.779  -0.682  1.00  0.00    -0.324 OA
HETATM   30  C15 UNL     1       4.740   3.167  -0.861  1.00  0.00     0.182 C 
ENDBRANCH  24  29
BRANCH  25  31
HETATM   31  O2  UNL     1       3.191   0.917  -2.639  1.00  0.00    -0.326 OA
HETATM   32  C14 UNL     1       3.981  -0.048  -3.296  1.00  0.00     0.181 C 
ENDBRANCH  25  31
ENDBRANCH  20  21
ENDBRANCH   5  20
TORSDOF 10
