REMARK  6 active torsions:
REMARK  status: ('A' for Active; 'I' for Inactive)
REMARK    1  A    between atoms: C5_5  and  C12_12 
REMARK    2  A    between atoms: C6_6  and  C7_7 
REMARK    3  A    between atoms: C7_7  and  C8_8 
REMARK    4  A    between atoms: C12_12  and  C13_13 
REMARK    5  A    between atoms: C17_17  and  C19_20 
REMARK    6  A    between atoms: C19_20  and  C20_21 
ROOT
HETATM    1  C13 UNL     1      -1.268  -0.013   0.141  1.00  0.00     0.089 A 
HETATM    2  C14 UNL     1      -2.503   0.180   0.661  1.00  0.00     0.138 A 
HETATM    3  C15 UNL     1      -3.260  -0.891   0.945  1.00  0.00     0.055 A 
HETATM    4  C16 UNL     1      -2.878  -2.149   0.692  1.00  0.00     0.131 A 
HETATM    5  C17 UNL     1      -1.687  -2.327   0.095  1.00  0.00     0.033 A 
HETATM    6  C18 UNL     1      -0.887  -1.274  -0.185  1.00  0.00     0.134 A 
HETATM    7  O1  UNL     1       0.256  -1.540  -0.886  1.00  0.00    -0.190 OA
HETATM    8  O2  UNL     1      -3.682  -3.191   1.037  1.00  0.00    -0.190 OA
HETATM    9  O3  UNL     1      -3.001   1.401   1.016  1.00  0.00    -0.190 OA
ENDROOT
BRANCH   1  10
HETATM   10  C12 UNL     1      -0.472   1.085  -0.075  1.00  0.00     0.199 C 
HETATM   11  O4  UNL     1      -1.009   2.159  -0.230  1.00  0.00    -0.286 OA
BRANCH  10  12
HETATM   12  C5  UNL     1       0.899   1.061  -0.056  1.00  0.00     0.037 A 
HETATM   13  C4  UNL     1       1.528   0.092   0.642  1.00  0.00     0.003 A 
HETATM   14  C3  UNL     1       2.861   0.023   0.729  1.00  0.00     0.002 A 
HETATM   15  C2  UNL     1       3.598   0.970   0.141  1.00  0.00     0.027 A 
HETATM   16  C1  UNL     1       3.013   1.970  -0.536  1.00  0.00     0.127 A 
HETATM   17  C6  UNL     1       1.664   2.022  -0.634  1.00  0.00     0.011 A 
HETATM   18  O5  UNL     1       3.802   2.940  -1.077  1.00  0.00    -0.191 OA
BRANCH  17  19
HETATM   19  C7  UNL     1       1.107   3.177  -1.460  1.00  0.00     0.054 C 
BRANCH  19  20
HETATM   20  C8  UNL     1       1.039   4.440  -0.639  1.00  0.00    -0.030 C 
HETATM   21  C9  UNL     1       0.505   5.608  -1.038  1.00  0.00    -0.048 C 
HETATM   22  C10 UNL     1       0.503   6.818  -0.133  1.00  0.00     0.026 C 
HETATM   23  C11 UNL     1      -0.128   5.830  -2.390  1.00  0.00     0.026 C 
ENDBRANCH  19  20
ENDBRANCH  17  19
ENDBRANCH  10  12
ENDBRANCH   1  10
BRANCH   5  24
HETATM   24  C19 UNL     1      -1.221  -3.733  -0.260  1.00  0.00     0.056 C 
BRANCH  24  25
HETATM   25  C20 UNL     1      -0.259  -4.224   0.792  1.00  0.00    -0.030 C 
HETATM   26  C21 UNL     1       0.087  -5.503   1.026  1.00  0.00    -0.048 C 
HETATM   27  C22 UNL     1       1.108  -5.851   2.085  1.00  0.00     0.026 C 
HETATM   28  C23 UNL     1      -0.462  -6.687   0.269  1.00  0.00     0.026 C 
ENDBRANCH  24  25
ENDBRANCH   5  24
TORSDOF 6
