REMARK  3 active torsions:
REMARK  status: ('A' for Active; 'I' for Inactive)
REMARK    1  A    between atoms: C2_2  and  C16_21 
REMARK    2  A    between atoms: C7_8  and  C10_12 
REMARK    3  A    between atoms: C16_21  and  C17_22 
ROOT
HETATM    1  C1  UNL     1      -2.055  -0.741   1.212  1.00  0.00     0.131 A 
HETATM    2  C2  UNL     1      -1.714  -1.841   0.518  1.00  0.00     0.033 A 
HETATM    3  C3  UNL     1      -0.663  -1.831  -0.331  1.00  0.00     0.134 A 
HETATM    4  C4  UNL     1       0.059  -0.695  -0.483  1.00  0.00     0.082 A 
HETATM    5  C5  UNL     1      -0.259   0.422   0.211  1.00  0.00     0.101 A 
HETATM    6  C6  UNL     1      -1.318   0.363   1.036  1.00  0.00     0.051 A 
HETATM    7  O1  UNL     1       0.393   1.623   0.098  1.00  0.00    -0.328 OA
HETATM    8  C7  UNL     1       1.019   1.845  -1.136  1.00  0.00     0.153 C 
HETATM    9  C8  UNL     1       1.915   0.654  -1.430  1.00  0.00     0.104 C 
HETATM   10  C9  UNL     1       1.133  -0.645  -1.322  1.00  0.00     0.180 C 
HETATM   11  O2  UNL     1       1.534  -1.565  -1.999  1.00  0.00    -0.291 OA
HETATM   12  O5  UNL     1      -0.362  -3.003  -0.965  1.00  0.00    -0.190 OA
HETATM   13  O6  UNL     1      -3.088  -0.742   2.098  1.00  0.00    -0.190 OA
ENDROOT
BRANCH   8  14
HETATM   14  C10 UNL     1       1.818   3.140  -1.134  1.00  0.00     0.031 A 
HETATM   15  C11 UNL     1       1.798   3.970  -2.197  1.00  0.00     0.131 A 
HETATM   16  C12 UNL     1       2.532   5.096  -2.152  1.00  0.00     0.054 A 
HETATM   17  O4  UNL     1       1.065   3.693  -3.309  1.00  0.00    -0.190 OA
HETATM   18  C13 UNL     1       3.288   5.434  -1.095  1.00  0.00     0.133 A 
HETATM   19  C14 UNL     1       3.298   4.592  -0.050  1.00  0.00     0.027 A 
HETATM   20  O3  UNL     1       4.022   6.578  -1.080  1.00  0.00    -0.190 OA
HETATM   21  C15 UNL     1       2.575   3.463  -0.071  1.00  0.00     0.002 A 
ENDBRANCH   8  14
BRANCH   2  22
HETATM   22  C16 UNL     1      -2.522  -3.117   0.709  1.00  0.00     0.056 C 
BRANCH  22  23
HETATM   23  C17 UNL     1      -1.942  -3.943   1.827  1.00  0.00    -0.030 C 
HETATM   24  C18 UNL     1      -2.393  -5.147   2.220  1.00  0.00    -0.048 C 
HETATM   25  C19 UNL     1      -1.717  -5.914   3.333  1.00  0.00     0.026 C 
HETATM   26  C20 UNL     1      -3.580  -5.845   1.603  1.00  0.00     0.026 C 
ENDBRANCH  22  23
ENDBRANCH   2  22
TORSDOF 3
