REMARK  3 active torsions:
REMARK  status: ('A' for Active; 'I' for Inactive)
REMARK    1  A    between atoms: C6_6  and  C7_7 
REMARK    2  A    between atoms: C7_7  and  C8_8 
REMARK    3  A    between atoms: C18_20  and  C20_22 
ROOT
HETATM    1  C1  UNL     1      -3.326   3.106   0.167  1.00  0.00     0.131 A 
HETATM    2  C2  UNL     1      -2.262   3.872  -0.107  1.00  0.00     0.055 A 
HETATM    3  C3  UNL     1      -1.028   3.380  -0.292  1.00  0.00     0.138 A 
HETATM    4  C4  UNL     1      -0.856   2.044  -0.186  1.00  0.00     0.087 A 
HETATM    5  C5  UNL     1      -1.906   1.244   0.098  1.00  0.00     0.103 A 
HETATM    6  C6  UNL     1      -3.140   1.776   0.269  1.00  0.00     0.030 A 
HETATM    7  O1  UNL     1      -1.761  -0.106   0.229  1.00  0.00    -0.307 OA
HETATM    8  C12 UNL     1      -0.524  -0.626   0.017  1.00  0.00     0.103 A 
HETATM    9  C13 UNL     1       0.543   0.145  -0.273  1.00  0.00     0.060 A 
HETATM   10  C14 UNL     1       1.737  -0.450  -0.466  1.00  0.00     0.008 A 
HETATM   11  C15 UNL     1       1.871  -1.780  -0.383  1.00  0.00     0.090 A 
HETATM   12  C16 UNL     1       0.821  -2.556  -0.094  1.00  0.00     0.026 A 
HETATM   13  C17 UNL     1      -0.364  -1.962   0.102  1.00  0.00     0.027 A 
HETATM   14  O2  UNL     1       3.006  -2.202  -0.588  1.00  0.00    -0.331 OA
HETATM   15  C18 UNL     1       3.900  -1.140  -0.920  1.00  0.00     0.153 A 
HETATM   16  C19 UNL     1       3.078   0.158  -0.784  1.00  0.00     0.061 A 
HETATM   17  C23 UNL     1       0.383   1.495  -0.365  1.00  0.00     0.201 A 
HETATM   18  O4  UNL     1       1.341   2.191  -0.617  1.00  0.00    -0.286 OA
HETATM   19  O5  UNL     1      -0.029   4.266  -0.567  1.00  0.00    -0.190 OA
HETATM   20  O6  UNL     1      -4.537   3.699   0.360  1.00  0.00    -0.190 OA
ENDROOT
BRANCH   6  21
HETATM   21  C7  UNL     1      -4.317   0.868   0.606  1.00  0.00     0.056 C 
BRANCH  21  22
HETATM   22  C8  UNL     1      -4.387  -0.382  -0.237  1.00  0.00    -0.030 C 
HETATM   23  C9  UNL     1      -4.507  -1.651   0.196  1.00  0.00    -0.048 C 
HETATM   24  C10 UNL     1      -4.505  -2.808  -0.777  1.00  0.00     0.026 C 
HETATM   25  C11 UNL     1      -4.629  -2.069   1.642  1.00  0.00     0.026 C 
ENDBRANCH  21  22
ENDBRANCH   6  21
BRANCH  15  26
HETATM   26  C20 UNL     1       5.185  -1.216  -0.085  1.00  0.00     0.152 C 
HETATM   27  C21 UNL     1       6.031  -2.422  -0.507  1.00  0.00     0.036 C 
HETATM   28  C22 UNL     1       4.905  -1.279   1.419  1.00  0.00     0.036 C 
HETATM   29  O3  UNL     1       5.942  -0.063  -0.341  1.00  0.00    -0.224 OA
ENDBRANCH  15  26
TORSDOF 3
