REMARK  0 active torsions:
REMARK  status: ('A' for Active; 'I' for Inactive)
ROOT
HETATM    1  C1  UNL     1      -1.171   1.225  -0.292  1.00  0.00     0.039 C 
HETATM    2  C2  UNL     1      -1.318  -0.318  -0.414  1.00  0.00     0.049 C 
HETATM    3  C3  UNL     1      -0.307  -1.116   0.408  1.00  0.00     0.135 C 
HETATM    4  C4  UNL     1       1.122  -1.008  -0.134  1.00  0.00     0.086 C 
HETATM    5  C5  UNL     1       1.944   0.082   0.540  1.00  0.00     0.161 C 
HETATM    6  C6  UNL     1       1.197   1.402   0.766  1.00  0.00     0.064 C 
HETATM    7  C7  UNL     1       0.220   1.884  -0.318  1.00  0.00     0.130 C 
HETATM    8  O1  UNL     1       0.788   1.652  -1.579  1.00  0.00    -0.226 OA
HETATM    9  C8  UNL     1       0.066   3.410  -0.202  1.00  0.00     0.033 C 
HETATM   10  O2  UNL     1       3.105   0.325  -0.222  1.00  0.00    -0.223 OA
HETATM   11  C9  UNL     1       1.618  -2.421   0.022  1.00  0.00     0.045 C 
HETATM   12  C10 UNL     1       0.531  -3.183   0.288  1.00  0.00     0.292 C 
HETATM   13  O3  UNL     1      -0.625  -2.483   0.436  1.00  0.00    -0.300 OA
HETATM   14  O4  UNL     1       0.567  -4.390   0.398  1.00  0.00    -0.260 OA
HETATM   15  C11 UNL     1       2.864  -2.889  -0.124  1.00  0.00     0.001 C 
HETATM   16  C12 UNL     1      -2.723  -0.503   0.121  1.00  0.00    -0.046 C 
HETATM   17  C13 UNL     1      -3.120   0.548   0.847  1.00  0.00    -0.034 C 
HETATM   18  C14 UNL     1      -2.081   1.631   0.891  1.00  0.00     0.028 C 
HETATM   19  C15 UNL     1      -3.543  -1.737  -0.124  1.00  0.00     0.026 C 
ENDROOT
TORSDOF 0
