REMARK  3 active torsions:
REMARK  status: ('A' for Active; 'I' for Inactive)
REMARK    1  A    between atoms: C10_12  and  C11_13 
REMARK    2  A    between atoms: C11_13  and  C12_14 
REMARK    3  A    between atoms: C12_14  and  C13_15 
ROOT
HETATM    1  C1  UNL     1      -0.260   1.439   0.799  1.00  0.00     0.003 A 
HETATM    2  C2  UNL     1      -0.676   0.038   1.212  1.00  0.00     0.004 A 
HETATM    3  C3  UNL     1       0.376  -0.945   1.708  1.00  0.00     0.024 C 
HETATM    4  C4  UNL     1       1.765  -0.466   1.431  1.00  0.00    -0.016 A 
HETATM    5  C5  UNL     1       2.095   0.973   1.681  1.00  0.00     0.143 A 
HETATM    6  C6  UNL     1       1.216   1.844   0.793  1.00  0.00     0.035 C 
HETATM    7  O1  UNL     1       3.459   1.074   1.328  1.00  0.00    -0.297 OA
HETATM    8  C7  UNL     1       3.825  -0.186   0.936  1.00  0.00     0.291 A 
HETATM    9  C8  UNL     1       2.844  -1.120   0.988  1.00  0.00     0.036 A 
HETATM   10  C9  UNL     1       2.976  -2.569   0.630  1.00  0.00     0.036 C 
HETATM   11  O2  UNL     1       4.949  -0.450   0.569  1.00  0.00    -0.260 OA
HETATM   12  C10 UNL     1      -0.631   0.406  -0.254  1.00  0.00     0.001 A 
HETATM   13  C15 UNL     1      -1.226   2.571   1.117  1.00  0.00     0.000 C 
ENDROOT
BRANCH  12  14
HETATM   14  C11 UNL     1      -1.955   0.550  -1.000  1.00  0.00     0.008 C 
BRANCH  14  15
HETATM   15  C12 UNL     1      -2.285  -0.666  -1.881  1.00  0.00     0.065 C 
BRANCH  15  16
HETATM   16  C13 UNL     1      -3.596  -0.538  -2.643  1.00  0.00     0.151 C 
HETATM   17  C14 UNL     1      -3.885  -1.606  -3.682  1.00  0.00     0.072 C 
HETATM   18  O3  UNL     1      -4.376   0.365  -2.442  1.00  0.00    -0.296 OA
ENDBRANCH  15  16
ENDBRANCH  14  15
ENDBRANCH  12  14
TORSDOF 3
