REMARK  3 active torsions:
REMARK  status: ('A' for Active; 'I' for Inactive)
REMARK    1  A    between atoms: C10_13  and  C11_14 
REMARK    2  A    between atoms: C11_14  and  C12_15 
REMARK    3  A    between atoms: C12_15  and  C13_16 
ROOT
HETATM    1  C1  UNL     1      -0.435   0.740   1.153  1.00  0.00     0.005 A 
HETATM    2  C2  UNL     1      -0.677  -0.682   0.684  1.00  0.00     0.004 A 
HETATM    3  C3  UNL     1       0.500  -1.593   0.346  1.00  0.00     0.027 C 
HETATM    4  C4  UNL     1       1.809  -1.015   0.784  1.00  0.00     0.011 A 
HETATM    5  C5  UNL     1       2.067   0.448   0.614  1.00  0.00     0.242 A 
HETATM    6  C6  UNL     1       0.997   1.248   1.325  1.00  0.00     0.064 C 
HETATM    7  O1  UNL     1       3.357   0.640   1.161  1.00  0.00    -0.271 OA
HETATM    8  C7  UNL     1       3.758  -0.603   1.571  1.00  0.00     0.293 A 
HETATM    9  C8  UNL     1       2.865  -1.601   1.361  1.00  0.00     0.038 A 
HETATM   10  C9  UNL     1       3.057  -3.044   1.720  1.00  0.00     0.036 C 
HETATM   11  O2  UNL     1       4.839  -0.796   2.085  1.00  0.00    -0.259 OA
HETATM   12  O3  UNL     1       2.237   0.816  -0.743  1.00  0.00    -0.191 OA
HETATM   13  C10 UNL     1      -0.898   0.485  -0.265  1.00  0.00     0.001 A 
HETATM   14  C15 UNL     1      -1.425   1.330   2.150  1.00  0.00     0.000 C 
ENDROOT
BRANCH  13  15
HETATM   15  C11 UNL     1      -2.334   0.807  -0.670  1.00  0.00     0.008 C 
BRANCH  15  16
HETATM   16  C12 UNL     1      -2.683   0.294  -2.076  1.00  0.00     0.065 C 
BRANCH  16  17
HETATM   17  C13 UNL     1      -4.090   0.651  -2.529  1.00  0.00     0.151 C 
HETATM   18  C14 UNL     1      -4.415   0.405  -3.990  1.00  0.00     0.072 C 
HETATM   19  O4  UNL     1      -4.916   1.112  -1.773  1.00  0.00    -0.296 OA
ENDBRANCH  16  17
ENDBRANCH  15  16
ENDBRANCH  13  15
TORSDOF 3
