REMARK  9 active torsions:
REMARK  status: ('A' for Active; 'I' for Inactive)
REMARK    1  A    between atoms: C5_5  and  C7_7 
REMARK    2  A    between atoms: C7_7  and  C8_8 
REMARK    3  A    between atoms: C8_8  and  C9_9 
REMARK    4  A    between atoms: C8_8  and  O4_21 
REMARK    5  A    between atoms: C9_9  and  C10_10 
REMARK    6  A    between atoms: C10_10  and  C11_11 
REMARK    7  A    between atoms: C11_11  and  C12_12 
REMARK    8  A    between atoms: O4_21  and  C18_22 
REMARK    9  A    between atoms: C19_24  and  C23_31 
ROOT
HETATM    1  C8  UNL     1      -0.031   0.624   0.029  1.00  0.00     0.153 C 
ENDROOT
BRANCH   1   2
HETATM    2  C7  UNL     1       0.752   0.933   1.308  1.00  0.00     0.202 C 
HETATM    3  O10 UNL     1       0.817  -0.238   2.101  1.00  0.00    -0.216 OA
BRANCH   2   4
HETATM    4  C5  UNL     1       2.100   1.589   1.082  1.00  0.00     0.012 A 
HETATM    5  C4  UNL     1       2.156   2.831   0.571  1.00  0.00     0.001 A 
HETATM    6  C3  UNL     1       3.333   3.437   0.369  1.00  0.00     0.029 A 
HETATM    7  C2  UNL     1       4.493   2.830   0.670  1.00  0.00     0.156 A 
HETATM    8  C1  UNL     1       4.455   1.588   1.190  1.00  0.00     0.156 A 
HETATM    9  O11 UNL     1       5.674   3.470   0.456  1.00  0.00    -0.188 OA
HETATM   10  C6  UNL     1       3.265   0.995   1.391  1.00  0.00     0.028 A 
HETATM   11  O12 UNL     1       5.604   0.935   1.516  1.00  0.00    -0.188 OA
ENDBRANCH   2   4
ENDBRANCH   1   2
BRANCH   1  12
HETATM   12  C9  UNL     1       0.436  -0.641  -0.714  1.00  0.00     0.041 C 
BRANCH  12  13
HETATM   13  C10 UNL     1       1.889  -0.633  -1.217  1.00  0.00     0.072 C 
BRANCH  13  14
HETATM   14  C11 UNL     1       2.058  -1.525  -2.448  1.00  0.00     0.173 C 
HETATM   15  O3  UNL     1       2.131  -0.953  -3.514  1.00  0.00    -0.291 OA
BRANCH  14  16
HETATM   16  C12 UNL     1       2.082  -2.887  -2.372  1.00  0.00     0.037 A 
HETATM   17  C13 UNL     1       2.167  -3.614  -3.502  1.00  0.00     0.005 A 
HETATM   18  C14 UNL     1       2.166  -4.954  -3.457  1.00  0.00     0.030 A 
HETATM   19  C15 UNL     1       2.086  -5.612  -2.290  1.00  0.00     0.156 A 
HETATM   20  C16 UNL     1       2.016  -4.901  -1.152  1.00  0.00     0.156 A 
HETATM   21  O2  UNL     1       2.078  -6.972  -2.237  1.00  0.00    -0.188 OA
HETATM   22  C17 UNL     1       2.015  -3.557  -1.206  1.00  0.00     0.032 A 
HETATM   23  O1  UNL     1       1.944  -5.549   0.042  1.00  0.00    -0.188 OA
ENDBRANCH  14  16
ENDBRANCH  13  14
ENDBRANCH  12  13
ENDBRANCH   1  12
BRANCH   1  24
HETATM   24  O4  UNL     1      -1.373   0.459   0.417  1.00  0.00    -0.329 OA
BRANCH  24  25
HETATM   25  C18 UNL     1      -2.324   0.737  -0.588  1.00  0.00     0.270 C 
HETATM   26  O5  UNL     1      -2.531   2.132  -0.652  1.00  0.00    -0.326 OA
HETATM   27  C19 UNL     1      -3.302   2.710   0.365  1.00  0.00     0.184 C 
HETATM   28  C20 UNL     1      -4.615   1.976   0.594  1.00  0.00     0.215 C 
HETATM   29  C21 UNL     1      -4.449   0.478   0.753  1.00  0.00     0.220 C 
HETATM   30  O8  UNL     1      -5.467   2.207  -0.508  1.00  0.00    -0.218 OA
HETATM   31  C22 UNL     1      -3.598  -0.054  -0.381  1.00  0.00     0.241 C 
HETATM   32  O7  UNL     1      -3.851   0.175   1.988  1.00  0.00    -0.218 OA
HETATM   33  O6  UNL     1      -4.353   0.004  -1.570  1.00  0.00    -0.215 OA
BRANCH  27  34
HETATM   34  C23 UNL     1      -2.483   3.008   1.616  1.00  0.00     0.214 C 
HETATM   35  O9  UNL     1      -3.222   3.843   2.486  1.00  0.00    -0.218 OA
ENDBRANCH  27  34
ENDBRANCH  24  25
ENDBRANCH   1  24
TORSDOF 9
