REMARK  4 active torsions:
REMARK  status: ('A' for Active; 'I' for Inactive)
REMARK    1  A    between atoms: C5_5  and  C7_8 
REMARK    2  A    between atoms: C10_12  and  C11_13 
REMARK    3  A    between atoms: C11_13  and  C12_14 
REMARK    4  A    between atoms: C12_14  and  C13_15 
ROOT
HETATM    1  C1  UNL     1      -1.129   1.472  -0.136  1.00  0.00     0.065 C 
HETATM    2  C2  UNL     1      -1.397   0.039   0.298  1.00  0.00     0.007 A 
HETATM    3  C3  UNL     1      -0.364  -0.690   1.133  1.00  0.00     0.001 A 
HETATM    4  C4  UNL     1       0.947   0.002   1.502  1.00  0.00     0.010 C 
HETATM    5  C5  UNL     1       1.010   1.522   1.265  1.00  0.00     0.086 C 
HETATM    6  C6  UNL     1       0.347   1.809  -0.073  1.00  0.00     0.153 C 
HETATM    7  O1  UNL     1       0.951   2.259  -1.019  1.00  0.00    -0.296 OA
HETATM    8  C10 UNL     1      -0.513  -1.008  -0.345  1.00  0.00     0.001 A 
HETATM    9  C15 UNL     1      -2.863  -0.267   0.567  1.00  0.00     0.000 C 
ENDROOT
BRANCH   8  10
HETATM   10  C11 UNL     1      -1.050  -2.387  -0.713  1.00  0.00     0.008 C 
BRANCH  10  11
HETATM   11  C12 UNL     1      -1.729  -2.399  -2.091  1.00  0.00     0.065 C 
BRANCH  11  12
HETATM   12  C13 UNL     1      -2.250  -3.760  -2.525  1.00  0.00     0.151 C 
HETATM   13  C14 UNL     1      -2.917  -3.822  -3.887  1.00  0.00     0.072 C 
HETATM   14  O3  UNL     1      -2.145  -4.745  -1.829  1.00  0.00    -0.296 OA
ENDBRANCH  11  12
ENDBRANCH  10  11
ENDBRANCH   8  10
BRANCH   5  15
HETATM   15  C7  UNL     1       2.424   2.126   1.373  1.00  0.00     0.133 C 
HETATM   16  C8  UNL     1       3.185   1.643   2.612  1.00  0.00     0.033 C 
HETATM   17  C9  UNL     1       2.377   3.659   1.392  1.00  0.00     0.033 C 
HETATM   18  O2  UNL     1       3.155   1.730   0.240  1.00  0.00    -0.226 OA
ENDBRANCH   5  15
TORSDOF 4
