REMARK  7 active torsions:
REMARK  status: ('A' for Active; 'I' for Inactive)
REMARK    1  A    between atoms: C3_3  and  C25_31 
REMARK    2  A    between atoms: C13_13  and  O1_15 
REMARK    3  A    between atoms: O1_15  and  C15_16 
REMARK    4  A    between atoms: C16_18  and  C20_25 
REMARK    5  A    between atoms: C25_31  and  O7_32 
REMARK    6  A    between atoms: O7_32  and  C26_33 
REMARK    7  A    between atoms: C27_35  and  C31_42 
ROOT
HETATM    1  C1  UNL     1      -2.075  -0.695   3.420  1.00  0.00     0.001 C 
HETATM    2  C2  UNL     1      -2.137  -2.214   3.241  1.00  0.00     0.009 C 
HETATM    3  C3  UNL     1      -1.681  -2.718   1.849  1.00  0.00     0.078 C 
HETATM    4  C4  UNL     1      -0.300  -2.081   1.510  1.00  0.00     0.009 C 
HETATM    5  C5  UNL     1      -0.184  -0.529   1.637  1.00  0.00     0.001 C 
HETATM    6  C6  UNL     1      -0.688  -0.145   3.059  1.00  0.00     0.000 C 
HETATM    7  C7  UNL     1       1.329  -0.123   1.499  1.00  0.00     0.003 C 
HETATM    8  C8  UNL     1       2.138  -0.751   0.332  1.00  0.00     0.004 C 
HETATM    9  C9  UNL     1       1.863  -2.256   0.207  1.00  0.00     0.000 C 
HETATM   10  C10 UNL     1       0.365  -2.577   0.212  1.00  0.00     0.001 C 
HETATM   11  C11 UNL     1       1.900   0.018  -0.982  1.00  0.00     0.007 C 
HETATM   12  C12 UNL     1       2.628   1.337  -0.703  1.00  0.00     0.046 C 
HETATM   13  C13 UNL     1       1.861   2.170   0.331  1.00  0.00     0.122 C 
HETATM   14  C14 UNL     1       1.656   1.385   1.638  1.00  0.00     0.030 C 
HETATM   15  C21 UNL     1       3.910   0.831  -0.097  1.00  0.00    -0.042 C 
HETATM   16  C22 UNL     1       3.663  -0.516   0.528  1.00  0.00     0.022 C 
HETATM   17  C23 UNL     1       5.083   1.477  -0.117  1.00  0.00    -0.009 C 
HETATM   18  C24 UNL     1      -1.064   0.224   0.617  1.00  0.00     0.000 C 
HETATM   19  C32 UNL     1      -1.577  -4.261   1.990  1.00  0.00     0.010 C 
ENDROOT
BRANCH   3  20
HETATM   20  C25 UNL     1      -2.760  -2.415   0.803  1.00  0.00     0.273 C 
HETATM   21  O13 UNL     1      -3.688  -1.654   0.957  1.00  0.00    -0.264 OA
BRANCH  20  22
HETATM   22  O7  UNL     1      -2.537  -3.101  -0.348  1.00  0.00    -0.273 OA
BRANCH  22  23
HETATM   23  C26 UNL     1      -3.305  -2.800  -1.487  1.00  0.00     0.276 C 
HETATM   24  O8  UNL     1      -4.615  -3.296  -1.332  1.00  0.00    -0.326 OA
HETATM   25  C27 UNL     1      -4.780  -4.687  -1.405  1.00  0.00     0.184 C 
HETATM   26  C28 UNL     1      -4.103  -5.301  -2.624  1.00  0.00     0.215 C 
HETATM   27  C29 UNL     1      -2.678  -4.825  -2.839  1.00  0.00     0.220 C 
HETATM   28  O11 UNL     1      -4.850  -4.969  -3.776  1.00  0.00    -0.218 OA
HETATM   29  C30 UNL     1      -2.631  -3.312  -2.742  1.00  0.00     0.241 C 
HETATM   30  O10 UNL     1      -1.811  -5.394  -1.886  1.00  0.00    -0.218 OA
HETATM   31  O9  UNL     1      -3.291  -2.765  -3.861  1.00  0.00    -0.215 OA
BRANCH  25  32
HETATM   32  C31 UNL     1      -4.470  -5.372  -0.080  1.00  0.00     0.214 C 
HETATM   33  O12 UNL     1      -5.139  -6.617  -0.014  1.00  0.00    -0.218 OA
ENDBRANCH  25  32
ENDBRANCH  22  23
ENDBRANCH  20  22
ENDBRANCH   3  20
BRANCH  13  34
HETATM   34  O1  UNL     1       2.628   3.318   0.569  1.00  0.00    -0.331 OA
BRANCH  34  35
HETATM   35  C15 UNL     1       1.958   4.392   1.181  1.00  0.00     0.270 C 
HETATM   36  O2  UNL     1       1.373   5.181   0.168  1.00  0.00    -0.326 OA
HETATM   37  C16 UNL     1       2.251   5.891  -0.667  1.00  0.00     0.184 C 
HETATM   38  C17 UNL     1       3.333   6.646   0.097  1.00  0.00     0.215 C 
HETATM   39  C18 UNL     1       3.997   5.828   1.189  1.00  0.00     0.220 C 
HETATM   40  O5  UNL     1       2.757   7.789   0.697  1.00  0.00    -0.218 OA
HETATM   41  C19 UNL     1       2.931   5.170   2.040  1.00  0.00     0.241 C 
HETATM   42  O4  UNL     1       4.850   4.845   0.645  1.00  0.00    -0.218 OA
HETATM   43  O3  UNL     1       2.225   6.159   2.753  1.00  0.00    -0.215 OA
BRANCH  37  44
HETATM   44  C20 UNL     1       2.767   5.042  -1.824  1.00  0.00     0.214 C 
HETATM   45  O6  UNL     1       3.182   5.881  -2.885  1.00  0.00    -0.218 OA
ENDBRANCH  37  44
ENDBRANCH  34  35
ENDBRANCH  13  34
TORSDOF 7
