REMARK  4 active torsions:
REMARK  status: ('A' for Active; 'I' for Inactive)
REMARK    1  A    between atoms: C3_3  and  C19_20 
REMARK    2  A    between atoms: C19_20  and  O2_21 
REMARK    3  A    between atoms: O2_21  and  C20_22 
REMARK    4  A    between atoms: C21_24  and  C25_31 
ROOT
HETATM    1  C1  UNL     1      -0.937   1.428   3.322  1.00  0.00     0.034 C 
HETATM    2  C2  UNL     1      -0.934  -0.091   3.192  1.00  0.00     0.161 C 
HETATM    3  C3  UNL     1      -0.503  -0.611   1.804  1.00  0.00     0.106 C 
HETATM    4  C4  UNL     1       0.859   0.059   1.440  1.00  0.00     0.011 C 
HETATM    5  C5  UNL     1       0.937   1.616   1.526  1.00  0.00     0.001 C 
HETATM    6  C6  UNL     1       0.426   2.023   2.938  1.00  0.00     0.003 C 
HETATM    7  C7  UNL     1       2.436   2.066   1.371  1.00  0.00     0.003 C 
HETATM    8  C8  UNL     1       3.275   1.407   0.238  1.00  0.00     0.004 C 
HETATM    9  C9  UNL     1       3.030  -0.105   0.159  1.00  0.00     0.000 C 
HETATM   10  C10 UNL     1       1.538  -0.453   0.155  1.00  0.00     0.001 C 
HETATM   11  C11 UNL     1       3.062   2.111  -1.119  1.00  0.00     0.007 C 
HETATM   12  C12 UNL     1       3.742   3.465  -0.877  1.00  0.00     0.049 C 
HETATM   13  C13 UNL     1       2.869   4.280   0.073  1.00  0.00     0.156 C 
HETATM   14  C14 UNL     1       2.701   3.593   1.432  1.00  0.00     0.033 C 
HETATM   15  O1  UNL     1       3.446   5.552   0.262  1.00  0.00    -0.223 OA
HETATM   16  C15 UNL     1       5.006   3.031  -0.183  1.00  0.00    -0.042 C 
HETATM   17  C16 UNL     1       4.790   1.682   0.451  1.00  0.00     0.022 C 
HETATM   18  C17 UNL     1       6.138   3.742  -0.123  1.00  0.00    -0.009 C 
HETATM   19  C18 UNL     1       0.042   2.325   0.488  1.00  0.00     0.000 C 
HETATM   20  C26 UNL     1      -0.338  -2.148   1.966  1.00  0.00     0.013 C 
HETATM   21  O9  UNL     1      -2.200  -0.603   3.546  1.00  0.00    -0.223 OA
ENDROOT
BRANCH   3  22
HETATM   22  C19 UNL     1      -1.588  -0.350   0.750  1.00  0.00     0.275 C 
HETATM   23  O8  UNL     1      -2.504   0.435   0.855  1.00  0.00    -0.264 OA
BRANCH  22  24
HETATM   24  O2  UNL     1      -1.375  -1.089  -0.370  1.00  0.00    -0.273 OA
BRANCH  24  25
HETATM   25  C20 UNL     1      -2.148  -0.826  -1.516  1.00  0.00     0.276 C 
HETATM   26  O3  UNL     1      -3.468  -1.285  -1.331  1.00  0.00    -0.326 OA
HETATM   27  C21 UNL     1      -3.658  -2.673  -1.326  1.00  0.00     0.184 C 
HETATM   28  C22 UNL     1      -3.009  -3.360  -2.520  1.00  0.00     0.215 C 
HETATM   29  C23 UNL     1      -1.578  -2.923  -2.777  1.00  0.00     0.220 C 
HETATM   30  O6  UNL     1      -3.765  -3.071  -3.677  1.00  0.00    -0.218 OA
HETATM   31  C24 UNL     1      -1.496  -1.408  -2.751  1.00  0.00     0.241 C 
HETATM   32  O5  UNL     1      -0.708  -3.467  -1.814  1.00  0.00    -0.218 OA
HETATM   33  O4  UNL     1      -2.156  -0.902  -3.889  1.00  0.00    -0.215 OA
BRANCH  27  34
HETATM   34  C25 UNL     1      -3.340  -3.292   0.029  1.00  0.00     0.214 C 
HETATM   35  O7  UNL     1      -4.037  -4.514   0.173  1.00  0.00    -0.218 OA
ENDBRANCH  27  34
ENDBRANCH  24  25
ENDBRANCH  22  24
ENDBRANCH   3  22
TORSDOF 4
