REMARK  4 active torsions:
REMARK  status: ('A' for Active; 'I' for Inactive)
REMARK    1  A    between atoms: C2_2  and  N2_30 
REMARK    2  A    between atoms: C3_3  and  C26_28 
REMARK    3  A    between atoms: C15_15  and  C18_19 
REMARK    4  A    between atoms: C18_19  and  N1_21 
ROOT
HETATM    1  C1  UNL     1      -4.341  -0.682   0.929  1.00  0.00     0.033 C 
HETATM    2  C2  UNL     1      -4.167  -1.719   2.065  1.00  0.00     0.222 C 
HETATM    3  C3  UNL     1      -2.884  -2.620   1.839  1.00  0.00     0.064 C 
HETATM    4  C4  UNL     1      -1.883  -1.936   0.835  1.00  0.00     0.026 C 
HETATM    5  C5  UNL     1      -1.805  -0.421   1.002  1.00  0.00     0.004 A 
HETATM    6  C6  UNL     1      -3.137   0.239   0.679  1.00  0.00     0.002 C 
HETATM    7  C7  UNL     1      -0.509   0.335   0.718  1.00  0.00     0.004 A 
HETATM    8  C8  UNL     1       0.777  -0.440   0.410  1.00  0.00     0.022 C 
HETATM    9  C9  UNL     1       0.635  -1.929   0.546  1.00  0.00    -0.031 C 
HETATM   10  C10 UNL     1      -0.520  -2.577   0.737  1.00  0.00    -0.031 C 
HETATM   11  C11 UNL     1       1.362  -0.048  -0.963  1.00  0.00     0.006 C 
HETATM   12  C12 UNL     1       1.655   1.485  -0.972  1.00  0.00     0.005 C 
HETATM   13  C13 UNL     1       0.298   2.208  -0.974  1.00  0.00     0.000 C 
HETATM   14  C14 UNL     1      -0.541   1.808   0.259  1.00  0.00     0.000 C 
HETATM   15  C15 UNL     1       2.508   1.643  -2.259  1.00  0.00     0.062 C 
HETATM   16  C16 UNL     1       3.384   0.382  -2.299  1.00  0.00     0.154 C 
HETATM   17  C17 UNL     1       2.747  -0.626  -1.328  1.00  0.00     0.033 C 
HETATM   18  O1  UNL     1       3.415  -0.144  -3.606  1.00  0.00    -0.223 OA
HETATM   19  C22 UNL     1       2.467   1.975   0.253  1.00  0.00     0.000 C 
HETATM   20  C23 UNL     1       0.356  -0.561  -2.032  1.00  0.00     0.000 C 
HETATM   21  C24 UNL     1      -0.996   0.135   2.141  1.00  0.00     0.001 A 
HETATM   22  C25 UNL     1      -2.146  -3.046   3.126  1.00  0.00     0.005 C 
ENDROOT
BRANCH  15  23
HETATM   23  C18 UNL     1       3.120   3.028  -2.639  1.00  0.00     0.222 C 
HETATM   24  C19 UNL     1       2.481   3.476  -3.980  1.00  0.00     0.035 C 
BRANCH  23  25
HETATM   25  N1  UNL     1       4.592   3.065  -2.683  1.00  0.00     0.139 N 
HETATM   26  C20 UNL     1       5.194   3.074  -1.353  1.00  0.00     0.285 C 
HETATM   27  C21 UNL     1       5.127   4.215  -3.407  1.00  0.00     0.285 C 
ENDBRANCH  23  25
ENDBRANCH  15  23
BRANCH   3  28
HETATM   28  C26 UNL     1      -3.432  -3.934   1.205  1.00  0.00     0.184 C 
HETATM   29  O2  UNL     1      -2.443  -4.914   0.973  1.00  0.00    -0.221 OA
ENDBRANCH   3  28
BRANCH   2  30
HETATM   30  N2  UNL     1      -4.562  -1.168   3.372  1.00  0.00     0.139 N 
HETATM   31  C27 UNL     1      -4.808  -2.156   4.414  1.00  0.00     0.285 C 
HETATM   32  C28 UNL     1      -3.770  -0.075   3.903  1.00  0.00     0.285 C 
ENDBRANCH   2  30
TORSDOF 4
