REMARK  0 active torsions:
REMARK  status: ('A' for Active; 'I' for Inactive)
ROOT
HETATM    1  C1  UNL     1      -1.155   0.361  -0.900  1.00  0.00     0.074 A 
HETATM    2  C2  UNL     1      -1.081  -0.988  -0.945  1.00  0.00     0.089 A 
HETATM    3  N1  UNL     1      -0.074  -1.796  -0.564  1.00  0.00    -0.210 NA
HETATM    4  C3  UNL     1       1.012  -1.644   0.225  1.00  0.00     0.276 C 
HETATM    5  C4  UNL     1       1.034  -0.396   1.073  1.00  0.00     0.165 C 
HETATM    6  N2  UNL     1       0.876   0.848   0.343  1.00  0.00    -0.310 N 
HETATM    7  C5  UNL     1      -0.169   1.203  -0.467  1.00  0.00     0.259 C 
HETATM    8  O1  UNL     1      -0.274   2.378  -0.746  1.00  0.00    -0.267 OA
HETATM    9  C6  UNL     1       1.914   1.792   0.747  1.00  0.00     0.105 C 
HETATM   10  C7  UNL     1       2.431   1.260   2.089  1.00  0.00     0.027 C 
HETATM   11  C8  UNL     1       2.343  -0.254   1.874  1.00  0.00     0.034 C 
HETATM   12  O2  UNL     1       1.806  -2.547   0.333  1.00  0.00    -0.268 OA
HETATM   13  C9  UNL     1      -2.102  -1.694  -1.474  1.00  0.00     0.019 A 
HETATM   14  C10 UNL     1      -3.216  -1.108  -1.929  1.00  0.00     0.002 A 
HETATM   15  C11 UNL     1      -3.308   0.225  -1.874  1.00  0.00     0.000 A 
HETATM   16  C12 UNL     1      -2.284   0.934  -1.379  1.00  0.00     0.006 A 
ENDROOT
TORSDOF 0
