REMARK  14 active torsions:
REMARK  status: ('A' for Active; 'I' for Inactive)
REMARK    1  A    between atoms: C2_2  and  O4_24 
REMARK    2  A    between atoms: C12_12  and  C15_15 
REMARK    3  A    between atoms: O4_24  and  C21_25 
REMARK    4  A    between atoms: C23_27  and  O14_57 
REMARK    5  A    between atoms: C24_28  and  O5_29 
REMARK    6  A    between atoms: O5_29  and  O6_30 
REMARK    7  A    between atoms: O6_30  and  C25_31 
REMARK    8  A    between atoms: C25_31  and  C26_32 
REMARK    9  A    between atoms: C28_35  and  C32_40 
REMARK   10  A    between atoms: C29_36  and  O8_38 
REMARK   11  A    between atoms: C32_40  and  O9_41 
REMARK   12  A    between atoms: O9_41  and  C33_42 
REMARK   13  A    between atoms: C33_42  and  C34_43 
REMARK   14  A    between atoms: C37_47  and  O11_49 
ROOT
HETATM    1  C21 UNL     1      -4.184  -0.473   0.031  1.00  0.00     0.238 C 
HETATM    2  C22 UNL     1      -2.952   0.047   0.755  1.00  0.00     0.094 C 
HETATM    3  C23 UNL     1      -1.684  -0.270  -0.035  1.00  0.00     0.153 C 
HETATM    4  C24 UNL     1      -1.682  -1.780  -0.275  1.00  0.00     0.206 C 
HETATM    5  C42 UNL     1      -2.983  -2.227  -0.946  1.00  0.00     0.151 C 
HETATM    6  O13 UNL     1      -4.089  -1.867  -0.161  1.00  0.00    -0.331 OA
HETATM    7  C43 UNL     1      -3.033  -3.745  -1.140  1.00  0.00     0.035 C 
ENDROOT
BRANCH   1   8
HETATM    8  O4  UNL     1      -5.306  -0.301   0.874  1.00  0.00    -0.331 OA
BRANCH   8   9
HETATM    9  C2  UNL     1      -6.500   0.016   0.211  1.00  0.00     0.152 C 
HETATM   10  C1  UNL     1      -7.634  -0.125   1.217  1.00  0.00     0.180 C 
HETATM   11  C6  UNL     1      -7.491   0.844   2.394  1.00  0.00     0.039 C 
HETATM   12  O15 UNL     1      -8.866   0.093   0.569  1.00  0.00    -0.221 OA
HETATM   13  C5  UNL     1      -7.127   2.307   2.013  1.00  0.00     0.018 C 
HETATM   14  C4  UNL     1      -7.242   2.450   0.500  1.00  0.00    -0.046 C 
HETATM   15  C7  UNL     1      -8.107   3.290   2.718  1.00  0.00     0.011 C 
HETATM   16  C20 UNL     1      -5.668   2.621   2.424  1.00  0.00     0.004 C 
HETATM   17  C3  UNL     1      -6.489   1.446  -0.348  1.00  0.00     0.054 C 
HETATM   18  C10 UNL     1      -7.922   3.447  -0.093  1.00  0.00    -0.034 C 
HETATM   19  C9  UNL     1      -8.620   4.563   0.637  1.00  0.00     0.033 C 
HETATM   20  C8  UNL     1      -8.070   4.677   2.064  1.00  0.00     0.065 C 
HETATM   21  C11 UNL     1      -8.682   5.825   2.855  1.00  0.00     0.182 C 
HETATM   22  C12 UNL     1      -9.130   5.677   4.311  1.00  0.00     0.198 C 
HETATM   23  O3  UNL     1      -8.763   6.916   2.332  1.00  0.00    -0.293 OA
HETATM   24  C13 UNL     1      -9.040   4.244   4.849  1.00  0.00     0.042 C 
HETATM   25  O2  UNL     1     -10.514   6.016   4.346  1.00  0.00    -0.214 OA
HETATM   26  C14 UNL     1      -7.916   3.405   4.238  1.00  0.00     0.004 C 
BRANCH  22  27
HETATM   27  C15 UNL     1      -8.395   6.646   5.220  1.00  0.00     0.032 A 
HETATM   28  C16 UNL     1      -8.979   7.459   6.115  1.00  0.00     0.027 A 
HETATM   29  C17 UNL     1      -7.971   8.111   6.700  1.00  0.00     0.122 A 
HETATM   30  O1  UNL     1      -6.888   7.757   6.244  1.00  0.00    -0.310 OA
HETATM   31  C18 UNL     1      -7.079   6.904   5.375  1.00  0.00     0.077 A 
HETATM   32  C19 UNL     1      -5.900   6.317   4.654  1.00  0.00     0.058 C 
ENDBRANCH  22  27
ENDBRANCH   8   9
ENDBRANCH   1   8
BRANCH   3  33
HETATM   33  O14 UNL     1      -1.667   0.383  -1.278  1.00  0.00    -0.351 OA
HETATM   34  C44 UNL     1      -1.373   1.761  -1.205  1.00  0.00     0.174 C 
ENDBRANCH   3  33
BRANCH   4  35
HETATM   35  O5  UNL     1      -0.583  -2.149  -1.076  1.00  0.00    -0.218 OA
BRANCH  35  36
HETATM   36  O6  UNL     1       0.591  -2.175  -0.178  1.00  0.00    -0.218 OA
BRANCH  36  37
HETATM   37  C25 UNL     1       1.616  -1.431  -0.811  1.00  0.00     0.212 C 
BRANCH  37  38
HETATM   38  C26 UNL     1       2.962  -1.982  -0.343  1.00  0.00     0.151 C 
HETATM   39  O7  UNL     1       4.030  -1.112  -0.606  1.00  0.00    -0.356 OA
HETATM   40  C27 UNL     1       4.408  -1.036  -1.952  1.00  0.00     0.120 C 
HETATM   41  C28 UNL     1       4.831  -2.409  -2.503  1.00  0.00     0.084 C 
HETATM   42  C41 UNL     1       5.509   0.021  -2.079  1.00  0.00     0.032 C 
HETATM   43  C29 UNL     1       3.643  -3.371  -2.341  1.00  0.00     0.123 C 
HETATM   44  C30 UNL     1       3.255  -3.392  -0.863  1.00  0.00     0.062 C 
BRANCH  41  45
HETATM   45  C32 UNL     1       6.132  -2.953  -1.889  1.00  0.00     0.147 C 
BRANCH  45  46
HETATM   46  O9  UNL     1       7.237  -2.533  -2.657  1.00  0.00    -0.351 OA
BRANCH  46  47
HETATM   47  C33 UNL     1       8.392  -3.305  -2.414  1.00  0.00     0.172 C 
BRANCH  47  48
HETATM   48  C34 UNL     1       9.527  -2.839  -3.323  1.00  0.00     0.147 C 
HETATM   49  O10 UNL     1      10.318  -3.898  -3.794  1.00  0.00    -0.354 OA
HETATM   50  C35 UNL     1      11.283  -4.405  -2.913  1.00  0.00     0.148 C 
HETATM   51  C36 UNL     1      12.172  -3.319  -2.331  1.00  0.00     0.206 C 
HETATM   52  C40 UNL     1      10.698  -5.343  -1.855  1.00  0.00     0.035 C 
HETATM   53  C37 UNL     1      11.385  -2.165  -1.733  1.00  0.00     0.151 C 
HETATM   54  O12 UNL     1      13.010  -2.801  -3.339  1.00  0.00    -0.218 OA
HETATM   55  C38 UNL     1      10.360  -1.687  -2.760  1.00  0.00     0.065 C 
BRANCH  53  56
HETATM   56  O11 UNL     1      12.322  -1.174  -1.403  1.00  0.00    -0.351 OA
HETATM   57  C39 UNL     1      11.792  -0.109  -0.646  1.00  0.00     0.174 C 
ENDBRANCH  53  56
ENDBRANCH  47  48
ENDBRANCH  46  47
ENDBRANCH  45  46
ENDBRANCH  41  45
BRANCH  43  58
HETATM   58  O8  UNL     1       3.897  -4.687  -2.756  1.00  0.00    -0.354 OA
HETATM   59  C31 UNL     1       4.171  -4.811  -4.136  1.00  0.00     0.174 C 
ENDBRANCH  43  58
ENDBRANCH  37  38
ENDBRANCH  36  37
ENDBRANCH  35  36
ENDBRANCH   4  35
TORSDOF 14
