REMARK  11 active torsions:
REMARK  status: ('A' for Active; 'I' for Inactive)
REMARK    1  A    between atoms: C5_5  and  C7_7 
REMARK    2  A    between atoms: C8_8  and  C9_9 
REMARK    3  A    between atoms: C9_9  and  O1_10 
REMARK    4  A    between atoms: O1_10  and  C10_11 
REMARK    5  A    between atoms: C10_11  and  C11_12 
REMARK    6  A    between atoms: C10_11  and  C30_37 
REMARK    7  A    between atoms: C11_12  and  C12_13 
REMARK    8  A    between atoms: C20_21  and  O2_23 
REMARK    9  A    between atoms: O2_23  and  C22_24 
REMARK   10  A    between atoms: C25_28  and  O4_30 
REMARK   11  A    between atoms: C34_41  and  C35_42 
ROOT
HETATM    1  C12 UNL     1       0.652  -1.459   0.864  1.00  0.00     0.067 C 
HETATM    2  C13 UNL     1       0.509  -2.929   1.250  1.00  0.00     0.173 C 
HETATM    3  C14 UNL     1      -0.289  -3.697   0.470  1.00  0.00     0.035 C 
HETATM    4  C15 UNL     1      -1.060  -3.191  -0.503  1.00  0.00     0.006 C 
HETATM    5  C16 UNL     1      -1.269  -1.719  -0.768  1.00  0.00     0.148 C 
HETATM    6  C17 UNL     1      -0.684  -0.834   0.361  1.00  0.00     0.037 C 
HETATM    7  C18 UNL     1      -0.400   0.593  -0.187  1.00  0.00     0.006 C 
HETATM    8  C19 UNL     1      -1.331   1.017  -1.329  1.00  0.00     0.030 C 
HETATM    9  C20 UNL     1      -1.218   0.084  -2.544  1.00  0.00     0.121 C 
HETATM   10  C21 UNL     1      -0.710  -1.307  -2.133  1.00  0.00     0.064 C 
HETATM   11  C29 UNL     1      -1.683  -0.762   1.542  1.00  0.00     0.003 C 
HETATM   12  O6  UNL     1      -2.673  -1.542  -0.832  1.00  0.00    -0.221 OA
HETATM   13  O7  UNL     1       1.130  -3.424   2.164  1.00  0.00    -0.291 OA
ENDROOT
BRANCH   1  14
HETATM   14  C11 UNL     1       1.428  -0.604   1.898  1.00  0.00     0.038 C 
BRANCH  14  15
HETATM   15  C10 UNL     1       2.819  -0.082   1.474  1.00  0.00     0.132 C 
BRANCH  15  16
HETATM   16  O1  UNL     1       2.956   1.289   1.745  1.00  0.00    -0.300 OA
BRANCH  16  17
HETATM   17  C9  UNL     1       2.663   1.829   2.970  1.00  0.00     0.296 C 
HETATM   18  O10 UNL     1       2.427   1.088   3.893  1.00  0.00    -0.259 OA
BRANCH  17  19
HETATM   19  C8  UNL     1       2.537   3.180   3.081  1.00  0.00     0.068 C 
HETATM   20  C7  UNL     1       2.272   4.000   4.117  1.00  0.00     0.005 C 
BRANCH  20  21
HETATM   21  C5  UNL     1       2.126   3.880   5.455  1.00  0.00     0.000 A 
HETATM   22  C4  UNL     1       1.684   4.963   6.136  1.00  0.00     0.000 A 
HETATM   23  C3  UNL     1       1.506   4.959   7.466  1.00  0.00     0.000 A 
HETATM   24  C2  UNL     1       1.784   3.859   8.177  1.00  0.00     0.000 A 
HETATM   25  C1  UNL     1       2.255   2.781   7.537  1.00  0.00     0.000 A 
HETATM   26  C6  UNL     1       2.427   2.803   6.205  1.00  0.00     0.000 A 
ENDBRANCH  20  21
ENDBRANCH  17  19
ENDBRANCH  16  17
ENDBRANCH  15  16
BRANCH  15  27
HETATM   27  C30 UNL     1       4.092  -0.881   1.876  1.00  0.00     0.084 C 
HETATM   28  C31 UNL     1       4.300  -2.049   0.898  1.00  0.00     0.152 C 
HETATM   29  C32 UNL     1       5.752  -2.208   0.492  1.00  0.00     0.065 C 
HETATM   30  O9  UNL     1       3.429  -2.754   0.448  1.00  0.00    -0.296 OA
HETATM   31  C33 UNL     1       6.495  -1.174   1.341  1.00  0.00     0.016 C 
HETATM   32  C34 UNL     1       5.429  -0.109   1.653  1.00  0.00     0.067 C 
HETATM   33  C37 UNL     1       4.042  -1.514   3.279  1.00  0.00     0.010 C 
BRANCH  32  34
HETATM   34  C35 UNL     1       5.866   0.909   2.707  1.00  0.00     0.151 C 
HETATM   35  O8  UNL     1       5.521   2.067   2.627  1.00  0.00    -0.296 OA
HETATM   36  C36 UNL     1       6.786   0.502   3.844  1.00  0.00     0.072 C 
ENDBRANCH  32  34
ENDBRANCH  15  27
ENDBRANCH  14  15
ENDBRANCH   1  14
BRANCH   9  37
HETATM   37  O2  UNL     1      -2.499  -0.028  -3.101  1.00  0.00    -0.333 OA
BRANCH  37  38
HETATM   38  C22 UNL     1      -2.549  -0.407  -4.456  1.00  0.00     0.238 C 
HETATM   39  O3  UNL     1      -2.818   0.752  -5.215  1.00  0.00    -0.331 OA
HETATM   40  C23 UNL     1      -4.109   1.293  -5.093  1.00  0.00     0.151 C 
HETATM   41  C24 UNL     1      -5.218   0.258  -5.217  1.00  0.00     0.206 C 
HETATM   42  C28 UNL     1      -4.264   2.181  -3.853  1.00  0.00     0.035 C 
HETATM   43  C25 UNL     1      -4.988  -0.968  -4.349  1.00  0.00     0.153 C 
HETATM   44  O5  UNL     1      -5.327  -0.171  -6.555  1.00  0.00    -0.218 OA
HETATM   45  C26 UNL     1      -3.589  -1.497  -4.653  1.00  0.00     0.094 C 
BRANCH  43  46
HETATM   46  O4  UNL     1      -5.984  -1.902  -4.669  1.00  0.00    -0.351 OA
HETATM   47  C27 UNL     1      -6.105  -2.946  -3.726  1.00  0.00     0.174 C 
ENDBRANCH  43  46
ENDBRANCH  37  38
ENDBRANCH   9  37
TORSDOF 11
