REMARK  1 active torsions:
REMARK  status: ('A' for Active; 'I' for Inactive)
REMARK    1  A    between atoms: C12_12  and  O2_16 
ROOT
HETATM    1  C1  UNL     1      -2.670  -1.855   1.672  1.00  0.00     0.027 A 
HETATM    2  C2  UNL     1      -3.468  -0.793   1.840  1.00  0.00     0.131 A 
HETATM    3  C3  UNL     1      -3.005   0.378   1.383  1.00  0.00     0.027 A 
HETATM    4  C4  UNL     1      -1.806   0.491   0.781  1.00  0.00     0.002 A 
HETATM    5  C5  UNL     1      -0.988  -0.572   0.599  1.00  0.00     0.003 A 
HETATM    6  C6  UNL     1      -1.475  -1.740   1.072  1.00  0.00     0.002 A 
HETATM    7  C7  UNL     1       0.212  -0.396  -0.020  1.00  0.00     0.042 A 
HETATM    8  C8  UNL     1       0.575   0.837  -0.445  1.00  0.00     0.044 A 
HETATM    9  C9  UNL     1      -0.256   1.878  -0.250  1.00  0.00     0.003 A 
HETATM   10  C10 UNL     1      -1.434   1.709   0.357  1.00  0.00     0.000 A 
HETATM   11  C11 UNL     1       1.759   1.093  -1.075  1.00  0.00     0.218 A 
HETATM   12  C12 UNL     1       2.635   0.076  -1.298  1.00  0.00     0.136 A 
HETATM   13  C13 UNL     1       2.260  -1.139  -0.869  1.00  0.00     0.070 A 
HETATM   14  C14 UNL     1       1.091  -1.416  -0.242  1.00  0.00     0.198 A 
HETATM   15  O1  UNL     1       0.943  -2.577   0.066  1.00  0.00    -0.286 OA
HETATM   16  O3  UNL     1       2.030   2.217  -1.434  1.00  0.00    -0.284 OA
HETATM   17  O4  UNL     1      -4.679  -0.903   2.447  1.00  0.00    -0.190 OA
ENDROOT
BRANCH  12  18
HETATM   18  O2  UNL     1       3.861   0.180  -1.920  1.00  0.00    -0.325 OA
HETATM   19  C15 UNL     1       4.342   1.415  -2.391  1.00  0.00     0.181 C 
ENDBRANCH  12  18
TORSDOF 1
