REMARK  2 active torsions:
REMARK  status: ('A' for Active; 'I' for Inactive)
REMARK    1  A    between atoms: C4_4  and  O2_8 
REMARK    2  A    between atoms: C8_11  and  O5_20 
ROOT
HETATM    1  C1  UNL     1       0.288  -0.903   0.266  1.00  0.00     0.044 A 
HETATM    2  C2  UNL     1       0.650   0.335  -0.163  1.00  0.00     0.066 A 
HETATM    3  C3  UNL     1       1.849   0.545  -0.793  1.00  0.00     0.220 A 
HETATM    4  C4  UNL     1       2.717  -0.483  -0.999  1.00  0.00     0.136 A 
HETATM    5  C5  UNL     1       2.328  -1.690  -0.570  1.00  0.00     0.070 A 
HETATM    6  C6  UNL     1       1.155  -1.937   0.057  1.00  0.00     0.198 A 
HETATM    7  O1  UNL     1       0.999  -3.096   0.368  1.00  0.00    -0.286 OA
HETATM    8  O3  UNL     1       2.190   1.632  -1.198  1.00  0.00    -0.284 OA
HETATM    9  C8  UNL     1      -0.185   1.392   0.009  1.00  0.00     0.097 A 
HETATM   10  C9  UNL     1      -1.328   1.174   0.678  1.00  0.00     0.024 A 
HETATM   11  C10 UNL     1      -1.714  -0.039   1.095  1.00  0.00     0.004 A 
HETATM   12  C11 UNL     1      -0.907  -1.100   0.887  1.00  0.00     0.003 A 
HETATM   13  C12 UNL     1      -1.401  -2.272   1.345  1.00  0.00     0.002 A 
HETATM   14  C13 UNL     1      -2.590  -2.387   1.956  1.00  0.00     0.027 A 
HETATM   15  C14 UNL     1      -3.375  -1.322   2.158  1.00  0.00     0.131 A 
HETATM   16  C15 UNL     1      -2.905  -0.147   1.714  1.00  0.00     0.028 A 
HETATM   17  O4  UNL     1      -4.580  -1.436   2.777  1.00  0.00    -0.190 OA
ENDROOT
BRANCH   4  18
HETATM   18  O2  UNL     1       3.917  -0.403  -1.674  1.00  0.00    -0.325 OA
HETATM   19  C7  UNL     1       4.158   0.627  -2.604  1.00  0.00     0.181 C 
ENDBRANCH   4  18
BRANCH   9  20
HETATM   20  O5  UNL     1       0.102   2.700  -0.313  1.00  0.00    -0.328 OA
HETATM   21  C16 UNL     1      -0.421   3.115  -1.556  1.00  0.00     0.181 C 
ENDBRANCH   9  20
TORSDOF 2
