REMARK  1 active torsions:
REMARK  status: ('A' for Active; 'I' for Inactive)
REMARK    1  A    between atoms: C8_9  and  C11_13 
ROOT
HETATM    1  C1  UNL     1      -3.101  -0.606   0.663  1.00  0.00     0.123 C 
HETATM    2  C2  UNL     1      -3.042  -1.927   0.396  1.00  0.00     0.025 C 
HETATM    3  C3  UNL     1      -1.931  -2.541  -0.052  1.00  0.00     0.116 C 
HETATM    4  C4  UNL     1      -0.628  -1.812  -0.275  1.00  0.00     0.136 C 
HETATM    5  C5  UNL     1      -0.710  -0.298  -0.083  1.00  0.00     0.149 C 
HETATM    6  C6  UNL     1      -2.031   0.189   0.469  1.00  0.00     0.009 C 
HETATM    7  C7  UNL     1      -2.038   1.675   0.774  1.00  0.00     0.031 C 
HETATM    8  O1  UNL     1      -0.457   0.368  -1.300  1.00  0.00    -0.349 OA
HETATM    9  C8  UNL     1       0.863   0.217  -1.776  1.00  0.00     0.145 C 
HETATM   10  C9  UNL     1       1.236  -1.262  -1.930  1.00  0.00     0.099 C 
HETATM   11  C10 UNL     1       0.050  -2.146  -1.599  1.00  0.00     0.162 C 
HETATM   12  O2  UNL     1      -0.282  -3.064  -2.315  1.00  0.00    -0.295 OA
HETATM   13  O5  UNL     1      -1.904  -3.887  -0.271  1.00  0.00    -0.195 OA
HETATM   14  C17 UNL     1      -4.266  -2.798   0.628  1.00  0.00     0.035 C 
HETATM   15  O6  UNL     1      -4.264  -0.073   1.135  1.00  0.00    -0.191 OA
ENDROOT
BRANCH   9  16
HETATM   16  C11 UNL     1       1.845   1.110  -1.026  1.00  0.00     0.007 A 
HETATM   17  C12 UNL     1       2.043   2.376  -1.434  1.00  0.00     0.000 A 
HETATM   18  C13 UNL     1       2.891   3.188  -0.786  1.00  0.00     0.029 A 
HETATM   19  C14 UNL     1       3.567   2.767   0.294  1.00  0.00     0.156 A 
HETATM   20  C15 UNL     1       3.377   1.506   0.723  1.00  0.00     0.156 A 
HETATM   21  O4  UNL     1       4.426   3.582   0.962  1.00  0.00    -0.188 OA
HETATM   22  C16 UNL     1       2.525   0.705   0.062  1.00  0.00     0.028 A 
HETATM   23  O3  UNL     1       4.043   1.060   1.822  1.00  0.00    -0.188 OA
ENDBRANCH   9  16
TORSDOF 1
