REMARK  7 active torsions:
REMARK  status: ('A' for Active; 'I' for Inactive)
REMARK    1  A    between atoms: C1_1  and  C2_2 
REMARK    2  A    between atoms: C2_2  and  C3_3 
REMARK    3  A    between atoms: C2_2  and  O4_14 
REMARK    4  A    between atoms: C3_3  and  C4_5 
REMARK    5  A    between atoms: C6_7  and  O3_12 
REMARK    6  A    between atoms: O4_14  and  C11_15 
REMARK    7  A    between atoms: C12_17  and  C16_24 
ROOT
HETATM    1  C2  UNL     1       0.041  -0.990   0.265  1.00  0.00     0.185 C 
ENDROOT
BRANCH   1   2
HETATM    2  C1  UNL     1       0.642  -1.208   1.656  1.00  0.00     0.215 C 
HETATM    3  O10 UNL     1      -0.037  -2.268   2.303  1.00  0.00    -0.218 OA
ENDBRANCH   1   2
BRANCH   1   4
HETATM    4  C3  UNL     1       0.745   0.167  -0.450  1.00  0.00     0.204 C 
HETATM    5  O1  UNL     1       0.245   0.331  -1.764  1.00  0.00    -0.216 OA
BRANCH   4   6
HETATM    6  C4  UNL     1       2.249   0.073  -0.637  1.00  0.00     0.012 A 
HETATM    7  C5  UNL     1       2.954   1.190  -0.886  1.00  0.00     0.025 A 
HETATM    8  C6  UNL     1       4.284   1.226  -1.106  1.00  0.00     0.119 A 
HETATM    9  C7  UNL     1       4.941   0.043  -1.095  1.00  0.00     0.153 A 
HETATM   10  C8  UNL     1       4.247  -1.085  -0.862  1.00  0.00     0.029 A 
HETATM   11  O2  UNL     1       6.281  -0.071  -1.303  1.00  0.00    -0.188 OA
HETATM   12  C9  UNL     1       2.924  -1.086  -0.653  1.00  0.00     0.001 A 
BRANCH   8  13
HETATM   13  O3  UNL     1       4.831   2.461  -1.377  1.00  0.00    -0.326 OA
HETATM   14  C10 UNL     1       6.083   2.564  -2.012  1.00  0.00     0.181 C 
ENDBRANCH   8  13
ENDBRANCH   4   6
ENDBRANCH   1   4
BRANCH   1  15
HETATM   15  O4  UNL     1      -1.315  -0.739   0.523  1.00  0.00    -0.326 OA
BRANCH  15  16
HETATM   16  C11 UNL     1      -2.199  -0.650  -0.566  1.00  0.00     0.270 C 
HETATM   17  O5  UNL     1      -2.601   0.702  -0.656  1.00  0.00    -0.326 OA
HETATM   18  C12 UNL     1      -3.397   1.183   0.398  1.00  0.00     0.184 C 
HETATM   19  C13 UNL     1      -4.581   0.275   0.709  1.00  0.00     0.215 C 
HETATM   20  C14 UNL     1      -4.215  -1.195   0.812  1.00  0.00     0.220 C 
HETATM   21  O8  UNL     1      -5.545   0.418  -0.315  1.00  0.00    -0.218 OA
HETATM   22  C15 UNL     1      -3.371  -1.588  -0.382  1.00  0.00     0.241 C 
HETATM   23  O7  UNL     1      -3.515  -1.467   2.008  1.00  0.00    -0.218 OA
HETATM   24  O6  UNL     1      -4.166  -1.545  -1.546  1.00  0.00    -0.215 OA
BRANCH  18  25
HETATM   25  C16 UNL     1      -2.579   1.589   1.620  1.00  0.00     0.214 C 
HETATM   26  O9  UNL     1      -3.321   2.493   2.416  1.00  0.00    -0.218 OA
ENDBRANCH  18  25
ENDBRANCH  15  16
ENDBRANCH   1  15
TORSDOF 7
