REMARK  9 active torsions:
REMARK  status: ('A' for Active; 'I' for Inactive)
REMARK    1  A    between atoms: C3_3  and  O10_37 
REMARK    2  A    between atoms: C6_6  and  O1_7 
REMARK    3  A    between atoms: C11_14  and  C15_19 
REMARK    4  A    between atoms: C15_19  and  O5_20 
REMARK    5  A    between atoms: O5_20  and  C16_21 
REMARK    6  A    between atoms: C21_27  and  O9_35 
REMARK    7  A    between atoms: O10_37  and  C28_38 
REMARK    8  A    between atoms: C28_38  and  C29_39 
REMARK    9  A    between atoms: C29_39  and  C30_40 
ROOT
HETATM    1  C1  UNL     1      -0.123   2.421  -2.570  1.00  0.00     0.027 A 
HETATM    2  C2  UNL     1      -0.078   0.922  -2.488  1.00  0.00     0.116 A 
HETATM    3  C3  UNL     1       1.199   0.136  -2.563  1.00  0.00     0.138 C 
HETATM    4  C4  UNL     1       2.402   0.906  -2.750  1.00  0.00     0.121 C 
HETATM    5  C5  UNL     1       2.320   2.411  -2.615  1.00  0.00     0.025 C 
HETATM    6  C6  UNL     1       1.032   3.203  -2.576  1.00  0.00     0.090 C 
HETATM    7  C8  UNL     1       3.639   3.140  -2.582  1.00  0.00     0.038 C 
HETATM    8  C9  UNL     1       4.858   2.298  -2.341  1.00  0.00     0.094 C 
HETATM    9  C10 UNL     1       4.636   0.844  -2.037  1.00  0.00     0.301 A 
HETATM   10  O2  UNL     1       3.621   0.288  -2.826  1.00  0.00    -0.286 OA
HETATM   11  O3  UNL     1       4.245   0.643  -0.694  1.00  0.00    -0.310 OA
HETATM   12  C11 UNL     1       5.093  -0.284  -0.082  1.00  0.00     0.175 A 
HETATM   13  C12 UNL     1       6.111  -0.706  -1.153  1.00  0.00     0.125 A 
HETATM   14  O4  UNL     1       5.763   0.025  -2.291  1.00  0.00    -0.315 OA
HETATM   15  C13 UNL     1       5.932  -2.198  -1.490  1.00  0.00     0.033 C 
HETATM   16  C14 UNL     1       7.634  -0.488  -0.969  1.00  0.00     0.033 C 
HETATM   17  O13 UNL     1      -1.376   0.335  -2.446  1.00  0.00    -0.329 OA
HETATM   18  C33 UNL     1      -2.296   1.421  -2.506  1.00  0.00     0.154 A 
HETATM   19  C34 UNL     1      -1.598   2.744  -2.578  1.00  0.00     0.063 A 
ENDROOT
BRANCH  12  20
HETATM   20  C15 UNL     1       5.561   0.399   1.190  1.00  0.00     0.181 C 
BRANCH  20  21
HETATM   21  O5  UNL     1       5.292  -0.292   2.373  1.00  0.00    -0.324 OA
BRANCH  21  22
HETATM   22  C16 UNL     1       5.867   0.213   3.515  1.00  0.00     0.138 C 
HETATM   23  C17 UNL     1       5.632  -0.541   4.785  1.00  0.00     0.116 A 
HETATM   24  O6  UNL     1       4.709  -1.619   4.909  1.00  0.00    -0.329 OA
HETATM   25  C20 UNL     1       6.311  -0.198   6.075  1.00  0.00     0.027 A 
HETATM   26  C18 UNL     1       4.729  -1.986   6.281  1.00  0.00     0.154 A 
HETATM   27  C19 UNL     1       5.722  -1.174   7.067  1.00  0.00     0.063 A 
HETATM   28  C21 UNL     1       7.041   1.113   6.210  1.00  0.00     0.090 C 
HETATM   29  C22 UNL     1       7.308   1.784   4.992  1.00  0.00     0.024 A 
HETATM   30  C23 UNL     1       6.748   1.401   3.626  1.00  0.00     0.119 A 
HETATM   31  C26 UNL     1       8.247   2.969   5.028  1.00  0.00     0.036 A 
HETATM   32  O7  UNL     1       7.063   2.097   2.492  1.00  0.00    -0.302 OA
HETATM   33  C24 UNL     1       7.837   3.201   2.501  1.00  0.00     0.274 A 
HETATM   34  C25 UNL     1       8.522   3.704   3.753  1.00  0.00     0.070 A 
HETATM   35  O8  UNL     1       8.040   3.859   1.372  1.00  0.00    -0.190 OA
BRANCH  28  36
HETATM   36  O9  UNL     1       7.674   1.549   7.340  1.00  0.00    -0.329 OA
HETATM   37  C27 UNL     1       7.921   0.637   8.376  1.00  0.00     0.181 C 
ENDBRANCH  28  36
ENDBRANCH  21  22
ENDBRANCH  20  21
ENDBRANCH  12  20
BRANCH   3  38
HETATM   38  O10 UNL     1       1.112  -1.224  -2.439  1.00  0.00    -0.324 OA
BRANCH  38  39
HETATM   39  C28 UNL     1       2.296  -1.975  -2.465  1.00  0.00     0.184 C 
BRANCH  39  40
HETATM   40  C29 UNL     1       2.008  -3.457  -2.546  1.00  0.00     0.210 C 
HETATM   41  O12 UNL     1       1.354  -3.809  -1.348  1.00  0.00    -0.218 OA
BRANCH  40  42
HETATM   42  C30 UNL     1       1.253  -3.860  -3.823  1.00  0.00     0.157 C 
HETATM   43  C31 UNL     1       2.083  -4.836  -4.662  1.00  0.00     0.036 C 
HETATM   44  O11 UNL     1       1.060  -2.754  -4.675  1.00  0.00    -0.223 OA
HETATM   45  C32 UNL     1      -0.130  -4.416  -3.502  1.00  0.00     0.036 C 
ENDBRANCH  40  42
ENDBRANCH  39  40
ENDBRANCH  38  39
ENDBRANCH   3  38
BRANCH   6  46
HETATM   46  O1  UNL     1       1.142   4.564  -2.568  1.00  0.00    -0.329 OA
HETATM   47  C7  UNL     1      -0.010   5.362  -2.549  1.00  0.00     0.181 C 
ENDBRANCH   6  46
TORSDOF 9
