REMARK  5 active torsions:
REMARK  status: ('A' for Active; 'I' for Inactive)
REMARK    1  A    between atoms: C1_1  and  O3_19 
REMARK    2  A    between atoms: C4_4  and  C8_9 
REMARK    3  A    between atoms: C5_5  and  O1_7 
REMARK    4  A    between atoms: C8_9  and  C9_10 
REMARK    5  A    between atoms: C8_9  and  C11_12 
ROOT
HETATM    1  C1  UNL     1       2.382   1.854  -1.054  1.00  0.00     0.121 A 
HETATM    2  C2  UNL     1       2.857   0.562  -0.794  1.00  0.00     0.153 A 
HETATM    3  C3  UNL     1       1.942  -0.459  -0.540  1.00  0.00     0.028 A 
HETATM    4  C4  UNL     1       0.556  -0.267  -0.540  1.00  0.00     0.010 A 
HETATM    5  C5  UNL     1       0.048   1.022  -0.785  1.00  0.00     0.093 A 
HETATM    6  C6  UNL     1       0.990   2.029  -1.054  1.00  0.00     0.050 A 
HETATM    7  O2  UNL     1       4.190   0.294  -0.782  1.00  0.00    -0.188 OA
ENDROOT
BRANCH   4   8
HETATM    8  C8  UNL     1      -0.303  -1.490  -0.253  1.00  0.00     0.068 C 
BRANCH   8   9
HETATM    9  C9  UNL     1      -1.790  -1.355  -0.472  1.00  0.00    -0.018 C 
HETATM   10  C10 UNL     1      -2.385  -1.544  -1.659  1.00  0.00    -0.004 C 
ENDBRANCH   8   9
BRANCH   8  11
HETATM   11  C11 UNL     1      -0.036  -1.986   1.154  1.00  0.00    -0.014 A 
HETATM   12  C12 UNL     1       0.354  -3.310   1.391  1.00  0.00    -0.004 A 
HETATM   13  C13 UNL     1       0.601  -3.766   2.688  1.00  0.00    -0.000 A 
HETATM   14  C14 UNL     1       0.453  -2.901   3.773  1.00  0.00    -0.000 A 
HETATM   15  C15 UNL     1       0.054  -1.582   3.553  1.00  0.00    -0.000 A 
HETATM   16  C16 UNL     1      -0.189  -1.132   2.253  1.00  0.00    -0.004 A 
ENDBRANCH   8  11
ENDBRANCH   4   8
BRANCH   5  17
HETATM   17  O1  UNL     1      -1.309   1.231  -0.786  1.00  0.00    -0.328 OA
HETATM   18  C7  UNL     1      -1.818   2.498  -1.132  1.00  0.00     0.181 C 
ENDBRANCH   5  17
BRANCH   1  19
HETATM   19  O3  UNL     1       3.300   2.836  -1.338  1.00  0.00    -0.326 OA
HETATM   20  C17 UNL     1       2.843   4.069  -1.842  1.00  0.00     0.181 C 
ENDBRANCH   1  19
TORSDOF 5
