REMARK  12 active torsions:
REMARK  status: ('A' for Active; 'I' for Inactive)
REMARK    1  A    between atoms: C4_4  and  O8_35 
REMARK    2  A    between atoms: C7_7  and  O3_13 
REMARK    3  A    between atoms: C8_8  and  O1_9 
REMARK    4  A    between atoms: O1_9  and  C9_10 
REMARK    5  A    between atoms: O3_13  and  C11_14 
REMARK    6  A    between atoms: C15_19  and  O5_22 
REMARK    7  A    between atoms: O5_22  and  C18_23 
REMARK    8  A    between atoms: C18_23  and  C19_24 
REMARK    9  A    between atoms: C20_25  and  C21_26 
REMARK   10  A    between atoms: O8_35  and  C28_36 
REMARK   11  A    between atoms: C31_40  and  O10_43 
REMARK   12  A    between atoms: O10_43  and  C34_44 
ROOT
HETATM    1  C1  UNL     1       0.833   0.403   2.100  1.00  0.00    -0.020 C 
HETATM    2  C2  UNL     1       1.295  -0.757   2.977  1.00  0.00     0.023 C 
HETATM    3  C3  UNL     1       1.709  -1.784   1.907  1.00  0.00     0.051 C 
HETATM    4  C4  UNL     1       2.692  -1.273   0.801  1.00  0.00     0.076 C 
HETATM    5  C5  UNL     1       3.930  -0.339   1.028  1.00  0.00    -0.001 C 
HETATM    6  C6  UNL     1       4.004   1.167   1.505  1.00  0.00     0.077 C 
HETATM    7  C7  UNL     1       2.704   2.016   1.370  1.00  0.00     0.162 C 
HETATM    8  C8  UNL     1       1.460   1.774   2.263  1.00  0.00     0.170 C 
HETATM    9  C13 UNL     1       5.129   1.770   0.572  1.00  0.00     0.161 C 
HETATM   10  C14 UNL     1       6.497   1.091   0.756  1.00  0.00     0.068 C 
HETATM   11  C15 UNL     1       6.472  -0.443   0.687  1.00  0.00     0.149 C 
HETATM   12  C16 UNL     1       5.240  -1.037   1.353  1.00  0.00     0.003 C 
HETATM   13  C17 UNL     1       5.333  -2.123   2.138  1.00  0.00    -0.002 C 
HETATM   14  O7  UNL     1       5.311   3.157   0.772  1.00  0.00    -0.223 OA
HETATM   15  C27 UNL     1       4.616   1.389   2.923  1.00  0.00     0.009 C 
HETATM   16  C30 UNL     1       0.409  -2.370   1.307  1.00  0.00     0.041 C 
HETATM   17  C31 UNL     1      -0.622  -1.291   0.924  1.00  0.00     0.142 C 
HETATM   18  C32 UNL     1      -0.124   0.136   1.176  1.00  0.00    -0.022 C 
HETATM   19  C33 UNL     1      -0.823   1.159   0.299  1.00  0.00     0.028 C 
HETATM   20  C36 UNL     1       0.129  -1.146   3.927  1.00  0.00     0.004 C 
HETATM   21  C37 UNL     1       2.468  -0.678   3.974  1.00  0.00     0.004 C 
ENDROOT
BRANCH  11  22
HETATM   22  O5  UNL     1       6.536  -0.863  -0.659  1.00  0.00    -0.296 OA
BRANCH  22  23
HETATM   23  C18 UNL     1       7.765  -0.908  -1.261  1.00  0.00     0.296 C 
HETATM   24  O6  UNL     1       8.794  -0.801  -0.597  1.00  0.00    -0.259 OA
BRANCH  23  25
HETATM   25  C19 UNL     1       7.894  -0.922  -2.739  1.00  0.00     0.068 C 
HETATM   26  C20 UNL     1       9.093  -1.060  -3.358  1.00  0.00     0.005 C 
BRANCH  26  27
HETATM   27  C21 UNL     1       9.315  -1.076  -4.811  1.00  0.00     0.000 A 
HETATM   28  C22 UNL     1      10.555  -1.527  -5.299  1.00  0.00     0.000 A 
HETATM   29  C23 UNL     1      10.836  -1.526  -6.665  1.00  0.00     0.000 A 
HETATM   30  C24 UNL     1       9.886  -1.054  -7.573  1.00  0.00     0.000 A 
HETATM   31  C25 UNL     1       8.659  -0.583  -7.104  1.00  0.00     0.000 A 
HETATM   32  C26 UNL     1       8.377  -0.590  -5.736  1.00  0.00     0.000 A 
ENDBRANCH  26  27
ENDBRANCH  23  25
ENDBRANCH  22  23
ENDBRANCH  11  22
BRANCH   4  33
HETATM   33  O8  UNL     1       1.960  -0.842  -0.324  1.00  0.00    -0.281 OA
BRANCH  33  34
HETATM   34  C28 UNL     1       2.394  -1.174  -1.575  1.00  0.00     0.276 C 
HETATM   35  C29 UNL     1       1.391  -0.753  -2.629  1.00  0.00     0.107 C 
HETATM   36  O9  UNL     1       3.422  -1.758  -1.835  1.00  0.00    -0.264 OA
ENDBRANCH  33  34
ENDBRANCH   4  33
BRANCH   7  37
HETATM   37  O3  UNL     1       2.277   2.004   0.032  1.00  0.00    -0.301 OA
BRANCH  37  38
HETATM   38  C11 UNL     1       2.470   3.100  -0.752  1.00  0.00     0.272 C 
HETATM   39  C12 UNL     1       1.885   2.877  -2.130  1.00  0.00     0.106 C 
HETATM   40  O4  UNL     1       3.049   4.108  -0.417  1.00  0.00    -0.264 OA
ENDBRANCH  37  38
ENDBRANCH   7  37
BRANCH   8  41
HETATM   41  O1  UNL     1       1.640   2.100   3.619  1.00  0.00    -0.298 OA
BRANCH  41  42
HETATM   42  C9  UNL     1       1.656   3.407   3.998  1.00  0.00     0.273 C 
HETATM   43  C10 UNL     1       1.903   3.508   5.489  1.00  0.00     0.106 C 
HETATM   44  O2  UNL     1       1.499   4.351   3.257  1.00  0.00    -0.264 OA
ENDBRANCH  41  42
ENDBRANCH   8  41
BRANCH  17  45
HETATM   45  O10 UNL     1      -1.037  -1.472  -0.414  1.00  0.00    -0.300 OA
BRANCH  45  46
HETATM   46  C34 UNL     1      -1.769  -2.585  -0.698  1.00  0.00     0.273 C 
HETATM   47  C35 UNL     1      -2.159  -2.605  -2.162  1.00  0.00     0.106 C 
HETATM   48  O11 UNL     1      -2.085  -3.435   0.104  1.00  0.00    -0.264 OA
ENDBRANCH  45  46
ENDBRANCH  17  45
TORSDOF 12
