REMARK  4 active torsions:
REMARK  status: ('A' for Active; 'I' for Inactive)
REMARK    1  A    between atoms: C1_1  and  C24_30 
REMARK    2  A    between atoms: C2_2  and  C18_23 
REMARK    3  A    between atoms: C11_13  and  C12_15 
REMARK    4  A    between atoms: C24_30  and  C25_31 
ROOT
HETATM    1  C1  UNL     1       3.679   1.249   1.093  1.00  0.00     0.047 A 
HETATM    2  C2  UNL     1       2.836   2.316   1.585  1.00  0.00     0.092 A 
HETATM    3  O1  UNL     1       3.655   3.362   2.116  1.00  0.00    -0.329 OA
HETATM    4  C3  UNL     1       5.008   2.989   1.860  1.00  0.00     0.152 A 
HETATM    5  C4  UNL     1       5.024   1.593   1.302  1.00  0.00     0.031 A 
HETATM    6  C5  UNL     1       6.228   0.841   1.107  1.00  0.00     0.091 C 
HETATM    7  C6  UNL     1       7.406   1.403   1.591  1.00  0.00     0.024 C 
HETATM    8  C7  UNL     1       7.426   2.651   2.454  1.00  0.00     0.109 C 
HETATM    9  C8  UNL     1       6.101   3.257   2.849  1.00  0.00     0.089 C 
HETATM   10  O2  UNL     1       8.568   3.374   2.584  1.00  0.00    -0.195 OA
HETATM   11  C9  UNL     1       8.724   0.711   1.344  1.00  0.00     0.066 C 
HETATM   12  C10 UNL     1       8.499  -0.725   0.895  1.00  0.00     0.188 C 
HETATM   13  C11 UNL     1       7.410  -0.756  -0.160  1.00  0.00     0.174 C 
HETATM   14  O3  UNL     1       6.192  -0.332   0.400  1.00  0.00    -0.327 OA
HETATM   15  O5  UNL     1       9.684  -1.246   0.342  1.00  0.00    -0.220 OA
ENDROOT
BRANCH   1  16
HETATM   16  C24 UNL     1       3.187  -0.071   0.538  1.00  0.00     0.131 C 
HETATM   17  O10 UNL     1       2.583  -0.956   1.300  1.00  0.00    -0.190 OA
BRANCH  16  18
HETATM   18  C25 UNL     1       3.422  -0.305  -0.952  1.00  0.00     0.033 C 
HETATM   19  C26 UNL     1       3.777   0.899  -1.801  1.00  0.00     0.150 C 
HETATM   20  C27 UNL     1       4.131   0.596  -3.239  1.00  0.00     0.136 C 
HETATM   21  O9  UNL     1       3.106   2.063  -1.597  1.00  0.00    -0.189 OA
HETATM   22  C28 UNL     1       4.815  -0.718  -3.503  1.00  0.00     0.090 C 
HETATM   23  O8  UNL     1       3.441   1.215  -4.228  1.00  0.00    -0.193 OA
HETATM   24  C29 UNL     1       4.375  -1.955  -2.756  1.00  0.00     0.163 C 
HETATM   25  C30 UNL     1       3.918  -1.676  -1.342  1.00  0.00     0.064 C 
HETATM   26  O7  UNL     1       5.093  -3.090  -2.970  1.00  0.00    -0.223 OA
ENDBRANCH  16  18
ENDBRANCH   1  16
BRANCH   2  27
HETATM   27  C18 UNL     1       1.335   2.371   1.656  1.00  0.00     0.001 C 
HETATM   28  C19 UNL     1       0.697   3.171   2.763  1.00  0.00     0.035 C 
HETATM   29  C20 UNL     1      -0.784   3.417   2.662  1.00  0.00     0.059 C 
HETATM   30  C21 UNL     1      -1.591   2.349   1.965  1.00  0.00     0.109 C 
HETATM   31  C22 UNL     1      -0.886   1.649   0.850  1.00  0.00     0.023 C 
HETATM   32  O6  UNL     1      -2.948   2.354   2.018  1.00  0.00    -0.195 OA
HETATM   33  C23 UNL     1       0.458   1.661   0.716  1.00  0.00    -0.001 C 
ENDBRANCH   2  27
BRANCH  13  34
HETATM   34  C12 UNL     1       7.318  -2.162  -0.721  1.00  0.00     0.008 A 
HETATM   35  C13 UNL     1       7.905  -2.478  -1.950  1.00  0.00     0.000 A 
HETATM   36  C14 UNL     1       7.876  -3.782  -2.445  1.00  0.00     0.027 A 
HETATM   37  C15 UNL     1       7.265  -4.817  -1.732  1.00  0.00     0.131 A 
HETATM   38  C16 UNL     1       6.701  -4.503  -0.492  1.00  0.00     0.027 A 
HETATM   39  O4  UNL     1       7.219  -6.084  -2.218  1.00  0.00    -0.190 OA
HETATM   40  C17 UNL     1       6.738  -3.202   0.011  1.00  0.00     0.000 A 
ENDBRANCH  13  34
TORSDOF 4
