REMARK  2 active torsions:
REMARK  status: ('A' for Active; 'I' for Inactive)
REMARK    1  A    between atoms: C9_9  and  C25_31 
REMARK    2  A    between atoms: C18_21  and  C19_23 
ROOT
HETATM    1  C1  UNL     1       0.668   2.967   2.425  1.00  0.00     0.119 C 
HETATM    2  C2  UNL     1      -0.056   4.163   2.958  1.00  0.00     0.108 C 
HETATM    3  C3  UNL     1      -1.561   4.163   2.992  1.00  0.00     0.117 C 
HETATM    4  C4  UNL     1      -2.212   3.139   2.125  1.00  0.00     0.048 C 
HETATM    5  C5  UNL     1      -1.529   2.140   1.509  1.00  0.00     0.102 C 
HETATM    6  C6  UNL     1      -0.059   2.047   1.738  1.00  0.00     0.068 C 
HETATM    7  C7  UNL     1       0.662   0.911   1.033  1.00  0.00     0.149 C 
HETATM    8  C8  UNL     1      -0.198   0.445  -0.117  1.00  0.00     0.242 C 
HETATM    9  C9  UNL     1      -1.536   0.021   0.516  1.00  0.00     0.252 C 
HETATM   10  O1  UNL     1      -2.240   1.214   0.772  1.00  0.00    -0.303 OA
HETATM   11  O2  UNL     1      -2.112  -0.871  -0.449  1.00  0.00    -0.303 OA
HETATM   12  C10 UNL     1      -1.086  -1.421  -1.202  1.00  0.00     0.100 A 
HETATM   13  C11 UNL     1       0.096  -0.728  -0.988  1.00  0.00     0.060 A 
HETATM   14  C12 UNL     1       1.278  -1.025  -1.656  1.00  0.00     0.093 A 
HETATM   15  C13 UNL     1       1.230  -2.105  -2.549  1.00  0.00     0.028 A 
HETATM   16  C14 UNL     1       0.056  -2.856  -2.759  1.00  0.00     0.131 A 
HETATM   17  C15 UNL     1      -1.121  -2.493  -2.088  1.00  0.00     0.051 A 
HETATM   18  O3  UNL     1       0.025  -3.886  -3.646  1.00  0.00    -0.190 OA
HETATM   19  C16 UNL     1       2.530  -2.390  -3.255  1.00  0.00     0.066 C 
HETATM   20  C17 UNL     1       3.108  -1.053  -3.707  1.00  0.00     0.188 C 
HETATM   21  C18 UNL     1       3.199   0.004  -2.607  1.00  0.00     0.174 C 
HETATM   22  O4  UNL     1       2.371  -0.231  -1.492  1.00  0.00    -0.327 OA
HETATM   23  O6  UNL     1       2.261  -0.566  -4.727  1.00  0.00    -0.220 OA
HETATM   24  O8  UNL     1      -0.343   1.516  -1.040  1.00  0.00    -0.209 OA
HETATM   25  O9  UNL     1       1.833   0.409   1.345  1.00  0.00    -0.192 OA
HETATM   26  O10 UNL     1      -2.246   5.284   3.339  1.00  0.00    -0.194 OA
HETATM   27  O11 UNL     1       2.022   2.908   2.548  1.00  0.00    -0.194 OA
ENDROOT
BRANCH   9  28
HETATM   28  C25 UNL     1      -1.391  -0.814   1.800  1.00  0.00     0.033 A 
HETATM   29  C26 UNL     1      -0.417  -1.815   1.931  1.00  0.00     0.003 A 
HETATM   30  C27 UNL     1      -0.289  -2.576   3.094  1.00  0.00     0.027 A 
HETATM   31  C28 UNL     1      -1.134  -2.381   4.188  1.00  0.00     0.131 A 
HETATM   32  C29 UNL     1      -2.124  -1.405   4.059  1.00  0.00     0.027 A 
HETATM   33  O7  UNL     1      -1.013  -3.115   5.325  1.00  0.00    -0.190 OA
HETATM   34  C30 UNL     1      -2.257  -0.650   2.891  1.00  0.00     0.003 A 
ENDBRANCH   9  28
BRANCH  21  35
HETATM   35  C19 UNL     1       4.612   0.239  -2.106  1.00  0.00     0.008 A 
HETATM   36  C20 UNL     1       5.196   1.510  -2.151  1.00  0.00     0.000 A 
HETATM   37  C21 UNL     1       6.478   1.731  -1.643  1.00  0.00     0.027 A 
HETATM   38  C22 UNL     1       7.223   0.695  -1.072  1.00  0.00     0.131 A 
HETATM   39  C23 UNL     1       6.635  -0.572  -1.022  1.00  0.00     0.027 A 
HETATM   40  O5  UNL     1       8.464   0.909  -0.562  1.00  0.00    -0.190 OA
HETATM   41  C24 UNL     1       5.353  -0.798  -1.528  1.00  0.00     0.000 A 
ENDBRANCH  21  35
TORSDOF 2
