REMARK  4 active torsions:
REMARK  status: ('A' for Active; 'I' for Inactive)
REMARK    1  A    between atoms: C1_1  and  C6_7 
REMARK    2  A    between atoms: C6_7  and  C7_8 
REMARK    3  A    between atoms: C7_8  and  C8_10 
REMARK    4  A    between atoms: C9_11  and  C10_12 
ROOT
HETATM    1  C7  UNL     1       1.503   2.452   0.193  1.00  0.00     0.176 C 
HETATM    2  O1  UNL     1       1.596   3.747  -0.373  1.00  0.00    -0.219 OA
ENDROOT
BRANCH   1   3
HETATM    3  C6  UNL     1       0.095   1.898  -0.043  1.00  0.00     0.071 C 
BRANCH   3   4
HETATM    4  C1  UNL     1      -0.246   0.666   0.812  1.00  0.00     0.222 C 
HETATM    5  N1  UNL     1       0.505  -0.561   0.566  1.00  0.00     0.137 N 
HETATM    6  C2  UNL     1       0.528  -0.993  -0.824  1.00  0.00     0.285 C 
HETATM    7  C3  UNL     1      -0.200  -1.532   1.393  1.00  0.00     0.250 C 
HETATM    8  C4  UNL     1      -1.698  -1.222   1.225  1.00  0.00     0.037 C 
HETATM    9  C5  UNL     1      -1.723   0.241   0.745  1.00  0.00     0.035 C 
ENDBRANCH   3   4
ENDBRANCH   1   3
BRANCH   1  10
HETATM   10  C8  UNL     1       2.576   1.588  -0.418  1.00  0.00     0.006 C 
HETATM   11  C9  UNL     1       3.349   0.741   0.289  1.00  0.00    -0.002 C 
BRANCH  11  12
HETATM   12  C10 UNL     1       4.339  -0.186  -0.285  1.00  0.00    -0.000 A 
HETATM   13  C11 UNL     1       4.870  -1.194   0.537  1.00  0.00    -0.000 A 
HETATM   14  C12 UNL     1       5.799  -2.112   0.045  1.00  0.00    -0.000 A 
HETATM   15  C13 UNL     1       6.225  -2.033  -1.283  1.00  0.00    -0.000 A 
HETATM   16  C14 UNL     1       5.722  -1.026  -2.107  1.00  0.00    -0.000 A 
HETATM   17  C15 UNL     1       4.790  -0.110  -1.612  1.00  0.00    -0.000 A 
ENDBRANCH  11  12
ENDBRANCH   1  10
TORSDOF 4
