REMARK  3 active torsions:
REMARK  status: ('A' for Active; 'I' for Inactive)
REMARK    1  A    between atoms: C1_1  and  O4_24 
REMARK    2  A    between atoms: C6_6  and  O1_7 
REMARK    3  A    between atoms: C15_18  and  O3_21 
ROOT
HETATM    1  C1  UNL     1       5.602   2.023  -0.167  1.00  0.00     0.136 A 
HETATM    2  C2  UNL     1       4.228   1.913   0.253  1.00  0.00     0.130 A 
HETATM    3  C3  UNL     1       3.574   0.687   0.376  1.00  0.00     0.062 A 
HETATM    4  C4  UNL     1       4.331  -0.511   0.193  1.00  0.00     0.024 A 
HETATM    5  C5  UNL     1       5.700  -0.405  -0.108  1.00  0.00     0.028 A 
HETATM    6  C6  UNL     1       6.337   0.867  -0.355  1.00  0.00     0.118 A 
HETATM    7  C8  UNL     1       6.437  -1.621  -0.164  1.00  0.00     0.023 A 
HETATM    8  C9  UNL     1       5.772  -2.814   0.024  1.00  0.00     0.099 A 
HETATM    9  N1  UNL     1       4.445  -2.908   0.264  1.00  0.00    -0.244 NA
HETATM   10  C10 UNL     1       3.729  -1.796   0.357  1.00  0.00     0.082 A 
HETATM   11  C11 UNL     1       2.285  -1.893   0.600  1.00  0.00     0.021 A 
HETATM   12  C12 UNL     1       1.514  -0.734   0.779  1.00  0.00     0.042 A 
HETATM   13  C13 UNL     1       2.143   0.610   0.732  1.00  0.00     0.197 A 
HETATM   14  O2  UNL     1       1.468   1.619   0.951  1.00  0.00    -0.286 OA
HETATM   15  C14 UNL     1       0.129  -0.838   0.970  1.00  0.00     0.027 A 
HETATM   16  C15 UNL     1      -0.549  -2.064   1.012  1.00  0.00     0.094 A 
HETATM   17  C16 UNL     1       0.239  -3.205   0.805  1.00  0.00     0.024 A 
HETATM   18  C17 UNL     1       1.622  -3.128   0.626  1.00  0.00     0.004 A 
HETATM   19  N2  UNL     1       3.552   3.087   0.512  1.00  0.00    -0.146 N 
ENDROOT
BRANCH   1  20
HETATM   20  O4  UNL     1       6.214   3.254  -0.197  1.00  0.00    -0.325 OA
HETATM   21  C19 UNL     1       5.989   3.986  -1.382  1.00  0.00     0.182 C 
ENDBRANCH   1  20
BRANCH   6  22
HETATM   22  O1  UNL     1       7.693   0.936  -0.564  1.00  0.00    -0.326 OA
HETATM   23  C7  UNL     1       8.079   0.817  -1.916  1.00  0.00     0.181 C 
ENDBRANCH   6  22
BRANCH  16  24
HETATM   24  O3  UNL     1      -1.916  -2.062   1.143  1.00  0.00    -0.328 OA
HETATM   25  C18 UNL     1      -2.619  -3.228   0.782  1.00  0.00     0.181 C 
ENDBRANCH  16  24
TORSDOF 3
