REMARK  6 active torsions:
REMARK  status: ('A' for Active; 'I' for Inactive)
REMARK    1  A    between atoms: C5_6  and  C7_8 
REMARK    2  A    between atoms: C7_8  and  C8_9 
REMARK    3  A    between atoms: C8_9  and  N1_10 
REMARK    4  A    between atoms: N1_10  and  C9_11 
REMARK    5  A    between atoms: C10_12  and  O2_13 
REMARK    6  A    between atoms: C24_28  and  O3_30 
ROOT
HETATM    1  C9  UNL     1       0.891   0.776  -0.550  1.00  0.00     0.101 C 
HETATM    2  C10 UNL     1      -0.488   1.209  -0.480  1.00  0.00     0.111 C 
HETATM    3  C12 UNL     1      -1.427   0.275  -0.107  1.00  0.00     0.026 C 
HETATM    4  C13 UNL     1      -1.065  -1.048   0.296  1.00  0.00     0.005 A 
HETATM    5  C14 UNL     1       0.275  -1.459   0.233  1.00  0.00     0.022 A 
HETATM    6  C15 UNL     1       1.248  -0.555  -0.303  1.00  0.00     0.060 C 
HETATM    7  C16 UNL     1       2.606  -1.097  -0.541  1.00  0.00     0.197 C 
HETATM    8  C17 UNL     1       3.008  -2.320   0.199  1.00  0.00     0.042 A 
HETATM    9  C18 UNL     1       2.039  -3.130   0.805  1.00  0.00     0.021 A 
HETATM   10  C19 UNL     1       0.623  -2.757   0.723  1.00  0.00     0.082 A 
HETATM   11  N2  UNL     1      -0.296  -3.594   1.183  1.00  0.00    -0.244 NA
HETATM   12  C20 UNL     1      -1.597  -3.213   1.185  1.00  0.00     0.099 A 
HETATM   13  C21 UNL     1      -2.034  -1.975   0.764  1.00  0.00     0.021 A 
HETATM   14  C22 UNL     1       2.483  -4.281   1.473  1.00  0.00     0.004 A 
HETATM   15  C23 UNL     1       3.843  -4.588   1.559  1.00  0.00     0.024 A 
HETATM   16  C24 UNL     1       4.832  -3.762   1.000  1.00  0.00     0.094 A 
HETATM   17  C25 UNL     1       4.369  -2.639   0.303  1.00  0.00     0.027 A 
HETATM   18  O4  UNL     1       3.350  -0.678  -1.425  1.00  0.00    -0.286 OA
ENDROOT
BRANCH   1  19
HETATM   19  N1  UNL     1       1.733   1.859  -0.834  1.00  0.00    -0.268 NA
BRANCH  19  20
HETATM   20  C8  UNL     1       3.206   1.925  -0.789  1.00  0.00     0.130 C 
BRANCH  20  21
HETATM   21  C7  UNL     1       3.720   3.329  -0.433  1.00  0.00     0.053 C 
BRANCH  21  22
HETATM   22  C5  UNL     1       5.228   3.465  -0.547  1.00  0.00    -0.020 A 
HETATM   23  C4  UNL     1       6.104   2.427  -0.210  1.00  0.00    -0.002 A 
HETATM   24  C3  UNL     1       7.486   2.567  -0.357  1.00  0.00     0.027 A 
HETATM   25  C2  UNL     1       8.050   3.751  -0.836  1.00  0.00     0.131 A 
HETATM   26  C1  UNL     1       7.178   4.794  -1.161  1.00  0.00     0.027 A 
HETATM   27  O1  UNL     1       9.396   3.872  -0.978  1.00  0.00    -0.190 OA
HETATM   28  C6  UNL     1       5.795   4.655  -1.020  1.00  0.00    -0.002 A 
ENDBRANCH  21  22
ENDBRANCH  20  21
ENDBRANCH  19  20
ENDBRANCH   1  19
BRANCH   2  29
HETATM   29  O2  UNL     1      -0.790   2.499  -0.851  1.00  0.00    -0.327 OA
HETATM   30  C11 UNL     1      -2.141   2.874  -0.983  1.00  0.00     0.181 C 
ENDBRANCH   2  29
BRANCH  16  31
HETATM   31  O3  UNL     1       6.183  -3.998   1.043  1.00  0.00    -0.328 OA
HETATM   32  C26 UNL     1       6.634  -5.230   1.553  1.00  0.00     0.181 C 
ENDBRANCH  16  31
TORSDOF 6
