REMARK  6 active torsions:
REMARK  status: ('A' for Active; 'I' for Inactive)
REMARK    1  A    between atoms: C3_3  and  C4_4 
REMARK    2  A    between atoms: C4_4  and  C5_5 
REMARK    3  A    between atoms: C5_5  and  C6_6 
REMARK    4  A    between atoms: C7_7  and  C8_8 
REMARK    5  A    between atoms: C8_8  and  C9_9 
REMARK    6  A    between atoms: C9_9  and  C10_10 
ROOT
HETATM    1  C6  UNL     1      -1.462   0.406   0.001  1.00  0.00    -0.030 C 
HETATM    2  C7  UNL     1      -2.090   1.592   0.001  1.00  0.00    -0.030 C 
ENDROOT
BRANCH   1   3
HETATM    3  C5  UNL     1      -2.187  -0.916   0.000  1.00  0.00     0.030 C 
BRANCH   3   4
HETATM    4  C4  UNL     1      -1.221  -2.112  -0.000  1.00  0.00     0.030 C 
BRANCH   4   5
HETATM    5  C3  UNL     1      -1.940  -3.438  -0.000  1.00  0.00    -0.030 C 
HETATM    6  C2  UNL     1      -1.301  -4.618   0.000  1.00  0.00    -0.030 C 
HETATM    7  C1  UNL     1      -2.021  -5.939   0.000  1.00  0.00     0.030 C 
ENDBRANCH   4   5
ENDBRANCH   3   4
ENDBRANCH   1   3
BRANCH   2   8
HETATM    8  C8  UNL     1      -1.347   2.904   0.000  1.00  0.00     0.037 C 
BRANCH   8   9
HETATM    9  C9  UNL     1      -2.278   4.126   0.001  1.00  0.00     0.102 C 
BRANCH   9  10
HETATM   10  C10 UNL     1      -1.516   5.439  -0.002  1.00  0.00     0.186 C 
HETATM   11  O1  UNL     1      -2.351   6.495   0.012  1.00  0.00    -0.647 OA
HETATM   12  O2  UNL     1      -0.318   5.584  -0.015  1.00  0.00    -0.647 OA
ENDBRANCH   9  10
ENDBRANCH   8   9
ENDBRANCH   2   8
TORSDOF 6
