REMARK  7 active torsions:
REMARK  status: ('A' for Active; 'I' for Inactive)
REMARK    1  A    between atoms: C7_10  and  O4_14 
REMARK    2  A    between atoms: C8_11  and  C9_12 
REMARK    3  A    between atoms: O4_14  and  C11_15 
REMARK    4  A    between atoms: C12_17  and  C23_33 
REMARK    5  A    between atoms: C14_19  and  O7_22 
REMARK    6  A    between atoms: O7_22  and  C16_23 
REMARK    7  A    between atoms: C16_23  and  C17_25 
ROOT
HETATM    1  C11 UNL     1       1.747  -0.859   0.626  1.00  0.00     0.272 C 
HETATM    2  O5  UNL     1       1.369  -1.872   1.531  1.00  0.00    -0.326 OA
HETATM    3  C12 UNL     1       2.479  -2.449   2.172  1.00  0.00     0.184 C 
HETATM    4  C13 UNL     1       3.256  -1.383   2.942  1.00  0.00     0.212 C 
HETATM    5  C14 UNL     1       3.692  -0.259   2.011  1.00  0.00     0.193 C 
HETATM    6  C15 UNL     1       2.433   0.275   1.356  1.00  0.00     0.238 C 
HETATM    7  O6  UNL     1       2.747   1.273   0.418  1.00  0.00    -0.215 OA
HETATM    8  O10 UNL     1       4.415  -1.936   3.519  1.00  0.00    -0.218 OA
ENDROOT
BRANCH   1   9
HETATM    9  O4  UNL     1       0.549  -0.346   0.083  1.00  0.00    -0.303 OA
BRANCH   9  10
HETATM   10  C7  UNL     1       0.308  -0.687  -1.267  1.00  0.00     0.246 C 
HETATM   11  O3  UNL     1       1.341  -0.073  -2.010  1.00  0.00    -0.303 OA
HETATM   12  C6  UNL     1       1.240   1.269  -2.237  1.00  0.00     0.120 C 
HETATM   13  C4  UNL     1       0.136   1.994  -1.958  1.00  0.00     0.065 C 
HETATM   14  C3  UNL     1      -1.113   1.352  -1.434  1.00  0.00     0.041 C 
HETATM   15  C5  UNL     1       0.091   3.456  -2.206  1.00  0.00     0.294 C 
HETATM   16  C2  UNL     1      -2.293   2.082  -2.078  1.00  0.00     0.038 C 
HETATM   17  C8  UNL     1      -1.062  -0.165  -1.684  1.00  0.00     0.083 C 
HETATM   18  C1  UNL     1      -2.247   3.565  -1.717  1.00  0.00     0.152 C 
HETATM   19  O1  UNL     1      -1.044   4.199  -2.072  1.00  0.00    -0.299 OA
HETATM   20  O2  UNL     1       1.141   4.019  -2.515  1.00  0.00    -0.259 OA
BRANCH  17  21
HETATM   21  C9  UNL     1      -1.355  -0.519  -3.126  1.00  0.00    -0.021 C 
HETATM   22  C10 UNL     1      -2.445  -1.185  -3.531  1.00  0.00    -0.005 C 
ENDBRANCH  17  21
ENDBRANCH   9  10
ENDBRANCH   1   9
BRANCH   3  23
HETATM   23  C23 UNL     1       1.996  -3.583   3.074  1.00  0.00     0.214 C 
HETATM   24  O11 UNL     1       2.538  -4.813   2.634  1.00  0.00    -0.218 OA
ENDBRANCH   3  23
BRANCH   5  25
HETATM   25  O7  UNL     1       4.345   0.726   2.758  1.00  0.00    -0.295 OA
BRANCH  25  26
HETATM   26  C16 UNL     1       5.659   1.025   2.522  1.00  0.00     0.296 C 
HETATM   27  O8  UNL     1       6.243   1.755   3.319  1.00  0.00    -0.259 OA
BRANCH  26  28
HETATM   28  C17 UNL     1       6.496   0.508   1.383  1.00  0.00     0.065 A 
HETATM   29  C18 UNL     1       7.735  -0.080   1.654  1.00  0.00     0.005 A 
HETATM   30  C19 UNL     1       8.495  -0.595   0.602  1.00  0.00     0.002 A 
HETATM   31  C20 UNL     1       8.023  -0.517  -0.710  1.00  0.00     0.027 A 
HETATM   32  C21 UNL     1       6.798   0.093  -1.005  1.00  0.00     0.131 A 
HETATM   33  C22 UNL     1       6.058   0.615   0.059  1.00  0.00     0.033 A 
HETATM   34  O9  UNL     1       6.334   0.189  -2.279  1.00  0.00    -0.190 OA
ENDBRANCH  26  28
ENDBRANCH  25  26
ENDBRANCH   5  25
TORSDOF 7
