REMARK  3 active torsions:
REMARK  status: ('A' for Active; 'I' for Inactive)
REMARK    1  A    between atoms: C2_2  and  C8_10 
REMARK    2  A    between atoms: C3_3  and  C5_7 
REMARK    3  A    between atoms: C5_7  and  C6_8 
ROOT
HETATM    1  C1  UNL     1      -0.527  -0.605   1.845  1.00  0.00     0.045 A 
HETATM    2  C2  UNL     1      -0.331  -0.482   0.516  1.00  0.00     0.071 A 
HETATM    3  C3  UNL     1       1.107  -0.828   0.166  1.00  0.00     0.152 A 
HETATM    4  O1  UNL     1       1.724  -1.220   1.382  1.00  0.00    -0.296 OA
HETATM    5  C4  UNL     1       0.781  -1.072   2.351  1.00  0.00     0.292 A 
HETATM    6  O2  UNL     1       0.992  -1.314   3.534  1.00  0.00    -0.260 OA
HETATM    7  C9  UNL     1      -1.739  -0.385   2.698  1.00  0.00     0.037 C 
ENDROOT
BRANCH   2   8
HETATM    8  C8  UNL     1      -1.366  -0.099  -0.479  1.00  0.00     0.209 C 
HETATM    9  O3  UNL     1      -2.659   0.138  -0.186  1.00  0.00    -0.644 OA
HETATM   10  O4  UNL     1      -1.048  -0.022  -1.657  1.00  0.00    -0.644 OA
ENDBRANCH   2   8
BRANCH   3  11
HETATM   11  C5  UNL     1       1.882   0.342  -0.458  1.00  0.00     0.035 C 
BRANCH  11  12
HETATM   12  C6  UNL     1       2.309   0.072  -1.911  1.00  0.00     0.003 C 
HETATM   13  C7  UNL     1       3.084   1.254  -2.509  1.00  0.00     0.000 C 
ENDBRANCH  11  12
ENDBRANCH   3  11
TORSDOF 3
