REMARK  0 active torsions:
REMARK  status: ('A' for Active; 'I' for Inactive)
ROOT
HETATM    1  C1  UNL     1      -2.297   0.993   0.027  1.00  0.00     0.151 C 
HETATM    2  C2  UNL     1      -2.550  -0.444   0.435  1.00  0.00     0.070 C 
HETATM    3  C3  UNL     1      -1.308  -1.153   1.014  1.00  0.00     0.056 C 
HETATM    4  C4  UNL     1      -0.121  -0.196   1.137  1.00  0.00    -0.006 C 
HETATM    5  C5  UNL     1       0.194   0.575  -0.160  1.00  0.00     0.055 C 
HETATM    6  C6  UNL     1      -1.038   1.253  -0.773  1.00  0.00     0.070 C 
HETATM    7  C7  UNL     1       1.406   1.543  -0.026  1.00  0.00     0.008 C 
HETATM    8  C8  UNL     1       2.416   0.604   0.656  1.00  0.00     0.020 C 
HETATM    9  C9  UNL     1       1.990   0.486   2.156  1.00  0.00     0.069 C 
HETATM   10  C10 UNL     1       0.474   0.446   2.354  1.00  0.00     0.165 C 
HETATM   11  O1  UNL     1      -0.130   0.810   3.335  1.00  0.00    -0.292 OA
HETATM   12  C11 UNL     1       3.870   1.137   0.671  1.00  0.00     0.023 C 
HETATM   13  C12 UNL     1       4.305   1.582  -0.696  1.00  0.00    -0.038 C 
HETATM   14  C13 UNL     1       3.288   1.220  -1.740  1.00  0.00     0.076 C 
HETATM   15  C14 UNL     1       2.019   2.023  -1.367  1.00  0.00     0.012 C 
HETATM   16  C15 UNL     1       3.130  -0.283  -1.538  1.00  0.00     0.155 C 
HETATM   17  C16 UNL     1       2.215  -0.604  -0.357  1.00  0.00     0.090 C 
HETATM   18  C17 UNL     1       0.785  -0.554  -1.006  1.00  0.00     0.230 C 
HETATM   19  N1  UNL     1      -0.104  -1.711  -1.156  1.00  0.00     0.138 N 
HETATM   20  C18 UNL     1      -0.751  -2.244   0.042  1.00  0.00     0.254 C 
HETATM   21  C19 UNL     1       0.550  -2.773  -1.906  1.00  0.00     0.285 C 
HETATM   22  O2  UNL     1       3.646  -1.125  -2.235  1.00  0.00    -0.296 OA
HETATM   23  C20 UNL     1       5.449   2.233  -0.944  1.00  0.00    -0.009 C 
HETATM   24  C21 UNL     1      -1.667  -1.819   2.359  1.00  0.00     0.007 C 
HETATM   25  O3  UNL     1      -3.087   1.878   0.268  1.00  0.00    -0.296 OA
ENDROOT
TORSDOF 0
