REMARK  2 active torsions:
REMARK  status: ('A' for Active; 'I' for Inactive)
REMARK    1  A    between atoms: C9_9  and  C11_11 
REMARK    2  A    between atoms: C11_11  and  C12_12 
ROOT
HETATM    1  C1  UNL     1      -2.238  -2.783   1.772  1.00  0.00     0.026 C 
HETATM    2  C2  UNL     1      -2.008  -2.973   0.271  1.00  0.00     0.005 C 
HETATM    3  C3  UNL     1      -2.184  -1.645  -0.489  1.00  0.00     0.004 C 
HETATM    4  C4  UNL     1      -1.183  -0.557   0.004  1.00  0.00     0.022 C 
HETATM    5  C5  UNL     1      -1.244  -0.473   1.520  1.00  0.00     0.008 C 
HETATM    6  C6  UNL     1      -1.683  -1.486   2.293  1.00  0.00    -0.028 C 
HETATM    7  C7  UNL     1      -0.797   0.764   2.220  1.00  0.00     0.169 C 
HETATM    8  C8  UNL     1      -1.109   2.076   1.526  1.00  0.00     0.073 C 
HETATM    9  C9  UNL     1      -0.891   2.063   0.006  1.00  0.00     0.036 C 
HETATM   10  C10 UNL     1      -1.562   0.816  -0.604  1.00  0.00     0.009 C 
HETATM   11  O3  UNL     1      -0.265   0.749   3.322  1.00  0.00    -0.292 OA
HETATM   12  C14 UNL     1       0.269  -0.919  -0.373  1.00  0.00     0.004 C 
HETATM   13  C15 UNL     1      -2.154  -1.915  -2.004  1.00  0.00     0.000 C 
ENDROOT
BRANCH   9  14
HETATM   14  C11 UNL     1       0.538   2.316  -0.451  1.00  0.00     0.042 C 
HETATM   15  C13 UNL     1       1.609   2.231   0.364  1.00  0.00     0.002 C 
BRANCH  14  16
HETATM   16  C12 UNL     1       0.785   2.741  -1.860  1.00  0.00     0.207 C 
HETATM   17  O1  UNL     1      -0.142   2.804  -2.658  1.00  0.00    -0.644 OA
HETATM   18  O2  UNL     1       1.999   3.111  -2.320  1.00  0.00    -0.644 OA
ENDBRANCH  14  16
ENDBRANCH   9  14
TORSDOF 2
