REMARK  8 active torsions:
REMARK  status: ('A' for Active; 'I' for Inactive)
REMARK    1  A    between atoms: C12_12  and  O2_23 
REMARK    2  A    between atoms: C13_13  and  C14_14 
REMARK    3  A    between atoms: C15_15  and  C16_16 
REMARK    4  A    between atoms: C16_16  and  C17_17 
REMARK    5  A    between atoms: C17_17  and  C18_18 
REMARK    6  A    between atoms: O2_23  and  C22_24 
REMARK    7  A    between atoms: C32_39  and  O8_42 
REMARK    8  A    between atoms: O8_42  and  C35_43 
ROOT
HETATM    1  C1  UNL     1       2.828  -0.495  -1.428  1.00  0.00     0.025 C 
HETATM    2  C2  UNL     1       2.753  -2.015  -1.428  1.00  0.00    -0.047 C 
HETATM    3  C3  UNL     1       3.921  -2.670  -1.326  1.00  0.00    -0.035 C 
HETATM    4  C4  UNL     1       5.209  -1.910  -1.277  1.00  0.00     0.026 C 
HETATM    5  C5  UNL     1       5.133  -0.761  -0.254  1.00  0.00     0.011 C 
HETATM    6  C6  UNL     1       3.791   0.053  -0.319  1.00  0.00     0.055 C 
HETATM    7  C7  UNL     1       4.134   1.539  -0.540  1.00  0.00     0.150 C 
HETATM    8  C8  UNL     1       5.264   2.221   0.232  1.00  0.00     0.065 C 
HETATM    9  C9  UNL     1       6.355   1.271   0.750  1.00  0.00     0.013 C 
HETATM   10  C10 UNL     1       6.437   0.095  -0.273  1.00  0.00     0.004 C 
HETATM   11  C11 UNL     1       7.716  -0.602   0.249  1.00  0.00     0.030 C 
HETATM   12  C12 UNL     1       8.652   0.512   0.776  1.00  0.00     0.122 C 
HETATM   13  C13 UNL     1       7.818   1.808   0.719  1.00  0.00     0.046 C 
HETATM   14  C28 UNL     1       6.721   0.517  -1.748  1.00  0.00     0.000 C 
HETATM   15  C29 UNL     1       6.043   0.808   2.199  1.00  0.00     0.001 C 
HETATM   16  O7  UNL     1       3.527   2.213  -1.342  1.00  0.00    -0.296 OA
HETATM   17  C30 UNL     1       3.002  -0.010   1.014  1.00  0.00     0.008 C 
HETATM   18  C31 UNL     1       1.411  -2.731  -1.603  1.00  0.00     0.040 C 
HETATM   19  C32 UNL     1       0.454  -2.070  -0.590  1.00  0.00     0.121 C 
HETATM   20  C33 UNL     1       0.241  -0.584  -0.911  1.00  0.00     0.030 C 
HETATM   21  C34 UNL     1       1.435   0.169  -1.523  1.00  0.00     0.007 C 
HETATM   22  C40 UNL     1       1.558  -4.252  -1.353  1.00  0.00     0.006 C 
HETATM   23  C41 UNL     1       0.918  -2.613  -3.061  1.00  0.00     0.006 C 
ENDROOT
BRANCH  12  24
HETATM   24  O2  UNL     1       9.804   0.552  -0.021  1.00  0.00    -0.331 OA
BRANCH  24  25
HETATM   25  C22 UNL     1      10.955   1.058   0.631  1.00  0.00     0.270 C 
HETATM   26  O3  UNL     1      11.616   1.762  -0.400  1.00  0.00    -0.329 OA
HETATM   27  C23 UNL     1      12.833   2.341  -0.011  1.00  0.00     0.151 C 
HETATM   28  C24 UNL     1      13.795   1.325   0.596  1.00  0.00     0.212 C 
HETATM   29  C27 UNL     1      12.626   3.594   0.844  1.00  0.00     0.035 C 
HETATM   30  C25 UNL     1      13.150   0.422   1.630  1.00  0.00     0.220 C 
HETATM   31  O6  UNL     1      14.306   0.507  -0.434  1.00  0.00    -0.218 OA
HETATM   32  C26 UNL     1      11.816  -0.084   1.126  1.00  0.00     0.241 C 
HETATM   33  O5  UNL     1      12.925   1.118   2.830  1.00  0.00    -0.218 OA
HETATM   34  O4  UNL     1      11.184  -0.741   2.197  1.00  0.00    -0.215 OA
ENDBRANCH  24  25
ENDBRANCH  12  24
BRANCH  13  35
HETATM   35  C14 UNL     1       8.280   2.970   1.590  1.00  0.00    -0.046 C 
HETATM   36  C15 UNL     1       8.852   4.082   1.079  1.00  0.00    -0.027 C 
HETATM   37  C21 UNL     1       8.160   2.875   3.094  1.00  0.00     0.026 C 
BRANCH  36  38
HETATM   38  C16 UNL     1       9.185   4.355  -0.369  1.00  0.00     0.090 C 
BRANCH  38  39
HETATM   39  C17 UNL     1       8.000   4.740  -1.237  1.00  0.00     0.154 C 
HETATM   40  O1  UNL     1       6.962   5.083  -0.717  1.00  0.00    -0.296 OA
BRANCH  39  41
HETATM   41  C18 UNL     1       8.158   4.755  -2.758  1.00  0.00     0.058 C 
HETATM   42  C19 UNL     1       6.809   4.519  -3.462  1.00  0.00     0.008 C 
HETATM   43  C20 UNL     1       9.209   3.775  -3.307  1.00  0.00     0.008 C 
ENDBRANCH  39  41
ENDBRANCH  38  39
ENDBRANCH  36  38
ENDBRANCH  13  35
BRANCH  19  44
HETATM   44  O8  UNL     1      -0.826  -2.656  -0.532  1.00  0.00    -0.331 OA
BRANCH  44  45
HETATM   45  C35 UNL     1      -0.982  -3.714   0.395  1.00  0.00     0.270 C 
HETATM   46  O9  UNL     1      -1.562  -4.769  -0.346  1.00  0.00    -0.326 OA
HETATM   47  C36 UNL     1      -1.675  -5.942   0.424  1.00  0.00     0.181 C 
HETATM   48  C37 UNL     1      -2.571  -5.701   1.627  1.00  0.00     0.215 C 
HETATM   49  C38 UNL     1      -2.086  -4.510   2.430  1.00  0.00     0.220 C 
HETATM   50  O12 UNL     1      -2.568  -6.830   2.466  1.00  0.00    -0.218 OA
HETATM   51  C39 UNL     1      -1.931  -3.320   1.504  1.00  0.00     0.241 C 
HETATM   52  O11 UNL     1      -3.016  -4.214   3.439  1.00  0.00    -0.218 OA
HETATM   53  O10 UNL     1      -1.402  -2.238   2.227  1.00  0.00    -0.215 OA
ENDBRANCH  44  45
ENDBRANCH  19  44
TORSDOF 8
