REMARK  0 active torsions:
REMARK  status: ('A' for Active; 'I' for Inactive)
ROOT
HETATM    1  C1  UNL     1      -2.249  -1.439  -0.702  1.00  0.00     0.023 A 
HETATM    2  C2  UNL     1      -2.138  -0.041  -0.803  1.00  0.00     0.129 A 
HETATM    3  C3  UNL     1      -0.932   0.517  -0.378  1.00  0.00     0.030 A 
HETATM    4  C4  UNL     1       0.050  -0.329   0.110  1.00  0.00     0.025 A 
HETATM    5  C5  UNL     1      -0.042  -1.708   0.226  1.00  0.00     0.040 A 
HETATM    6  C6  UNL     1      -1.246  -2.293  -0.204  1.00  0.00    -0.017 A 
HETATM    7  C7  UNL     1      -1.479  -3.784  -0.155  1.00  0.00     0.031 C 
HETATM    8  C8  UNL     1       1.147  -2.398   0.784  1.00  0.00     0.234 A 
HETATM    9  C9  UNL     1       2.341  -1.546   1.149  1.00  0.00     0.232 A 
HETATM   10  C10 UNL     1       2.304  -0.067   0.964  1.00  0.00     0.043 A 
HETATM   11  C11 UNL     1       1.178   0.493   0.462  1.00  0.00     0.093 A 
HETATM   12  O1  UNL     1       0.896   1.822   0.196  1.00  0.00    -0.332 OA
HETATM   13  C12 UNL     1      -0.437   1.948  -0.341  1.00  0.00     0.119 A 
HETATM   14  C13 UNL     1      -0.336   2.554  -1.745  1.00  0.00     0.035 C 
HETATM   15  C14 UNL     1      -1.262   2.813   0.619  1.00  0.00     0.035 C 
HETATM   16  C15 UNL     1       3.507   0.761   1.332  1.00  0.00     0.037 C 
HETATM   17  O2  UNL     1       3.357  -2.060   1.603  1.00  0.00    -0.283 OA
HETATM   18  O3  UNL     1       1.169  -3.612   0.952  1.00  0.00    -0.283 OA
HETATM   19  O4  UNL     1      -3.143   0.727  -1.295  1.00  0.00    -0.190 OA
ENDROOT
TORSDOF 0
