REMARK  0 active torsions:
REMARK  status: ('A' for Active; 'I' for Inactive)
ROOT
HETATM    1  C1  UNL     1      -0.044   0.851   0.279  1.00  0.00     0.019 A 
HETATM    2  C2  UNL     1      -0.120  -0.506   0.196  1.00  0.00     0.108 A 
HETATM    3  C3  UNL     1       1.006  -1.297  -0.387  1.00  0.00     0.197 C 
HETATM    4  C4  UNL     1       2.359  -0.768   0.158  1.00  0.00     0.038 C 
HETATM    5  C5  UNL     1       2.505   0.791  -0.018  1.00  0.00     0.022 C 
HETATM    6  C6  UNL     1       1.183   1.550  -0.112  1.00  0.00    -0.021 C 
HETATM    7  C7  UNL     1       1.111   2.835  -0.508  1.00  0.00    -0.005 C 
HETATM    8  C8  UNL     1       3.348   0.927  -1.302  1.00  0.00     0.004 C 
HETATM    9  C9  UNL     1       4.360  -0.218  -1.201  1.00  0.00     0.000 C 
HETATM   10  C10 UNL     1       3.534  -1.395  -0.659  1.00  0.00     0.003 C 
HETATM   11  C11 UNL     1       4.420  -2.446   0.025  1.00  0.00     0.000 C 
HETATM   12  C12 UNL     1       3.276   1.467   1.144  1.00  0.00     0.004 C 
HETATM   13  C13 UNL     1       2.393  -1.188   1.647  1.00  0.00     0.003 C 
HETATM   14  O1  UNL     1       0.915  -1.172  -1.797  1.00  0.00    -0.216 OA
HETATM   15  O2  UNL     1      -1.346  -0.946   0.597  1.00  0.00    -0.307 OA
HETATM   16  C14 UNL     1      -2.055   0.173   0.932  1.00  0.00     0.122 A 
HETATM   17  C15 UNL     1      -1.316   1.304   0.752  1.00  0.00     0.028 A 
ENDROOT
TORSDOF 0
