REMARK  1 active torsions:
REMARK  status: ('A' for Active; 'I' for Inactive)
REMARK    1  A    between atoms: C6_6  and  O1_7 
ROOT
HETATM    1  C1  UNL     1      -0.684   1.585  -0.118  1.00  0.00     0.141 A 
HETATM    2  C2  UNL     1      -0.697   0.203  -0.093  1.00  0.00     0.121 A 
HETATM    3  C3  UNL     1       0.486  -0.570  -0.072  1.00  0.00     0.026 A 
HETATM    4  C4  UNL     1       1.692   0.163  -0.034  1.00  0.00     0.015 A 
HETATM    5  C5  UNL     1       1.676   1.589  -0.009  1.00  0.00     0.005 A 
HETATM    6  C6  UNL     1       0.505   2.346  -0.092  1.00  0.00     0.114 A 
HETATM    7  C8  UNL     1       2.988   2.319   0.165  1.00  0.00     0.053 C 
HETATM    8  C9  UNL     1       4.127   1.545  -0.488  1.00  0.00     0.106 C 
HETATM    9  N1  UNL     1       4.199   0.161   0.004  1.00  0.00    -0.346 N 
HETATM   10  C10 UNL     1       2.967  -0.538   0.075  1.00  0.00     0.056 A 
HETATM   11  C11 UNL     1       2.944  -1.902   0.255  1.00  0.00     0.017 A 
HETATM   12  C12 UNL     1       1.728  -2.669   0.201  1.00  0.00     0.002 A 
HETATM   13  C13 UNL     1       0.501  -2.024  -0.033  1.00  0.00     0.002 A 
HETATM   14  C14 UNL     1      -0.635  -2.846  -0.247  1.00  0.00     0.000 A 
HETATM   15  C15 UNL     1      -0.564  -4.224  -0.156  1.00  0.00     0.000 A 
HETATM   16  C16 UNL     1       0.660  -4.854   0.140  1.00  0.00     0.000 A 
HETATM   17  C17 UNL     1       1.794  -4.083   0.305  1.00  0.00     0.000 A 
HETATM   18  C18 UNL     1       5.467  -0.554   0.259  1.00  0.00     0.126 C 
HETATM   19  O2  UNL     1      -2.015  -0.230  -0.067  1.00  0.00    -0.299 OA
HETATM   20  C19 UNL     1      -2.865   0.914  -0.135  1.00  0.00     0.304 A 
HETATM   21  O3  UNL     1      -1.990   2.039  -0.154  1.00  0.00    -0.298 OA
ENDROOT
BRANCH   6  22
HETATM   22  O1  UNL     1       0.581   3.717  -0.046  1.00  0.00    -0.326 OA
HETATM   23  C7  UNL     1      -0.595   4.479   0.070  1.00  0.00     0.181 C 
ENDBRANCH   6  22
TORSDOF 1
