REMARK  0 active torsions:
REMARK  status: ('A' for Active; 'I' for Inactive)
ROOT
HETATM    1  C1  UNL     1      -2.461  -0.773   2.338  1.00  0.00    -0.000 A 
HETATM    2  C2  UNL     1      -2.421  -2.141   2.049  1.00  0.00     0.002 A 
HETATM    3  C3  UNL     1      -1.248  -2.738   1.579  1.00  0.00     0.017 A 
HETATM    4  C4  UNL     1      -0.102  -1.949   1.408  1.00  0.00     0.052 A 
HETATM    5  C5  UNL     1      -0.160  -0.573   1.690  1.00  0.00     0.001 A 
HETATM    6  C6  UNL     1      -1.327   0.025   2.155  1.00  0.00    -0.002 A 
HETATM    7  C7  UNL     1       1.149   0.083   1.394  1.00  0.00     0.094 A 
HETATM    8  C8  UNL     1       2.139  -1.212   0.969  1.00  0.00     0.111 A 
HETATM    9  N1  UNL     1       1.171  -2.345   0.948  1.00  0.00    -0.346 N 
HETATM   10  C9  UNL     1       1.418  -3.749   0.596  1.00  0.00     0.126 C 
HETATM   11  C10 UNL     1       3.131  -1.055  -0.385  1.00  0.00     0.099 C 
HETATM   12  N2  UNL     1       3.928   0.025   0.076  1.00  0.00    -0.366 N 
HETATM   13  C11 UNL     1       2.871   0.792   0.604  1.00  0.00     0.085 C 
HETATM   14  C12 UNL     1       1.279   0.321  -0.052  1.00  0.00     0.035 C 
HETATM   15  C13 UNL     1       2.446   2.073  -0.003  1.00  0.00     0.082 C 
HETATM   16  C14 UNL     1       2.841   1.447  -1.472  1.00  0.00     0.030 C 
HETATM   17  C15 UNL     1       2.760  -0.194  -1.754  1.00  0.00     0.028 C 
HETATM   18  C16 UNL     1       4.382   1.670  -1.498  1.00  0.00    -0.026 C 
HETATM   19  C17 UNL     1       5.045   0.708  -0.503  1.00  0.00     0.120 C 
HETATM   20  C18 UNL     1       5.072   2.571  -2.213  1.00  0.00    -0.032 C 
HETATM   21  C19 UNL     1       4.512   3.584  -3.175  1.00  0.00     0.030 C 
HETATM   22  C20 UNL     1       1.344   1.692   1.149  1.00  0.00     0.157 C 
HETATM   23  O1  UNL     1       0.764   2.537   1.794  1.00  0.00    -0.296 OA
ENDROOT
TORSDOF 0
