REMARK  2 active torsions:
REMARK  status: ('A' for Active; 'I' for Inactive)
REMARK    1  A    between atoms: C6_6  and  C7_7 
REMARK    2  A    between atoms: C7_7  and  C8_8 
ROOT
HETATM    1  C1  UNL     1      -0.087  -0.045   0.778  1.00  0.00     0.128 A 
HETATM    2  C2  UNL     1      -0.011   1.068   1.617  1.00  0.00     0.029 A 
HETATM    3  C3  UNL     1       1.154   1.827   1.709  1.00  0.00     0.027 A 
HETATM    4  C4  UNL     1       2.279   1.516   0.944  1.00  0.00     0.103 A 
HETATM    5  C5  UNL     1       2.182   0.424   0.062  1.00  0.00     0.060 A 
HETATM    6  C6  UNL     1       1.033  -0.389   0.002  1.00  0.00     0.013 A 
HETATM    7  C12 UNL     1       3.407   0.133  -0.737  1.00  0.00     0.201 C 
HETATM    8  C13 UNL     1       4.677   0.578  -0.098  1.00  0.00     0.087 A 
HETATM    9  C14 UNL     1       4.578   1.639   0.816  1.00  0.00     0.107 A 
HETATM   10  O1  UNL     1       3.399   2.293   1.026  1.00  0.00    -0.307 OA
HETATM   11  C15 UNL     1       5.747   2.041   1.465  1.00  0.00     0.049 A 
HETATM   12  C16 UNL     1       6.981   1.403   1.286  1.00  0.00     0.098 A 
HETATM   13  C17 UNL     1       7.027   0.366   0.342  1.00  0.00     0.048 A 
HETATM   14  C18 UNL     1       5.889  -0.076  -0.357  1.00  0.00     0.138 A 
HETATM   15  O2  UNL     1       5.984  -1.122  -1.223  1.00  0.00    -0.190 OA
HETATM   16  C19 UNL     1       8.309  -0.321   0.177  1.00  0.00     0.002 C 
HETATM   17  C20 UNL     1       9.402   0.230   0.730  1.00  0.00     0.001 C 
HETATM   18  C21 UNL     1       9.346   1.574   1.417  1.00  0.00     0.117 C 
HETATM   19  O3  UNL     1       8.083   1.844   1.970  1.00  0.00    -0.331 OA
HETATM   20  C22 UNL     1      10.361   1.609   2.566  1.00  0.00     0.035 C 
HETATM   21  C23 UNL     1       9.681   2.661   0.389  1.00  0.00     0.035 C 
HETATM   22  O4  UNL     1       3.400  -0.438  -1.821  1.00  0.00    -0.286 OA
HETATM   23  O5  UNL     1      -1.238  -0.769   0.721  1.00  0.00    -0.191 OA
ENDROOT
BRANCH   6  24
HETATM   24  C7  UNL     1       0.940  -1.664  -0.817  1.00  0.00     0.054 C 
BRANCH  24  25
HETATM   25  C8  UNL     1      -0.020  -1.482  -1.965  1.00  0.00    -0.030 C 
HETATM   26  C9  UNL     1      -1.121  -2.208  -2.231  1.00  0.00    -0.048 C 
HETATM   27  C10 UNL     1      -2.014  -1.864  -3.403  1.00  0.00     0.026 C 
HETATM   28  C11 UNL     1      -1.600  -3.397  -1.431  1.00  0.00     0.026 C 
ENDBRANCH  24  25
ENDBRANCH   6  24
TORSDOF 2
