REMARK  10 active torsions:
REMARK  status: ('A' for Active; 'I' for Inactive)
REMARK    1  A    between atoms: C5_5  and  C7_7 
REMARK    2  A    between atoms: C7_7  and  C8_8 
REMARK    3  A    between atoms: C8_8  and  O1_9 
REMARK    4  A    between atoms: O1_9  and  C9_10 
REMARK    5  A    between atoms: C9_10  and  C10_12 
REMARK    6  A    between atoms: C10_12  and  C11_13 
REMARK    7  A    between atoms: C13_15  and  O6_22 
REMARK    8  A    between atoms: C15_18  and  C16_19 
REMARK    9  A    between atoms: O6_22  and  C17_23 
REMARK   10  A    between atoms: C18_25  and  C22_32 
ROOT
HETATM    1  C11 UNL     1       2.639  -0.181  -0.009  1.00  0.00     0.063 C 
HETATM    2  C12 UNL     1       2.725   0.657   1.264  1.00  0.00     0.012 C 
HETATM    3  C13 UNL     1       2.237   2.072   1.036  1.00  0.00     0.263 C 
HETATM    4  O3  UNL     1       3.064   2.716   0.083  1.00  0.00    -0.300 OA
HETATM    5  C14 UNL     1       3.445   1.976  -0.995  1.00  0.00     0.121 C 
HETATM    6  C15 UNL     1       3.277   0.641  -1.122  1.00  0.00     0.070 C 
HETATM    7  C23 UNL     1       3.184   0.211   2.449  1.00  0.00    -0.029 C 
HETATM    8  C24 UNL     1       3.274   0.961   3.754  1.00  0.00     0.030 C 
ENDROOT
BRANCH   1   9
HETATM    9  C10 UNL     1       3.150  -1.637   0.112  1.00  0.00     0.105 C 
BRANCH   9  10
HETATM   10  C9  UNL     1       2.563  -2.617  -0.905  1.00  0.00     0.273 C 
HETATM   11  O2  UNL     1       1.451  -2.450  -1.360  1.00  0.00    -0.264 OA
BRANCH  10  12
HETATM   12  O1  UNL     1       3.300  -3.725  -1.211  1.00  0.00    -0.301 OA
BRANCH  12  13
HETATM   13  C8  UNL     1       4.632  -3.891  -0.801  1.00  0.00     0.157 C 
BRANCH  13  14
HETATM   14  C7  UNL     1       5.160  -5.190  -1.417  1.00  0.00     0.059 C 
BRANCH  14  15
HETATM   15  C5  UNL     1       6.596  -5.508  -1.061  1.00  0.00    -0.019 A 
HETATM   16  C4  UNL     1       6.944  -6.737  -0.487  1.00  0.00    -0.002 A 
HETATM   17  C3  UNL     1       8.274  -7.048  -0.199  1.00  0.00     0.027 A 
HETATM   18  C2  UNL     1       9.307  -6.144  -0.465  1.00  0.00     0.131 A 
HETATM   19  C1  UNL     1       8.958  -4.918  -1.038  1.00  0.00     0.027 A 
HETATM   20  O12 UNL     1      10.600  -6.463  -0.192  1.00  0.00    -0.190 OA
HETATM   21  C6  UNL     1       7.630  -4.606  -1.335  1.00  0.00    -0.002 A 
ENDBRANCH  14  15
ENDBRANCH  13  14
ENDBRANCH  12  13
ENDBRANCH  10  12
ENDBRANCH   9  10
ENDBRANCH   1   9
BRANCH   6  22
HETATM   22  C16 UNL     1       3.718   0.067  -2.429  1.00  0.00     0.209 C 
HETATM   23  O4  UNL     1       3.866  -1.136  -2.582  1.00  0.00    -0.644 OA
HETATM   24  O5  UNL     1       3.976   0.828  -3.514  1.00  0.00    -0.644 OA
ENDBRANCH   6  22
BRANCH   3  25
HETATM   25  O6  UNL     1       0.944   2.089   0.447  1.00  0.00    -0.300 OA
BRANCH  25  26
HETATM   26  C17 UNL     1       0.354   3.371   0.376  1.00  0.00     0.272 C 
HETATM   27  O7  UNL     1      -0.531   3.457   1.470  1.00  0.00    -0.326 OA
HETATM   28  C18 UNL     1      -1.215   4.684   1.499  1.00  0.00     0.184 C 
HETATM   29  C19 UNL     1      -2.042   4.845   0.227  1.00  0.00     0.215 C 
HETATM   30  C20 UNL     1      -1.151   4.751  -0.995  1.00  0.00     0.220 C 
HETATM   31  O10 UNL     1      -2.682   6.096   0.193  1.00  0.00    -0.218 OA
HETATM   32  C21 UNL     1      -0.396   3.444  -0.932  1.00  0.00     0.241 C 
HETATM   33  O9  UNL     1      -1.938   4.793  -2.157  1.00  0.00    -0.218 OA
HETATM   34  O8  UNL     1       0.536   3.384  -1.984  1.00  0.00    -0.215 OA
BRANCH  28  35
HETATM   35  C22 UNL     1      -2.084   4.724   2.748  1.00  0.00     0.214 C 
HETATM   36  O11 UNL     1      -1.264   4.711   3.900  1.00  0.00    -0.218 OA
ENDBRANCH  28  35
ENDBRANCH  25  26
ENDBRANCH   3  25
TORSDOF 10
