REMARK  4 active torsions:
REMARK  status: ('A' for Active; 'I' for Inactive)
REMARK    1  A    between atoms: C1_1  and  O3_18 
REMARK    2  A    between atoms: C3_3  and  C13_14 
REMARK    3  A    between atoms: O3_18  and  C16_19 
REMARK    4  A    between atoms: C20_23  and  C21_25 
ROOT
HETATM    1  C1  UNL     1       0.411   1.318  -0.135  1.00  0.00     0.118 C 
HETATM    2  C2  UNL     1      -0.472   0.631   0.920  1.00  0.00     0.033 C 
HETATM    3  C3  UNL     1       0.327  -0.420   1.731  1.00  0.00     0.037 C 
HETATM    4  C4  UNL     1       1.734   0.155   1.994  1.00  0.00     0.060 C 
HETATM    5  C5  UNL     1       1.639   1.692   2.102  1.00  0.00     0.010 C 
HETATM    6  C6  UNL     1       1.602   2.046   0.585  1.00  0.00     0.032 C 
HETATM    7  C7  UNL     1       3.025   1.458   0.384  1.00  0.00     0.054 C 
HETATM    8  C8  UNL     1       3.927   2.001   1.518  1.00  0.00     0.007 C 
HETATM    9  C9  UNL     1       2.955   2.236   2.676  1.00  0.00     0.001 C 
HETATM   10  C10 UNL     1       3.718   1.675  -0.959  1.00  0.00     0.007 C 
HETATM   11  C11 UNL     1       2.692   0.028   0.803  1.00  0.00     0.149 C 
HETATM   12  O1  UNL     1       3.049  -0.989   0.255  1.00  0.00    -0.296 OA
HETATM   13  C12 UNL     1       1.529   3.555   0.308  1.00  0.00     0.003 C 
ENDROOT
BRANCH   1  14
HETATM   14  O3  UNL     1       0.811   0.303  -1.019  1.00  0.00    -0.332 OA
BRANCH  14  15
HETATM   15  C16 UNL     1       0.704   0.545  -2.401  1.00  0.00     0.270 C 
HETATM   16  C17 UNL     1       1.680  -0.356  -3.127  1.00  0.00     0.241 C 
HETATM   17  C18 UNL     1       1.280  -1.810  -3.013  1.00  0.00     0.220 C 
HETATM   18  O8  UNL     1       1.788   0.043  -4.473  1.00  0.00    -0.215 OA
HETATM   19  C19 UNL     1      -0.145  -1.982  -3.498  1.00  0.00     0.215 C 
HETATM   20  O7  UNL     1       1.383  -2.227  -1.666  1.00  0.00    -0.218 OA
HETATM   21  C20 UNL     1      -1.120  -0.958  -2.927  1.00  0.00     0.184 C 
HETATM   22  O6  UNL     1      -0.175  -1.917  -4.907  1.00  0.00    -0.218 OA
HETATM   23  O4  UNL     1      -0.633   0.357  -2.810  1.00  0.00    -0.326 OA
BRANCH  21  24
HETATM   24  C21 UNL     1      -1.813  -1.420  -1.652  1.00  0.00     0.214 C 
HETATM   25  O5  UNL     1      -2.643  -2.531  -1.927  1.00  0.00    -0.218 OA
ENDBRANCH  21  24
ENDBRANCH  14  15
ENDBRANCH   1  14
BRANCH   3  26
HETATM   26  C13 UNL     1      -0.452  -0.980   2.953  1.00  0.00     0.127 C 
HETATM   27  C14 UNL     1      -0.953  -2.401   2.657  1.00  0.00     0.033 C 
HETATM   28  O2  UNL     1      -1.599  -0.203   3.191  1.00  0.00    -0.226 OA
HETATM   29  C15 UNL     1       0.321  -0.997   4.276  1.00  0.00     0.033 C 
ENDBRANCH   3  26
TORSDOF 4
