REMARK  5 active torsions:
REMARK  status: ('A' for Active; 'I' for Inactive)
REMARK    1  A    between atoms: C3_3  and  C19_27 
REMARK    2  A    between atoms: C7_7  and  C10_10 
REMARK    3  A    between atoms: C10_10  and  O1_11 
REMARK    4  A    between atoms: O1_11  and  C11_12 
REMARK    5  A    between atoms: C12_14  and  C16_21 
ROOT
HETATM    1  C1  UNL     1       3.768  -1.260  -0.865  1.00  0.00     0.182 C 
HETATM    2  C2  UNL     1       4.546  -2.037  -1.924  1.00  0.00     0.183 C 
HETATM    3  C3  UNL     1       5.747  -2.765  -1.336  1.00  0.00     0.163 C 
HETATM    4  C4  UNL     1       6.597  -1.511  -1.157  1.00  0.00     0.117 C 
HETATM    5  C5  UNL     1       6.118  -0.640   0.023  1.00  0.00     0.015 C 
HETATM    6  C6  UNL     1       4.599  -0.262  -0.002  1.00  0.00     0.034 C 
HETATM    7  C7  UNL     1       4.624   1.229  -0.462  1.00  0.00     0.032 C 
HETATM    8  C8  UNL     1       5.923   1.812   0.123  1.00  0.00     0.003 C 
HETATM    9  C9  UNL     1       6.935   0.666   0.103  1.00  0.00     0.001 C 
HETATM   10  C17 UNL     1       4.063  -0.332   1.454  1.00  0.00     0.003 C 
HETATM   11  C18 UNL     1       6.333  -0.810  -2.482  1.00  0.00     0.274 C 
HETATM   12  O7  UNL     1       5.062  -1.112  -2.840  1.00  0.00    -0.299 OA
HETATM   13  O8  UNL     1       7.081  -0.077  -3.089  1.00  0.00    -0.264 OA
HETATM   14  O9  UNL     1       6.318  -3.544  -2.357  1.00  0.00    -0.223 OA
HETATM   15  O10 UNL     1       2.668  -0.665  -1.518  1.00  0.00    -0.221 OA
ENDROOT
BRANCH   7  16
HETATM   16  C10 UNL     1       3.450   2.147  -0.079  1.00  0.00     0.145 C 
BRANCH  16  17
HETATM   17  O1  UNL     1       2.270   1.482  -0.408  1.00  0.00    -0.329 OA
BRANCH  17  18
HETATM   18  C11 UNL     1       1.054   2.147  -0.182  1.00  0.00     0.270 C 
HETATM   19  O2  UNL     1       1.024   2.583   1.158  1.00  0.00    -0.326 OA
HETATM   20  C12 UNL     1      -0.197   3.188   1.499  1.00  0.00     0.184 C 
HETATM   21  C13 UNL     1      -1.335   2.188   1.333  1.00  0.00     0.215 C 
HETATM   22  C14 UNL     1      -1.371   1.677  -0.093  1.00  0.00     0.220 C 
HETATM   23  O5  UNL     1      -2.581   2.779   1.608  1.00  0.00    -0.218 OA
HETATM   24  C15 UNL     1      -0.013   1.094  -0.399  1.00  0.00     0.241 C 
HETATM   25  O4  UNL     1      -2.351   0.678  -0.208  1.00  0.00    -0.218 OA
HETATM   26  O3  UNL     1       0.023   0.629  -1.724  1.00  0.00    -0.215 OA
BRANCH  20  27
HETATM   27  C16 UNL     1      -0.100   3.699   2.930  1.00  0.00     0.214 C 
HETATM   28  O6  UNL     1       0.845   4.748   2.999  1.00  0.00    -0.218 OA
ENDBRANCH  20  27
ENDBRANCH  17  18
ENDBRANCH  16  17
ENDBRANCH   7  16
BRANCH   3  29
HETATM   29  C19 UNL     1       5.514  -3.672  -0.120  1.00  0.00     0.031 C 
HETATM   30  C20 UNL     1       4.539  -4.822  -0.433  1.00  0.00     0.003 C 
HETATM   31  C21 UNL     1       6.827  -4.244   0.446  1.00  0.00     0.003 C 
ENDBRANCH   3  29
TORSDOF 5
