REMARK  5 active torsions:
REMARK  status: ('A' for Active; 'I' for Inactive)
REMARK    1  A    between atoms: C3_3  and  C19_27 
REMARK    2  A    between atoms: C7_7  and  C10_10 
REMARK    3  A    between atoms: C10_10  and  O1_11 
REMARK    4  A    between atoms: O1_11  and  C11_12 
REMARK    5  A    between atoms: C12_14  and  C16_21 
ROOT
HETATM    1  C1  UNL     1       3.772  -1.313  -0.908  1.00  0.00     0.180 C 
HETATM    2  C2  UNL     1       4.546  -2.072  -1.980  1.00  0.00     0.155 C 
HETATM    3  C3  UNL     1       5.761  -2.794  -1.407  1.00  0.00     0.040 C 
HETATM    4  C4  UNL     1       6.606  -1.533  -1.214  1.00  0.00     0.089 C 
HETATM    5  C5  UNL     1       6.120  -0.684  -0.022  1.00  0.00     0.012 C 
HETATM    6  C6  UNL     1       4.600  -0.316  -0.041  1.00  0.00     0.033 C 
HETATM    7  C7  UNL     1       4.613   1.179  -0.490  1.00  0.00     0.032 C 
HETATM    8  C8  UNL     1       5.911   1.764   0.096  1.00  0.00     0.003 C 
HETATM    9  C9  UNL     1       6.931   0.624   0.070  1.00  0.00     0.001 C 
HETATM   10  C17 UNL     1       4.070  -0.400   1.415  1.00  0.00     0.003 C 
HETATM   11  C18 UNL     1       6.327  -0.827  -2.531  1.00  0.00     0.271 C 
HETATM   12  O7  UNL     1       5.059  -1.145  -2.892  1.00  0.00    -0.302 OA
HETATM   13  O8  UNL     1       7.064  -0.086  -3.143  1.00  0.00    -0.264 OA
HETATM   14  O9  UNL     1       2.659  -0.723  -1.542  1.00  0.00    -0.221 OA
ENDROOT
BRANCH   7  15
HETATM   15  C10 UNL     1       3.435   2.087  -0.094  1.00  0.00     0.145 C 
BRANCH  15  16
HETATM   16  O1  UNL     1       2.257   1.420  -0.426  1.00  0.00    -0.329 OA
BRANCH  16  17
HETATM   17  C11 UNL     1       1.039   2.081  -0.199  1.00  0.00     0.270 C 
HETATM   18  O2  UNL     1       1.009   2.515   1.141  1.00  0.00    -0.326 OA
HETATM   19  C12 UNL     1      -0.209   3.127   1.480  1.00  0.00     0.184 C 
HETATM   20  C13 UNL     1      -1.353   2.132   1.311  1.00  0.00     0.215 C 
HETATM   21  C14 UNL     1      -1.385   1.615  -0.113  1.00  0.00     0.220 C 
HETATM   22  O5  UNL     1      -2.596   2.732   1.580  1.00  0.00    -0.218 OA
HETATM   23  C15 UNL     1      -0.028   1.027  -0.416  1.00  0.00     0.241 C 
HETATM   24  O4  UNL     1      -2.371   0.621  -0.233  1.00  0.00    -0.218 OA
HETATM   25  O3  UNL     1       0.013   0.563  -1.742  1.00  0.00    -0.215 OA
BRANCH  19  26
HETATM   26  C16 UNL     1      -0.110   3.634   2.912  1.00  0.00     0.214 C 
HETATM   27  O6  UNL     1       0.856   4.664   2.994  1.00  0.00    -0.218 OA
ENDBRANCH  19  26
ENDBRANCH  16  17
ENDBRANCH  15  16
ENDBRANCH   7  15
BRANCH   3  28
HETATM   28  C19 UNL     1       5.555  -3.735  -0.206  1.00  0.00     0.003 C 
HETATM   29  C20 UNL     1       4.599  -4.887  -0.566  1.00  0.00     0.000 C 
HETATM   30  C21 UNL     1       6.897  -4.309   0.281  1.00  0.00     0.000 C 
ENDBRANCH   3  28
TORSDOF 5
