REMARK  2 active torsions:
REMARK  status: ('A' for Active; 'I' for Inactive)
REMARK    1  A    between atoms: C1_1  and  C15_18 
REMARK    2  A    between atoms: C7_7  and  C11_14 
ROOT
HETATM    1  C1  UNL     1      -0.913   2.197  -0.470  1.00  0.00     0.035 C 
HETATM    2  C2  UNL     1      -1.069   0.808   0.209  1.00  0.00     0.034 C 
HETATM    3  C3  UNL     1       0.400   0.416   0.553  1.00  0.00     0.012 C 
HETATM    4  C4  UNL     1       1.215   1.722   0.639  1.00  0.00     0.001 C 
HETATM    5  C5  UNL     1       0.262   2.862   0.266  1.00  0.00     0.003 C 
HETATM    6  C6  UNL     1       1.047  -0.581  -0.430  1.00  0.00     0.089 C 
HETATM    7  C7  UNL     1       0.191  -1.836  -0.632  1.00  0.00     0.040 C 
HETATM    8  C8  UNL     1      -0.874  -1.157  -1.490  1.00  0.00     0.155 C 
HETATM    9  C9  UNL     1      -1.782  -0.266  -0.649  1.00  0.00     0.180 C 
HETATM   10  O1  UNL     1      -2.761   0.305  -1.483  1.00  0.00    -0.221 OA
HETATM   11  O2  UNL     1      -0.155  -0.376  -2.400  1.00  0.00    -0.302 OA
HETATM   12  C10 UNL     1       1.040  -0.040  -1.851  1.00  0.00     0.271 C 
HETATM   13  O3  UNL     1       1.917   0.587  -2.402  1.00  0.00    -0.264 OA
HETATM   14  C14 UNL     1      -1.867   0.967   1.527  1.00  0.00     0.003 C 
ENDROOT
BRANCH   7  15
HETATM   15  C11 UNL     1      -0.254  -2.629   0.610  1.00  0.00     0.003 C 
HETATM   16  C12 UNL     1      -1.196  -3.782   0.220  1.00  0.00     0.000 C 
HETATM   17  C13 UNL     1       0.963  -3.191   1.366  1.00  0.00     0.000 C 
ENDBRANCH   7  15
BRANCH   1  18
HETATM   18  C15 UNL     1      -2.132   3.122  -0.490  1.00  0.00     0.182 C 
HETATM   19  O4  UNL     1      -1.843   4.271  -1.264  1.00  0.00    -0.221 OA
ENDBRANCH   1  18
TORSDOF 2
