REMARK  7 active torsions:
REMARK  status: ('A' for Active; 'I' for Inactive)
REMARK    1  A    between atoms: C2_2  and  O3_24 
REMARK    2  A    between atoms: C15_15  and  C16_16 
REMARK    3  A    between atoms: O3_24  and  C22_25 
REMARK    4  A    between atoms: C24_28  and  O6_33 
REMARK    5  A    between atoms: C25_29  and  O5_31 
REMARK    6  A    between atoms: O6_33  and  C28_34 
REMARK    7  A    between atoms: C31_38  and  O9_41 
ROOT
HETATM    1  C1  UNL     1       6.868  -0.247  -3.633  1.00  0.00     0.030 C 
HETATM    2  C2  UNL     1       6.112  -1.131  -2.641  1.00  0.00     0.122 C 
HETATM    3  C3  UNL     1       7.148  -1.857  -1.774  1.00  0.00     0.051 C 
HETATM    4  C4  UNL     1       8.500  -1.174  -1.701  1.00  0.00    -0.047 C 
HETATM    5  C5  UNL     1       8.544   0.348  -1.725  1.00  0.00     0.015 C 
HETATM    6  C6  UNL     1       7.676   0.849  -2.914  1.00  0.00     0.006 C 
HETATM    7  C7  UNL     1      10.013   0.817  -1.921  1.00  0.00     0.006 C 
HETATM    8  C8  UNL     1      11.005   0.100  -0.989  1.00  0.00     0.033 C 
HETATM    9  C9  UNL     1      11.009  -1.381  -1.405  1.00  0.00     0.028 C 
HETATM   10  C10 UNL     1       9.611  -1.920  -1.567  1.00  0.00    -0.035 C 
HETATM   11  C11 UNL     1      12.363   0.833  -0.801  1.00  0.00     0.127 C 
HETATM   12  C12 UNL     1      12.775   1.816  -1.931  1.00  0.00     0.028 C 
HETATM   13  C13 UNL     1      11.588   2.664  -2.453  1.00  0.00     0.003 C 
HETATM   14  C14 UNL     1      10.235   2.329  -1.816  1.00  0.00     0.001 C 
HETATM   15  C15 UNL     1      13.368   0.835  -2.981  1.00  0.00     0.033 C 
HETATM   16  C18 UNL     1      14.088  -0.247  -2.141  1.00  0.00     0.005 C 
HETATM   17  C19 UNL     1      13.566  -0.111  -0.704  1.00  0.00     0.031 C 
HETATM   18  C20 UNL     1      13.878   2.803  -1.468  1.00  0.00     0.003 C 
HETATM   19  O2  UNL     1      12.287   1.540   0.414  1.00  0.00    -0.226 OA
HETATM   20  C21 UNL     1       7.993   0.896  -0.390  1.00  0.00     0.004 C 
ENDROOT
BRANCH   2  21
HETATM   21  O3  UNL     1       5.257  -0.311  -1.893  1.00  0.00    -0.333 OA
BRANCH  21  22
HETATM   22  C22 UNL     1       4.362  -0.994  -1.030  1.00  0.00     0.238 C 
HETATM   23  O4  UNL     1       3.092  -0.567  -1.469  1.00  0.00    -0.331 OA
HETATM   24  C23 UNL     1       2.053  -1.069  -0.674  1.00  0.00     0.147 C 
HETATM   25  C24 UNL     1       2.162  -0.568   0.774  1.00  0.00     0.172 C 
HETATM   26  C35 UNL     1       0.734  -0.653  -1.334  1.00  0.00     0.035 C 
HETATM   27  C25 UNL     1       3.510  -1.003   1.361  1.00  0.00     0.150 C 
HETATM   28  C26 UNL     1       4.602  -0.543   0.398  1.00  0.00     0.094 C 
BRANCH  25  29
HETATM   29  O6  UNL     1       1.046  -1.082   1.457  1.00  0.00    -0.327 OA
BRANCH  29  30
HETATM   30  C28 UNL     1       0.894  -0.670   2.798  1.00  0.00     0.270 C 
HETATM   31  O7  UNL     1       1.351  -1.769   3.555  1.00  0.00    -0.329 OA
HETATM   32  C29 UNL     1       1.329  -1.508   4.929  1.00  0.00     0.151 C 
HETATM   33  C30 UNL     1      -0.083  -1.173   5.396  1.00  0.00     0.209 C 
HETATM   34  C34 UNL     1       1.912  -2.717   5.660  1.00  0.00     0.035 C 
HETATM   35  C31 UNL     1      -0.710  -0.056   4.571  1.00  0.00     0.183 C 
HETATM   36  O10 UNL     1      -0.919  -2.303   5.301  1.00  0.00    -0.218 OA
HETATM   37  C32 UNL     1      -0.565  -0.408   3.094  1.00  0.00     0.238 C 
HETATM   38  O8  UNL     1      -0.975   0.667   2.284  1.00  0.00    -0.215 OA
BRANCH  35  39
HETATM   39  O9  UNL     1      -2.057   0.041   4.948  1.00  0.00    -0.349 OA
HETATM   40  C33 UNL     1      -2.528   1.369   5.009  1.00  0.00     0.174 C 
ENDBRANCH  35  39
ENDBRANCH  29  30
ENDBRANCH  25  29
BRANCH  27  41
HETATM   41  O5  UNL     1       3.731  -0.399   2.609  1.00  0.00    -0.351 OA
HETATM   42  C27 UNL     1       4.760  -0.990   3.372  1.00  0.00     0.174 C 
ENDBRANCH  27  41
ENDBRANCH  21  22
ENDBRANCH   2  21
BRANCH  15  43
HETATM   43  C16 UNL     1      14.284   1.367  -4.092  1.00  0.00     0.152 C 
HETATM   44  C17 UNL     1      13.650   2.376  -5.044  1.00  0.00     0.036 C 
HETATM   45  O1  UNL     1      14.710   0.271  -4.871  1.00  0.00    -0.224 OA
ENDBRANCH  15  43
TORSDOF 7
