REMARK  1 active torsions:
REMARK  status: ('A' for Active; 'I' for Inactive)
REMARK    1  A    between atoms: C13_15  and  O3_16 
ROOT
HETATM    1  C1  UNL     1       4.810   0.314   1.514  1.00  0.00     0.029 A 
HETATM    2  C2  UNL     1       5.481   0.856   0.417  1.00  0.00     0.030 A 
HETATM    3  C3  UNL     1       4.811   1.133  -0.783  1.00  0.00     0.134 A 
HETATM    4  C4  UNL     1       3.454   0.823  -0.786  1.00  0.00     0.066 A 
HETATM    5  C5  UNL     1       2.760   0.252   0.298  1.00  0.00     0.033 A 
HETATM    6  C6  UNL     1       3.442  -0.007   1.490  1.00  0.00     0.131 A 
HETATM    7  O1  UNL     1       2.858  -0.517   2.603  1.00  0.00    -0.190 OA
HETATM    8  C7  UNL     1       1.357   0.061  -0.124  1.00  0.00     0.028 A 
HETATM    9  C8  UNL     1       1.240   0.569  -1.432  1.00  0.00     0.043 A 
HETATM   10  C9  UNL     1       2.544   1.055  -1.928  1.00  0.00     0.198 A 
HETATM   11  O2  UNL     1       2.833   1.539  -3.015  1.00  0.00    -0.286 OA
HETATM   12  C10 UNL     1       0.039   0.626  -2.126  1.00  0.00     0.031 C 
HETATM   13  C11 UNL     1      -1.115   0.159  -1.480  1.00  0.00     0.133 C 
HETATM   14  C12 UNL     1      -0.979  -0.371  -0.194  1.00  0.00     0.052 C 
HETATM   15  C13 UNL     1       0.245  -0.525   0.488  1.00  0.00     0.096 C 
HETATM   16  O4  UNL     1      -2.336   0.237  -2.072  1.00  0.00    -0.190 OA
HETATM   17  O5  UNL     1       5.434   1.673  -1.863  1.00  0.00    -0.190 OA
ENDROOT
BRANCH  15  18
HETATM   18  O3  UNL     1       0.258  -0.998   1.770  1.00  0.00    -0.328 OA
HETATM   19  C14 UNL     1       0.494  -2.386   1.844  1.00  0.00     0.181 C 
ENDBRANCH  15  18
TORSDOF 1
