REMARK  6 active torsions:
REMARK  status: ('A' for Active; 'I' for Inactive)
REMARK    1  A    between atoms: C2_2  and  C22_26 
REMARK    2  A    between atoms: C3_3  and  O4_24 
REMARK    3  A    between atoms: C6_6  and  C7_7 
REMARK    4  A    between atoms: C7_7  and  C8_8 
REMARK    5  A    between atoms: C13_14  and  C15_17 
REMARK    6  A    between atoms: C22_26  and  C23_27 
ROOT
HETATM    1  C1  UNL     1       0.626  -0.400   0.433  1.00  0.00     0.127 C 
HETATM    2  C2  UNL     1       1.094   0.858   0.028  1.00  0.00     0.030 C 
HETATM    3  C3  UNL     1       2.441   1.051  -0.338  1.00  0.00     0.097 C 
HETATM    4  C4  UNL     1       3.237  -0.103  -0.474  1.00  0.00     0.084 C 
HETATM    5  C5  UNL     1       2.796  -1.381  -0.091  1.00  0.00     0.103 C 
HETATM    6  C6  UNL     1       1.480  -1.514   0.368  1.00  0.00     0.030 C 
HETATM    7  O1  UNL     1       3.584  -2.485  -0.241  1.00  0.00    -0.305 OA
HETATM    8  C12 UNL     1       4.929  -2.294  -0.171  1.00  0.00     0.126 C 
HETATM    9  C13 UNL     1       5.523  -1.147  -0.554  1.00  0.00     0.064 C 
HETATM   10  C14 UNL     1       4.642  -0.017  -0.969  1.00  0.00     0.201 C 
HETATM   11  O2  UNL     1       5.081   0.899  -1.653  1.00  0.00    -0.286 OA
HETATM   12  O5  UNL     1      -0.671  -0.578   0.807  1.00  0.00    -0.191 OA
ENDROOT
BRANCH   9  13
HETATM   13  C15 UNL     1       6.989  -0.953  -0.469  1.00  0.00     0.005 A 
HETATM   14  C16 UNL     1       7.873  -2.018  -0.692  1.00  0.00     0.002 A 
HETATM   15  C17 UNL     1       9.254  -1.842  -0.581  1.00  0.00     0.027 A 
HETATM   16  C18 UNL     1       9.805  -0.605  -0.237  1.00  0.00     0.131 A 
HETATM   17  C19 UNL     1       8.923   0.455  -0.013  1.00  0.00     0.027 A 
HETATM   18  O3  UNL     1      11.148  -0.433  -0.119  1.00  0.00    -0.190 OA
HETATM   19  C20 UNL     1       7.541   0.289  -0.125  1.00  0.00     0.002 A 
ENDBRANCH   9  13
BRANCH   3  20
HETATM   20  O4  UNL     1       2.869   2.281  -0.773  1.00  0.00    -0.328 OA
HETATM   21  C21 UNL     1       3.681   2.975   0.151  1.00  0.00     0.181 C 
ENDBRANCH   3  20
BRANCH   6  22
HETATM   22  C7  UNL     1       0.927  -2.880   0.731  1.00  0.00     0.056 C 
BRANCH  22  23
HETATM   23  C8  UNL     1      -0.106  -3.292  -0.288  1.00  0.00    -0.030 C 
HETATM   24  C9  UNL     1      -1.248  -3.961  -0.051  1.00  0.00    -0.048 C 
HETATM   25  C10 UNL     1      -2.211  -4.282  -1.170  1.00  0.00     0.026 C 
HETATM   26  C11 UNL     1      -1.683  -4.468   1.303  1.00  0.00     0.026 C 
ENDBRANCH  22  23
ENDBRANCH   6  22
BRANCH   2  27
HETATM   27  C22 UNL     1       0.118   2.023  -0.044  1.00  0.00     0.056 C 
BRANCH  27  28
HETATM   28  C23 UNL     1       0.526   3.189   0.818  1.00  0.00    -0.030 C 
HETATM   29  C24 UNL     1       0.631   4.478   0.444  1.00  0.00    -0.048 C 
HETATM   30  C25 UNL     1       1.115   5.537   1.408  1.00  0.00     0.026 C 
HETATM   31  C26 UNL     1       0.325   5.012  -0.935  1.00  0.00     0.026 C 
ENDBRANCH  27  28
ENDBRANCH   2  27
TORSDOF 6
