REMARK  3 active torsions:
REMARK  status: ('A' for Active; 'I' for Inactive)
REMARK    1  A    between atoms: C4_4  and  C12_15 
REMARK    2  A    between atoms: C12_15  and  C13_16 
REMARK    3  A    between atoms: C14_17  and  C15_18 
ROOT
HETATM    1  C1  UNL     1       0.294   2.758   1.065  1.00  0.00     0.094 A 
HETATM    2  C2  UNL     1      -0.902   2.709   1.785  1.00  0.00     0.051 A 
HETATM    3  C3  UNL     1      -1.607   1.534   2.070  1.00  0.00     0.138 A 
HETATM    4  C4  UNL     1      -1.079   0.311   1.604  1.00  0.00     0.089 A 
HETATM    5  C5  UNL     1       0.120   0.324   0.860  1.00  0.00     0.134 A 
HETATM    6  C6  UNL     1       0.763   1.535   0.566  1.00  0.00     0.028 A 
HETATM    7  C7  UNL     1       1.996   1.531  -0.306  1.00  0.00     0.066 C 
HETATM    8  C8  UNL     1       2.686   2.886  -0.296  1.00  0.00     0.182 C 
HETATM    9  C9  UNL     1       1.678   4.029  -0.359  1.00  0.00     0.127 C 
HETATM   10  O1  UNL     1       0.878   3.967   0.783  1.00  0.00    -0.333 OA
HETATM   11  C10 UNL     1       2.432   5.369  -0.328  1.00  0.00     0.033 C 
HETATM   12  C11 UNL     1       0.774   3.994  -1.601  1.00  0.00     0.033 C 
HETATM   13  O2  UNL     1       3.599   2.948  -1.367  1.00  0.00    -0.221 OA
HETATM   14  O3  UNL     1       0.697  -0.818   0.408  1.00  0.00    -0.190 OA
HETATM   15  O6  UNL     1      -2.752   1.654   2.799  1.00  0.00    -0.190 OA
ENDROOT
BRANCH   4  16
HETATM   16  C12 UNL     1      -1.790  -0.975   1.912  1.00  0.00     0.200 C 
HETATM   17  O5  UNL     1      -2.737  -1.040   2.680  1.00  0.00    -0.286 OA
BRANCH  16  18
HETATM   18  C13 UNL     1      -1.280  -2.296   1.384  1.00  0.00     0.042 C 
HETATM   19  C14 UNL     1      -1.248  -2.596   0.076  1.00  0.00     0.003 C 
BRANCH  19  20
HETATM   20  C15 UNL     1      -0.592  -3.839  -0.417  1.00  0.00     0.000 A 
HETATM   21  C16 UNL     1       0.531  -3.728  -1.246  1.00  0.00     0.002 A 
HETATM   22  C17 UNL     1       1.208  -4.868  -1.680  1.00  0.00     0.027 A 
HETATM   23  C18 UNL     1       0.768  -6.150  -1.328  1.00  0.00     0.131 A 
HETATM   24  C19 UNL     1      -0.358  -6.249  -0.507  1.00  0.00     0.027 A 
HETATM   25  O4  UNL     1       1.402  -7.268  -1.772  1.00  0.00    -0.190 OA
HETATM   26  C20 UNL     1      -1.025  -5.111  -0.041  1.00  0.00     0.002 A 
ENDBRANCH  19  20
ENDBRANCH  16  18
ENDBRANCH   4  16
TORSDOF 3
