REMARK  4 active torsions:
REMARK  status: ('A' for Active; 'I' for Inactive)
REMARK    1  A    between atoms: C3_3  and  C12_14 
REMARK    2  A    between atoms: C10_10  and  O1_11 
REMARK    3  A    between atoms: C15_17  and  O4_22 
REMARK    4  A    between atoms: C16_18  and  O3_20 
ROOT
HETATM    1  C1  UNL     1      -1.689  -2.627  -0.779  1.00  0.00     0.062 A 
HETATM    2  C2  UNL     1      -0.670  -1.722  -1.131  1.00  0.00     0.013 A 
HETATM    3  C3  UNL     1      -0.246  -0.765  -0.241  1.00  0.00     0.001 A 
HETATM    4  C4  UNL     1      -0.823  -0.741   1.085  1.00  0.00     0.024 A 
HETATM    5  C5  UNL     1      -1.852  -1.667   1.386  1.00  0.00     0.002 A 
HETATM    6  C6  UNL     1      -2.312  -2.636   0.440  1.00  0.00     0.005 A 
HETATM    7  C7  UNL     1      -2.462  -1.651   2.670  1.00  0.00     0.002 A 
HETATM    8  C8  UNL     1      -2.024  -0.751   3.606  1.00  0.00     0.029 A 
HETATM    9  C9  UNL     1      -0.967   0.162   3.340  1.00  0.00     0.153 A 
HETATM   10  C10 UNL     1      -0.353   0.182   2.093  1.00  0.00     0.119 A 
HETATM   11  O2  UNL     1      -0.618   0.988   4.363  1.00  0.00    -0.188 OA
HETATM   12  C20 UNL     1      -0.267  -1.996  -2.559  1.00  0.00     0.179 A 
HETATM   13  O5  UNL     1      -1.077  -3.087  -3.009  1.00  0.00    -0.293 OA
HETATM   14  C21 UNL     1      -1.899  -3.450  -1.976  1.00  0.00     0.296 A 
HETATM   15  O6  UNL     1      -2.719  -4.362  -2.049  1.00  0.00    -0.259 OA
ENDROOT
BRANCH   3  16
HETATM   16  C12 UNL     1       0.757   0.220  -0.756  1.00  0.00     0.002 A 
HETATM   17  C13 UNL     1       0.383   1.541  -1.004  1.00  0.00     0.002 A 
HETATM   18  C14 UNL     1       1.332   2.434  -1.495  1.00  0.00     0.026 A 
HETATM   19  C15 UNL     1       2.664   2.060  -1.722  1.00  0.00     0.116 A 
HETATM   20  C16 UNL     1       3.021   0.702  -1.582  1.00  0.00     0.116 A 
HETATM   21  C17 UNL     1       2.055  -0.181  -1.076  1.00  0.00     0.026 A 
BRANCH  19  22
HETATM   22  O4  UNL     1       3.527   2.954  -2.304  1.00  0.00    -0.326 OA
HETATM   23  C19 UNL     1       4.327   3.649  -1.376  1.00  0.00     0.181 C 
ENDBRANCH  19  22
BRANCH  20  24
HETATM   24  O3  UNL     1       4.279   0.314  -1.977  1.00  0.00    -0.326 OA
HETATM   25  C18 UNL     1       4.526  -1.061  -2.166  1.00  0.00     0.181 C 
ENDBRANCH  20  24
ENDBRANCH   3  16
BRANCH  10  26
HETATM   26  O1  UNL     1       0.690   1.011   1.753  1.00  0.00    -0.326 OA
HETATM   27  C11 UNL     1       1.280   1.897   2.671  1.00  0.00     0.181 C 
ENDBRANCH  10  26
TORSDOF 4
