REMARK  5 active torsions:
REMARK  status: ('A' for Active; 'I' for Inactive)
REMARK    1  A    between atoms: C1_1  and  O11_39 
REMARK    2  A    between atoms: C2_2  and  C23_30 
REMARK    3  A    between atoms: C8_8  and  C11_12 
REMARK    4  A    between atoms: C14_15  and  C17_18 
REMARK    5  A    between atoms: C21_22  and  C22_24 
ROOT
HETATM    1  C1  UNL     1       9.188  -0.266  -0.588  1.00  0.00     0.094 A 
HETATM    2  C2  UNL     1       9.134  -1.643  -0.885  1.00  0.00     0.052 A 
HETATM    3  C3  UNL     1       7.900  -2.317  -0.977  1.00  0.00     0.134 A 
HETATM    4  C4  UNL     1       6.705  -1.612  -0.741  1.00  0.00     0.061 A 
HETATM    5  C5  UNL     1       6.729  -0.232  -0.517  1.00  0.00    -0.011 A 
HETATM    6  C6  UNL     1       7.967   0.406  -0.437  1.00  0.00     0.020 A 
HETATM    7  C7  UNL     1       5.481   0.599  -0.366  1.00  0.00     0.053 A 
HETATM    8  C8  UNL     1       4.190  -0.164  -0.459  1.00  0.00    -0.015 A 
HETATM    9  C9  UNL     1       4.165  -1.497  -0.642  1.00  0.00     0.038 A 
HETATM   10  C10 UNL     1       5.394  -2.312  -0.789  1.00  0.00     0.197 A 
HETATM   11  O1  UNL     1       5.275  -3.524  -0.933  1.00  0.00    -0.286 OA
HETATM   12  O7  UNL     1       7.859  -3.652  -1.225  1.00  0.00    -0.190 OA
ENDROOT
BRANCH   8  13
HETATM   13  C11 UNL     1       2.899   0.568  -0.349  1.00  0.00    -0.004 C 
HETATM   14  C12 UNL     1       2.620   1.647  -1.193  1.00  0.00    -0.001 C 
HETATM   15  C13 UNL     1       1.412   2.333  -1.081  1.00  0.00    -0.002 C 
HETATM   16  C14 UNL     1       0.480   2.028  -0.078  1.00  0.00     0.007 C 
HETATM   17  C15 UNL     1       0.730   0.886   0.694  1.00  0.00    -0.002 C 
HETATM   18  C16 UNL     1       1.921   0.168   0.565  1.00  0.00    -0.001 C 
BRANCH  16  19
HETATM   19  C17 UNL     1      -0.756   2.901   0.065  1.00  0.00     0.171 C 
HETATM   20  C18 UNL     1      -1.751   2.585   1.175  1.00  0.00     0.216 C 
HETATM   21  C19 UNL     1      -1.350   3.158   2.524  1.00  0.00     0.218 C 
HETATM   22  O6  UNL     1      -3.014   3.107   0.820  1.00  0.00    -0.218 OA
HETATM   23  C20 UNL     1      -0.902   4.602   2.404  1.00  0.00     0.214 C 
HETATM   24  O5  UNL     1      -0.296   2.403   3.069  1.00  0.00    -0.218 OA
HETATM   25  C21 UNL     1       0.034   4.839   1.229  1.00  0.00     0.181 C 
HETATM   26  O4  UNL     1      -2.033   5.434   2.275  1.00  0.00    -0.218 OA
HETATM   27  O2  UNL     1      -0.441   4.280   0.033  1.00  0.00    -0.347 OA
BRANCH  25  28
HETATM   28  C22 UNL     1       1.487   4.480   1.505  1.00  0.00     0.214 C 
HETATM   29  O3  UNL     1       2.264   4.828   0.376  1.00  0.00    -0.218 OA
ENDBRANCH  25  28
ENDBRANCH  16  19
ENDBRANCH   8  13
BRANCH   1  30
HETATM   30  O11 UNL     1      10.413   0.350  -0.484  1.00  0.00    -0.328 OA
HETATM   31  C29 UNL     1      10.466   1.732  -0.218  1.00  0.00     0.181 C 
ENDBRANCH   1  30
BRANCH   2  32
HETATM   32  C23 UNL     1      10.463  -2.385  -1.073  1.00  0.00     0.144 C 
HETATM   33  C24 UNL     1      11.032  -2.876   0.264  1.00  0.00     0.070 C 
HETATM   34  C25 UNL     1      10.559  -4.278   0.624  1.00  0.00     0.188 C 
HETATM   35  C26 UNL     1      10.778  -5.229  -0.546  1.00  0.00     0.209 C 
HETATM   36  O10 UNL     1       9.193  -4.231   0.977  1.00  0.00    -0.221 OA
HETATM   37  C27 UNL     1      11.188  -4.504  -1.827  1.00  0.00     0.149 C 
HETATM   38  O9  UNL     1       9.608  -5.990  -0.737  1.00  0.00    -0.218 OA
HETATM   39  O8  UNL     1      10.370  -3.395  -2.056  1.00  0.00    -0.352 OA
HETATM   40  C28 UNL     1      11.115  -5.405  -3.061  1.00  0.00     0.035 C 
ENDBRANCH   2  32
TORSDOF 5
