REMARK  1 active torsions:
REMARK  status: ('A' for Active; 'I' for Inactive)
REMARK    1  A    between atoms: C16_16  and  O2_21 
ROOT
HETATM    1  C1  UNL     1      -1.919  -0.277   0.329  1.00  0.00    -0.002 A 
HETATM    2  C2  UNL     1      -1.909  -1.484  -0.372  1.00  0.00     0.029 A 
HETATM    3  C3  UNL     1      -0.911  -2.438  -0.158  1.00  0.00     0.154 A 
HETATM    4  C4  UNL     1       0.077  -2.195   0.805  1.00  0.00     0.125 A 
HETATM    5  C5  UNL     1       0.002  -1.016   1.557  1.00  0.00     0.023 A 
HETATM    6  C6  UNL     1      -0.936  -0.018   1.287  1.00  0.00    -0.020 A 
HETATM    7  C7  UNL     1      -0.779   1.344   1.919  1.00  0.00     0.029 C 
HETATM    8  C8  UNL     1       0.048   2.288   1.019  1.00  0.00     0.038 C 
HETATM    9  C9  UNL     1       1.458   1.801   0.644  1.00  0.00     0.152 C 
HETATM   10  C10 UNL     1       2.268   2.897  -0.066  1.00  0.00     0.033 C 
HETATM   11  C11 UNL     1       3.575   2.439  -0.746  1.00  0.00     0.003 C 
HETATM   12  C12 UNL     1       4.687   1.961   0.208  1.00  0.00     0.005 C 
HETATM   13  C13 UNL     1       5.315   0.614  -0.203  1.00  0.00     0.026 C 
HETATM   14  C14 UNL     1       4.340  -0.513   0.055  1.00  0.00    -0.020 C 
HETATM   15  C15 UNL     1       3.594  -1.101  -0.970  1.00  0.00     0.022 C 
HETATM   16  C16 UNL     1       2.579  -2.042  -0.736  1.00  0.00     0.116 C 
HETATM   17  C17 UNL     1       2.280  -2.347   0.607  1.00  0.00     0.122 C 
HETATM   18  O1  UNL     1       1.146  -3.045   0.932  1.00  0.00    -0.303 OA
HETATM   19  C18 UNL     1       3.098  -1.849   1.626  1.00  0.00     0.026 C 
HETATM   20  C19 UNL     1       4.124  -0.948   1.362  1.00  0.00    -0.002 C 
HETATM   21  O3  UNL     1       1.364   0.680  -0.205  1.00  0.00    -0.224 OA
HETATM   22  O4  UNL     1      -0.795  -3.540  -0.945  1.00  0.00    -0.188 OA
ENDROOT
BRANCH  16  23
HETATM   23  O2  UNL     1       1.747  -2.530  -1.714  1.00  0.00    -0.326 OA
HETATM   24  C20 UNL     1       1.615  -1.798  -2.909  1.00  0.00     0.181 C 
ENDBRANCH  16  23
TORSDOF 1
