REMARK  1 active torsions:
REMARK  status: ('A' for Active; 'I' for Inactive)
REMARK    1  A    between atoms: C16_17  and  O3_22 
ROOT
HETATM    1  C1  UNL     1      -2.026  -0.415   0.258  1.00  0.00    -0.002 A 
HETATM    2  C2  UNL     1      -1.999  -1.671  -0.350  1.00  0.00     0.029 A 
HETATM    3  C3  UNL     1      -0.953  -2.565  -0.112  1.00  0.00     0.154 A 
HETATM    4  C4  UNL     1       0.075  -2.204   0.770  1.00  0.00     0.125 A 
HETATM    5  C5  UNL     1       0.014  -0.949   1.389  1.00  0.00     0.023 A 
HETATM    6  C6  UNL     1      -0.995  -0.022   1.118  1.00  0.00    -0.017 A 
HETATM    7  C7  UNL     1      -0.934   1.384   1.676  1.00  0.00     0.067 C 
HETATM    8  C8  UNL     1      -0.050   2.315   0.832  1.00  0.00     0.213 C 
HETATM    9  C9  UNL     1       1.455   2.268   1.106  1.00  0.00     0.181 C 
HETATM   10  O1  UNL     1       1.919   1.640   2.030  1.00  0.00    -0.293 OA
HETATM   11  C10 UNL     1       2.370   3.081   0.192  1.00  0.00     0.067 C 
HETATM   12  C11 UNL     1       3.334   2.200  -0.623  1.00  0.00     0.008 C 
HETATM   13  C12 UNL     1       4.628   1.824   0.126  1.00  0.00     0.005 C 
HETATM   14  C13 UNL     1       5.290   0.536  -0.406  1.00  0.00     0.026 C 
HETATM   15  C14 UNL     1       4.376  -0.631  -0.107  1.00  0.00    -0.020 C 
HETATM   16  C15 UNL     1       3.552  -1.184  -1.093  1.00  0.00     0.022 C 
HETATM   17  C16 UNL     1       2.525  -2.096  -0.805  1.00  0.00     0.116 C 
HETATM   18  C17 UNL     1       2.293  -2.387   0.554  1.00  0.00     0.122 C 
HETATM   19  O2  UNL     1       1.152  -3.037   0.938  1.00  0.00    -0.303 OA
HETATM   20  C18 UNL     1       3.196  -1.943   1.527  1.00  0.00     0.026 C 
HETATM   21  C19 UNL     1       4.244  -1.086   1.205  1.00  0.00    -0.002 C 
HETATM   22  O4  UNL     1      -0.305   2.079  -0.543  1.00  0.00    -0.215 OA
HETATM   23  O5  UNL     1      -0.835  -3.730  -0.802  1.00  0.00    -0.188 OA
ENDROOT
BRANCH  17  24
HETATM   24  O3  UNL     1       1.618  -2.547  -1.733  1.00  0.00    -0.326 OA
HETATM   25  C20 UNL     1       1.405  -1.770  -2.888  1.00  0.00     0.181 C 
ENDBRANCH  17  24
TORSDOF 1
