REMARK  10 active torsions:
REMARK  status: ('A' for Active; 'I' for Inactive)
REMARK    1  A    between atoms: C5_5  and  C7_7 
REMARK    2  A    between atoms: C7_7  and  C8_8 
REMARK    3  A    between atoms: C8_8  and  C9_9 
REMARK    4  A    between atoms: C9_9  and  C10_10 
REMARK    5  A    between atoms: C10_10  and  C11_11 
REMARK    6  A    between atoms: C11_11  and  C12_12 
REMARK    7  A    between atoms: C11_11  and  O3_23 
REMARK    8  A    between atoms: C12_12  and  C13_13 
REMARK    9  A    between atoms: C13_13  and  C14_14 
REMARK   10  A    between atoms: C18_18  and  O1_20 
ROOT
HETATM    1  C11 UNL     1      -1.465   1.538   1.424  1.00  0.00     0.123 C 
ENDROOT
BRANCH   1   2
HETATM    2  C10 UNL     1      -2.466   0.377   1.286  1.00  0.00     0.094 C 
BRANCH   2   3
HETATM    3  C9  UNL     1      -1.942  -1.059   1.290  1.00  0.00     0.153 C 
HETATM    4  O4  UNL     1      -2.736  -1.974   1.311  1.00  0.00    -0.296 OA
BRANCH   3   5
HETATM    5  C8  UNL     1      -0.449  -1.352   1.253  1.00  0.00     0.069 C 
BRANCH   5   6
HETATM    6  C7  UNL     1      -0.064  -2.839   1.314  1.00  0.00     0.034 C 
BRANCH   6   7
HETATM    7  C5  UNL     1       1.428  -3.115   1.317  1.00  0.00    -0.022 A 
HETATM    8  C4  UNL     1       1.913  -4.319   1.843  1.00  0.00    -0.002 A 
HETATM    9  C3  UNL     1       3.280  -4.605   1.863  1.00  0.00     0.027 A 
HETATM   10  C2  UNL     1       4.220  -3.701   1.362  1.00  0.00     0.131 A 
HETATM   11  C1  UNL     1       3.739  -2.503   0.829  1.00  0.00     0.027 A 
HETATM   12  O5  UNL     1       5.548  -3.987   1.384  1.00  0.00    -0.190 OA
HETATM   13  C6  UNL     1       2.373  -2.217   0.805  1.00  0.00    -0.002 A 
ENDBRANCH   6   7
ENDBRANCH   5   6
ENDBRANCH   3   5
ENDBRANCH   2   3
ENDBRANCH   1   2
BRANCH   1  14
HETATM   14  C12 UNL     1      -0.629   1.744   0.146  1.00  0.00     0.035 C 
BRANCH  14  15
HETATM   15  C13 UNL     1       0.875   1.932   0.424  1.00  0.00     0.029 C 
BRANCH  15  16
HETATM   16  C14 UNL     1       1.809   1.646  -0.735  1.00  0.00    -0.020 A 
HETATM   17  C15 UNL     1       3.107   1.196  -0.472  1.00  0.00    -0.002 A 
HETATM   18  C16 UNL     1       3.974   0.892  -1.519  1.00  0.00     0.029 A 
HETATM   19  C17 UNL     1       3.572   1.026  -2.850  1.00  0.00     0.153 A 
HETATM   20  C18 UNL     1       2.272   1.464  -3.149  1.00  0.00     0.119 A 
HETATM   21  O2  UNL     1       4.427   0.730  -3.865  1.00  0.00    -0.188 OA
HETATM   22  C19 UNL     1       1.432   1.796  -2.074  1.00  0.00     0.022 A 
BRANCH  20  23
HETATM   23  O1  UNL     1       1.944   1.613  -4.473  1.00  0.00    -0.326 OA
HETATM   24  C20 UNL     1       0.840   2.421  -4.806  1.00  0.00     0.181 C 
ENDBRANCH  20  23
ENDBRANCH  15  16
ENDBRANCH  14  15
ENDBRANCH   1  14
BRANCH   1  25
HETATM   25  O3  UNL     1      -2.207   2.690   1.738  1.00  0.00    -0.354 OA
HETATM   26  C21 UNL     1      -1.419   3.784   2.158  1.00  0.00     0.174 C 
ENDBRANCH   1  25
TORSDOF 10
