REMARK  5 active torsions:
REMARK  status: ('A' for Active; 'I' for Inactive)
REMARK    1  A    between atoms: C5_5  and  C7_7 
REMARK    2  A    between atoms: C7_7  and  S1_8 
REMARK    3  A    between atoms: S1_8  and  S2_9 
REMARK    4  A    between atoms: S2_9  and  C8_10 
REMARK    5  A    between atoms: C8_10  and  C9_11 
ROOT
HETATM    1  S1  UNL     1       4.487   0.019  -0.003  1.00  0.00    -0.076 SA
ENDROOT
BRANCH   1   2
HETATM    2  C7  UNL     1       4.948  -1.683   0.451  1.00  0.00     0.095 C 
BRANCH   2   3
HETATM    3  C5  UNL     1       6.428  -1.990   0.535  1.00  0.00    -0.011 A 
HETATM    4  C4  UNL     1       6.822  -3.290   0.882  1.00  0.00    -0.003 A 
HETATM    5  C3  UNL     1       8.168  -3.646   0.979  1.00  0.00    -0.000 A 
HETATM    6  C2  UNL     1       9.159  -2.697   0.727  1.00  0.00    -0.000 A 
HETATM    7  C1  UNL     1       8.789  -1.398   0.381  1.00  0.00    -0.000 A 
HETATM    8  C6  UNL     1       7.439  -1.051   0.286  1.00  0.00    -0.003 A 
ENDBRANCH   2   3
ENDBRANCH   1   2
BRANCH   1   9
HETATM    9  S2  UNL     1       2.461  -0.019   0.003  1.00  0.00    -0.076 SA
BRANCH   9  10
HETATM   10  C8  UNL     1       2.001   1.683  -0.451  1.00  0.00     0.095 C 
BRANCH  10  11
HETATM   11  C9  UNL     1       0.519   1.990  -0.535  1.00  0.00    -0.011 A 
HETATM   12  C10 UNL     1       0.126   3.290  -0.882  1.00  0.00    -0.003 A 
HETATM   13  C11 UNL     1      -1.220   3.646  -0.979  1.00  0.00    -0.000 A 
HETATM   14  C12 UNL     1      -2.211   2.697  -0.727  1.00  0.00    -0.000 A 
HETATM   15  C13 UNL     1      -1.841   1.398  -0.381  1.00  0.00    -0.000 A 
HETATM   16  C14 UNL     1      -0.491   1.051  -0.286  1.00  0.00    -0.003 A 
ENDBRANCH  10  11
ENDBRANCH   9  10
ENDBRANCH   1   9
TORSDOF 5
