REMARK  0 active torsions:
REMARK  status: ('A' for Active; 'I' for Inactive)
ROOT
HETATM    1  C1  UNL     1      -2.657  -1.464   1.473  1.00  0.00    -0.004 A 
HETATM    2  C2  UNL     1      -2.629  -2.856   1.503  1.00  0.00     0.002 A 
HETATM    3  C3  UNL     1      -1.398  -3.498   1.565  1.00  0.00     0.025 A 
HETATM    4  C4  UNL     1      -0.193  -2.786   1.606  1.00  0.00     0.105 A 
HETATM    5  C5  UNL     1      -0.230  -1.376   1.593  1.00  0.00     0.041 A 
HETATM    6  C6  UNL     1      -1.480  -0.710   1.514  1.00  0.00    -0.018 A 
HETATM    7  C7  UNL     1      -1.631   0.793   1.414  1.00  0.00     0.031 C 
HETATM    8  C8  UNL     1       1.053  -0.641   1.592  1.00  0.00     0.097 A 
HETATM    9  C9  UNL     1       2.208  -1.357   1.530  1.00  0.00     0.063 A 
HETATM   10  C10 UNL     1       2.128  -2.835   1.619  1.00  0.00     0.298 A 
HETATM   11  O1  UNL     1       0.957  -3.514   1.647  1.00  0.00    -0.273 OA
HETATM   12  O2  UNL     1       3.175  -3.473   1.704  1.00  0.00    -0.259 OA
HETATM   13  C11 UNL     1       3.557  -0.674   1.386  1.00  0.00     0.035 C 
HETATM   14  C12 UNL     1       3.397   0.858   1.236  1.00  0.00     0.034 C 
HETATM   15  C13 UNL     1       2.242   1.319   2.143  1.00  0.00     0.099 C 
HETATM   16  O3  UNL     1       1.072   0.724   1.691  1.00  0.00    -0.336 OA
HETATM   17  C14 UNL     1       2.024   2.842   2.112  1.00  0.00     0.030 C 
HETATM   18  C15 UNL     1       2.468   0.957   3.625  1.00  0.00     0.030 C 
HETATM   19  C16 UNL     1       3.274   1.280  -0.255  1.00  0.00     0.033 C 
HETATM   20  C17 UNL     1       2.713   0.154  -1.132  1.00  0.00     0.032 C 
HETATM   21  C18 UNL     1       3.768  -0.954  -1.176  1.00  0.00     0.099 C 
HETATM   22  C19 UNL     1       4.397  -1.205   0.208  1.00  0.00     0.033 C 
HETATM   23  O4  UNL     1       4.769  -0.557  -2.062  1.00  0.00    -0.336 OA
HETATM   24  C20 UNL     1       5.254   0.709  -1.884  1.00  0.00     0.095 A 
HETATM   25  C21 UNL     1       4.609   1.628  -0.874  1.00  0.00     0.049 A 
HETATM   26  C22 UNL     1       5.377   2.888  -0.530  1.00  0.00     0.230 A 
HETATM   27  O5  UNL     1       6.587   3.166  -1.069  1.00  0.00    -0.284 OA
HETATM   28  C23 UNL     1       7.174   2.268  -1.919  1.00  0.00     0.099 A 
HETATM   29  C24 UNL     1       6.620   1.112  -2.362  1.00  0.00     0.037 A 
HETATM   30  C25 UNL     1       7.335   0.221  -3.330  1.00  0.00    -0.040 C 
HETATM   31  C26 UNL     1       8.739   0.557  -3.779  1.00  0.00     0.027 C 
HETATM   32  C27 UNL     1       9.462   1.689  -3.098  1.00  0.00     0.032 C 
HETATM   33  C28 UNL     1       8.536   2.651  -2.402  1.00  0.00    -0.001 C 
HETATM   34  C29 UNL     1       6.649  -0.908  -4.065  1.00  0.00     0.026 C 
HETATM   35  O6  UNL     1       4.827   3.733   0.325  1.00  0.00    -0.163 OA
HETATM   36  C30 UNL     1       3.148  -2.233  -1.751  1.00  0.00     0.030 C 
ENDROOT
TORSDOF 0
