REMARK  10 active torsions:
REMARK  status: ('A' for Active; 'I' for Inactive)
REMARK    1  A    between atoms: C1_1  and  O16_46 
REMARK    2  A    between atoms: C2_2  and  O5_21 
REMARK    3  A    between atoms: C7_9  and  C10_13 
REMARK    4  A    between atoms: C13_16  and  O4_19 
REMARK    5  A    between atoms: O5_21  and  C17_22 
REMARK    6  A    between atoms: C18_24  and  C22_31 
REMARK    7  A    between atoms: C22_31  and  O10_32 
REMARK    8  A    between atoms: O10_32  and  C23_33 
REMARK    9  A    between atoms: C25_36  and  O14_41 
REMARK   10  A    between atoms: O14_41  and  C28_42 
ROOT
HETATM    1  C17 UNL     1       0.077   0.865  -1.646  1.00  0.00     0.274 C 
HETATM    2  O6  UNL     1      -0.212   1.766  -0.602  1.00  0.00    -0.326 OA
HETATM    3  C18 UNL     1       0.082   3.095  -0.944  1.00  0.00     0.180 C 
HETATM    4  C19 UNL     1      -0.743   3.509  -2.158  1.00  0.00     0.215 C 
HETATM    5  C20 UNL     1      -0.517   2.551  -3.313  1.00  0.00     0.220 C 
HETATM    6  C21 UNL     1      -0.798   1.141  -2.842  1.00  0.00     0.241 C 
HETATM    7  O7  UNL     1      -0.487   0.225  -3.861  1.00  0.00    -0.215 OA
HETATM    8  O8  UNL     1      -1.379   2.877  -4.372  1.00  0.00    -0.218 OA
HETATM    9  O9  UNL     1      -0.379   4.797  -2.589  1.00  0.00    -0.218 OA
ENDROOT
BRANCH   1  10
HETATM   10  O5  UNL     1      -0.243  -0.391  -1.092  1.00  0.00    -0.302 OA
BRANCH  10  11
HETATM   11  C2  UNL     1       0.597  -1.409  -1.453  1.00  0.00     0.121 C 
HETATM   12  C1  UNL     1       0.117  -2.524  -2.161  1.00  0.00     0.144 C 
HETATM   13  C6  UNL     1       1.003  -3.554  -2.525  1.00  0.00     0.178 C 
HETATM   14  C5  UNL     1       2.331  -3.585  -2.075  1.00  0.00     0.130 A 
HETATM   15  O1  UNL     1       0.534  -4.562  -3.310  1.00  0.00    -0.186 OA
HETATM   16  C4  UNL     1       2.767  -2.503  -1.299  1.00  0.00     0.066 A 
HETATM   17  O2  UNL     1       3.136  -4.638  -2.412  1.00  0.00    -0.305 OA
HETATM   18  C3  UNL     1       1.909  -1.450  -0.973  1.00  0.00     0.032 C 
HETATM   19  C9  UNL     1       4.160  -2.498  -0.805  1.00  0.00     0.200 A 
HETATM   20  C8  UNL     1       4.921  -3.727  -1.110  1.00  0.00     0.067 A 
HETATM   21  O3  UNL     1       4.647  -1.573  -0.160  1.00  0.00    -0.286 OA
HETATM   22  C7  UNL     1       4.392  -4.717  -1.871  1.00  0.00     0.103 A 
BRANCH  12  23
HETATM   23  O16 UNL     1      -1.149  -2.515  -2.684  1.00  0.00    -0.324 OA
HETATM   24  C31 UNL     1      -2.144  -2.956  -1.789  1.00  0.00     0.182 C 
ENDBRANCH  12  23
BRANCH  22  25
HETATM   25  C10 UNL     1       5.183  -5.958  -2.058  1.00  0.00     0.023 A 
HETATM   26  C11 UNL     1       4.521  -7.154  -2.375  1.00  0.00     0.004 A 
HETATM   27  C12 UNL     1       5.219  -8.357  -2.492  1.00  0.00     0.024 A 
HETATM   28  C13 UNL     1       6.608  -8.448  -2.321  1.00  0.00     0.094 A 
HETATM   29  C14 UNL     1       7.266  -7.237  -2.062  1.00  0.00     0.024 A 
HETATM   30  C15 UNL     1       6.579  -6.027  -1.937  1.00  0.00     0.004 A 
BRANCH  28  31
HETATM   31  O4  UNL     1       7.215  -9.673  -2.440  1.00  0.00    -0.328 OA
HETATM   32  C16 UNL     1       8.617  -9.740  -2.316  1.00  0.00     0.181 C 
ENDBRANCH  28  31
ENDBRANCH  22  25
ENDBRANCH  10  11
ENDBRANCH   1  10
BRANCH   3  33
HETATM   33  C22 UNL     1      -0.201   3.955   0.285  1.00  0.00     0.177 C 
BRANCH  33  34
HETATM   34  O10 UNL     1       0.616   3.497   1.336  1.00  0.00    -0.326 OA
BRANCH  34  35
HETATM   35  C23 UNL     1       0.346   4.101   2.582  1.00  0.00     0.270 C 
HETATM   36  O11 UNL     1       0.897   5.394   2.523  1.00  0.00    -0.329 OA
HETATM   37  C24 UNL     1       0.733   6.121   3.711  1.00  0.00     0.148 C 
HETATM   38  C25 UNL     1       1.353   5.397   4.911  1.00  0.00     0.184 C 
HETATM   39  C30 UNL     1      -0.714   6.582   3.907  1.00  0.00     0.035 C 
HETATM   40  C26 UNL     1       0.949   3.929   4.995  1.00  0.00     0.217 C 
HETATM   41  C27 UNL     1       1.058   3.281   3.632  1.00  0.00     0.241 C 
HETATM   42  O13 UNL     1      -0.383   3.800   5.427  1.00  0.00    -0.218 OA
HETATM   43  O12 UNL     1       0.465   2.007   3.683  1.00  0.00    -0.215 OA
BRANCH  38  44
HETATM   44  O14 UNL     1       2.748   5.489   4.788  1.00  0.00    -0.299 OA
BRANCH  44  45
HETATM   45  C28 UNL     1       3.507   5.354   5.909  1.00  0.00     0.273 C 
HETATM   46  C29 UNL     1       4.978   5.475   5.560  1.00  0.00     0.106 C 
HETATM   47  O15 UNL     1       3.079   5.160   7.024  1.00  0.00    -0.264 OA
ENDBRANCH  44  45
ENDBRANCH  38  44
ENDBRANCH  34  35
ENDBRANCH  33  34
ENDBRANCH   3  33
TORSDOF 10
