REMARK  2 active torsions:
REMARK  status: ('A' for Active; 'I' for Inactive)
REMARK    1  A    between atoms: C5_5  and  C20_28 
REMARK    2  A    between atoms: C15_17  and  C16_19 
ROOT
HETATM    1  C1  UNL     1      -3.073   2.584   2.654  1.00  0.00     0.036 C 
HETATM    2  C2  UNL     1      -3.079   1.057   2.642  1.00  0.00     0.033 C 
HETATM    3  C3  UNL     1      -2.362   0.552   1.397  1.00  0.00     0.129 C 
HETATM    4  C4  UNL     1      -0.926   1.059   1.397  1.00  0.00     0.060 C 
HETATM    5  C5  UNL     1      -0.926   2.582   1.397  1.00  0.00     0.063 C 
HETATM    6  C6  UNL     1      -1.636   3.090   2.646  1.00  0.00     0.155 C 
HETATM    7  O1  UNL     1      -1.635   4.492   2.646  1.00  0.00    -0.223 OA
HETATM    8  C7  UNL     1       0.509   3.090   1.388  1.00  0.00     0.005 C 
HETATM    9  C8  UNL     1       1.467   1.905   1.400  1.00  0.00     0.003 C 
HETATM   10  C9  UNL     1       1.232   1.045   0.162  1.00  0.00     0.027 C 
HETATM   11  C10 UNL     1      -0.208   0.552   0.154  1.00  0.00     0.120 C 
HETATM   12  O2  UNL     1      -0.222  -0.850   0.147  1.00  0.00    -0.332 OA
HETATM   13  C11 UNL     1       0.383  -1.552  -0.906  1.00  0.00     0.270 A 
HETATM   14  C12 UNL     1       1.478  -2.460  -0.363  1.00  0.00     0.241 A 
HETATM   15  C13 UNL     1       2.141  -3.202  -1.516  1.00  0.00     0.220 C 
HETATM   16  C14 UNL     1       1.070  -3.841  -2.391  1.00  0.00     0.215 C 
HETATM   17  C15 UNL     1       0.016  -2.801  -2.745  1.00  0.00     0.184 C 
HETATM   18  O3  UNL     1      -0.567  -2.366  -1.546  1.00  0.00    -0.326 OA
HETATM   19  O5  UNL     1       1.658  -4.329  -3.567  1.00  0.00    -0.218 OA
HETATM   20  O6  UNL     1       2.984  -4.199  -1.006  1.00  0.00    -0.218 OA
HETATM   21  O7  UNL     1       2.436  -1.687   0.308  1.00  0.00    -0.215 OA
HETATM   22  C17 UNL     1       2.178  -0.149   0.188  1.00  0.00     0.002 C 
HETATM   23  C18 UNL     1       3.069  -0.116  -1.047  1.00  0.00     0.000 C 
HETATM   24  O8  UNL     1       1.431  -1.335   0.195  1.00  0.00     0.000 OA
HETATM   25  C19 UNL     1       3.043  -0.086   1.439  1.00  0.00     0.000 C 
HETATM   26  C21 UNL     1      -3.081   1.062   0.155  1.00  0.00     0.033 C 
HETATM   27  O10 UNL     1      -2.363  -0.850   1.395  1.00  0.00    -0.226 OA
ENDROOT
BRANCH   5  28
HETATM   28  C20 UNL     1      -1.652   3.090   0.159  1.00  0.00     0.185 C 
HETATM   29  O9  UNL     1      -1.653   4.492   0.158  1.00  0.00    -0.221 OA
ENDBRANCH   5  28
BRANCH  17  30
HETATM   30  C16 UNL     1      -1.046  -3.422  -3.643  1.00  0.00     0.214 C 
HETATM   31  O4  UNL     1      -1.100  -2.722  -4.856  1.00  0.00    -0.218 OA
ENDBRANCH  17  30
TORSDOF 2
