REMARK  0 active torsions:
REMARK  status: ('A' for Active; 'I' for Inactive)
ROOT
HETATM    1  C1  UNL     1       0.495  -1.035   0.080  1.00  0.00     0.057 A 
HETATM    2  C2  UNL     1       1.651  -1.834   0.130  1.00  0.00     0.032 A 
HETATM    3  C3  UNL     1       2.919  -1.256   0.063  1.00  0.00     0.131 A 
HETATM    4  C4  UNL     1       3.053   0.125  -0.056  1.00  0.00     0.029 A 
HETATM    5  C5  UNL     1       1.919   0.937  -0.108  1.00  0.00     0.019 A 
HETATM    6  C6  UNL     1       0.639   0.374  -0.041  1.00  0.00     0.065 A 
HETATM    7  N1  UNL     1      -0.497   1.202  -0.094  1.00  0.00    -0.307 N 
HETATM    8  C7  UNL     1      -1.696   0.622  -0.027  1.00  0.00     0.167 A 
HETATM    9  C8  UNL     1      -1.939  -0.721   0.090  1.00  0.00     0.081 A 
HETATM   10  C9  UNL     1      -0.861  -1.741   0.160  1.00  0.00     0.200 A 
HETATM   11  O1  UNL     1      -1.027  -2.933   0.263  1.00  0.00    -0.286 OA
HETATM   12  C10 UNL     1      -3.352  -0.842   0.121  1.00  0.00     0.034 A 
HETATM   13  C11 UNL     1      -3.847   0.443   0.020  1.00  0.00     0.125 A 
HETATM   14  O2  UNL     1      -2.831   1.347  -0.072  1.00  0.00    -0.289 OA
HETATM   15  C12 UNL     1      -0.367   2.660  -0.219  1.00  0.00     0.133 C 
HETATM   16  O3  UNL     1       4.023  -2.040   0.113  1.00  0.00    -0.190 OA
ENDROOT
TORSDOF 0
