REMARK  8 active torsions:
REMARK  status: ('A' for Active; 'I' for Inactive)
REMARK    1  A    between atoms: C4_4  and  C7_7 
REMARK    2  A    between atoms: C7_7  and  C8_8 
REMARK    3  A    between atoms: C7_7  and  O4_17 
REMARK    4  A    between atoms: C8_8  and  C9_9 
REMARK    5  A    between atoms: O4_17  and  C14_18 
REMARK    6  A    between atoms: C14_18  and  C15_19 
REMARK    7  A    between atoms: C14_18  and  C21_25 
REMARK    8  A    between atoms: C21_25  and  C22_26 
ROOT
HETATM    1  O4  UNL     1      -0.524   0.988   0.399  1.00  0.00    -0.345 OA
ENDROOT
BRANCH   1   2
HETATM    2  C7  UNL     1      -0.301  -0.383   0.593  1.00  0.00     0.171 C 
BRANCH   2   3
HETATM    3  C4  UNL     1      -1.613  -1.103   0.629  1.00  0.00     0.007 A 
HETATM    4  C3  UNL     1      -2.800  -0.400   0.424  1.00  0.00    -0.002 A 
HETATM    5  C2  UNL     1      -4.023  -1.071   0.458  1.00  0.00    -0.000 A 
HETATM    6  C1  UNL     1      -4.058  -2.445   0.695  1.00  0.00    -0.000 A 
HETATM    7  C6  UNL     1      -2.871  -3.148   0.899  1.00  0.00    -0.000 A 
HETATM    8  C5  UNL     1      -1.649  -2.477   0.866  1.00  0.00    -0.002 A 
ENDBRANCH   2   3
BRANCH   2   9
HETATM    9  C8  UNL     1       0.430  -0.596   1.912  1.00  0.00     0.211 C 
HETATM   10  O3  UNL     1      -0.349  -1.401   2.755  1.00  0.00    -0.218 OA
BRANCH   9  11
HETATM   11  C9  UNL     1       1.764  -1.281   1.647  1.00  0.00     0.162 C 
HETATM   12  O1  UNL     1       1.808  -2.523   2.341  1.00  0.00    -0.298 OA
HETATM   13  C10 UNL     1       2.980  -3.138   2.143  1.00  0.00     0.296 C 
HETATM   14  C11 UNL     1       4.178  -2.512   2.143  1.00  0.00     0.064 C 
HETATM   15  O2  UNL     1       2.967  -4.330   1.952  1.00  0.00    -0.259 OA
HETATM   16  C12 UNL     1       4.178  -1.175   2.143  1.00  0.00    -0.018 C 
HETATM   17  C13 UNL     1       2.900  -0.395   2.143  1.00  0.00     0.059 C 
ENDBRANCH   9  11
ENDBRANCH   2   9
ENDBRANCH   1   2
BRANCH   1  18
HETATM   18  C14 UNL     1      -1.186   1.434  -0.753  1.00  0.00     0.171 C 
BRANCH  18  19
HETATM   19  C15 UNL     1      -1.296   2.927  -0.719  1.00  0.00     0.007 A 
HETATM   20  C16 UNL     1      -1.978   3.552   0.325  1.00  0.00    -0.002 A 
HETATM   21  C17 UNL     1      -2.080   4.943   0.357  1.00  0.00    -0.000 A 
HETATM   22  C18 UNL     1      -1.501   5.708  -0.655  1.00  0.00    -0.000 A 
HETATM   23  C19 UNL     1      -0.819   5.083  -1.699  1.00  0.00    -0.000 A 
HETATM   24  C20 UNL     1      -0.717   3.692  -1.731  1.00  0.00    -0.002 A 
ENDBRANCH  18  19
BRANCH  18  25
HETATM   25  C21 UNL     1      -0.400   1.012  -1.987  1.00  0.00     0.211 C 
HETATM   26  O7  UNL     1      -0.019   2.150  -2.712  1.00  0.00    -0.218 OA
BRANCH  25  27
HETATM   27  C22 UNL     1       0.844   0.245  -1.558  1.00  0.00     0.162 A 
HETATM   28  O5  UNL     1       1.580   0.332  -2.443  1.00  0.00    -0.298 OA
HETATM   29  C23 UNL     1       2.074  -0.743  -3.067  1.00  0.00     0.296 A 
HETATM   30  C24 UNL     1       1.774  -2.019  -2.739  1.00  0.00     0.064 A 
HETATM   31  O6  UNL     1       2.838  -0.561  -3.985  1.00  0.00    -0.259 OA
HETATM   32  C25 UNL     1       0.928  -2.214  -1.722  1.00  0.00    -0.018 A 
HETATM   33  C26 UNL     1       0.331  -1.064  -0.972  1.00  0.00     0.059 A 
ENDBRANCH  25  27
ENDBRANCH  18  25
ENDBRANCH   1  18
TORSDOF 8
