REMARK  7 active torsions:
REMARK  status: ('A' for Active; 'I' for Inactive)
REMARK    1  A    between atoms: C4_4  and  C7_7 
REMARK    2  A    between atoms: C7_7  and  C8_8 
REMARK    3  A    between atoms: C8_8  and  C9_9 
REMARK    4  A    between atoms: C9_9  and  C10_10 
REMARK    5  A    between atoms: C16_17  and  C25_29 
REMARK    6  A    between atoms: C17_18  and  C18_19 
REMARK    7  A    between atoms: C18_19  and  C19_20 
ROOT
HETATM    1  C10 UNL     1      -0.949  -0.392  -0.295  1.00  0.00    -0.022 A 
HETATM    2  C11 UNL     1       0.209  -1.060  -0.295  1.00  0.00    -0.006 A 
HETATM    3  C12 UNL     1       1.367  -0.392  -0.295  1.00  0.00     0.009 A 
HETATM    4  C13 UNL     1       1.367   0.945  -0.295  1.00  0.00     0.091 A 
HETATM    5  C14 UNL     1       0.209   1.614  -0.295  1.00  0.00     0.024 A 
HETATM    6  C15 UNL     1      -0.949   0.945  -0.295  1.00  0.00    -0.002 A 
HETATM    7  O1  UNL     1       2.510   1.384  -0.306  1.00  0.00    -0.328 OA
HETATM    8  C16 UNL     1       3.638   0.319  -0.316  1.00  0.00     0.155 A 
HETATM    9  C17 UNL     1       2.764  -0.928  -0.308  1.00  0.00     0.118 A 
ENDROOT
BRANCH   1  10
HETATM   10  C9  UNL     1      -2.245  -1.140  -0.295  1.00  0.00     0.035 C 
BRANCH  10  11
HETATM   11  C8  UNL     1      -3.404  -0.151  -0.295  1.00  0.00     0.074 C 
BRANCH  11  12
HETATM   12  C7  UNL     1      -4.710  -0.906  -0.295  1.00  0.00     0.175 C 
HETATM   13  O6  UNL     1      -4.710  -2.114  -0.295  1.00  0.00    -0.291 OA
BRANCH  12  14
HETATM   14  C4  UNL     1      -5.880  -0.230  -0.295  1.00  0.00     0.060 A 
HETATM   15  C3  UNL     1      -7.081  -0.916  -0.114  1.00  0.00     0.136 A 
HETATM   16  C2  UNL     1      -8.289  -0.218  -0.114  1.00  0.00     0.055 A 
HETATM   17  O7  UNL     1      -7.075  -2.259   0.062  1.00  0.00    -0.190 OA
HETATM   18  C1  UNL     1      -8.296   1.165  -0.295  1.00  0.00     0.133 A 
HETATM   19  C6  UNL     1      -7.095   1.850  -0.476  1.00  0.00     0.028 A 
HETATM   20  O8  UNL     1      -9.470   1.842  -0.295  1.00  0.00    -0.190 OA
HETATM   21  C5  UNL     1      -5.887   1.153  -0.477  1.00  0.00     0.007 A 
ENDBRANCH  12  14
ENDBRANCH  11  12
ENDBRANCH  10  11
ENDBRANCH   1  10
BRANCH   9  22
HETATM   22  C18 UNL     1       3.030  -1.760   0.922  1.00  0.00     0.181 C 
HETATM   23  O4  UNL     1       3.381  -2.911   0.809  1.00  0.00    -0.291 OA
BRANCH  22  24
HETATM   24  C19 UNL     1       2.876  -1.219   2.150  1.00  0.00     0.061 A 
HETATM   25  C20 UNL     1       3.122  -1.988   3.288  1.00  0.00     0.007 A 
HETATM   26  C21 UNL     1       2.962  -1.429   4.555  1.00  0.00     0.028 A 
HETATM   27  C22 UNL     1       2.558  -0.101   4.686  1.00  0.00     0.133 A 
HETATM   28  C23 UNL     1       2.312   0.668   3.549  1.00  0.00     0.055 A 
HETATM   29  O3  UNL     1       2.403   0.442   5.918  1.00  0.00    -0.190 OA
HETATM   30  C24 UNL     1       2.471   0.109   2.281  1.00  0.00     0.136 A 
HETATM   31  O2  UNL     1       2.232   0.857   1.176  1.00  0.00    -0.190 OA
ENDBRANCH  22  24
ENDBRANCH   9  22
BRANCH   8  32
HETATM   32  C25 UNL     1       4.485   0.407  -1.547  1.00  0.00     0.006 A 
HETATM   33  C26 UNL     1       5.868   0.548  -1.433  1.00  0.00     0.000 A 
HETATM   34  C27 UNL     1       6.658   0.629  -2.580  1.00  0.00     0.027 A 
HETATM   35  C28 UNL     1       6.065   0.570  -3.841  1.00  0.00     0.131 A 
HETATM   36  C29 UNL     1       4.682   0.429  -3.955  1.00  0.00     0.027 A 
HETATM   37  O5  UNL     1       6.832   0.649  -4.955  1.00  0.00    -0.190 OA
HETATM   38  C30 UNL     1       3.892   0.347  -2.808  1.00  0.00     0.000 A 
ENDBRANCH   8  32
TORSDOF 7
