REMARK  3 active torsions:
REMARK  status: ('A' for Active; 'I' for Inactive)
REMARK    1  A    between atoms: C6_6  and  C7_7 
REMARK    2  A    between atoms: C7_7  and  C8_8 
REMARK    3  A    between atoms: C10_11  and  C13_14 
ROOT
HETATM    1  C8  UNL     1      -0.368  -0.632   0.885  1.00  0.00     0.257 C 
HETATM    2  N1  UNL     1      -1.516   0.133   0.478  1.00  0.00     0.337 N 
HETATM    3  C9  UNL     1      -1.045   1.257  -0.285  1.00  0.00     0.281 C 
HETATM    4  C10 UNL     1      -0.298   2.216   0.632  1.00  0.00     0.126 C 
HETATM    5  C11 UNL     1       0.984   1.556   1.120  1.00  0.00     0.031 C 
HETATM    6  C12 UNL     1       0.656   0.204   1.739  1.00  0.00     0.038 C 
HETATM    7  C13 UNL     1      -1.177   2.564   1.827  1.00  0.00     0.049 C 
HETATM    8  C14 UNL     1      -2.571   2.941   1.470  1.00  0.00     0.006 C 
HETATM    9  C15 UNL     1      -2.493   4.051   0.430  1.00  0.00     0.023 C 
HETATM   10  C16 UNL     1      -1.986   3.479  -0.887  1.00  0.00     0.031 C 
HETATM   11  C17 UNL     1      -2.231   1.976  -0.915  1.00  0.00     0.041 C 
HETATM   12  C18 UNL     1      -0.494   3.752  -1.019  1.00  0.00     0.115 C 
HETATM   13  C19 UNL     1      -0.266   5.247  -1.199  1.00  0.00     0.029 C 
HETATM   14  C20 UNL     1      -1.173   6.046  -0.250  1.00  0.00     0.024 C 
HETATM   15  C21 UNL     1      -1.537   5.134   0.914  1.00  0.00     0.077 C 
HETATM   16  N2  UNL     1      -0.345   4.523   1.435  1.00  0.00    -0.368 N 
HETATM   17  C22 UNL     1       0.945   4.717   0.830  1.00  0.00     0.121 C 
HETATM   18  C23 UNL     1      -0.532   3.693   2.619  1.00  0.00     0.099 C 
HETATM   19  C24 UNL     1      -0.583   5.633  -2.638  1.00  0.00     0.003 C 
HETATM   20  O1  UNL     1       0.017   3.386  -0.073  1.00  0.00    -0.359 OA
ENDROOT
BRANCH   1  21
HETATM   21  C7  UNL     1       0.342  -1.141  -0.363  1.00  0.00     0.036 C 
BRANCH  21  22
HETATM   22  C6  UNL     1       0.341  -2.664  -0.362  1.00  0.00     0.004 C 
HETATM   23  C1  UNL     1      -1.095  -3.170  -0.355  1.00  0.00     0.003 C 
HETATM   24  C2  UNL     1      -1.102  -4.696  -0.366  1.00  0.00     0.032 C 
HETATM   25  C3  UNL     1      -0.384  -5.202  -1.610  1.00  0.00     0.025 C 
HETATM   26  C30 UNL     1      -0.388  -5.213   0.876  1.00  0.00     0.150 C 
HETATM   27  C4  UNL     1       1.052  -4.694  -1.610  1.00  0.00     0.083 C 
HETATM   28  C5  UNL     1       1.052  -3.171  -1.610  1.00  0.00     0.021 C 
HETATM   29  N3  UNL     1       1.735  -5.178  -0.426  1.00  0.00    -0.335 N 
HETATM   30  C25 UNL     1       2.487  -2.664  -1.619  1.00  0.00     0.004 C 
HETATM   31  C26 UNL     1       3.255  -3.291  -0.462  1.00  0.00     0.024 C 
HETATM   32  C27 UNL     1       3.132  -4.804  -0.540  1.00  0.00     0.103 C 
HETATM   33  C28 UNL     1       1.164  -5.863   0.612  1.00  0.00     0.131 C 
HETATM   34  C29 UNL     1       1.772  -7.161   1.084  1.00  0.00     0.078 C 
HETATM   35  O2  UNL     1       0.174  -5.428   1.151  1.00  0.00    -0.320 OA
ENDBRANCH  21  22
ENDBRANCH   1  21
TORSDOF 3
