REMARK  1 active torsions:
REMARK  status: ('A' for Active; 'I' for Inactive)
REMARK    1  A    between atoms: C24_26  and  C27_29 
ROOT
HETATM    1  C1  UNL     1      -4.021  -1.632  -2.695  1.00  0.00     0.033 C 
HETATM    2  C2  UNL     1      -4.839  -2.272  -1.563  1.00  0.00     0.152 C 
HETATM    3  C3  UNL     1      -3.965  -3.221  -0.754  1.00  0.00     0.035 C 
HETATM    4  C4  UNL     1      -2.529  -2.713  -0.754  1.00  0.00     0.033 C 
HETATM    5  C5  UNL     1      -2.529  -1.190  -0.754  1.00  0.00     0.003 C 
HETATM    6  C6  UNL     1      -2.978  -0.682  -2.118  1.00  0.00     0.003 C 
HETATM    7  C7  UNL     1      -1.123  -0.682  -0.461  1.00  0.00     0.001 C 
HETATM    8  C8  UNL     1      -0.696  -1.143   0.926  1.00  0.00     0.006 C 
HETATM    9  C9  UNL     1      -0.321  -2.619   0.877  1.00  0.00     0.033 C 
HETATM   10  C10 UNL     1      -1.811  -3.221   0.490  1.00  0.00     0.152 C 
HETATM   11  O1  UNL     1      -1.662  -4.606   0.336  1.00  0.00    -0.224 OA
HETATM   12  C11 UNL     1       0.547  -0.314   1.223  1.00  0.00     0.022 C 
HETATM   13  C12 UNL     1       0.279   1.013   0.525  1.00  0.00     0.004 A 
HETATM   14  C13 UNL     1      -1.144   0.837  -0.354  1.00  0.00     0.000 A 
HETATM   15  C14 UNL     1       0.099   2.108   1.568  1.00  0.00     0.005 C 
HETATM   16  C15 UNL     1       1.342   2.182   2.446  1.00  0.00     0.022 C 
HETATM   17  C16 UNL     1       1.352   0.937   3.198  1.00  0.00    -0.031 C 
HETATM   18  C17 UNL     1       0.655  -0.089   2.699  1.00  0.00    -0.031 C 
HETATM   19  C18 UNL     1       2.595   2.298   1.588  1.00  0.00     0.004 C 
HETATM   20  C19 UNL     1       2.200   2.353   0.118  1.00  0.00     0.000 A 
HETATM   21  C20 UNL     1       3.453   2.468  -0.740  1.00  0.00     0.000 C 
HETATM   22  C21 UNL     1       4.355   1.268  -0.485  1.00  0.00     0.000 C 
HETATM   23  C22 UNL     1       3.559  -0.016  -0.683  1.00  0.00     0.000 C 
HETATM   24  C23 UNL     1       2.298   0.032   0.170  1.00  0.00     0.000 C 
HETATM   25  N1  UNL     1       1.488   1.153  -0.231  1.00  0.00     0.000 N 
HETATM   26  C24 UNL     1       0.200   1.086  -0.867  1.00  0.00     0.000 A 
HETATM   27  C25 UNL     1       3.175  -0.153  -2.150  1.00  0.00     0.000 C 
HETATM   28  C26 UNL     1       3.349   3.568   1.958  1.00  0.00     0.000 C 
HETATM   29  C27 UNL     1       1.439   1.391  -0.387  1.00  0.00     0.000 A 
HETATM   30  C28 UNL     1      -3.486  -0.682   0.317  1.00  0.00     0.000 C 
HETATM   31  O2  UNL     1      -5.331  -1.264  -0.721  1.00  0.00    -0.224 OA
ENDROOT
TORSDOF 1
