REMARK  4 active torsions:
REMARK  status: ('A' for Active; 'I' for Inactive)
REMARK    1  A    between atoms: C3_3  and  C13_18 
REMARK    2  A    between atoms: C5_5  and  C9_9 
REMARK    3  A    between atoms: C6_6  and  C7_7 
REMARK    4  A    between atoms: C7_7  and  C8_8 
ROOT
HETATM    1  C1  UNL     1      -1.410   0.334  -0.613  1.00  0.00     0.184 C 
HETATM    2  C2  UNL     1      -1.410  -1.189  -0.613  1.00  0.00     0.155 C 
HETATM    3  C3  UNL     1       0.026  -1.696  -0.613  1.00  0.00     0.042 C 
HETATM    4  C4  UNL     1       0.489  -1.492   0.824  1.00  0.00     0.119 C 
HETATM    5  C5  UNL     1       0.857  -0.029   1.035  1.00  0.00     0.167 C 
HETATM    6  C6  UNL     1      -0.224   0.858   0.431  1.00  0.00     0.087 C 
HETATM    7  C11 UNL     1       0.510   1.645  -0.647  1.00  0.00     0.008 C 
HETATM    8  O3  UNL     1       2.122   0.137   0.454  1.00  0.00    -0.223 OA
HETATM    9  C12 UNL     1      -0.740  -1.782   1.649  1.00  0.00     0.274 C 
HETATM   10  O4  UNL     1      -1.919  -1.610   0.624  1.00  0.00    -0.302 OA
HETATM   11  O5  UNL     1      -0.803  -2.077   2.818  1.00  0.00    -0.264 OA
HETATM   12  O6  UNL     1      -2.659   0.807  -0.186  1.00  0.00    -0.221 OA
ENDROOT
BRANCH   3  13
HETATM   13  C13 UNL     1       0.885  -0.890  -1.578  1.00  0.00     0.003 C 
HETATM   14  C14 UNL     1       2.325  -1.381  -1.507  1.00  0.00     0.000 C 
HETATM   15  C15 UNL     1       0.357  -1.067  -2.995  1.00  0.00     0.000 C 
ENDBRANCH   3  13
BRANCH   5  16
HETATM   16  C9  UNL     1       0.872   0.354   2.490  1.00  0.00     0.173 A 
HETATM   17  C8  UNL     1      -0.230   1.315   2.615  1.00  0.00     0.172 A 
HETATM   18  O1  UNL     1       1.152   1.737   2.750  1.00  0.00    -0.349 OA
BRANCH  17  19
HETATM   19  C7  UNL     1      -0.788   1.601   1.613  1.00  0.00     0.152 A 
HETATM   20  O2  UNL     1      -1.088   2.983   1.374  1.00  0.00    -0.351 OA
HETATM   21  C10 UNL     1      -2.198   2.003   1.570  1.00  0.00     0.172 A 
ENDBRANCH  17  19
ENDBRANCH   5  16
TORSDOF 4
