REMARK  7 active torsions:
REMARK  status: ('A' for Active; 'I' for Inactive)
REMARK    1  A    between atoms: C15_16  and  C18_20 
REMARK    2  A    between atoms: C18_20  and  C19_21 
REMARK    3  A    between atoms: C19_21  and  C20_22 
REMARK    4  A    between atoms: C20_22  and  C21_23 
REMARK    5  A    between atoms: C21_23  and  C22_24 
REMARK    6  A    between atoms: C22_24  and  O3_27 
REMARK    7  A    between atoms: O3_27  and  C25_28 
ROOT
HETATM    1  C1  UNL     1      -4.799  -1.993  -1.119  1.00  0.00     0.162 C 
HETATM    2  C2  UNL     1      -4.769  -3.360  -1.085  1.00  0.00     0.200 C 
HETATM    3  C3  UNL     1      -3.849  -4.031  -2.076  1.00  0.00     0.073 C 
HETATM    4  C4  UNL     1      -2.518  -3.346  -2.063  1.00  0.00    -0.038 C 
HETATM    5  C5  UNL     1      -2.518  -1.849  -2.063  1.00  0.00     0.049 C 
HETATM    6  C6  UNL     1      -3.919  -1.350  -1.894  1.00  0.00     0.008 C 
HETATM    7  C7  UNL     1      -1.656  -1.342  -0.914  1.00  0.00     0.059 C 
HETATM    8  C8  UNL     1      -0.601  -2.385  -0.572  1.00  0.00     0.012 C 
HETATM    9  C9  UNL     1      -0.246  -3.177  -1.823  1.00  0.00     0.026 C 
HETATM   10  C10 UNL     1      -1.377  -4.043  -2.063  1.00  0.00    -0.034 C 
HETATM   11  C11 UNL     1       0.646  -1.690  -0.041  1.00  0.00     0.004 C 
HETATM   12  C12 UNL     1       0.249  -0.388   0.643  1.00  0.00     0.012 C 
HETATM   13  C13 UNL     1       0.020   0.689  -0.409  1.00  0.00     0.065 C 
HETATM   14  C14 UNL     1      -0.942  -0.100  -1.387  1.00  0.00     0.150 C 
HETATM   15  O1  UNL     1      -1.104   0.294  -2.518  1.00  0.00    -0.296 OA
HETATM   16  C15 UNL     1       1.468  -0.027   1.483  1.00  0.00     0.066 C 
HETATM   17  C16 UNL     1       1.906  -1.495   1.993  1.00  0.00     0.155 C 
HETATM   18  C17 UNL     1       1.254  -2.524   1.079  1.00  0.00     0.033 C 
HETATM   19  O2  UNL     1       3.301  -1.622   1.934  1.00  0.00    -0.223 OA
HETATM   20  C28 UNL     1      -1.025  -0.514   1.468  1.00  0.00     0.001 C 
HETATM   21  C29 UNL     1       1.598  -1.480  -1.211  1.00  0.00     0.000 C 
HETATM   22  C30 UNL     1      -2.525  -1.060   0.304  1.00  0.00     0.008 C 
HETATM   23  C31 UNL     1      -3.671  -5.494  -1.692  1.00  0.00     0.012 C 
HETATM   24  C32 UNL     1      -4.453  -3.941  -3.471  1.00  0.00     0.012 C 
HETATM   25  O7  UNL     1      -5.441  -3.994  -0.307  1.00  0.00    -0.289 OA
HETATM   26  O8  UNL     1      -5.702  -1.304  -0.381  1.00  0.00    -0.188 OA
ENDROOT
BRANCH  16  27
HETATM   27  C18 UNL     1       1.101   0.888   2.644  1.00  0.00     0.180 C 
HETATM   28  O6  UNL     1       1.343   0.224   3.855  1.00  0.00    -0.218 OA
HETATM   29  C27 UNL     1      -0.373   1.258   2.554  1.00  0.00     0.041 C 
BRANCH  27  30
HETATM   30  C19 UNL     1       1.939   2.141   2.580  1.00  0.00     0.178 C 
HETATM   31  O5  UNL     1       2.671   2.426   3.498  1.00  0.00    -0.293 OA
BRANCH  30  32
HETATM   32  C20 UNL     1       1.862   3.040   1.370  1.00  0.00     0.070 C 
BRANCH  32  33
HETATM   33  C21 UNL     1       2.798   4.226   1.557  1.00  0.00     0.036 C 
BRANCH  33  34
HETATM   34  C22 UNL     1       2.720   5.133   0.336  1.00  0.00     0.102 C 
HETATM   35  C23 UNL     1       1.293   5.636   0.166  1.00  0.00     0.030 C 
HETATM   36  C24 UNL     1       3.133   4.350  -0.904  1.00  0.00     0.030 C 
BRANCH  34  37
HETATM   37  O3  UNL     1       3.583   6.224   0.509  1.00  0.00    -0.307 OA
BRANCH  37  38
HETATM   38  C25 UNL     1       4.894   6.021   0.678  1.00  0.00     0.272 C 
HETATM   39  O4  UNL     1       5.637   6.962   0.827  1.00  0.00    -0.264 OA
HETATM   40  C26 UNL     1       5.445   4.616   0.682  1.00  0.00     0.106 C 
ENDBRANCH  37  38
ENDBRANCH  34  37
ENDBRANCH  33  34
ENDBRANCH  32  33
ENDBRANCH  30  32
ENDBRANCH  27  30
ENDBRANCH  16  27
TORSDOF 7
