REMARK  7 active torsions:
REMARK  status: ('A' for Active; 'I' for Inactive)
REMARK    1  A    between atoms: C2_2  and  O6_25 
REMARK    2  A    between atoms: C9_9  and  O1_10 
REMARK    3  A    between atoms: O1_10  and  C10_11 
REMARK    4  A    between atoms: C10_11  and  C11_12 
REMARK    5  A    between atoms: C11_12  and  C12_13 
REMARK    6  A    between atoms: C12_13  and  C13_14 
REMARK    7  A    between atoms: C17_18  and  O2_20 
ROOT
HETATM    1  C1  UNL     1      -2.345  -2.929   0.819  1.00  0.00     0.126 A 
HETATM    2  C2  UNL     1      -1.810  -4.174   1.151  1.00  0.00     0.142 A 
HETATM    3  C3  UNL     1      -2.659  -5.244   1.435  1.00  0.00     0.155 A 
HETATM    4  C4  UNL     1      -4.042  -5.070   1.387  1.00  0.00     0.030 A 
HETATM    5  C5  UNL     1      -4.576  -3.825   1.054  1.00  0.00     0.004 A 
HETATM    6  C6  UNL     1      -3.728  -2.755   0.770  1.00  0.00     0.025 A 
HETATM    7  C7  UNL     1      -4.240  -1.562   0.452  1.00  0.00     0.006 A 
HETATM    8  C8  UNL     1      -3.427  -0.536   0.179  1.00  0.00     0.050 A 
HETATM    9  C9  UNL     1      -2.088  -0.705   0.227  1.00  0.00     0.199 A 
HETATM   10  O4  UNL     1      -1.625  -1.783   0.514  1.00  0.00    -0.283 OA
HETATM   11  O5  UNL     1      -2.139  -6.453   1.758  1.00  0.00    -0.188 OA
ENDROOT
BRANCH   9  12
HETATM   12  O1  UNL     1      -1.274   0.322  -0.046  1.00  0.00    -0.311 OA
BRANCH  12  13
HETATM   13  C10 UNL     1       0.116   0.146   0.003  1.00  0.00     0.151 C 
BRANCH  13  14
HETATM   14  C11 UNL     1       0.807   1.458  -0.345  1.00  0.00     0.037 C 
BRANCH  14  15
HETATM   15  C12 UNL     1       2.317   1.268  -0.292  1.00  0.00     0.029 C 
BRANCH  15  16
HETATM   16  C13 UNL     1       2.996   2.557  -0.635  1.00  0.00    -0.020 A 
HETATM   17  C14 UNL     1       4.388   2.629  -0.652  1.00  0.00    -0.002 A 
HETATM   18  C15 UNL     1       5.021   3.831  -0.971  1.00  0.00     0.029 A 
HETATM   19  C16 UNL     1       4.260   4.960  -1.273  1.00  0.00     0.153 A 
HETATM   20  C17 UNL     1       2.868   4.888  -1.256  1.00  0.00     0.119 A 
HETATM   21  O3  UNL     1       4.875   6.128  -1.583  1.00  0.00    -0.188 OA
HETATM   22  C18 UNL     1       2.235   3.687  -0.937  1.00  0.00     0.022 A 
BRANCH  20  23
HETATM   23  O2  UNL     1       2.129   5.986  -1.550  1.00  0.00    -0.326 OA
HETATM   24  C19 UNL     1       0.745   5.980  -1.324  1.00  0.00     0.181 C 
ENDBRANCH  20  23
ENDBRANCH  15  16
ENDBRANCH  14  15
ENDBRANCH  13  14
ENDBRANCH  12  13
ENDBRANCH   9  12
BRANCH   2  25
HETATM   25  O6  UNL     1      -0.467  -4.343   1.199  1.00  0.00    -0.324 OA
HETATM   26  C20 UNL     1       0.094  -5.590   0.886  1.00  0.00     0.182 C 
ENDBRANCH   2  25
TORSDOF 7
