REMARK  2 active torsions:
REMARK  status: ('A' for Active; 'I' for Inactive)
REMARK    1  A    between atoms: C16_17  and  C25_29 
REMARK    2  A    between atoms: C21_22  and  C24_26 
ROOT
HETATM    1  C1  UNL     1      -3.637   1.001  -1.508  1.00  0.00     0.065 C 
HETATM    2  C2  UNL     1      -3.783  -0.048  -2.590  1.00  0.00     0.150 C 
HETATM    3  C3  UNL     1      -3.059  -1.380  -2.378  1.00  0.00     0.058 C 
HETATM    4  C4  UNL     1      -3.192  -1.863  -0.899  1.00  0.00     0.064 C 
HETATM    5  C5  UNL     1      -3.189  -0.829   0.260  1.00  0.00     0.008 C 
HETATM    6  C6  UNL     1      -4.055   0.384  -0.174  1.00  0.00     0.008 C 
HETATM    7  C7  UNL     1      -1.725  -0.441   0.643  1.00  0.00     0.005 C 
HETATM    8  C8  UNL     1      -0.691  -1.567   0.929  1.00  0.00     0.011 C 
HETATM    9  C9  UNL     1      -0.853  -2.697  -0.112  1.00  0.00     0.065 C 
HETATM   10  C10 UNL     1      -2.275  -3.023  -0.527  1.00  0.00     0.151 C 
HETATM   11  O1  UNL     1      -2.653  -4.171  -0.601  1.00  0.00    -0.296 OA
HETATM   12  C11 UNL     1       0.761  -0.957   0.941  1.00  0.00     0.018 C 
HETATM   13  C12 UNL     1       0.858   0.529   1.250  1.00  0.00    -0.046 C 
HETATM   14  C13 UNL     1      -0.205   1.192   1.733  1.00  0.00    -0.035 C 
HETATM   15  C14 UNL     1      -1.604   0.650   1.722  1.00  0.00     0.025 C 
HETATM   16  C15 UNL     1       2.206   1.232   1.129  1.00  0.00     0.056 C 
HETATM   17  C16 UNL     1       3.376   0.210   1.101  1.00  0.00     0.084 C 
HETATM   18  C17 UNL     1       3.151  -0.864   0.004  1.00  0.00     0.011 C 
HETATM   19  C18 UNL     1       1.692  -1.297  -0.230  1.00  0.00     0.005 C 
HETATM   20  C19 UNL     1       4.748   0.890   0.854  1.00  0.00     0.011 C 
HETATM   21  C20 UNL     1       4.679   2.414   0.972  1.00  0.00     0.014 C 
HETATM   22  C21 UNL     1       3.657   3.016  -0.011  1.00  0.00     0.116 C 
HETATM   23  C22 UNL     1       2.291   2.288   0.000  1.00  0.00     0.140 C 
HETATM   24  C23 UNL     1       1.177   3.347   0.036  1.00  0.00     0.034 C 
HETATM   25  O2  UNL     1       2.112   1.626  -1.221  1.00  0.00    -0.225 OA
HETATM   26  C26 UNL     1      -0.880  -2.230   2.323  1.00  0.00     0.001 C 
HETATM   27  C27 UNL     1      -3.956  -1.435   1.467  1.00  0.00     0.001 C 
HETATM   28  C28 UNL     1      -3.699  -2.437  -3.313  1.00  0.00     0.008 C 
HETATM   29  C29 UNL     1      -1.631  -1.151  -2.916  1.00  0.00     0.008 C 
HETATM   30  O7  UNL     1      -4.403   0.200  -3.600  1.00  0.00    -0.296 OA
ENDROOT
BRANCH  17  31
HETATM   31  C25 UNL     1       3.502  -0.491   2.465  1.00  0.00     0.184 C 
HETATM   32  O5  UNL     1       3.499   0.371   3.500  1.00  0.00    -0.647 OA
HETATM   33  O6  UNL     1       3.641  -1.674   2.668  1.00  0.00    -0.647 OA
ENDBRANCH  17  31
BRANCH  22  34
HETATM   34  C24 UNL     1       4.239   3.167  -1.413  1.00  0.00     0.187 C 
HETATM   35  O3  UNL     1       3.673   4.188  -2.085  1.00  0.00    -0.647 OA
HETATM   36  O4  UNL     1       5.127   2.515  -1.909  1.00  0.00    -0.647 OA
ENDBRANCH  22  34
TORSDOF 2
