REMARK  5 active torsions:
REMARK  status: ('A' for Active; 'I' for Inactive)
REMARK    1  A    between atoms: C3_3  and  C4_4 
REMARK    2  A    between atoms: C11_11  and  C12_13 
REMARK    3  A    between atoms: C16_17  and  O2_19 
REMARK    4  A    between atoms: O2_19  and  C18_20 
REMARK    5  A    between atoms: C27_30  and  C28_31 
ROOT
HETATM    1  C18 UNL     1       4.143   0.363  -2.696  1.00  0.00     0.125 A 
HETATM    2  C19 UNL     1       5.339  -0.253  -2.766  1.00  0.00     0.154 A 
HETATM    3  C20 UNL     1       5.459  -1.508  -2.307  1.00  0.00     0.029 A 
HETATM    4  C21 UNL     1       4.429  -2.157  -1.746  1.00  0.00     0.004 A 
HETATM    5  C22 UNL     1       3.218  -1.583  -1.637  1.00  0.00     0.025 A 
HETATM    6  C23 UNL     1       2.147  -2.116  -1.000  1.00  0.00     0.096 A 
HETATM    7  O3  UNL     1       1.091  -1.469  -0.953  1.00  0.00    -0.307 OA
HETATM    8  C24 UNL     1       0.288  -2.032  -0.219  1.00  0.00     0.100 A 
HETATM    9  C25 UNL     1      -0.932  -1.610   0.125  1.00  0.00     0.025 A 
HETATM   10  C26 UNL     1      -1.640  -2.366   0.982  1.00  0.00     0.002 A 
HETATM   11  C27 UNL     1      -1.164  -3.517   1.504  1.00  0.00    -0.000 A 
HETATM   12  C31 UNL     1       0.063  -3.926   1.102  1.00  0.00     0.002 A 
HETATM   13  C32 UNL     1       0.781  -3.173   0.260  1.00  0.00     0.021 A 
HETATM   14  C33 UNL     1       2.012  -3.249  -0.272  1.00  0.00     0.003 A 
HETATM   15  C34 UNL     1       2.992  -4.353   0.009  1.00  0.00     0.033 C 
HETATM   16  C35 UNL     1       3.123  -0.346  -2.170  1.00  0.00     0.029 A 
HETATM   17  O4  UNL     1       6.407   0.402  -3.298  1.00  0.00    -0.188 OA
ENDROOT
BRANCH   1  18
HETATM   18  O2  UNL     1       4.061   1.664  -3.142  1.00  0.00    -0.305 OA
BRANCH  18  19
HETATM   19  C16 UNL     1       2.839   2.268  -3.296  1.00  0.00     0.100 A 
HETATM   20  C15 UNL     1       2.437   2.697  -4.505  1.00  0.00     0.025 A 
HETATM   21  C14 UNL     1       1.256   3.310  -4.657  1.00  0.00     0.002 A 
HETATM   22  C13 UNL     1       0.435   3.462  -3.607  1.00  0.00     0.002 A 
HETATM   23  C12 UNL     1       0.771   3.024  -2.375  1.00  0.00     0.024 A 
HETATM   24  C17 UNL     1       2.008   2.505  -2.260  1.00  0.00     0.027 A 
BRANCH  23  25
HETATM   25  C11 UNL     1      -0.141   3.076  -1.375  1.00  0.00     0.096 A 
HETATM   26  C10 UNL     1      -0.124   2.526  -0.136  1.00  0.00     0.003 A 
HETATM   27  C8  UNL     1      -1.363   2.721   0.340  1.00  0.00     0.021 A 
HETATM   28  C36 UNL     1       0.944   1.756   0.591  1.00  0.00     0.033 C 
HETATM   29  C7  UNL     1      -1.982   3.404  -0.622  1.00  0.00     0.100 A 
HETATM   30  C9  UNL     1      -2.003   2.358   1.459  1.00  0.00     0.002 A 
HETATM   31  C6  UNL     1      -3.258   3.776  -0.480  1.00  0.00     0.025 A 
HETATM   32  O1  UNL     1      -1.247   3.595  -1.584  1.00  0.00    -0.307 OA
HETATM   33  C5  UNL     1      -3.898   3.415   0.645  1.00  0.00     0.002 A 
HETATM   34  C4  UNL     1      -3.304   2.687   1.618  1.00  0.00    -0.000 A 
BRANCH  34  35
HETATM   35  C3  UNL     1      -4.043   2.307   2.682  1.00  0.00    -0.005 C 
HETATM   36  C2  UNL     1      -3.666   1.535   3.716  1.00  0.00    -0.026 C 
HETATM   37  C1  UNL     1      -4.593   1.134   4.836  1.00  0.00     0.031 C 
ENDBRANCH  34  35
ENDBRANCH  23  25
ENDBRANCH  18  19
ENDBRANCH   1  18
BRANCH  11  38
HETATM   38  C28 UNL     1      -1.830  -4.293   2.387  1.00  0.00    -0.005 C 
HETATM   39  C29 UNL     1      -2.987  -4.119   3.053  1.00  0.00    -0.026 C 
HETATM   40  C30 UNL     1      -3.906  -2.927   3.102  1.00  0.00     0.031 C 
ENDBRANCH  11  38
TORSDOF 5
