REMARK  4 active torsions:
REMARK  status: ('A' for Active; 'I' for Inactive)
REMARK    1  A    between atoms: C2_2  and  O3_33 
REMARK    2  A    between atoms: O3_33  and  C31_34 
REMARK    3  A    between atoms: C31_34  and  C32_35 
REMARK    4  A    between atoms: C33_36  and  C34_37 
ROOT
HETATM    1  C1  UNL     1      -2.378  -0.231  -2.423  1.00  0.00     0.180 C 
HETATM    2  C2  UNL     1      -3.396  -0.956  -1.558  1.00  0.00     0.155 C 
HETATM    3  C3  UNL     1      -2.730  -2.138  -0.814  1.00  0.00     0.028 C 
HETATM    4  C4  UNL     1      -1.239  -1.784  -0.444  1.00  0.00     0.002 C 
HETATM    5  C5  UNL     1      -0.912  -0.277  -0.237  1.00  0.00     0.003 C 
HETATM    6  C6  UNL     1      -1.288   0.442  -1.571  1.00  0.00     0.035 C 
HETATM    7  C7  UNL     1       0.601  -0.012   0.154  1.00  0.00     0.000 C 
HETATM    8  C8  UNL     1       1.669  -1.081  -0.224  1.00  0.00     0.000 C 
HETATM    9  C9  UNL     1       1.164  -1.761  -1.512  1.00  0.00     0.000 C 
HETATM   10  C10 UNL     1      -0.194  -2.465  -1.364  1.00  0.00     0.000 C 
HETATM   11  C11 UNL     1       3.068  -0.351  -0.420  1.00  0.00     0.000 C 
HETATM   12  C12 UNL     1       3.261   0.828   0.596  1.00  0.00     0.003 C 
HETATM   13  C13 UNL     1       2.410   0.701   1.868  1.00  0.00     0.000 C 
HETATM   14  C14 UNL     1       0.912   0.482   1.586  1.00  0.00     0.000 C 
HETATM   15  C15 UNL     1       4.758   1.115   0.849  1.00  0.00     0.037 C 
HETATM   16  C16 UNL     1       5.534  -0.052   1.461  1.00  0.00     0.080 C 
HETATM   17  C17 UNL     1       4.986  -1.416   1.017  1.00  0.00     0.009 C 
HETATM   18  C18 UNL     1       4.295  -1.312  -0.351  1.00  0.00     0.001 C 
HETATM   19  C19 UNL     1       5.317   0.191   2.948  1.00  0.00     0.271 C 
HETATM   20  O1  UNL     1       5.359  -0.633   3.835  1.00  0.00    -0.264 OA
HETATM   21  O2  UNL     1       5.077   1.511   3.121  1.00  0.00    -0.304 OA
HETATM   22  C20 UNL     1       5.128   2.171   1.889  1.00  0.00     0.124 C 
HETATM   23  C21 UNL     1       6.567   2.690   1.638  1.00  0.00     0.026 C 
HETATM   24  C22 UNL     1       7.441   1.611   0.943  1.00  0.00     0.003 C 
HETATM   25  C23 UNL     1       7.046   0.145   1.222  1.00  0.00     0.010 C 
HETATM   26  C24 UNL     1       6.480   3.933   0.720  1.00  0.00     0.002 C 
HETATM   27  C25 UNL     1       7.257   3.149   2.943  1.00  0.00     0.002 C 
HETATM   28  C26 UNL     1       3.154   0.281  -1.846  1.00  0.00     0.000 C 
HETATM   29  C27 UNL     1       1.760  -2.221   0.828  1.00  0.00     0.000 C 
HETATM   30  C28 UNL     1      -1.773   0.345   0.900  1.00  0.00     0.000 C 
HETATM   31  C29 UNL     1      -3.530  -2.473   0.475  1.00  0.00     0.003 C 
HETATM   32  C30 UNL     1      -2.845  -3.437  -1.659  1.00  0.00     0.003 C 
HETATM   33  O6  UNL     1      -3.025   0.763  -3.187  1.00  0.00    -0.221 OA
ENDROOT
BRANCH   2  34
HETATM   34  O3  UNL     1      -4.527  -1.341  -2.299  1.00  0.00    -0.298 OA
BRANCH  34  35
HETATM   35  C31 UNL     1      -5.760  -0.980  -1.808  1.00  0.00     0.296 C 
HETATM   36  O5  UNL     1      -5.859  -0.647  -0.649  1.00  0.00    -0.259 OA
BRANCH  35  37
HETATM   37  C32 UNL     1      -6.875  -1.025  -2.588  1.00  0.00     0.068 C 
HETATM   38  C33 UNL     1      -8.132  -0.626  -2.308  1.00  0.00     0.005 C 
BRANCH  38  39
HETATM   39  C34 UNL     1      -8.663   0.122  -1.316  1.00  0.00     0.000 A 
HETATM   40  C35 UNL     1      -9.995   0.091  -1.107  1.00  0.00     0.002 A 
HETATM   41  C36 UNL     1     -10.584   0.810  -0.137  1.00  0.00     0.027 A 
HETATM   42  C37 UNL     1      -9.875   1.629   0.657  1.00  0.00     0.131 A 
HETATM   43  C38 UNL     1      -8.560   1.723   0.410  1.00  0.00     0.027 A 
HETATM   44  O4  UNL     1     -10.457   2.369   1.638  1.00  0.00    -0.190 OA
HETATM   45  C39 UNL     1      -7.977   0.999  -0.557  1.00  0.00     0.002 A 
ENDBRANCH  38  39
ENDBRANCH  35  37
ENDBRANCH  34  35
ENDBRANCH   2  34
TORSDOF 4
