REMARK  8 active torsions:
REMARK  status: ('A' for Active; 'I' for Inactive)
REMARK    1  A    between atoms: C2_2  and  O4_13 
REMARK    2  A    between atoms: C3_3  and  O3_11 
REMARK    3  A    between atoms: C4_4  and  O2_9 
REMARK    4  A    between atoms: C5_5  and  O1_7 
REMARK    5  A    between atoms: O4_13  and  C10_14 
REMARK    6  A    between atoms: C11_16  and  C21_33 
REMARK    7  A    between atoms: C14_19  and  O6_20 
REMARK    8  A    between atoms: O6_20  and  C15_21 
ROOT
HETATM    1  C10 UNL     1       0.381   1.538   0.174  1.00  0.00     0.271 C 
HETATM    2  O5  UNL     1      -0.235   2.766   0.513  1.00  0.00    -0.326 OA
HETATM    3  C11 UNL     1      -0.866   2.841   1.764  1.00  0.00     0.184 C 
HETATM    4  C12 UNL     1      -1.812   1.681   2.045  1.00  0.00     0.215 C 
HETATM    5  C13 UNL     1      -1.258   0.324   1.652  1.00  0.00     0.217 C 
HETATM    6  C14 UNL     1      -0.577   0.361   0.292  1.00  0.00     0.207 C 
HETATM    7  O11 UNL     1      -0.352  -0.117   2.635  1.00  0.00    -0.218 OA
HETATM    8  O12 UNL     1      -3.019   1.899   1.351  1.00  0.00    -0.218 OA
ENDROOT
BRANCH   1   9
HETATM    9  O4  UNL     1       1.556   1.468   0.959  1.00  0.00    -0.302 OA
BRANCH   9  10
HETATM   10  C2  UNL     1       2.163   0.252   1.175  1.00  0.00     0.121 C 
HETATM   11  C1  UNL     1       2.500  -0.074   2.434  1.00  0.00     0.029 C 
HETATM   12  C6  UNL     1       3.066  -1.245   2.741  1.00  0.00     0.028 C 
HETATM   13  C5  UNL     1       3.310  -2.170   1.798  1.00  0.00     0.118 C 
HETATM   14  C4  UNL     1       2.977  -1.855   0.524  1.00  0.00     0.140 C 
HETATM   15  C3  UNL     1       2.500  -0.628   0.203  1.00  0.00     0.140 C 
BRANCH  13  16
HETATM   16  O1  UNL     1       3.880  -3.397   2.049  1.00  0.00    -0.326 OA
HETATM   17  C7  UNL     1       4.360  -3.672   3.345  1.00  0.00     0.181 C 
ENDBRANCH  13  16
BRANCH  14  18
HETATM   18  O2  UNL     1       3.263  -2.752  -0.481  1.00  0.00    -0.324 OA
HETATM   19  C8  UNL     1       2.170  -3.571  -0.837  1.00  0.00     0.182 C 
ENDBRANCH  14  18
BRANCH  15  20
HETATM   20  O3  UNL     1       2.212  -0.353  -1.111  1.00  0.00    -0.324 OA
HETATM   21  C9  UNL     1       3.259   0.275  -1.812  1.00  0.00     0.182 C 
ENDBRANCH  15  20
ENDBRANCH   9  10
ENDBRANCH   1   9
BRANCH   6  22
HETATM   22  O6  UNL     1      -1.580   0.405  -0.694  1.00  0.00    -0.324 OA
BRANCH  22  23
HETATM   23  C15 UNL     1      -1.149   0.130  -2.011  1.00  0.00     0.270 C 
HETATM   24  O7  UNL     1      -1.293   1.303  -2.780  1.00  0.00    -0.329 OA
HETATM   25  C16 UNL     1      -2.609   1.686  -3.084  1.00  0.00     0.151 C 
HETATM   26  C17 UNL     1      -3.470   0.552  -3.633  1.00  0.00     0.212 C 
HETATM   27  C20 UNL     1      -3.275   2.467  -1.950  1.00  0.00     0.035 C 
HETATM   28  C18 UNL     1      -3.330  -0.757  -2.877  1.00  0.00     0.220 C 
HETATM   29  O10 UNL     1      -3.110   0.314  -4.977  1.00  0.00    -0.218 OA
HETATM   30  C19 UNL     1      -1.868  -1.046  -2.630  1.00  0.00     0.241 C 
HETATM   31  O9  UNL     1      -3.993  -0.713  -1.637  1.00  0.00    -0.218 OA
HETATM   32  O8  UNL     1      -1.759  -2.169  -1.788  1.00  0.00    -0.215 OA
ENDBRANCH  22  23
ENDBRANCH   6  22
BRANCH   3  33
HETATM   33  C21 UNL     1       0.113   3.148   2.891  1.00  0.00     0.214 C 
HETATM   34  O13 UNL     1      -0.578   3.706   3.992  1.00  0.00    -0.218 OA
ENDBRANCH   3  33
TORSDOF 8
