REMARK  8 active torsions:
REMARK  status: ('A' for Active; 'I' for Inactive)
REMARK    1  A    between atoms: C5_6  and  C6_7 
REMARK    2  A    between atoms: C6_7  and  C7_8 
REMARK    3  A    between atoms: C9_11  and  C18_23 
REMARK    4  A    between atoms: C11_13  and  C13_16 
REMARK    5  A    between atoms: C13_16  and  C14_17 
REMARK    6  A    between atoms: C14_17  and  C15_18 
REMARK    7  A    between atoms: C18_23  and  C19_24 
REMARK    8  A    between atoms: C19_24  and  C20_26 
ROOT
HETATM    1  C1  UNL     1       0.243   1.460  -0.145  1.00  0.00     0.045 A 
HETATM    2  C2  UNL     1      -0.889   0.906  -0.643  1.00  0.00     0.107 A 
HETATM    3  O1  UNL     1      -2.024   1.622  -0.849  1.00  0.00    -0.273 OA
HETATM    4  C3  UNL     1      -2.009   2.934  -0.568  1.00  0.00     0.300 A 
HETATM    5  C4  UNL     1      -0.912   3.496  -0.020  1.00  0.00     0.065 A 
HETATM    6  C5  UNL     1       0.201   2.777   0.219  1.00  0.00    -0.013 A 
HETATM    7  O2  UNL     1      -3.006   3.591  -0.791  1.00  0.00    -0.259 OA
HETATM    8  C9  UNL     1      -0.939  -0.404  -0.959  1.00  0.00     0.047 A 
HETATM    9  C10 UNL     1       0.154  -1.183  -0.812  1.00  0.00     0.137 A 
HETATM   10  C11 UNL     1       1.304  -0.662  -0.331  1.00  0.00     0.086 A 
HETATM   11  C12 UNL     1       1.338   0.664  -0.029  1.00  0.00     0.137 A 
HETATM   12  O3  UNL     1       2.520   1.217   0.363  1.00  0.00    -0.190 OA
HETATM   13  O5  UNL     1       0.046  -2.472  -1.237  1.00  0.00    -0.190 OA
ENDROOT
BRANCH   8  14
HETATM   14  C18 UNL     1      -2.208  -1.090  -1.496  1.00  0.00     0.014 C 
BRANCH  14  15
HETATM   15  C19 UNL     1      -3.615  -0.502  -1.317  1.00  0.00     0.193 C 
HETATM   16  O6  UNL     1      -3.825   0.559  -2.236  1.00  0.00    -0.214 OA
BRANCH  15  17
HETATM   17  C20 UNL     1      -4.753  -1.493  -1.490  1.00  0.00    -0.010 C 
HETATM   18  C21 UNL     1      -6.008  -1.182  -0.707  1.00  0.00     0.029 C 
HETATM   19  C22 UNL     1      -4.694  -2.555  -2.309  1.00  0.00    -0.006 C 
ENDBRANCH  15  17
ENDBRANCH  14  15
ENDBRANCH   8  14
BRANCH  10  20
HETATM   20  C13 UNL     1       2.432  -1.423  -0.111  1.00  0.00     0.177 C 
HETATM   21  O4  UNL     1       3.471  -0.924   0.262  1.00  0.00    -0.291 OA
BRANCH  20  22
HETATM   22  C14 UNL     1       2.573  -2.954  -0.205  1.00  0.00     0.062 C 
HETATM   23  C17 UNL     1       1.821  -3.637   0.954  1.00  0.00     0.008 C 
BRANCH  22  24
HETATM   24  C15 UNL     1       4.039  -3.464  -0.255  1.00  0.00     0.008 C 
HETATM   25  C16 UNL     1       4.810  -3.483   1.076  1.00  0.00     0.001 C 
ENDBRANCH  22  24
ENDBRANCH  20  22
ENDBRANCH  10  20
BRANCH   6  26
HETATM   26  C6  UNL     1       1.315   3.540   0.942  1.00  0.00     0.027 C 
BRANCH  26  27
HETATM   27  C7  UNL     1       0.957   4.813   1.739  1.00  0.00     0.005 C 
HETATM   28  C8  UNL     1       2.136   5.297   2.599  1.00  0.00     0.000 C 
ENDBRANCH  26  27
ENDBRANCH   6  26
TORSDOF 8
