REMARK  7 active torsions:
REMARK  status: ('A' for Active; 'I' for Inactive)
REMARK    1  A    between atoms: C6_6  and  C7_7 
REMARK    2  A    between atoms: C12_14  and  C21_26 
REMARK    3  A    between atoms: C14_16  and  C16_19 
REMARK    4  A    between atoms: C16_19  and  C17_20 
REMARK    5  A    between atoms: C17_20  and  C19_22 
REMARK    6  A    between atoms: C21_26  and  C22_27 
REMARK    7  A    between atoms: C22_27  and  C23_29 
ROOT
HETATM    1  C7  UNL     1      -2.299  -2.222   0.165  1.00  0.00     0.009 C 
HETATM    2  C8  UNL     1      -1.383  -1.258  -0.142  1.00  0.00     0.048 C 
HETATM    3  C9  UNL     1      -1.796  -0.181  -0.849  1.00  0.00     0.103 C 
HETATM    4  O1  UNL     1      -3.102   0.007  -1.209  1.00  0.00    -0.273 OA
HETATM    5  C10 UNL     1      -4.008  -0.856  -0.702  1.00  0.00     0.300 C 
HETATM    6  C11 UNL     1      -3.605  -1.976  -0.063  1.00  0.00     0.069 C 
HETATM    7  O2  UNL     1      -5.194  -0.667  -0.885  1.00  0.00    -0.259 OA
HETATM    8  C12 UNL     1      -0.899   0.732  -1.278  1.00  0.00     0.029 C 
HETATM    9  C13 UNL     1       0.405   0.625  -0.958  1.00  0.00     0.134 C 
HETATM   10  C14 UNL     1       0.812  -0.351  -0.116  1.00  0.00     0.085 C 
HETATM   11  C15 UNL     1      -0.096  -1.276   0.293  1.00  0.00     0.138 C 
HETATM   12  O3  UNL     1       0.273  -2.192   1.240  1.00  0.00    -0.190 OA
HETATM   13  O5  UNL     1       1.259   1.519  -1.521  1.00  0.00    -0.190 OA
ENDROOT
BRANCH   1  14
HETATM   14  C6  UNL     1      -2.029  -3.489   0.574  1.00  0.00     0.000 A 
HETATM   15  C1  UNL     1      -0.958  -4.145   0.080  1.00  0.00     0.000 A 
HETATM   16  C2  UNL     1      -0.657  -5.404   0.436  1.00  0.00     0.000 A 
HETATM   17  C3  UNL     1      -1.443  -6.063   1.298  1.00  0.00     0.000 A 
HETATM   18  C4  UNL     1      -2.531  -5.449   1.782  1.00  0.00     0.000 A 
HETATM   19  C5  UNL     1      -2.819  -4.190   1.414  1.00  0.00     0.000 A 
ENDBRANCH   1  14
BRANCH   8  20
HETATM   20  C21 UNL     1      -1.368   1.885  -2.172  1.00  0.00     0.068 C 
BRANCH  20  21
HETATM   21  C22 UNL     1      -1.005   3.313  -1.742  1.00  0.00     0.175 C 
HETATM   22  O6  UNL     1      -1.705   4.224  -2.574  1.00  0.00    -0.219 OA
BRANCH  21  23
HETATM   23  C23 UNL     1      -1.282   3.697  -0.306  1.00  0.00    -0.014 C 
HETATM   24  C24 UNL     1      -0.410   4.796   0.255  1.00  0.00     0.029 C 
HETATM   25  C25 UNL     1      -2.269   3.159   0.427  1.00  0.00    -0.007 C 
ENDBRANCH  21  23
ENDBRANCH  20  21
ENDBRANCH   8  20
BRANCH  10  26
HETATM   26  C16 UNL     1       2.102  -0.433   0.357  1.00  0.00     0.177 C 
HETATM   27  O4  UNL     1       2.477  -1.371   1.026  1.00  0.00    -0.291 OA
BRANCH  26  28
HETATM   28  C17 UNL     1       3.225   0.608   0.181  1.00  0.00     0.062 C 
HETATM   29  C18 UNL     1       2.900   1.854   1.029  1.00  0.00     0.008 C 
BRANCH  28  30
HETATM   30  C19 UNL     1       4.625   0.060   0.560  1.00  0.00     0.008 C 
HETATM   31  C20 UNL     1       5.779   1.024   0.248  1.00  0.00     0.001 C 
ENDBRANCH  28  30
ENDBRANCH  26  28
ENDBRANCH  10  26
TORSDOF 7
