REMARK  3 active torsions:
REMARK  status: ('A' for Active; 'I' for Inactive)
REMARK    1  A    between atoms: C5_5  and  C7_7 
REMARK    2  A    between atoms: C15_17  and  C16_18 
REMARK    3  A    between atoms: C16_18  and  C17_19 
ROOT
HETATM    1  C7  UNL     1      -0.053   3.598  -0.059  1.00  0.00     0.151 C 
HETATM    2  O1  UNL     1      -0.805   2.495   0.367  1.00  0.00    -0.329 OA
HETATM    3  C8  UNL     1      -0.800   1.397  -0.461  1.00  0.00     0.097 A 
HETATM    4  C9  UNL     1      -0.563   1.472  -1.791  1.00  0.00     0.082 A 
HETATM    5  C10 UNL     1      -0.412   2.705  -2.356  1.00  0.00     0.180 C 
HETATM    6  C11 UNL     1      -0.526   3.928  -1.465  1.00  0.00     0.104 C 
HETATM    7  O2  UNL     1      -0.214   2.921  -3.529  1.00  0.00    -0.291 OA
HETATM    8  C12 UNL     1      -0.504   0.352  -2.546  1.00  0.00     0.134 A 
HETATM    9  C13 UNL     1      -0.659  -0.847  -1.946  1.00  0.00     0.025 A 
HETATM   10  C14 UNL     1      -0.893  -0.956  -0.625  1.00  0.00     0.090 A 
HETATM   11  C15 UNL     1      -0.953   0.179   0.104  1.00  0.00     0.027 A 
HETATM   12  O3  UNL     1      -1.007  -2.162   0.020  1.00  0.00    -0.336 OA
HETATM   13  C21 UNL     1      -0.518  -3.302  -0.604  1.00  0.00     0.099 C 
HETATM   14  C22 UNL     1      -1.041  -3.334  -2.037  1.00  0.00     0.033 C 
HETATM   15  C23 UNL     1      -0.564  -2.097  -2.799  1.00  0.00     0.033 C 
HETATM   16  C24 UNL     1      -1.069  -4.507   0.173  1.00  0.00     0.030 C 
HETATM   17  C25 UNL     1       1.014  -3.319  -0.521  1.00  0.00     0.030 C 
HETATM   18  O4  UNL     1      -0.246   0.351  -3.887  1.00  0.00    -0.190 OA
ENDROOT
BRANCH   1  19
HETATM   19  C5  UNL     1       1.458   3.416   0.050  1.00  0.00     0.008 A 
HETATM   20  C4  UNL     1       2.044   2.276   0.457  1.00  0.00     0.000 A 
HETATM   21  C3  UNL     1       3.378   2.176   0.542  1.00  0.00     0.029 A 
HETATM   22  C2  UNL     1       4.180   3.207   0.234  1.00  0.00     0.156 A 
HETATM   23  C1  UNL     1       3.616   4.364  -0.160  1.00  0.00     0.156 A 
HETATM   24  O5  UNL     1       5.532   3.078   0.332  1.00  0.00    -0.188 OA
HETATM   25  C6  UNL     1       2.276   4.443  -0.240  1.00  0.00     0.028 A 
HETATM   26  O6  UNL     1       4.386   5.443  -0.471  1.00  0.00    -0.188 OA
ENDBRANCH   1  19
BRANCH  11  27
HETATM   27  C16 UNL     1      -1.163   0.065   1.612  1.00  0.00     0.056 C 
BRANCH  27  28
HETATM   28  C17 UNL     1      -2.285  -0.872   1.991  1.00  0.00    -0.030 C 
HETATM   29  C18 UNL     1      -2.267  -1.804   2.962  1.00  0.00    -0.048 C 
HETATM   30  C19 UNL     1      -3.451  -2.717   3.186  1.00  0.00     0.026 C 
HETATM   31  C20 UNL     1      -1.106  -2.057   3.893  1.00  0.00     0.026 C 
ENDBRANCH  27  28
ENDBRANCH  11  27
TORSDOF 3
