REMARK  11 active torsions:
REMARK  status: ('A' for Active; 'I' for Inactive)
REMARK    1  A    between atoms: C5_5  and  C7_7 
REMARK    2  A    between atoms: C8_8  and  C9_9 
REMARK    3  A    between atoms: C9_9  and  O1_10 
REMARK    4  A    between atoms: O1_10  and  C10_11 
REMARK    5  A    between atoms: C10_11  and  C11_12 
REMARK    6  A    between atoms: C13_14  and  O2_15 
REMARK    7  A    between atoms: O2_15  and  C14_16 
REMARK    8  A    between atoms: C14_16  and  C15_17 
REMARK    9  A    between atoms: C16_19  and  O7_26 
REMARK   10  A    between atoms: O7_26  and  C20_27 
REMARK   11  A    between atoms: C20_27  and  C21_28 
ROOT
HETATM    1  C11 UNL     1      -2.206  -1.004  -3.442  1.00  0.00     0.214 C 
HETATM    2  C12 UNL     1      -0.694  -1.021  -3.420  1.00  0.00     0.241 C 
HETATM    3  C13 UNL     1      -0.334   0.416  -3.093  1.00  0.00     0.270 C 
HETATM    4  O8  UNL     1      -1.534   1.076  -2.717  1.00  0.00    -0.326 OA
HETATM    5  C27 UNL     1      -2.583   0.454  -3.422  1.00  0.00     0.181 C 
HETATM    6  O9  UNL     1      -0.244  -1.386  -4.692  1.00  0.00    -0.215 OA
HETATM    7  O10 UNL     1      -2.769  -1.695  -4.521  1.00  0.00    -0.218 OA
ENDROOT
BRANCH   3   8
HETATM    8  O2  UNL     1       0.537   0.451  -1.986  1.00  0.00    -0.326 OA
BRANCH   8   9
HETATM    9  C14 UNL     1       1.792   1.059  -2.219  1.00  0.00     0.177 C 
BRANCH   9  10
HETATM   10  C15 UNL     1       2.616   0.977  -0.939  1.00  0.00     0.180 C 
HETATM   11  O3  UNL     1       2.919   2.257  -0.441  1.00  0.00    -0.326 OA
HETATM   12  C16 UNL     1       3.408   2.114   0.881  1.00  0.00     0.270 C 
HETATM   13  C17 UNL     1       4.777   1.478   0.802  1.00  0.00     0.241 C 
HETATM   14  C18 UNL     1       4.674   0.099   0.165  1.00  0.00     0.220 C 
HETATM   15  O6  UNL     1       5.287   1.319   2.099  1.00  0.00    -0.215 OA
HETATM   16  C19 UNL     1       3.916   0.207  -1.142  1.00  0.00     0.215 C 
HETATM   17  O5  UNL     1       5.974  -0.370  -0.089  1.00  0.00    -0.218 OA
HETATM   18  O4  UNL     1       3.600  -1.084  -1.602  1.00  0.00    -0.218 OA
BRANCH  12  19
HETATM   19  O7  UNL     1       3.496   3.397   1.435  1.00  0.00    -0.324 OA
BRANCH  19  20
HETATM   20  C20 UNL     1       2.751   3.641   2.619  1.00  0.00     0.172 C 
BRANCH  20  21
HETATM   21  C21 UNL     1       3.005   5.064   3.093  1.00  0.00     0.007 A 
HETATM   22  C22 UNL     1       2.405   5.555   4.192  1.00  0.00    -0.002 A 
HETATM   23  C23 UNL     1       2.632   6.814   4.600  1.00  0.00    -0.000 A 
HETATM   24  C24 UNL     1       3.467   7.603   3.910  1.00  0.00    -0.000 A 
HETATM   25  C25 UNL     1       4.075   7.132   2.813  1.00  0.00    -0.000 A 
HETATM   26  C26 UNL     1       3.840   5.874   2.416  1.00  0.00    -0.002 A 
ENDBRANCH  20  21
ENDBRANCH  19  20
ENDBRANCH  12  19
ENDBRANCH   9  10
ENDBRANCH   8   9
ENDBRANCH   3   8
BRANCH   1  27
HETATM   27  C10 UNL     1      -2.756  -1.696  -2.236  1.00  0.00     0.188 C 
BRANCH  27  28
HETATM   28  O1  UNL     1      -3.597  -2.749  -2.768  1.00  0.00    -0.296 OA
BRANCH  28  29
HETATM   29  C9  UNL     1      -4.154  -3.485  -1.869  1.00  0.00     0.296 C 
HETATM   30  O11 UNL     1      -3.750  -2.984  -0.859  1.00  0.00    -0.259 OA
BRANCH  29  31
HETATM   31  C8  UNL     1      -4.993  -4.562  -2.010  1.00  0.00     0.068 C 
HETATM   32  C7  UNL     1      -5.570  -5.302  -1.031  1.00  0.00     0.005 C 
BRANCH  32  33
HETATM   33  C5  UNL     1      -5.457  -5.152   0.310  1.00  0.00     0.002 A 
HETATM   34  C4  UNL     1      -6.028  -5.881   1.276  1.00  0.00     0.002 A 
HETATM   35  C3  UNL     1      -5.797  -5.584   2.576  1.00  0.00     0.029 A 
HETATM   36  C2  UNL     1      -5.012  -4.583   3.020  1.00  0.00     0.156 A 
HETATM   37  C1  UNL     1      -4.411  -3.813   2.124  1.00  0.00     0.156 A 
HETATM   38  O12 UNL     1      -4.748  -4.262   4.291  1.00  0.00    -0.188 OA
HETATM   39  C6  UNL     1      -4.724  -4.212   0.912  1.00  0.00     0.029 A 
HETATM   40  O13 UNL     1      -3.566  -2.747   2.390  1.00  0.00    -0.188 OA
ENDBRANCH  32  33
ENDBRANCH  29  31
ENDBRANCH  28  29
ENDBRANCH  27  28
ENDBRANCH   1  27
TORSDOF 11
