REMARK  13 active torsions:
REMARK  status: ('A' for Active; 'I' for Inactive)
REMARK    1  A    between atoms: C5_5  and  C7_7 
REMARK    2  A    between atoms: C8_8  and  C9_9 
REMARK    3  A    between atoms: C9_9  and  O1_10 
REMARK    4  A    between atoms: O1_10  and  C10_11 
REMARK    5  A    between atoms: C10_11  and  C11_12 
REMARK    6  A    between atoms: C13_14  and  O2_15 
REMARK    7  A    between atoms: O2_15  and  C14_16 
REMARK    8  A    between atoms: C14_16  and  C15_17 
REMARK    9  A    between atoms: C16_19  and  O7_26 
REMARK   10  A    between atoms: O7_26  and  C20_27 
REMARK   11  A    between atoms: C22_29  and  C26_34 
REMARK   12  A    between atoms: C26_34  and  C27_35 
REMARK   13  A    between atoms: C27_35  and  C28_36 
ROOT
HETATM    1  C14 UNL     1       2.200   0.037  -2.570  1.00  0.00     0.177 C 
ENDROOT
BRANCH   1   2
HETATM    2  O2  UNL     1       1.277  -1.011  -2.752  1.00  0.00    -0.326 OA
BRANCH   2   3
HETATM    3  C13 UNL     1       0.462  -0.830  -3.888  1.00  0.00     0.270 C 
HETATM    4  C12 UNL     1      -0.362  -2.081  -4.136  1.00  0.00     0.241 C 
HETATM    5  C11 UNL     1      -1.807  -1.603  -4.109  1.00  0.00     0.214 C 
HETATM    6  O11 UNL     1      -0.061  -2.603  -5.406  1.00  0.00    -0.215 OA
HETATM    7  C30 UNL     1      -1.640  -0.100  -4.248  1.00  0.00     0.181 C 
HETATM    8  O12 UNL     1      -2.517  -2.100  -5.212  1.00  0.00    -0.218 OA
HETATM    9  O10 UNL     1      -0.448   0.202  -3.580  1.00  0.00    -0.326 OA
BRANCH   5  10
HETATM   10  C10 UNL     1      -2.541  -1.981  -2.827  1.00  0.00     0.188 C 
BRANCH  10  11
HETATM   11  O1  UNL     1      -2.710  -3.375  -2.780  1.00  0.00    -0.296 OA
BRANCH  11  12
HETATM   12  C9  UNL     1      -3.282  -3.912  -1.656  1.00  0.00     0.296 C 
HETATM   13  O13 UNL     1      -3.416  -3.209  -0.680  1.00  0.00    -0.259 OA
BRANCH  12  14
HETATM   14  C8  UNL     1      -3.835  -5.155  -1.712  1.00  0.00     0.068 C 
HETATM   15  C7  UNL     1      -4.434  -5.911  -0.771  1.00  0.00     0.005 C 
BRANCH  15  16
HETATM   16  C5  UNL     1      -4.565  -5.830   0.570  1.00  0.00     0.002 A 
HETATM   17  C4  UNL     1      -5.454  -6.638   1.182  1.00  0.00     0.002 A 
HETATM   18  C3  UNL     1      -5.627  -6.616   2.512  1.00  0.00     0.029 A 
HETATM   19  C2  UNL     1      -4.900  -5.810   3.301  1.00  0.00     0.156 A 
HETATM   20  C1  UNL     1      -3.971  -5.027   2.723  1.00  0.00     0.156 A 
HETATM   21  O14 UNL     1      -5.086  -5.811   4.648  1.00  0.00    -0.188 OA
HETATM   22  C6  UNL     1      -3.822  -5.062   1.387  1.00  0.00     0.029 A 
HETATM   23  O15 UNL     1      -3.176  -4.217   3.474  1.00  0.00    -0.188 OA
ENDBRANCH  15  16
ENDBRANCH  12  14
ENDBRANCH  11  12
ENDBRANCH  10  11
ENDBRANCH   5  10
ENDBRANCH   2   3
ENDBRANCH   1   2
BRANCH   1  24
HETATM   24  C15 UNL     1       2.930  -0.147  -1.240  1.00  0.00     0.180 C 
HETATM   25  O3  UNL     1       2.967   1.093  -0.585  1.00  0.00    -0.326 OA
HETATM   26  C16 UNL     1       3.486   0.991   0.722  1.00  0.00     0.274 C 
HETATM   27  C17 UNL     1       4.938   0.575   0.646  1.00  0.00     0.241 C 
HETATM   28  C18 UNL     1       5.026  -0.771  -0.042  1.00  0.00     0.220 C 
HETATM   29  O6  UNL     1       5.468   0.465   1.943  1.00  0.00    -0.215 OA
HETATM   30  C19 UNL     1       4.352  -0.675  -1.397  1.00  0.00     0.215 C 
HETATM   31  O5  UNL     1       6.374  -1.127  -0.211  1.00  0.00    -0.218 OA
HETATM   32  O4  UNL     1       4.350  -1.954  -1.979  1.00  0.00    -0.218 OA
BRANCH  26  33
HETATM   33  O7  UNL     1       3.423   2.287   1.259  1.00  0.00    -0.301 OA
BRANCH  33  34
HETATM   34  C20 UNL     1       2.244   2.946   1.536  1.00  0.00     0.122 A 
HETATM   35  C21 UNL     1       2.389   4.231   1.924  1.00  0.00     0.022 A 
HETATM   36  C22 UNL     1       1.385   5.067   2.240  1.00  0.00    -0.020 A 
HETATM   37  C23 UNL     1       0.141   4.576   2.151  1.00  0.00    -0.002 A 
HETATM   38  C24 UNL     1      -0.042   3.307   1.767  1.00  0.00     0.029 A 
HETATM   39  C25 UNL     1       0.973   2.478   1.463  1.00  0.00     0.153 A 
HETATM   40  O8  UNL     1       0.633   1.218   1.081  1.00  0.00    -0.188 OA
BRANCH  36  41
HETATM   41  C26 UNL     1       1.701   6.489   2.663  1.00  0.00     0.034 C 
BRANCH  41  42
HETATM   42  C27 UNL     1       0.507   7.382   3.037  1.00  0.00     0.069 C 
BRANCH  42  43
HETATM   43  C28 UNL     1       0.896   8.796   3.442  1.00  0.00     0.151 C 
HETATM   44  C29 UNL     1      -0.225   9.694   3.932  1.00  0.00     0.072 C 
HETATM   45  O9  UNL     1       2.038   9.194   3.383  1.00  0.00    -0.296 OA
ENDBRANCH  42  43
ENDBRANCH  41  42
ENDBRANCH  36  41
ENDBRANCH  33  34
ENDBRANCH  26  33
ENDBRANCH   1  24
TORSDOF 13
