REMARK  9 active torsions:
REMARK  status: ('A' for Active; 'I' for Inactive)
REMARK    1  A    between atoms: C5_5  and  C7_7 
REMARK    2  A    between atoms: C8_8  and  C9_9 
REMARK    3  A    between atoms: C9_9  and  O1_10 
REMARK    4  A    between atoms: O1_10  and  C10_11 
REMARK    5  A    between atoms: C10_11  and  C11_12 
REMARK    6  A    between atoms: C15_16  and  O3_18 
REMARK    7  A    between atoms: O3_18  and  C16_19 
REMARK    8  A    between atoms: C16_19  and  C17_20 
REMARK    9  A    between atoms: C18_21  and  C19_22 
ROOT
HETATM    1  C11 UNL     1       0.032  -2.036  -4.021  1.00  0.00     0.181 C 
HETATM    2  C12 UNL     1      -0.814  -3.219  -4.472  1.00  0.00     0.215 C 
HETATM    3  C13 UNL     1      -0.733  -4.416  -3.541  1.00  0.00     0.220 C 
HETATM    4  C14 UNL     1       0.718  -4.707  -3.206  1.00  0.00     0.241 C 
HETATM    5  C15 UNL     1       1.497  -3.477  -2.788  1.00  0.00     0.270 C 
HETATM    6  O2  UNL     1       1.346  -2.420  -3.712  1.00  0.00    -0.326 OA
HETATM    7  O6  UNL     1       1.333  -5.248  -4.354  1.00  0.00    -0.215 OA
HETATM    8  O7  UNL     1      -1.466  -4.186  -2.363  1.00  0.00    -0.218 OA
HETATM    9  O8  UNL     1      -0.365  -3.636  -5.744  1.00  0.00    -0.218 OA
ENDROOT
BRANCH   5  10
HETATM   10  O3  UNL     1       1.119  -3.050  -1.500  1.00  0.00    -0.327 OA
BRANCH  10  11
HETATM   11  C16 UNL     1       2.045  -2.206  -0.843  1.00  0.00     0.140 C 
HETATM   12  C28 UNL     1       3.103  -3.033  -0.111  1.00  0.00     0.037 C 
BRANCH  11  13
HETATM   13  C17 UNL     1       1.308  -1.346   0.166  1.00  0.00     0.001 C 
HETATM   14  C18 UNL     1       1.794  -0.196   0.661  1.00  0.00     0.001 C 
BRANCH  14  15
HETATM   15  C19 UNL     1       1.082   0.673   1.696  1.00  0.00     0.145 C 
HETATM   16  C20 UNL     1       1.523   0.143   3.078  1.00  0.00     0.035 C 
HETATM   17  C21 UNL     1       2.946   0.603   3.439  1.00  0.00     0.036 C 
HETATM   18  C27 UNL     1       0.528   0.332   4.240  1.00  0.00     0.003 C 
HETATM   19  C22 UNL     1       3.184   2.098   3.258  1.00  0.00     0.152 C 
HETATM   20  C23 UNL     1       2.777   2.574   1.866  1.00  0.00     0.036 C 
HETATM   21  O4  UNL     1       2.508   2.827   4.253  1.00  0.00    -0.224 OA
HETATM   22  C24 UNL     1       1.347   2.180   1.425  1.00  0.00     0.032 C 
HETATM   23  C25 UNL     1       1.200   2.497  -0.089  1.00  0.00     0.003 C 
HETATM   24  C26 UNL     1       0.318   3.119   2.105  1.00  0.00     0.003 C 
HETATM   25  O5  UNL     1      -0.305   0.454   1.567  1.00  0.00    -0.222 OA
ENDBRANCH  14  15
ENDBRANCH  11  13
ENDBRANCH  10  11
ENDBRANCH   5  10
BRANCH   1  26
HETATM   26  C10 UNL     1      -0.591  -1.182  -2.921  1.00  0.00     0.184 C 
BRANCH  26  27
HETATM   27  O1  UNL     1      -1.469  -0.215  -3.448  1.00  0.00    -0.296 OA
BRANCH  27  28
HETATM   28  C9  UNL     1      -2.242   0.426  -2.510  1.00  0.00     0.296 C 
HETATM   29  O9  UNL     1      -2.639  -0.214  -1.564  1.00  0.00    -0.259 OA
BRANCH  28  30
HETATM   30  C8  UNL     1      -2.507   1.757  -2.618  1.00  0.00     0.068 C 
HETATM   31  C7  UNL     1      -3.060   2.629  -1.749  1.00  0.00     0.005 C 
BRANCH  31  32
HETATM   32  C5  UNL     1      -3.363   2.592  -0.432  1.00  0.00     0.002 A 
HETATM   33  C4  UNL     1      -4.054   3.611   0.119  1.00  0.00     0.002 A 
HETATM   34  C3  UNL     1      -4.345   3.643   1.428  1.00  0.00     0.029 A 
HETATM   35  C2  UNL     1      -3.946   2.672   2.265  1.00  0.00     0.156 A 
HETATM   36  C1  UNL     1      -3.220   1.662   1.757  1.00  0.00     0.156 A 
HETATM   37  O10 UNL     1      -4.242   2.728   3.591  1.00  0.00    -0.188 OA
HETATM   38  C6  UNL     1      -2.948   1.659   0.442  1.00  0.00     0.029 A 
HETATM   39  O11 UNL     1      -2.750   0.656   2.545  1.00  0.00    -0.188 OA
ENDBRANCH  31  32
ENDBRANCH  28  30
ENDBRANCH  27  28
ENDBRANCH  26  27
ENDBRANCH   1  26
TORSDOF 9
