REMARK  8 active torsions:
REMARK  status: ('A' for Active; 'I' for Inactive)
REMARK    1  A    between atoms: C5_5  and  C7_7 
REMARK    2  A    between atoms: C8_8  and  C9_9 
REMARK    3  A    between atoms: C9_9  and  O1_10 
REMARK    4  A    between atoms: O1_10  and  C10_11 
REMARK    5  A    between atoms: C10_11  and  C11_12 
REMARK    6  A    between atoms: C15_16  and  O3_18 
REMARK    7  A    between atoms: O3_18  and  C16_19 
REMARK    8  A    between atoms: C19_22  and  C22_26 
ROOT
HETATM    1  C11 UNL     1      -0.773  -1.615  -2.203  1.00  0.00     0.181 C 
HETATM    2  C12 UNL     1      -1.568  -2.894  -2.143  1.00  0.00     0.215 C 
HETATM    3  C13 UNL     1      -1.188  -3.698  -0.900  1.00  0.00     0.220 C 
HETATM    4  C14 UNL     1       0.327  -3.763  -0.725  1.00  0.00     0.241 C 
HETATM    5  C15 UNL     1       0.961  -2.427  -0.932  1.00  0.00     0.274 C 
HETATM    6  O2  UNL     1       0.593  -1.943  -2.217  1.00  0.00    -0.326 OA
HETATM    7  O7  UNL     1       0.835  -4.574  -1.739  1.00  0.00    -0.215 OA
HETATM    8  O8  UNL     1      -1.762  -3.090   0.231  1.00  0.00    -0.218 OA
HETATM    9  O9  UNL     1      -1.194  -3.593  -3.298  1.00  0.00    -0.218 OA
ENDROOT
BRANCH   1  10
HETATM   10  C10 UNL     1      -1.229  -0.741  -1.061  1.00  0.00     0.184 C 
BRANCH  10  11
HETATM   11  O1  UNL     1      -1.673   0.485  -1.601  1.00  0.00    -0.296 OA
BRANCH  11  12
HETATM   12  C9  UNL     1      -2.043   1.313  -0.644  1.00  0.00     0.296 C 
HETATM   13  O10 UNL     1      -1.847   0.768   0.421  1.00  0.00    -0.259 OA
BRANCH  12  14
HETATM   14  C8  UNL     1      -2.593   2.561  -0.748  1.00  0.00     0.068 C 
HETATM   15  C7  UNL     1      -2.977   3.431   0.235  1.00  0.00     0.005 C 
BRANCH  15  16
HETATM   16  C5  UNL     1      -2.898   3.256   1.587  1.00  0.00     0.002 A 
HETATM   17  C4  UNL     1      -3.271   4.101   2.551  1.00  0.00     0.002 A 
HETATM   18  C3  UNL     1      -3.116   3.748   3.845  1.00  0.00     0.029 A 
HETATM   19  C2  UNL     1      -2.603   2.588   4.298  1.00  0.00     0.156 A 
HETATM   20  C1  UNL     1      -2.214   1.694   3.418  1.00  0.00     0.156 A 
HETATM   21  O11 UNL     1      -2.423   2.202   5.562  1.00  0.00    -0.188 OA
HETATM   22  C6  UNL     1      -2.417   2.166   2.196  1.00  0.00     0.029 A 
HETATM   23  O12 UNL     1      -1.669   0.439   3.661  1.00  0.00    -0.188 OA
ENDBRANCH  15  16
ENDBRANCH  12  14
ENDBRANCH  11  12
ENDBRANCH  10  11
ENDBRANCH   1  10
BRANCH   5  24
HETATM   24  O3  UNL     1       2.337  -2.402  -0.742  1.00  0.00    -0.301 OA
BRANCH  24  25
HETATM   25  C16 UNL     1       3.015  -1.198  -0.795  1.00  0.00     0.122 A 
HETATM   26  C17 UNL     1       4.352  -1.204  -0.633  1.00  0.00     0.027 A 
HETATM   27  C18 UNL     1       5.091  -0.091  -0.716  1.00  0.00     0.008 A 
HETATM   28  C19 UNL     1       4.519   1.104  -0.921  1.00  0.00     0.067 A 
HETATM   29  C20 UNL     1       3.197   1.143  -1.061  1.00  0.00     0.035 A 
HETATM   30  C21 UNL     1       2.475   0.024  -1.019  1.00  0.00     0.153 A 
HETATM   31  O4  UNL     1       1.170   0.285  -1.188  1.00  0.00    -0.188 OA
BRANCH  28  32
HETATM   32  C22 UNL     1       5.241   2.247  -1.016  1.00  0.00     0.211 C 
HETATM   33  O5  UNL     1       4.712   3.337  -1.056  1.00  0.00    -0.644 OA
HETATM   34  O6  UNL     1       6.572   2.191  -1.075  1.00  0.00    -0.644 OA
ENDBRANCH  28  32
ENDBRANCH  24  25
ENDBRANCH   5  24
TORSDOF 8
