REMARK  13 active torsions:
REMARK  status: ('A' for Active; 'I' for Inactive)
REMARK    1  A    between atoms: C3_3  and  O4_10 
REMARK    2  A    between atoms: C4_5  and  C6_8 
REMARK    3  A    between atoms: O4_10  and  C7_11 
REMARK    4  A    between atoms: C7_11  and  C8_12 
REMARK    5  A    between atoms: C8_12  and  C9_13 
REMARK    6  A    between atoms: C8_12  and  O8_24 
REMARK    7  A    between atoms: C9_13  and  C10_14 
REMARK    8  A    between atoms: C14_18  and  O5_20 
REMARK    9  A    between atoms: O8_24  and  C17_25 
REMARK   10  A    between atoms: C20_28  and  C24_33 
REMARK   11  A    between atoms: C22_30  and  O9_31 
REMARK   12  A    between atoms: C29_40  and  C30_41 
REMARK   13  A    between atoms: C34_45  and  O12_47 
ROOT
HETATM    1  O8  UNL     1      -1.392  -0.543  -1.372  1.00  0.00    -0.326 OA
ENDROOT
BRANCH   1   2
HETATM    2  C8  UNL     1      -2.545  -0.809  -0.620  1.00  0.00     0.185 C 
BRANCH   2   3
HETATM    3  C7  UNL     1      -3.697  -0.916  -1.628  1.00  0.00     0.178 C 
BRANCH   3   4
HETATM    4  O4  UNL     1      -4.924  -0.732  -0.966  1.00  0.00    -0.326 OA
BRANCH   4   5
HETATM    5  C3  UNL     1      -6.046  -0.934  -1.801  1.00  0.00     0.270 C 
HETATM    6  C2  UNL     1      -7.114   0.060  -1.408  1.00  0.00     0.241 C 
HETATM    7  C1  UNL     1      -8.355  -0.216  -2.225  1.00  0.00     0.220 C 
HETATM    8  O14 UNL     1      -6.665   1.363  -1.681  1.00  0.00    -0.215 OA
HETATM    9  C5  UNL     1      -8.774  -1.649  -1.972  1.00  0.00     0.215 C 
HETATM   10  O15 UNL     1      -9.386   0.654  -1.836  1.00  0.00    -0.218 OA
HETATM   11  C4  UNL     1      -7.623  -2.603  -2.280  1.00  0.00     0.184 C 
HETATM   12  O2  UNL     1      -9.888  -1.917  -2.787  1.00  0.00    -0.218 OA
HETATM   13  O1  UNL     1      -6.484  -2.251  -1.535  1.00  0.00    -0.326 OA
BRANCH  11  14
HETATM   14  C6  UNL     1      -8.005  -4.038  -1.939  1.00  0.00     0.214 C 
HETATM   15  O3  UNL     1      -6.971  -4.921  -2.327  1.00  0.00    -0.218 OA
ENDBRANCH  11  14
ENDBRANCH   4   5
ENDBRANCH   3   4
ENDBRANCH   2   3
BRANCH   2  16
HETATM   16  C9  UNL     1      -2.446  -2.083   0.232  1.00  0.00     0.204 C 
HETATM   17  O7  UNL     1      -2.246  -1.755   1.595  1.00  0.00    -0.216 OA
BRANCH  16  18
HETATM   18  C10 UNL     1      -1.413  -3.109  -0.201  1.00  0.00     0.012 A 
HETATM   19  C11 UNL     1      -1.694  -3.987  -1.177  1.00  0.00     0.001 A 
HETATM   20  C12 UNL     1      -0.782  -4.894  -1.552  1.00  0.00     0.029 A 
HETATM   21  C13 UNL     1       0.422  -4.961  -0.963  1.00  0.00     0.153 A 
HETATM   22  C14 UNL     1       0.724  -4.111   0.042  1.00  0.00     0.119 A 
HETATM   23  O6  UNL     1       1.340  -5.881  -1.365  1.00  0.00    -0.188 OA
HETATM   24  C15 UNL     1      -0.203  -3.193   0.383  1.00  0.00     0.025 A 
BRANCH  22  25
HETATM   25  O5  UNL     1       1.971  -4.204   0.614  1.00  0.00    -0.326 OA
HETATM   26  C16 UNL     1       2.612  -3.016   1.016  1.00  0.00     0.181 C 
ENDBRANCH  22  25
ENDBRANCH  16  18
ENDBRANCH   2  16
ENDBRANCH   1   2
BRANCH   1  27
HETATM   27  C17 UNL     1      -0.202  -0.192  -0.781  1.00  0.00     0.116 A 
HETATM   28  C18 UNL     1      -0.060   0.211   0.497  1.00  0.00     0.026 A 
HETATM   29  C19 UNL     1       1.137   0.477   1.040  1.00  0.00     0.000 A 
HETATM   30  C20 UNL     1       2.258   0.378   0.311  1.00  0.00     0.007 A 
HETATM   31  C21 UNL     1       2.110   0.026  -0.977  1.00  0.00     0.024 A 
HETATM   32  C22 UNL     1       0.926  -0.311  -1.520  1.00  0.00     0.116 A 
BRANCH  30  33
HETATM   33  C24 UNL     1       3.621   0.615   0.934  1.00  0.00     0.140 C 
HETATM   34  O10 UNL     1       4.674   0.182   0.105  1.00  0.00    -0.352 OA
HETATM   35  C25 UNL     1       5.848   0.696   0.668  1.00  0.00     0.145 C 
HETATM   36  C26 UNL     1       5.490   2.103   1.150  1.00  0.00     0.066 C 
HETATM   37  C27 UNL     1       3.956   2.069   1.262  1.00  0.00     0.066 C 
HETATM   38  C29 UNL     1       5.975   2.419   2.565  1.00  0.00     0.140 C 
HETATM   39  C28 UNL     1       3.700   2.496   2.701  1.00  0.00     0.145 C 
HETATM   40  O11 UNL     1       4.873   2.214   3.419  1.00  0.00    -0.352 OA
BRANCH  38  41
HETATM   41  C30 UNL     1       6.598   3.796   2.746  1.00  0.00     0.007 A 
HETATM   42  C31 UNL     1       7.768   3.925   3.395  1.00  0.00     0.000 A 
HETATM   43  C32 UNL     1       8.323   5.132   3.560  1.00  0.00     0.029 A 
HETATM   44  C33 UNL     1       7.733   6.241   3.087  1.00  0.00     0.153 A 
HETATM   45  C34 UNL     1       6.563   6.146   2.421  1.00  0.00     0.119 A 
HETATM   46  O13 UNL     1       8.309   7.460   3.272  1.00  0.00    -0.188 OA
HETATM   47  C35 UNL     1       6.023   4.918   2.277  1.00  0.00     0.024 A 
BRANCH  45  48
HETATM   48  O12 UNL     1       5.985   7.312   1.980  1.00  0.00    -0.326 OA
HETATM   49  C36 UNL     1       4.629   7.298   1.597  1.00  0.00     0.181 C 
ENDBRANCH  45  48
ENDBRANCH  38  41
ENDBRANCH  30  33
BRANCH  32  50
HETATM   50  O9  UNL     1       0.865  -0.638  -2.854  1.00  0.00    -0.326 OA
HETATM   51  C23 UNL     1       1.020  -2.013  -3.117  1.00  0.00     0.181 C 
ENDBRANCH  32  50
ENDBRANCH   1  27
TORSDOF 13
