REMARK  1 active torsions:
REMARK  status: ('A' for Active; 'I' for Inactive)
REMARK    1  A    between atoms: C10_11  and  O2_18 
ROOT
HETATM    1  C1  UNL     1      -3.748   1.540  -0.262  1.00  0.00     0.000 A 
HETATM    2  C2  UNL     1      -3.820   0.197  -0.248  1.00  0.00     0.002 A 
HETATM    3  C3  UNL     1      -2.713  -0.556  -0.115  1.00  0.00     0.018 A 
HETATM    4  C4  UNL     1      -1.527   0.057   0.006  1.00  0.00     0.064 A 
HETATM    5  C5  UNL     1      -1.471   1.403  -0.010  1.00  0.00     0.018 A 
HETATM    6  C6  UNL     1      -2.564   2.163  -0.144  1.00  0.00     0.002 A 
HETATM    7  C7  UNL     1      -0.182   1.729   0.128  1.00  0.00     0.021 A 
HETATM    8  C8  UNL     1       0.455   0.561   0.218  1.00  0.00     0.085 A 
HETATM    9  N1  UNL     1      -0.348  -0.416   0.145  1.00  0.00    -0.302 N 
HETATM   10  C9  UNL     1       0.110  -1.597   0.218  1.00  0.00     0.108 A 
HETATM   11  C10 UNL     1       1.430  -1.844   0.366  1.00  0.00     0.152 A 
HETATM   12  C11 UNL     1       2.294  -0.785   0.453  1.00  0.00     0.238 A 
HETATM   13  C12 UNL     1       1.779   0.475   0.372  1.00  0.00     0.138 A 
HETATM   14  N2  UNL     1       2.451   1.552   0.431  1.00  0.00    -0.239 NA
HETATM   15  C13 UNL     1       1.862   2.675   0.345  1.00  0.00     0.099 A 
HETATM   16  C14 UNL     1       0.536   2.853   0.192  1.00  0.00     0.022 A 
HETATM   17  O1  UNL     1       3.485  -0.947   0.604  1.00  0.00    -0.283 OA
ENDROOT
BRANCH  11  18
HETATM   18  O2  UNL     1       1.865  -3.145   0.465  1.00  0.00    -0.323 OA
HETATM   19  C15 UNL     1       2.863  -3.559  -0.441  1.00  0.00     0.182 C 
ENDBRANCH  11  18
TORSDOF 1
