REMARK  5 active torsions:
REMARK  status: ('A' for Active; 'I' for Inactive)
REMARK    1  A    between atoms: C7_7  and  C14_16 
REMARK    2  A    between atoms: C10_10  and  O1_11 
REMARK    3  A    between atoms: O1_11  and  C11_12 
REMARK    4  A    between atoms: C14_16  and  C15_17 
REMARK    5  A    between atoms: C15_17  and  C16_18 
ROOT
HETATM    1  C1  UNL     1      -1.885   0.683   2.383  1.00  0.00     0.001 C 
HETATM    2  C2  UNL     1      -2.502  -0.720   2.447  1.00  0.00     0.009 C 
HETATM    3  C3  UNL     1      -2.025  -1.660   1.307  1.00  0.00     0.081 C 
HETATM    4  C4  UNL     1      -1.468  -0.823   0.141  1.00  0.00     0.042 C 
HETATM    5  C5  UNL     1      -0.159  -0.161   0.628  1.00  0.00     0.057 C 
HETATM    6  C6  UNL     1      -0.413   0.598   1.971  1.00  0.00     0.005 C 
HETATM    7  C7  UNL     1       0.392   0.811  -0.462  1.00  0.00     0.129 C 
HETATM    8  C8  UNL     1       0.491   0.127  -1.849  1.00  0.00     0.031 C 
HETATM    9  C9  UNL     1      -0.835  -0.532  -2.270  1.00  0.00     0.033 C 
HETATM   10  C10 UNL     1      -1.390  -1.510  -1.233  1.00  0.00     0.125 C 
HETATM   11  C13 UNL     1       0.957   1.065  -2.982  1.00  0.00     0.003 C 
HETATM   12  O4  UNL     1      -0.553   1.844  -0.600  1.00  0.00    -0.226 OA
HETATM   13  C20 UNL     1       0.840  -1.287   0.936  1.00  0.00     0.154 C 
HETATM   14  O5  UNL     1       0.333  -2.341   1.711  1.00  0.00    -0.302 OA
HETATM   15  C21 UNL     1      -0.983  -2.612   1.903  1.00  0.00     0.271 C 
HETATM   16  O6  UNL     1      -1.332  -3.566   2.568  1.00  0.00    -0.264 OA
HETATM   17  C22 UNL     1      -3.238  -2.514   0.873  1.00  0.00     0.010 C 
ENDROOT
BRANCH   7  18
HETATM   18  C14 UNL     1       1.749   1.436  -0.054  1.00  0.00     0.035 C 
BRANCH  18  19
HETATM   19  C15 UNL     1       1.902   2.952  -0.277  1.00  0.00     0.031 C 
BRANCH  19  20
HETATM   20  C16 UNL     1       3.211   3.470   0.246  1.00  0.00     0.005 A 
HETATM   21  C17 UNL     1       4.446   3.030  -0.029  1.00  0.00     0.118 A 
HETATM   22  O3  UNL     1       5.305   3.668   0.578  1.00  0.00    -0.303 OA
HETATM   23  C18 UNL     1       4.739   4.525   1.255  1.00  0.00     0.122 A 
HETATM   24  C19 UNL     1       3.409   4.476   1.111  1.00  0.00     0.025 A 
ENDBRANCH  19  20
ENDBRANCH  18  19
ENDBRANCH   7  18
BRANCH  10  25
HETATM   25  O1  UNL     1      -0.600  -2.659  -1.167  1.00  0.00    -0.304 OA
BRANCH  25  26
HETATM   26  C11 UNL     1      -0.822  -3.793  -1.892  1.00  0.00     0.272 C 
HETATM   27  O2  UNL     1      -0.084  -4.752  -1.813  1.00  0.00    -0.264 OA
HETATM   28  C12 UNL     1      -2.036  -3.814  -2.803  1.00  0.00     0.106 C 
ENDBRANCH  25  26
ENDBRANCH  10  25
TORSDOF 5
