REMARK  3 active torsions:
REMARK  status: ('A' for Active; 'I' for Inactive)
REMARK    1  A    between atoms: C16_18  and  O4_27 
REMARK    2  A    between atoms: C17_19  and  C19_22 
REMARK    3  A    between atoms: C19_22  and  C20_23 
ROOT
HETATM    1  C1  UNL     1       4.126  -1.743   0.417  1.00  0.00     0.120 A 
HETATM    2  C2  UNL     1       3.579  -2.972   0.366  1.00  0.00     0.155 A 
HETATM    3  C3  UNL     1       2.250  -3.084   0.307  1.00  0.00     0.054 A 
HETATM    4  C4  UNL     1       1.435  -2.020   0.285  1.00  0.00     0.105 A 
HETATM    5  C5  UNL     1       1.970  -0.781   0.303  1.00  0.00     0.064 A 
HETATM    6  C6  UNL     1       3.327  -0.646   0.363  1.00  0.00     0.029 A 
HETATM    7  C7  UNL     1       3.991   0.529   0.431  1.00  0.00    -0.000 C 
HETATM    8  C8  UNL     1       5.324   0.625   0.342  1.00  0.00     0.001 C 
HETATM    9  C9  UNL     1       6.158  -0.581   0.041  1.00  0.00     0.117 C 
HETATM   10  O1  UNL     1       5.497  -1.717   0.503  1.00  0.00    -0.330 OA
HETATM   11  C10 UNL     1       7.511  -0.498   0.753  1.00  0.00     0.035 C 
HETATM   12  C11 UNL     1       6.357  -0.701  -1.474  1.00  0.00     0.035 C 
HETATM   13  C12 UNL     1       1.087   0.269   0.258  1.00  0.00     0.201 A 
HETATM   14  C13 UNL     1      -0.267   0.064   0.242  1.00  0.00     0.087 A 
HETATM   15  C14 UNL     1      -0.724  -1.199   0.241  1.00  0.00     0.107 A 
HETATM   16  O2  UNL     1       0.100  -2.276   0.231  1.00  0.00    -0.307 OA
HETATM   17  C15 UNL     1      -2.049  -1.409   0.250  1.00  0.00     0.049 A 
HETATM   18  C16 UNL     1      -2.961  -0.423   0.257  1.00  0.00     0.094 A 
HETATM   19  C17 UNL     1      -2.481   0.840   0.251  1.00  0.00     0.030 A 
HETATM   20  C18 UNL     1      -1.151   1.092   0.239  1.00  0.00     0.134 A 
HETATM   21  O3  UNL     1      -0.727   2.390   0.246  1.00  0.00    -0.190 OA
HETATM   22  O5  UNL     1       1.477   1.412   0.232  1.00  0.00    -0.286 OA
HETATM   23  O6  UNL     1       4.364  -4.085   0.399  1.00  0.00    -0.188 OA
ENDROOT
BRANCH  19  24
HETATM   24  C19 UNL     1      -3.509   1.968   0.283  1.00  0.00     0.056 C 
BRANCH  24  25
HETATM   25  C20 UNL     1      -4.481   1.898  -0.870  1.00  0.00    -0.030 C 
HETATM   26  C21 UNL     1      -5.784   2.230  -0.834  1.00  0.00    -0.048 C 
HETATM   27  C22 UNL     1      -6.666   2.077  -2.051  1.00  0.00     0.026 C 
HETATM   28  C23 UNL     1      -6.499   2.768   0.383  1.00  0.00     0.026 C 
ENDBRANCH  24  25
ENDBRANCH  19  24
BRANCH  18  29
HETATM   29  O4  UNL     1      -4.321  -0.633   0.294  1.00  0.00    -0.328 OA
HETATM   30  C24 UNL     1      -4.817  -1.942   0.450  1.00  0.00     0.181 C 
ENDBRANCH  18  29
TORSDOF 3
