REMARK  4 active torsions:
REMARK  status: ('A' for Active; 'I' for Inactive)
REMARK    1  A    between atoms: C2_2  and  O7_28 
REMARK    2  A    between atoms: C3_3  and  O6_26 
REMARK    3  A    between atoms: C10_11  and  O4_23 
REMARK    4  A    between atoms: C13_14  and  O2_15 
ROOT
HETATM    1  C1  UNL     1      -4.633  -0.767  -0.798  1.00  0.00     0.026 A 
HETATM    2  C2  UNL     1      -4.655   0.396  -0.120  1.00  0.00     0.118 A 
HETATM    3  C3  UNL     1      -3.457   0.935   0.227  1.00  0.00     0.139 A 
HETATM    4  C4  UNL     1      -2.307   0.283  -0.079  1.00  0.00     0.127 A 
HETATM    5  C5  UNL     1      -2.315  -0.881  -0.746  1.00  0.00     0.064 A 
HETATM    6  C6  UNL     1      -3.497  -1.402  -1.112  1.00  0.00     0.007 A 
HETATM    7  C7  UNL     1      -1.151  -1.528  -1.040  1.00  0.00     0.201 A 
HETATM    8  C8  UNL     1       0.044  -1.007  -0.623  1.00  0.00     0.086 A 
HETATM    9  C9  UNL     1       0.020   0.162   0.047  1.00  0.00     0.129 A 
HETATM   10  O1  UNL     1      -1.129   0.852   0.299  1.00  0.00    -0.303 OA
HETATM   11  C10 UNL     1       1.163   0.687   0.535  1.00  0.00     0.139 A 
HETATM   12  C11 UNL     1       2.346   0.080   0.314  1.00  0.00     0.120 A 
HETATM   13  C12 UNL     1       2.357  -1.081  -0.371  1.00  0.00     0.046 A 
HETATM   14  C13 UNL     1       1.224  -1.627  -0.878  1.00  0.00     0.101 A 
HETATM   15  C15 UNL     1       3.543  -1.704  -0.519  1.00  0.00     0.002 C 
HETATM   16  C16 UNL     1       4.689  -1.146  -0.113  1.00  0.00     0.001 C 
HETATM   17  C17 UNL     1       4.730   0.250   0.438  1.00  0.00     0.117 C 
HETATM   18  O3  UNL     1       3.463   0.683   0.839  1.00  0.00    -0.330 OA
HETATM   19  C18 UNL     1       5.649   0.301   1.663  1.00  0.00     0.035 C 
HETATM   20  C19 UNL     1       5.245   1.196  -0.652  1.00  0.00     0.035 C 
HETATM   21  O5  UNL     1      -1.234  -2.565  -1.661  1.00  0.00    -0.286 OA
ENDROOT
BRANCH   2  22
HETATM   22  O7  UNL     1      -5.829   1.040   0.193  1.00  0.00    -0.326 OA
HETATM   23  C22 UNL     1      -7.064   0.501  -0.216  1.00  0.00     0.181 C 
ENDBRANCH   2  22
BRANCH   3  24
HETATM   24  O6  UNL     1      -3.280   2.112   0.929  1.00  0.00    -0.324 OA
HETATM   25  C21 UNL     1      -4.329   2.723   1.640  1.00  0.00     0.182 C 
ENDBRANCH   3  24
BRANCH  11  26
HETATM   26  O4  UNL     1       1.127   1.902   1.182  1.00  0.00    -0.324 OA
HETATM   27  C20 UNL     1       0.982   1.804   2.581  1.00  0.00     0.182 C 
ENDBRANCH  11  26
BRANCH  14  28
HETATM   28  O2  UNL     1       1.289  -2.848  -1.514  1.00  0.00    -0.328 OA
HETATM   29  C14 UNL     1       1.483  -2.763  -2.910  1.00  0.00     0.181 C 
ENDBRANCH  14  28
TORSDOF 4
