REMARK  7 active torsions:
REMARK  status: ('A' for Active; 'I' for Inactive)
REMARK    1  A    between atoms: C3_3  and  O3_9 
REMARK    2  A    between atoms: O3_9  and  C7_10 
REMARK    3  A    between atoms: C9_12  and  O4_13 
REMARK    4  A    between atoms: O4_13  and  C10_14 
REMARK    5  A    between atoms: C16_24  and  O10_29 
REMARK    6  A    between atoms: C18_26  and  C19_27 
REMARK    7  A    between atoms: O10_29  and  C20_30 
ROOT
HETATM    1  C7  UNL     1      -3.306  -0.117   1.092  1.00  0.00     0.153 C 
HETATM    2  C8  UNL     1      -3.096  -1.543   0.576  1.00  0.00     0.209 C 
HETATM    3  C9  UNL     1      -2.655  -1.630  -0.887  1.00  0.00     0.178 C 
HETATM    4  C16 UNL     1      -1.417  -0.770  -1.153  1.00  0.00     0.145 C 
HETATM    5  C17 UNL     1      -1.631   0.668  -0.675  1.00  0.00     0.037 C 
HETATM    6  C18 UNL     1      -2.138   0.828   0.768  1.00  0.00     0.066 C 
HETATM    7  O13 UNL     1      -2.188  -2.231   1.405  1.00  0.00    -0.218 OA
ENDROOT
BRANCH   4   8
HETATM    8  O10 UNL     1      -0.294  -1.321  -0.510  1.00  0.00    -0.356 OA
BRANCH   8   9
HETATM    9  C20 UNL     1       0.578  -2.039  -1.346  1.00  0.00     0.119 C 
HETATM   10  C21 UNL     1       1.428  -3.019  -0.523  1.00  0.00     0.051 C 
HETATM   11  C22 UNL     1       2.816  -2.509  -0.174  1.00  0.00    -0.047 C 
HETATM   12  C23 UNL     1       2.965  -1.019   0.101  1.00  0.00     0.015 C 
HETATM   13  C29 UNL     1       3.836  -3.374  -0.036  1.00  0.00    -0.035 C 
HETATM   14  C24 UNL     1       2.329  -0.231  -1.077  1.00  0.00     0.006 C 
HETATM   15  C26 UNL     1       4.464  -0.611   0.239  1.00  0.00     0.004 C 
HETATM   16  C41 UNL     1       2.213  -0.756   1.427  1.00  0.00     0.004 C 
HETATM   17  C25 UNL     1       1.524  -1.085  -2.071  1.00  0.00     0.030 C 
HETATM   18  C27 UNL     1       5.246  -1.632   1.097  1.00  0.00     0.005 C 
HETATM   19  C33 UNL     1       4.667   0.861   0.670  1.00  0.00     0.000 C 
HETATM   20  C28 UNL     1       5.228  -2.994   0.389  1.00  0.00     0.025 C 
HETATM   21  C30 UNL     1       6.678  -1.143   1.345  1.00  0.00     0.003 C 
HETATM   22  C31 UNL     1       6.740   0.259   1.989  1.00  0.00     0.003 C 
HETATM   23  C36 UNL     1       7.598  -1.981   2.240  1.00  0.00     0.030 C 
HETATM   24  C32 UNL     1       6.130   1.235   0.969  1.00  0.00     0.000 C 
HETATM   25  C34 UNL     1       8.272   0.400   2.161  1.00  0.00     0.037 C 
HETATM   26  C40 UNL     1       5.991   0.354   3.339  1.00  0.00     0.000 C 
HETATM   27  C35 UNL     1       8.737  -1.004   2.562  1.00  0.00     0.125 C 
HETATM   28  C38 UNL     1       8.810   1.278   3.290  1.00  0.00     0.089 C 
HETATM   29  O11 UNL     1       9.033  -0.973   3.927  1.00  0.00    -0.304 OA
HETATM   30  C37 UNL     1       9.059   0.294   4.416  1.00  0.00     0.271 C 
HETATM   31  O12 UNL     1       9.278   0.586   5.571  1.00  0.00    -0.264 OA
HETATM   32  C39 UNL     1      10.114   1.996   2.913  1.00  0.00     0.011 C 
ENDBRANCH   8   9
ENDBRANCH   4   8
BRANCH   3  33
HETATM   33  O4  UNL     1      -3.765  -1.257  -1.662  1.00  0.00    -0.326 OA
BRANCH  33  34
HETATM   34  C10 UNL     1      -3.660  -1.439  -3.059  1.00  0.00     0.270 C 
HETATM   35  C11 UNL     1      -4.983  -1.909  -3.630  1.00  0.00     0.241 C 
HETATM   36  C12 UNL     1      -6.043  -0.836  -3.520  1.00  0.00     0.220 C 
HETATM   37  O8  UNL     1      -4.840  -2.234  -4.992  1.00  0.00    -0.215 OA
HETATM   38  C13 UNL     1      -5.535   0.482  -4.070  1.00  0.00     0.212 C 
HETATM   39  O7  UNL     1      -7.179  -1.217  -4.257  1.00  0.00    -0.218 OA
HETATM   40  C14 UNL     1      -4.185   0.841  -3.475  1.00  0.00     0.151 C 
HETATM   41  O6  UNL     1      -6.481   1.478  -3.757  1.00  0.00    -0.218 OA
HETATM   42  O5  UNL     1      -3.265  -0.208  -3.629  1.00  0.00    -0.329 OA
HETATM   43  C15 UNL     1      -3.584   2.087  -4.128  1.00  0.00     0.035 C 
ENDBRANCH  33  34
ENDBRANCH   3  33
BRANCH   6  44
HETATM   44  C19 UNL     1      -1.013   0.761   1.801  1.00  0.00     0.185 C 
HETATM   45  O9  UNL     1      -1.477   1.228   3.052  1.00  0.00    -0.221 OA
ENDBRANCH   6  44
BRANCH   1  46
HETATM   46  O3  UNL     1      -4.493   0.380   0.522  1.00  0.00    -0.329 OA
BRANCH  46  47
HETATM   47  C3  UNL     1      -5.424   0.946   1.424  1.00  0.00     0.270 C 
HETATM   48  C2  UNL     1      -5.226   2.429   1.651  1.00  0.00     0.241 C 
HETATM   49  C1  UNL     1      -5.440   3.191   0.355  1.00  0.00     0.220 C 
HETATM   50  O14 UNL     1      -6.157   2.838   2.630  1.00  0.00    -0.215 OA
HETATM   51  C5  UNL     1      -6.768   2.815  -0.272  1.00  0.00     0.212 C 
HETATM   52  O15 UNL     1      -5.423   4.580   0.574  1.00  0.00    -0.218 OA
HETATM   53  C4  UNL     1      -6.920   1.307  -0.370  1.00  0.00     0.151 C 
HETATM   54  O2  UNL     1      -6.836   3.406  -1.551  1.00  0.00    -0.218 OA
HETATM   55  O1  UNL     1      -6.701   0.693   0.871  1.00  0.00    -0.329 OA
HETATM   56  C6  UNL     1      -8.311   0.905  -0.863  1.00  0.00     0.035 C 
ENDBRANCH  46  47
ENDBRANCH   1  46
TORSDOF 7
