REMARK  4 active torsions:
REMARK  status: ('A' for Active; 'I' for Inactive)
REMARK    1  A    between atoms: C16_17  and  C19_20 
REMARK    2  A    between atoms: C19_20  and  C21_22 
REMARK    3  A    between atoms: C21_22  and  C22_23 
REMARK    4  A    between atoms: C22_23  and  C23_24 
ROOT
HETATM    1  C1  UNL     1      -1.276  -1.762   4.458  1.00  0.00     0.097 C 
HETATM    2  C2  UNL     1      -1.768  -3.166   4.169  1.00  0.00     0.152 C 
HETATM    3  C3  UNL     1      -1.303  -3.884   2.898  1.00  0.00     0.052 C 
HETATM    4  C4  UNL     1       0.153  -3.488   2.506  1.00  0.00     0.013 C 
HETATM    5  C5  UNL     1       0.620  -2.025   2.760  1.00  0.00     0.033 C 
HETATM    6  C6  UNL     1       0.217  -1.624   4.194  1.00  0.00     0.160 C 
HETATM    7  O1  UNL     1       0.885  -2.436   5.135  1.00  0.00    -0.223 OA
HETATM    8  C7  UNL     1       0.015  -1.075   1.686  1.00  0.00     0.020 C 
HETATM    9  C8  UNL     1       0.184  -1.605   0.273  1.00  0.00    -0.049 C 
HETATM   10  C9  UNL     1       0.416  -2.905   0.034  1.00  0.00    -0.035 C 
HETATM   11  C10 UNL     1       0.572  -3.954   1.098  1.00  0.00     0.026 C 
HETATM   12  C11 UNL     1       0.209  -0.591  -0.859  1.00  0.00     0.015 C 
HETATM   13  C12 UNL     1      -0.713   0.622  -0.550  1.00  0.00     0.003 C 
HETATM   14  C13 UNL     1      -0.188   1.328   0.718  1.00  0.00     0.001 C 
HETATM   15  C14 UNL     1       0.443   0.402   1.782  1.00  0.00     0.004 C 
HETATM   16  C15 UNL     1      -2.201   0.223  -0.357  1.00  0.00     0.000 C 
HETATM   17  C16 UNL     1      -0.612   1.424  -1.878  1.00  0.00     0.000 C 
HETATM   18  C17 UNL     1      -0.651   0.303  -2.950  1.00  0.00     0.000 C 
HETATM   19  C18 UNL     1      -0.328  -1.030  -2.236  1.00  0.00     0.004 C 
HETATM   20  C27 UNL     1       1.709  -0.263  -1.088  1.00  0.00     0.004 C 
HETATM   21  C28 UNL     1       2.168  -1.948   2.670  1.00  0.00     0.003 C 
HETATM   22  C29 UNL     1      -1.360  -5.406   3.198  1.00  0.00     0.007 C 
HETATM   23  C30 UNL     1      -2.369  -3.604   1.818  1.00  0.00     0.007 C 
HETATM   24  O4  UNL     1      -2.581  -3.661   4.919  1.00  0.00    -0.296 OA
ENDROOT
BRANCH  17  25
HETATM   25  C19 UNL     1      -1.589   2.587  -2.159  1.00  0.00     0.003 C 
HETATM   26  C20 UNL     1      -1.644   3.622  -1.018  1.00  0.00     0.000 C 
BRANCH  25  27
HETATM   27  C21 UNL     1      -1.353   3.281  -3.526  1.00  0.00     0.036 C 
BRANCH  27  28
HETATM   28  C22 UNL     1       0.078   3.659  -3.937  1.00  0.00     0.181 C 
HETATM   29  O3  UNL     1      -0.007   4.429  -5.129  1.00  0.00    -0.221 OA
BRANCH  28  30
HETATM   30  C23 UNL     1       0.892   4.439  -2.909  1.00  0.00     0.170 A 
HETATM   31  C24 UNL     1       2.188   3.944  -2.505  1.00  0.00     0.120 A 
HETATM   32  C25 UNL     1       2.660   4.301  -1.107  1.00  0.00     0.032 C 
HETATM   33  C26 UNL     1       3.044   2.945  -3.268  1.00  0.00     0.032 C 
HETATM   34  O2  UNL     1       1.940   5.184  -3.479  1.00  0.00    -0.354 OA
ENDBRANCH  28  30
ENDBRANCH  27  28
ENDBRANCH  25  27
ENDBRANCH  17  25
TORSDOF 4
