REMARK  5 active torsions:
REMARK  status: ('A' for Active; 'I' for Inactive)
REMARK    1  A    between atoms: C3_3  and  C29_30 
REMARK    2  A    between atoms: C16_16  and  C19_19 
REMARK    3  A    between atoms: C19_19  and  C21_21 
REMARK    4  A    between atoms: C21_21  and  C22_22 
REMARK    5  A    between atoms: C22_22  and  C23_24 
ROOT
HETATM    1  C1  UNL     1      -4.670   0.087   0.088  1.00  0.00     0.033 C 
HETATM    2  C2  UNL     1      -4.692  -1.335  -0.465  1.00  0.00     0.154 C 
HETATM    3  C3  UNL     1      -3.375  -2.130  -0.283  1.00  0.00     0.059 C 
HETATM    4  C4  UNL     1      -2.897  -1.969   1.206  1.00  0.00     0.009 C 
HETATM    5  C5  UNL     1      -2.912  -0.544   1.844  1.00  0.00     0.004 C 
HETATM    6  C6  UNL     1      -4.293   0.092   1.571  1.00  0.00     0.003 C 
HETATM    7  C7  UNL     1      -1.737   0.291   1.277  1.00  0.00     0.018 C 
HETATM    8  C8  UNL     1      -0.420  -0.447   1.389  1.00  0.00    -0.049 C 
HETATM    9  C9  UNL     1      -0.366  -1.782   1.504  1.00  0.00    -0.035 C 
HETATM   10  C10 UNL     1      -1.572  -2.675   1.551  1.00  0.00     0.025 C 
HETATM   11  C11 UNL     1       0.830   0.404   1.425  1.00  0.00     0.015 C 
HETATM   12  C12 UNL     1       0.671   1.639   0.488  1.00  0.00     0.003 C 
HETATM   13  C13 UNL     1      -0.390   2.555   1.138  1.00  0.00     0.001 C 
HETATM   14  C14 UNL     1      -1.637   1.786   1.664  1.00  0.00     0.004 C 
HETATM   15  C15 UNL     1       0.164   1.304  -0.933  1.00  0.00     0.000 C 
HETATM   16  C16 UNL     1       2.135   2.170   0.419  1.00  0.00     0.000 C 
HETATM   17  C17 UNL     1       3.046   0.943   0.618  1.00  0.00     0.000 C 
HETATM   18  C18 UNL     1       2.119  -0.249   0.893  1.00  0.00     0.004 C 
HETATM   19  C27 UNL     1       1.093   0.702   2.926  1.00  0.00     0.004 C 
HETATM   20  C28 UNL     1      -2.764  -0.633   3.385  1.00  0.00     0.000 C 
HETATM   21  C30 UNL     1      -2.348  -1.692  -1.354  1.00  0.00     0.005 C 
HETATM   22  O3  UNL     1      -5.056  -1.252  -1.826  1.00  0.00    -0.223 OA
ENDROOT
BRANCH  16  23
HETATM   23  C19 UNL     1       2.635   3.228  -0.605  1.00  0.00     0.003 C 
HETATM   24  C20 UNL     1       3.874   3.941  -0.007  1.00  0.00     0.000 C 
BRANCH  23  25
HETATM   25  C21 UNL     1       2.893   2.940  -2.116  1.00  0.00     0.037 C 
BRANCH  25  26
HETATM   26  C22 UNL     1       3.759   1.779  -2.638  1.00  0.00     0.174 C 
HETATM   27  O1  UNL     1       5.002   1.751  -1.967  1.00  0.00    -0.219 OA
BRANCH  26  28
HETATM   28  C23 UNL     1       3.046   0.448  -2.667  1.00  0.00    -0.002 C 
HETATM   29  C24 UNL     1       3.528  -0.801  -2.534  1.00  0.00    -0.045 C 
HETATM   30  C25 UNL     1       2.586  -1.988  -2.533  1.00  0.00     0.026 C 
HETATM   31  C26 UNL     1       4.977  -1.180  -2.357  1.00  0.00     0.026 C 
ENDBRANCH  26  28
ENDBRANCH  25  26
ENDBRANCH  23  25
ENDBRANCH  16  23
BRANCH   3  32
HETATM   32  C29 UNL     1      -3.726  -3.618  -0.573  1.00  0.00     0.185 C 
HETATM   33  O2  UNL     1      -2.605  -4.390  -0.960  1.00  0.00    -0.221 OA
ENDBRANCH   3  32
TORSDOF 5
