REMARK  4 active torsions:
REMARK  status: ('A' for Active; 'I' for Inactive)
REMARK    1  A    between atoms: C16_16  and  C19_19 
REMARK    2  A    between atoms: C19_19  and  C21_21 
REMARK    3  A    between atoms: C21_21  and  C22_22 
REMARK    4  A    between atoms: C23_23  and  C24_24 
ROOT
HETATM    1  C1  UNL     1      -5.247  -0.012   0.236  1.00  0.00     0.065 C 
HETATM    2  C2  UNL     1      -5.307  -1.449  -0.243  1.00  0.00     0.150 C 
HETATM    3  C3  UNL     1      -4.126  -2.378   0.057  1.00  0.00     0.052 C 
HETATM    4  C4  UNL     1      -3.545  -2.097   1.478  1.00  0.00     0.011 C 
HETATM    5  C5  UNL     1      -3.448  -0.622   1.966  1.00  0.00     0.004 C 
HETATM    6  C6  UNL     1      -4.806   0.063   1.698  1.00  0.00     0.008 C 
HETATM    7  C7  UNL     1      -2.257   0.091   1.272  1.00  0.00     0.018 C 
HETATM    8  C8  UNL     1      -0.974  -0.712   1.400  1.00  0.00    -0.049 C 
HETATM    9  C9  UNL     1      -0.992  -2.036   1.616  1.00  0.00    -0.035 C 
HETATM   10  C10 UNL     1      -2.240  -2.856   1.788  1.00  0.00     0.026 C 
HETATM   11  C11 UNL     1       0.334   0.057   1.365  1.00  0.00     0.015 C 
HETATM   12  C12 UNL     1       0.222   1.251   0.376  1.00  0.00     0.003 C 
HETATM   13  C13 UNL     1      -0.832   2.243   0.913  1.00  0.00     0.001 C 
HETATM   14  C14 UNL     1      -2.050   1.582   1.604  1.00  0.00     0.004 C 
HETATM   15  C15 UNL     1      -0.151   0.804  -1.059  1.00  0.00     0.000 C 
HETATM   16  C16 UNL     1       1.685   1.767   0.339  1.00  0.00     0.003 C 
HETATM   17  C17 UNL     1       2.520   0.468   0.364  1.00  0.00     0.000 C 
HETATM   18  C18 UNL     1       1.580  -0.670   0.822  1.00  0.00     0.004 C 
HETATM   19  C27 UNL     1       0.666   0.395   2.844  1.00  0.00     0.004 C 
HETATM   20  C28 UNL     1      -3.234  -0.590   3.503  1.00  0.00     0.000 C 
HETATM   21  C29 UNL     1      -4.662  -3.834  -0.006  1.00  0.00     0.007 C 
HETATM   22  C30 UNL     1      -3.132  -2.224  -1.114  1.00  0.00     0.007 C 
HETATM   23  O3  UNL     1      -6.253  -1.814  -0.906  1.00  0.00    -0.296 OA
ENDROOT
BRANCH  16  24
HETATM   24  C19 UNL     1       2.092   2.945  -0.592  1.00  0.00     0.035 C 
HETATM   25  C20 UNL     1       3.097   3.855   0.159  1.00  0.00     0.003 C 
BRANCH  24  26
HETATM   26  C21 UNL     1       2.646   2.706  -2.013  1.00  0.00     0.174 C 
HETATM   27  O2  UNL     1       1.619   2.367  -2.924  1.00  0.00    -0.219 OA
BRANCH  26  28
HETATM   28  C22 UNL     1       3.815   1.761  -2.129  1.00  0.00     0.004 C 
HETATM   29  C23 UNL     1       3.805   0.618  -2.835  1.00  0.00     0.001 C 
BRANCH  29  30
HETATM   30  C24 UNL     1       4.910  -0.420  -2.873  1.00  0.00     0.145 C 
HETATM   31  C25 UNL     1       5.484  -0.500  -4.288  1.00  0.00     0.038 C 
HETATM   32  C26 UNL     1       6.026  -0.198  -1.851  1.00  0.00     0.038 C 
HETATM   33  O1  UNL     1       4.332  -1.676  -2.574  1.00  0.00    -0.222 OA
ENDBRANCH  29  30
ENDBRANCH  26  28
ENDBRANCH  24  26
ENDBRANCH  16  24
TORSDOF 4
