REMARK  4 active torsions:
REMARK  status: ('A' for Active; 'I' for Inactive)
REMARK    1  A    between atoms: C16_17  and  C19_20 
REMARK    2  A    between atoms: C19_20  and  C21_22 
REMARK    3  A    between atoms: C21_22  and  C22_23 
REMARK    4  A    between atoms: C22_23  and  C23_24 
ROOT
HETATM    1  C1  UNL     1      -4.658   0.328  -1.010  1.00  0.00     0.065 C 
HETATM    2  C2  UNL     1      -4.838  -1.131  -1.365  1.00  0.00     0.150 C 
HETATM    3  C3  UNL     1      -3.923  -2.133  -0.657  1.00  0.00     0.052 C 
HETATM    4  C4  UNL     1      -3.815  -1.799   0.863  1.00  0.00     0.013 C 
HETATM    5  C5  UNL     1      -3.766  -0.307   1.297  1.00  0.00     0.015 C 
HETATM    6  C6  UNL     1      -4.828   0.482   0.499  1.00  0.00     0.011 C 
HETATM    7  C7  UNL     1      -2.354   0.274   1.224  1.00  0.00    -0.050 C 
HETATM    8  C8  UNL     1      -1.270  -0.505   1.432  1.00  0.00    -0.023 C 
HETATM    9  C9  UNL     1      -1.357  -1.998   1.667  1.00  0.00     0.170 C 
HETATM   10  C10 UNL     1      -2.761  -2.603   1.645  1.00  0.00     0.038 C 
HETATM   11  O1  UNL     1      -0.545  -2.700   0.744  1.00  0.00    -0.219 OA
HETATM   12  C11 UNL     1       0.059   0.180   1.698  1.00  0.00     0.017 C 
HETATM   13  C12 UNL     1       0.238   1.395   0.742  1.00  0.00     0.004 C 
HETATM   14  C13 UNL     1      -0.824   2.421   1.164  1.00  0.00     0.005 C 
HETATM   15  C14 UNL     1      -2.234   1.794   1.111  1.00  0.00     0.021 C 
HETATM   16  C15 UNL     1      -0.025   1.062  -0.742  1.00  0.00     0.000 C 
HETATM   17  C16 UNL     1       1.721   1.808   0.966  1.00  0.00     0.000 C 
HETATM   18  C17 UNL     1       2.440   0.544   1.483  1.00  0.00     0.000 C 
HETATM   19  C18 UNL     1       1.381  -0.570   1.461  1.00  0.00     0.004 C 
HETATM   20  C27 UNL     1      -0.004   0.520   3.215  1.00  0.00     0.004 C 
HETATM   21  C28 UNL     1      -4.167  -0.172   2.794  1.00  0.00     0.004 C 
HETATM   22  C29 UNL     1      -4.535  -3.543  -0.864  1.00  0.00     0.007 C 
HETATM   23  C30 UNL     1      -2.595  -2.103  -1.431  1.00  0.00     0.007 C 
HETATM   24  O3  UNL     1      -5.644  -1.456  -2.209  1.00  0.00    -0.296 OA
ENDROOT
BRANCH  17  25
HETATM   25  C19 UNL     1       2.497   2.675  -0.061  1.00  0.00     0.003 C 
HETATM   26  C20 UNL     1       3.722   3.313   0.638  1.00  0.00     0.000 C 
BRANCH  25  27
HETATM   27  C21 UNL     1       2.934   2.144  -1.455  1.00  0.00     0.037 C 
BRANCH  27  28
HETATM   28  C22 UNL     1       3.877   0.940  -1.563  1.00  0.00     0.174 C 
HETATM   29  O2  UNL     1       3.128  -0.261  -1.466  1.00  0.00    -0.219 OA
BRANCH  28  30
HETATM   30  C23 UNL     1       4.642   0.870  -2.867  1.00  0.00    -0.002 C 
HETATM   31  C24 UNL     1       5.540  -0.083  -3.178  1.00  0.00    -0.045 C 
HETATM   32  C25 UNL     1       6.235  -0.103  -4.520  1.00  0.00     0.026 C 
HETATM   33  C26 UNL     1       5.938  -1.214  -2.258  1.00  0.00     0.026 C 
ENDBRANCH  28  30
ENDBRANCH  27  28
ENDBRANCH  25  27
ENDBRANCH  17  25
TORSDOF 4
