REMARK  5 active torsions:
REMARK  status: ('A' for Active; 'I' for Inactive)
REMARK    1  A    between atoms: C3_3  and  C30_33 
REMARK    2  A    between atoms: C16_17  and  C19_20 
REMARK    3  A    between atoms: C19_20  and  C21_22 
REMARK    4  A    between atoms: C21_22  and  C22_23 
REMARK    5  A    between atoms: C22_23  and  C23_24 
ROOT
HETATM    1  C1  UNL     1      -2.872   0.240   4.075  1.00  0.00     0.097 C 
HETATM    2  C2  UNL     1      -2.623  -1.177   4.548  1.00  0.00     0.155 C 
HETATM    3  C3  UNL     1      -1.330  -1.907   4.151  1.00  0.00     0.083 C 
HETATM    4  C4  UNL     1      -0.130  -0.911   4.061  1.00  0.00     0.016 C 
HETATM    5  C5  UNL     1      -0.390   0.530   3.521  1.00  0.00     0.033 C 
HETATM    6  C6  UNL     1      -1.632   1.107   4.231  1.00  0.00     0.160 C 
HETATM    7  O1  UNL     1      -1.387   1.237   5.614  1.00  0.00    -0.223 OA
HETATM    8  C7  UNL     1      -0.562   0.527   1.973  1.00  0.00     0.020 C 
HETATM    9  C8  UNL     1       0.437  -0.358   1.256  1.00  0.00    -0.049 C 
HETATM   10  C9  UNL     1       1.186  -1.257   1.912  1.00  0.00    -0.035 C 
HETATM   11  C10 UNL     1       1.133  -1.485   3.392  1.00  0.00     0.026 C 
HETATM   12  C11 UNL     1       0.669  -0.104  -0.223  1.00  0.00     0.015 C 
HETATM   13  C12 UNL     1      -0.589   0.492  -0.920  1.00  0.00     0.003 C 
HETATM   14  C13 UNL     1      -0.912   1.845  -0.247  1.00  0.00     0.001 C 
HETATM   15  C14 UNL     1      -0.639   1.901   1.277  1.00  0.00     0.004 C 
HETATM   16  C15 UNL     1      -1.853  -0.411  -0.886  1.00  0.00     0.000 C 
HETATM   17  C16 UNL     1      -0.108   0.517  -2.398  1.00  0.00     0.001 C 
HETATM   18  C17 UNL     1       0.621  -0.847  -2.524  1.00  0.00     0.000 C 
HETATM   19  C18 UNL     1       0.952  -1.337  -1.099  1.00  0.00     0.004 C 
HETATM   20  C27 UNL     1       1.954   0.770  -0.294  1.00  0.00     0.004 C 
HETATM   21  C28 UNL     1       0.815   1.444   3.871  1.00  0.00     0.003 C 
HETATM   22  C29 UNL     1      -1.645  -2.651   2.836  1.00  0.00     0.010 C 
HETATM   23  O5  UNL     1      -3.498  -1.728   5.180  1.00  0.00    -0.296 OA
ENDROOT
BRANCH  17  24
HETATM   24  C19 UNL     1      -1.091   0.788  -3.559  1.00  0.00     0.007 C 
HETATM   25  C20 UNL     1      -1.739   2.181  -3.477  1.00  0.00     0.000 C 
BRANCH  24  26
HETATM   26  C21 UNL     1      -0.441   0.604  -4.952  1.00  0.00     0.067 C 
BRANCH  26  27
HETATM   27  C22 UNL     1       0.587   1.653  -5.368  1.00  0.00     0.180 C 
HETATM   28  O3  UNL     1       0.248   2.520  -6.145  1.00  0.00    -0.293 OA
BRANCH  27  29
HETATM   29  C23 UNL     1       1.955   1.669  -4.826  1.00  0.00     0.197 A 
HETATM   30  C24 UNL     1       2.785   0.567  -5.232  1.00  0.00     0.125 A 
HETATM   31  C25 UNL     1       3.950   0.173  -4.338  1.00  0.00     0.033 C 
HETATM   32  C26 UNL     1       2.450  -0.378  -6.375  1.00  0.00     0.033 C 
HETATM   33  O2  UNL     1       2.917   2.069  -5.774  1.00  0.00    -0.349 OA
ENDBRANCH  27  29
ENDBRANCH  26  27
ENDBRANCH  24  26
ENDBRANCH  17  24
BRANCH   3  34
HETATM   34  C30 UNL     1      -1.114  -2.975   5.255  1.00  0.00     0.189 C 
HETATM   35  O4  UNL     1      -0.051  -3.857   4.968  1.00  0.00    -0.220 OA
ENDBRANCH   3  34
TORSDOF 5
