REMARK  5 active torsions:
REMARK  status: ('A' for Active; 'I' for Inactive)
REMARK    1  A    between atoms: C3_3  and  C30_32 
REMARK    2  A    between atoms: C16_16  and  C19_19 
REMARK    3  A    between atoms: C19_19  and  C21_21 
REMARK    4  A    between atoms: C21_21  and  C22_22 
REMARK    5  A    between atoms: C22_22  and  C23_24 
ROOT
HETATM    1  C1  UNL     1      -5.060   0.349   0.134  1.00  0.00     0.065 C 
HETATM    2  C2  UNL     1      -5.328  -1.023  -0.448  1.00  0.00     0.152 C 
HETATM    3  C3  UNL     1      -4.288  -2.142  -0.280  1.00  0.00     0.082 C 
HETATM    4  C4  UNL     1      -3.582  -2.039   1.109  1.00  0.00     0.014 C 
HETATM    5  C5  UNL     1      -3.268  -0.627   1.696  1.00  0.00     0.005 C 
HETATM    6  C6  UNL     1      -4.537   0.245   1.566  1.00  0.00     0.008 C 
HETATM    7  C7  UNL     1      -2.035   0.025   1.006  1.00  0.00     0.018 C 
HETATM    8  C8  UNL     1      -0.887  -0.946   0.795  1.00  0.00    -0.049 C 
HETATM    9  C9  UNL     1      -1.050  -2.271   0.916  1.00  0.00    -0.035 C 
HETATM   10  C10 UNL     1      -2.344  -2.940   1.276  1.00  0.00     0.026 C 
HETATM   11  C11 UNL     1       0.493  -0.360   0.542  1.00  0.00     0.015 C 
HETATM   12  C12 UNL     1       0.394   1.047  -0.107  1.00  0.00     0.003 C 
HETATM   13  C13 UNL     1      -0.321   1.986   0.882  1.00  0.00     0.001 C 
HETATM   14  C14 UNL     1      -1.513   1.339   1.627  1.00  0.00     0.004 C 
HETATM   15  C15 UNL     1      -0.356   1.020  -1.472  1.00  0.00     0.000 C 
HETATM   16  C16 UNL     1       1.887   1.366  -0.409  1.00  0.00     0.003 C 
HETATM   17  C17 UNL     1       2.380   0.002  -0.957  1.00  0.00     0.000 C 
HETATM   18  C18 UNL     1       1.382  -1.082  -0.487  1.00  0.00     0.004 C 
HETATM   19  C27 UNL     1       1.231  -0.432   1.906  1.00  0.00     0.004 C 
HETATM   20  C28 UNL     1      -2.986  -0.753   3.218  1.00  0.00     0.000 C 
HETATM   21  C29 UNL     1      -3.337  -2.028  -1.488  1.00  0.00     0.010 C 
HETATM   22  O4  UNL     1      -6.343  -1.189  -1.088  1.00  0.00    -0.296 OA
ENDROOT
BRANCH  16  23
HETATM   23  C19 UNL     1       2.184   2.662  -1.207  1.00  0.00     0.038 C 
HETATM   24  C20 UNL     1       2.425   3.872  -0.277  1.00  0.00     0.003 C 
BRANCH  23  25
HETATM   25  C21 UNL     1       3.251   2.594  -2.315  1.00  0.00     0.213 C 
HETATM   26  O2  UNL     1       2.614   2.173  -3.517  1.00  0.00    -0.215 OA
BRANCH  25  27
HETATM   27  C22 UNL     1       4.500   1.730  -2.165  1.00  0.00     0.203 C 
HETATM   28  O1  UNL     1       4.806   1.134  -3.173  1.00  0.00    -0.289 OA
BRANCH  27  29
HETATM   29  C23 UNL     1       5.171   1.667  -0.988  1.00  0.00     0.032 C 
HETATM   30  C24 UNL     1       6.260   0.923  -0.720  1.00  0.00    -0.041 C 
HETATM   31  C25 UNL     1       6.845   0.900   0.674  1.00  0.00     0.026 C 
HETATM   32  C26 UNL     1       6.973   0.007  -1.689  1.00  0.00     0.026 C 
ENDBRANCH  27  29
ENDBRANCH  25  27
ENDBRANCH  23  25
ENDBRANCH  16  23
BRANCH   3  33
HETATM   33  C30 UNL     1      -5.087  -3.463  -0.430  1.00  0.00     0.189 C 
HETATM   34  O3  UNL     1      -4.265  -4.611  -0.444  1.00  0.00    -0.220 OA
ENDBRANCH   3  33
TORSDOF 5
