REMARK  12 active torsions:
REMARK  status: ('A' for Active; 'I' for Inactive)
REMARK    1  A    between atoms: C3_3  and  O4_10 
REMARK    2  A    between atoms: C4_5  and  C6_8 
REMARK    3  A    between atoms: O4_10  and  C7_11 
REMARK    4  A    between atoms: C10_14  and  C20_27 
REMARK    5  A    between atoms: C11_16  and  O6_17 
REMARK    6  A    between atoms: O6_17  and  C12_18 
REMARK    7  A    between atoms: C12_18  and  C13_19 
REMARK    8  A    between atoms: C12_18  and  C15_21 
REMARK    9  A    between atoms: C15_21  and  C16_22 
REMARK   10  A    between atoms: C16_22  and  C17_23 
REMARK   11  A    between atoms: C17_23  and  C18_24 
REMARK   12  A    between atoms: C18_24  and  C19_25 
ROOT
HETATM    1  C7  UNL     1       1.779  -0.041  -0.042  1.00  0.00     0.207 C 
HETATM    2  C8  UNL     1       2.793  -1.000   0.563  1.00  0.00     0.217 C 
HETATM    3  C9  UNL     1       2.107  -2.270   1.030  1.00  0.00     0.215 C 
HETATM    4  C10 UNL     1       0.863  -2.013   1.864  1.00  0.00     0.184 C 
HETATM    5  O5  UNL     1      -0.009  -1.133   1.212  1.00  0.00    -0.326 OA
HETATM    6  C11 UNL     1       0.538   0.113   0.826  1.00  0.00     0.267 C 
HETATM    7  O9  UNL     1       1.737  -3.025  -0.106  1.00  0.00    -0.218 OA
HETATM    8  O10 UNL     1       3.463  -0.379   1.633  1.00  0.00    -0.218 OA
ENDROOT
BRANCH   1   9
HETATM    9  O4  UNL     1       1.320  -0.561  -1.259  1.00  0.00    -0.324 OA
BRANCH   9  10
HETATM   10  C3  UNL     1       2.130  -0.340  -2.388  1.00  0.00     0.270 C 
HETATM   11  C2  UNL     1       2.241  -1.591  -3.231  1.00  0.00     0.241 C 
HETATM   12  C1  UNL     1       0.900  -1.999  -3.808  1.00  0.00     0.220 C 
HETATM   13  O11 UNL     1       3.138  -1.348  -4.290  1.00  0.00    -0.215 OA
HETATM   14  C5  UNL     1       0.291  -0.810  -4.525  1.00  0.00     0.215 C 
HETATM   15  O12 UNL     1       0.055  -2.453  -2.777  1.00  0.00    -0.218 OA
HETATM   16  C4  UNL     1       0.321   0.489  -3.729  1.00  0.00     0.184 C 
HETATM   17  O2  UNL     1       0.999  -0.621  -5.733  1.00  0.00    -0.218 OA
HETATM   18  O1  UNL     1       1.549   0.738  -3.092  1.00  0.00    -0.326 OA
BRANCH  16  19
HETATM   19  C6  UNL     1      -0.868   0.676  -2.794  1.00  0.00     0.214 C 
HETATM   20  O3  UNL     1      -0.666   1.855  -2.040  1.00  0.00    -0.218 OA
ENDBRANCH  16  19
ENDBRANCH   9  10
ENDBRANCH   1   9
BRANCH   6  21
HETATM   21  O6  UNL     1       0.724   0.880   1.993  1.00  0.00    -0.327 OA
BRANCH  21  22
HETATM   22  C12 UNL     1       0.217   2.199   1.987  1.00  0.00     0.140 C 
BRANCH  22  23
HETATM   23  C13 UNL     1       0.995   3.111   1.062  1.00  0.00     0.003 C 
HETATM   24  C14 UNL     1       1.708   4.168   1.474  1.00  0.00    -0.002 C 
ENDBRANCH  22  23
BRANCH  22  25
HETATM   25  C15 UNL     1      -1.288   2.336   1.722  1.00  0.00     0.034 C 
BRANCH  25  26
HETATM   26  C16 UNL     1      -2.191   1.343   2.470  1.00  0.00     0.003 C 
BRANCH  26  27
HETATM   27  C17 UNL     1      -3.671   1.572   2.115  1.00  0.00     0.003 C 
BRANCH  27  28
HETATM   28  C18 UNL     1      -4.560   0.373   2.478  1.00  0.00     0.036 C 
BRANCH  28  29
HETATM   29  C19 UNL     1      -6.011   0.616   2.073  1.00  0.00     0.182 C 
HETATM   30  O7  UNL     1      -6.764  -0.564   2.266  1.00  0.00    -0.221 OA
ENDBRANCH  28  29
ENDBRANCH  27  28
ENDBRANCH  26  27
ENDBRANCH  25  26
ENDBRANCH  22  25
ENDBRANCH  21  22
ENDBRANCH   6  21
BRANCH   4  31
HETATM   31  C20 UNL     1       1.103  -1.639   3.322  1.00  0.00     0.214 C 
HETATM   32  O8  UNL     1       1.782  -2.692   3.980  1.00  0.00    -0.218 OA
ENDBRANCH   4  31
TORSDOF 12
