REMARK  7 active torsions:
REMARK  status: ('A' for Active; 'I' for Inactive)
REMARK    1  A    between atoms: C1_2  and  C14_20 
REMARK    2  A    between atoms: C5_6  and  O2_7 
REMARK    3  A    between atoms: O2_7  and  C6_8 
REMARK    4  A    between atoms: C6_8  and  C7_9 
REMARK    5  A    between atoms: C7_9  and  C8_10 
REMARK    6  A    between atoms: C14_20  and  O7_21 
REMARK    7  A    between atoms: O7_21  and  C15_22 
ROOT
HETATM    1  O1  UNL     1       0.675  -0.398   1.304  1.00  0.00    -0.326 OA
HETATM    2  C1  UNL     1      -0.706  -0.157   1.390  1.00  0.00     0.180 C 
HETATM    3  C2  UNL     1      -1.167  -0.262   2.842  1.00  0.00     0.215 C 
HETATM    4  C3  UNL     1      -0.778  -1.607   3.423  1.00  0.00     0.220 C 
HETATM    5  C4  UNL     1       0.711  -1.800   3.239  1.00  0.00     0.241 C 
HETATM    6  C5  UNL     1       1.025  -1.685   1.767  1.00  0.00     0.270 C 
HETATM    7  O4  UNL     1       1.067  -3.080   3.697  1.00  0.00    -0.215 OA
HETATM    8  O5  UNL     1      -1.097  -1.640   4.790  1.00  0.00    -0.218 OA
HETATM    9  O6  UNL     1      -2.564  -0.135   2.955  1.00  0.00    -0.218 OA
ENDROOT
BRANCH   2  10
HETATM   10  C14 UNL     1      -0.986   1.217   0.787  1.00  0.00     0.177 C 
BRANCH  10  11
HETATM   11  O7  UNL     1      -2.345   1.283   0.440  1.00  0.00    -0.326 OA
BRANCH  11  12
HETATM   12  C15 UNL     1      -2.782   2.562   0.041  1.00  0.00     0.270 C 
HETATM   13  C16 UNL     1      -4.283   2.474  -0.108  1.00  0.00     0.241 C 
HETATM   14  C17 UNL     1      -4.813   3.775  -0.665  1.00  0.00     0.220 C 
HETATM   15  O11 UNL     1      -4.856   2.232   1.152  1.00  0.00    -0.215 OA
HETATM   16  C18 UNL     1      -4.093   4.065  -1.967  1.00  0.00     0.212 C 
HETATM   17  O10 UNL     1      -6.192   3.660  -0.906  1.00  0.00    -0.218 OA
HETATM   18  C19 UNL     1      -2.586   4.060  -1.744  1.00  0.00     0.151 C 
HETATM   19  O9  UNL     1      -4.531   5.317  -2.432  1.00  0.00    -0.218 OA
HETATM   20  O8  UNL     1      -2.180   2.830  -1.206  1.00  0.00    -0.329 OA
HETATM   21  C20 UNL     1      -1.812   4.285  -3.044  1.00  0.00     0.035 C 
ENDBRANCH  11  12
ENDBRANCH  10  11
ENDBRANCH   2  10
BRANCH   6  22
HETATM   22  O2  UNL     1       2.422  -1.789   1.586  1.00  0.00    -0.329 OA
BRANCH  22  23
HETATM   23  C6  UNL     1       2.768  -2.277   0.312  1.00  0.00     0.150 C 
BRANCH  23  24
HETATM   24  C7  UNL     1       4.287  -2.243   0.152  1.00  0.00     0.059 C 
BRANCH  24  25
HETATM   25  C8  UNL     1       4.849  -2.916  -1.087  1.00  0.00    -0.019 A 
HETATM   26  C9  UNL     1       6.181  -3.062  -1.207  1.00  0.00    -0.002 A 
HETATM   27  C10 UNL     1       6.727  -3.666  -2.273  1.00  0.00     0.027 A 
HETATM   28  C11 UNL     1       5.963  -4.151  -3.265  1.00  0.00     0.131 A 
HETATM   29  C12 UNL     1       4.633  -3.999  -3.152  1.00  0.00     0.027 A 
HETATM   30  O3  UNL     1       6.505  -4.773  -4.347  1.00  0.00    -0.190 OA
HETATM   31  C13 UNL     1       4.085  -3.393  -2.087  1.00  0.00    -0.002 A 
ENDBRANCH  24  25
ENDBRANCH  23  24
ENDBRANCH  22  23
ENDBRANCH   6  22
TORSDOF 7
