REMARK  0 active torsions:
REMARK  status: ('A' for Active; 'I' for Inactive)
ROOT
HETATM    1  C1  UNL     1      -4.843   1.189  -0.756  1.00  0.00     0.135 A 
HETATM    2  C2  UNL     1      -5.360  -0.005  -0.432  1.00  0.00     0.057 A 
HETATM    3  C3  UNL     1      -4.587  -1.032  -0.046  1.00  0.00     0.158 A 
HETATM    4  C4  UNL     1      -3.250  -0.871   0.021  1.00  0.00     0.148 A 
HETATM    5  C5  UNL     1      -2.699   0.317  -0.301  1.00  0.00     0.127 A 
HETATM    6  C6  UNL     1      -3.510   1.320  -0.682  1.00  0.00     0.054 A 
HETATM    7  O1  UNL     1      -1.349   0.524  -0.247  1.00  0.00    -0.301 OA
HETATM    8  C7  UNL     1      -0.574  -0.539   0.130  1.00  0.00     0.147 A 
HETATM    9  C8  UNL     1      -1.133  -1.722   0.449  1.00  0.00     0.127 A 
HETATM   10  O2  UNL     1      -2.481  -1.927   0.416  1.00  0.00    -0.301 OA
HETATM   11  C9  UNL     1      -0.325  -2.730   0.813  1.00  0.00     0.056 A 
HETATM   12  C10 UNL     1       1.008  -2.602   0.869  1.00  0.00     0.158 A 
HETATM   13  C11 UNL     1       1.562  -1.418   0.548  1.00  0.00     0.150 A 
HETATM   14  C12 UNL     1       0.769  -0.390   0.179  1.00  0.00     0.149 A 
HETATM   15  O3  UNL     1       1.301   0.825  -0.153  1.00  0.00    -0.299 OA
HETATM   16  C13 UNL     1       2.658   0.951  -0.086  1.00  0.00     0.148 A 
HETATM   17  C14 UNL     1       3.444  -0.079   0.283  1.00  0.00     0.127 A 
HETATM   18  O4  UNL     1       2.921  -1.297   0.608  1.00  0.00    -0.301 OA
HETATM   19  C15 UNL     1       4.775   0.107   0.331  1.00  0.00     0.054 A 
HETATM   20  C16 UNL     1       5.356   1.277   0.025  1.00  0.00     0.135 A 
HETATM   21  C17 UNL     1       4.548   2.283  -0.340  1.00  0.00     0.057 A 
HETATM   22  C18 UNL     1       3.215   2.138  -0.399  1.00  0.00     0.158 A 
HETATM   23  O5  UNL     1       2.417   3.176  -0.772  1.00  0.00    -0.188 OA
HETATM   24  O6  UNL     1       6.705   1.441   0.080  1.00  0.00    -0.190 OA
HETATM   25  O7  UNL     1       1.778  -3.658   1.245  1.00  0.00    -0.188 OA
HETATM   26  O8  UNL     1      -5.158  -2.226   0.274  1.00  0.00    -0.188 OA
HETATM   27  O9  UNL     1      -5.634   2.225  -1.145  1.00  0.00    -0.190 OA
ENDROOT
TORSDOF 0
