REMARK  12 active torsions:
REMARK  status: ('A' for Active; 'I' for Inactive)
REMARK    1  A    between atoms: C3_3  and  O4_10 
REMARK    2  A    between atoms: C4_5  and  C6_8 
REMARK    3  A    between atoms: O4_10  and  C7_11 
REMARK    4  A    between atoms: C10_14  and  C50_64 
REMARK    5  A    between atoms: C11_16  and  O6_17 
REMARK    6  A    between atoms: O6_17  and  C12_18 
REMARK    7  A    between atoms: C29_35  and  O14_58 
REMARK    8  A    between atoms: C30_36  and  C38_44 
REMARK    9  A    between atoms: C38_44  and  O7_45 
REMARK   10  A    between atoms: O7_45  and  C39_46 
REMARK   11  A    between atoms: C43_50  and  C44_52 
REMARK   12  A    between atoms: O14_58  and  C45_59 
ROOT
HETATM    1  C12 UNL     1       2.532   0.835   2.160  1.00  0.00     0.118 C 
HETATM    2  C13 UNL     1       2.305   0.063   3.952  1.00  0.00     0.030 C 
HETATM    3  C14 UNL     1       1.278   0.930   5.302  1.00  0.00     0.003 C 
HETATM    4  C15 UNL     1       0.474   2.634   4.879  1.00  0.00     0.001 C 
HETATM    5  C16 UNL     1       1.594   3.559   3.700  1.00  0.00     0.002 C 
HETATM    6  C17 UNL     1       2.528   2.772   2.262  1.00  0.00     0.025 C 
HETATM    7  C18 UNL     1       1.932   4.024   1.506  1.00  0.00     0.002 C 
HETATM    8  C19 UNL     1       3.918   3.095   1.673  1.00  0.00     0.002 C 
HETATM    9  C20 UNL     1       2.392   2.702   4.541  1.00  0.00     0.000 C 
HETATM   10  C21 UNL     1       1.249   1.825   3.524  1.00  0.00     0.000 C 
HETATM   11  C22 UNL     1      -0.075   1.931   2.560  1.00  0.00     0.004 C 
HETATM   12  C23 UNL     1      -0.739   2.312   3.909  1.00  0.00     0.005 C 
HETATM   13  C24 UNL     1      -2.048   3.000   3.564  1.00  0.00     0.025 C 
HETATM   14  C25 UNL     1      -2.821   2.007   2.674  1.00  0.00    -0.035 C 
HETATM   15  C26 UNL     1      -2.346   0.932   1.981  1.00  0.00    -0.049 C 
HETATM   16  C27 UNL     1      -0.852   0.592   1.957  1.00  0.00     0.017 C 
HETATM   17  C28 UNL     1      -0.570   0.139   0.468  1.00  0.00     0.034 C 
HETATM   18  C29 UNL     1      -1.549  -0.704  -0.374  1.00  0.00     0.125 C 
HETATM   19  C30 UNL     1      -2.942  -0.056  -0.355  1.00  0.00     0.106 C 
HETATM   20  C31 UNL     1      -3.314   0.060   1.147  1.00  0.00     0.029 C 
HETATM   21  C32 UNL     1      -3.688  -1.328   1.739  1.00  0.00     0.005 C 
HETATM   22  C33 UNL     1      -4.748  -2.176   0.976  1.00  0.00     0.000 C 
HETATM   23  C34 UNL     1      -5.200  -1.442  -0.287  1.00  0.00     0.001 C 
HETATM   24  C35 UNL     1      -3.969  -0.975  -1.065  1.00  0.00     0.012 C 
HETATM   25  C36 UNL     1      -5.943  -2.417   1.922  1.00  0.00     0.000 C 
HETATM   26  C37 UNL     1      -4.272  -3.591   0.538  1.00  0.00     0.000 C 
HETATM   27  C47 UNL     1      -0.594  -0.694   2.748  1.00  0.00     0.004 C 
HETATM   28  C48 UNL     1      -0.344   2.857   1.353  1.00  0.00     0.000 C 
HETATM   29  C49 UNL     1       0.167   3.513   6.104  1.00  0.00     0.000 C 
ENDROOT
BRANCH   1  30
HETATM   30  O6  UNL     1       3.591   0.140   1.529  1.00  0.00    -0.332 OA
BRANCH  30  31
HETATM   31  C11 UNL     1       3.193  -0.721   0.435  1.00  0.00     0.267 C 
HETATM   32  C7  UNL     1       4.269  -1.309  -0.493  1.00  0.00     0.207 C 
HETATM   33  C8  UNL     1       4.926  -2.400   0.344  1.00  0.00     0.217 C 
HETATM   34  C9  UNL     1       3.922  -3.468   0.749  1.00  0.00     0.215 C 
HETATM   35  O17 UNL     1       5.500  -1.797   1.490  1.00  0.00    -0.218 OA
HETATM   36  C10 UNL     1       2.734  -2.880   1.467  1.00  0.00     0.184 C 
HETATM   37  O16 UNL     1       3.409  -4.206  -0.334  1.00  0.00    -0.218 OA
HETATM   38  O5  UNL     1       2.249  -1.706   0.863  1.00  0.00    -0.326 OA
BRANCH  32  39
HETATM   39  O4  UNL     1       3.736  -1.923  -1.670  1.00  0.00    -0.324 OA
BRANCH  39  40
HETATM   40  C3  UNL     1       3.998  -1.386  -2.968  1.00  0.00     0.270 C 
HETATM   41  C2  UNL     1       3.545  -2.296  -4.114  1.00  0.00     0.241 C 
HETATM   42  C1  UNL     1       2.047  -2.379  -4.319  1.00  0.00     0.220 C 
HETATM   43  O18 UNL     1       4.048  -1.819  -5.351  1.00  0.00    -0.215 OA
HETATM   44  C5  UNL     1       1.475  -0.993  -4.447  1.00  0.00     0.215 C 
HETATM   45  O19 UNL     1       1.450  -3.029  -3.222  1.00  0.00    -0.218 OA
HETATM   46  C4  UNL     1       2.059  -0.050  -3.409  1.00  0.00     0.184 C 
HETATM   47  O2  UNL     1       1.560  -0.441  -5.743  1.00  0.00    -0.218 OA
HETATM   48  O1  UNL     1       3.429  -0.109  -3.121  1.00  0.00    -0.326 OA
BRANCH  46  49
HETATM   49  C6  UNL     1       1.213  -0.033  -2.180  1.00  0.00     0.214 C 
HETATM   50  O3  UNL     1       1.268   1.224  -1.575  1.00  0.00    -0.218 OA
ENDBRANCH  46  49
ENDBRANCH  39  40
ENDBRANCH  32  39
BRANCH  36  51
HETATM   51  C50 UNL     1       3.067  -2.763   2.936  1.00  0.00     0.214 C 
HETATM   52  O15 UNL     1       2.030  -3.216   3.793  1.00  0.00    -0.218 OA
ENDBRANCH  36  51
ENDBRANCH  30  31
ENDBRANCH   1  30
BRANCH  18  53
HETATM   53  O14 UNL     1      -1.548  -2.060   0.008  1.00  0.00    -0.356 OA
BRANCH  53  54
HETATM   54  C45 UNL     1      -0.831  -2.951  -0.810  1.00  0.00     0.142 C 
HETATM   55  C46 UNL     1      -0.678  -4.308  -0.124  1.00  0.00     0.035 C 
ENDBRANCH  53  54
ENDBRANCH  18  53
BRANCH  19  56
HETATM   56  C38 UNL     1      -2.993   1.350  -1.057  1.00  0.00     0.276 C 
HETATM   57  O13 UNL     1      -3.631   2.252  -0.571  1.00  0.00    -0.264 OA
BRANCH  56  58
HETATM   58  O7  UNL     1      -2.366   1.506  -2.291  1.00  0.00    -0.273 OA
BRANCH  58  59
HETATM   59  C39 UNL     1      -2.590   2.711  -3.039  1.00  0.00     0.276 C 
HETATM   60  C40 UNL     1      -1.431   3.044  -3.962  1.00  0.00     0.241 C 
HETATM   61  C41 UNL     1      -1.373   2.057  -5.109  1.00  0.00     0.220 C 
HETATM   62  O12 UNL     1      -1.541   4.345  -4.510  1.00  0.00    -0.215 OA
HETATM   63  C42 UNL     1      -2.716   1.875  -5.797  1.00  0.00     0.215 C 
HETATM   64  O11 UNL     1      -0.952   0.836  -4.571  1.00  0.00    -0.218 OA
HETATM   65  C43 UNL     1      -3.885   1.761  -4.828  1.00  0.00     0.184 C 
HETATM   66  O10 UNL     1      -2.934   2.986  -6.645  1.00  0.00    -0.218 OA
HETATM   67  O8  UNL     1      -3.791   2.724  -3.805  1.00  0.00    -0.326 OA
BRANCH  65  68
HETATM   68  C44 UNL     1      -4.120   0.412  -4.181  1.00  0.00     0.214 C 
HETATM   69  O9  UNL     1      -5.112  -0.411  -4.749  1.00  0.00    -0.218 OA
ENDBRANCH  65  68
ENDBRANCH  58  59
ENDBRANCH  56  58
ENDBRANCH  19  56
TORSDOF 12
