REMARK  2 active torsions:
REMARK  status: ('A' for Active; 'I' for Inactive)
REMARK    1  A    between atoms: C6_6  and  O1_7 
REMARK    2  A    between atoms: O1_7  and  C7_8 
ROOT
HETATM    1  C1  UNL     1      -2.348  -0.466   2.024  1.00  0.00     0.030 C 
HETATM    2  C2  UNL     1      -1.939  -1.938   2.087  1.00  0.00     0.003 C 
HETATM    3  C3  UNL     1      -1.560  -2.476   0.694  1.00  0.00     0.003 C 
HETATM    4  C4  UNL     1      -0.446  -1.568   0.088  1.00  0.00     0.040 C 
HETATM    5  C5  UNL     1      -0.546  -0.010   0.229  1.00  0.00     0.056 C 
HETATM    6  C6  UNL     1      -1.167   0.398   1.587  1.00  0.00     0.127 C 
HETATM    7  C9  UNL     1       0.917   0.557   0.100  1.00  0.00     0.016 C 
HETATM    8  C10 UNL     1       1.478   0.149  -1.281  1.00  0.00     0.108 C 
HETATM    9  C11 UNL     1       0.391  -0.599  -2.032  1.00  0.00     0.254 C 
HETATM   10  C12 UNL     1      -0.131  -1.862  -1.381  1.00  0.00     0.206 C 
HETATM   11  O3  UNL     1       0.770  -2.937  -1.510  1.00  0.00    -0.218 OA
HETATM   12  O4  UNL     1      -0.686   0.277  -2.204  1.00  0.00    -0.330 OA
HETATM   13  C13 UNL     1      -1.345   0.519  -0.980  1.00  0.00     0.147 C 
HETATM   14  O5  UNL     1       0.770  -0.876  -3.358  1.00  0.00    -0.192 OA
HETATM   15  C14 UNL     1       2.046   1.385  -2.006  1.00  0.00     0.017 C 
HETATM   16  C15 UNL     1       3.252   1.829  -1.114  1.00  0.00     0.026 C 
HETATM   17  C16 UNL     1       2.390   2.718  -0.150  1.00  0.00     0.004 C 
HETATM   18  C17 UNL     1       1.073   2.077   0.351  1.00  0.00     0.001 C 
HETATM   19  C18 UNL     1       3.767   0.382  -1.159  1.00  0.00     0.012 C 
HETATM   20  C19 UNL     1       2.809  -0.578  -1.179  1.00  0.00     0.173 C 
HETATM   21  O6  UNL     1       2.975  -1.773  -1.187  1.00  0.00    -0.291 OA
HETATM   22  C20 UNL     1       5.074   0.070  -1.193  1.00  0.00    -0.002 C 
HETATM   23  C21 UNL     1      -1.018  -3.915   0.895  1.00  0.00     0.000 C 
HETATM   24  C22 UNL     1      -2.846  -2.630  -0.153  1.00  0.00     0.000 C 
ENDROOT
BRANCH   6  25
HETATM   25  O1  UNL     1      -1.590   1.732   1.558  1.00  0.00    -0.304 OA
BRANCH  25  26
HETATM   26  C7  UNL     1      -1.591   2.441   2.719  1.00  0.00     0.272 C 
HETATM   27  C8  UNL     1      -2.020   3.870   2.453  1.00  0.00     0.106 C 
HETATM   28  O2  UNL     1      -1.277   2.008   3.805  1.00  0.00    -0.264 OA
ENDBRANCH  25  26
ENDBRANCH   6  25
TORSDOF 2
