REMARK  8 active torsions:
REMARK  status: ('A' for Active; 'I' for Inactive)
REMARK    1  A    between atoms: C4_4  and  O2_9 
REMARK    2  A    between atoms: C6_6  and  O1_7 
REMARK    3  A    between atoms: C10_12  and  C29_34 
REMARK    4  A    between atoms: C14_17  and  C22_25 
REMARK    5  A    between atoms: C15_18  and  C16_19 
REMARK    6  A    between atoms: C25_28  and  O4_31 
REMARK       I    between atoms: C29_34  and  N1_36 
REMARK    7  A    between atoms: C30_37  and  N2_41 
REMARK       I    between atoms: N2_41  and  C34_42 
REMARK    8  A    between atoms: C34_42  and  C35_43 
ROOT
HETATM    1  C1  UNL     1      -4.229   1.075   0.248  1.00  0.00     0.022 A 
HETATM    2  C2  UNL     1      -2.987   0.970  -0.235  1.00  0.00     0.007 A 
HETATM    3  C3  UNL     1      -1.956   1.548   0.370  1.00  0.00     0.027 A 
HETATM    4  C4  UNL     1      -2.106   2.272   1.489  1.00  0.00     0.094 A 
HETATM    5  C5  UNL     1      -3.362   2.314   1.979  1.00  0.00     0.048 A 
HETATM    6  C6  UNL     1      -4.445   1.761   1.389  1.00  0.00     0.096 A 
HETATM    7  C9  UNL     1      -0.697   1.233  -0.370  1.00  0.00     0.165 A 
HETATM    8  C10 UNL     1       0.153   0.171   0.311  1.00  0.00     0.140 C 
HETATM    9  C11 UNL     1       0.273  -0.362  -1.105  1.00  0.00     0.151 C 
HETATM   10  C12 UNL     1      -0.991   0.425  -1.709  1.00  0.00     0.112 A 
HETATM   11  C13 UNL     1      -2.535   0.249  -1.460  1.00  0.00     0.145 A 
HETATM   12  O3  UNL     1      -2.488  -1.145  -1.339  1.00  0.00    -0.352 OA
HETATM   13  C14 UNL     1      -1.287  -1.109  -2.063  1.00  0.00     0.125 C 
HETATM   14  C15 UNL     1      -0.130  -1.808  -1.356  1.00  0.00     0.080 C 
HETATM   15  O5  UNL     1       1.374   0.078  -1.827  1.00  0.00    -0.225 OA
HETATM   16  O8  UNL     1      -0.005   2.385  -0.762  1.00  0.00    -0.221 OA
ENDROOT
BRANCH   8  17
HETATM   17  C29 UNL     1       1.200   0.307   1.418  1.00  0.00     0.240 C 
HETATM   18  O6  UNL     1       0.955  -0.216   2.483  1.00  0.00    -0.272 OA
HETATM   19  N1  UNL     1       2.389   0.987   1.238  1.00  0.00    -0.302 N 
HETATM   20  C30 UNL     1       3.394   1.095   2.294  1.00  0.00     0.192 C 
HETATM   21  C33 UNL     1       2.916   1.661   0.057  1.00  0.00     0.106 C 
HETATM   22  C31 UNL     1       4.034   2.466   2.043  1.00  0.00     0.050 C 
HETATM   23  C32 UNL     1       4.167   2.440   0.518  1.00  0.00     0.028 C 
BRANCH  20  24
HETATM   24  N2  UNL     1       2.870   0.973   3.658  1.00  0.00    -0.213 NA
HETATM   25  C34 UNL     1       3.686   0.700   4.720  1.00  0.00     0.272 C 
HETATM   26  O7  UNL     1       4.877   0.570   4.553  1.00  0.00    -0.266 OA
BRANCH  25  27
HETATM   27  C35 UNL     1       3.139   0.566   5.962  1.00  0.00     0.032 C 
HETATM   28  C36 UNL     1       4.111   0.218   7.075  1.00  0.00     0.036 C 
HETATM   29  C37 UNL     1       1.818   0.736   6.170  1.00  0.00    -0.025 C 
HETATM   30  C38 UNL     1       1.083   0.649   7.485  1.00  0.00     0.030 C 
ENDBRANCH  25  27
ENDBRANCH  20  24
ENDBRANCH   8  17
BRANCH  14  31
HETATM   31  C16 UNL     1       0.906  -2.634  -2.085  1.00  0.00    -0.018 A 
HETATM   32  C17 UNL     1       1.418  -3.719  -1.473  1.00  0.00    -0.004 A 
HETATM   33  C18 UNL     1       2.355  -4.483  -2.056  1.00  0.00    -0.000 A 
HETATM   34  C19 UNL     1       2.810  -4.169  -3.277  1.00  0.00    -0.000 A 
HETATM   35  C20 UNL     1       2.320  -3.088  -3.901  1.00  0.00    -0.000 A 
HETATM   36  C21 UNL     1       1.382  -2.333  -3.308  1.00  0.00    -0.004 A 
ENDBRANCH  14  31
BRANCH   4  37
HETATM   37  O2  UNL     1      -1.033   2.799   2.158  1.00  0.00    -0.328 OA
HETATM   38  C8  UNL     1      -0.867   4.185   1.965  1.00  0.00     0.181 C 
ENDBRANCH   4  37
BRANCH  13  39
HETATM   39  C22 UNL     1      -1.519  -1.423  -3.523  1.00  0.00     0.003 A 
HETATM   40  C23 UNL     1      -1.359  -0.502  -4.488  1.00  0.00     0.000 A 
HETATM   41  C24 UNL     1      -1.582  -0.811  -5.775  1.00  0.00     0.024 A 
HETATM   42  C25 UNL     1      -2.014  -2.030  -6.149  1.00  0.00     0.094 A 
HETATM   43  C26 UNL     1      -2.102  -2.961  -5.180  1.00  0.00     0.024 A 
HETATM   44  C27 UNL     1      -1.882  -2.663  -3.891  1.00  0.00     0.000 A 
BRANCH  42  45
HETATM   45  O4  UNL     1      -2.195  -2.349  -7.470  1.00  0.00    -0.328 OA
HETATM   46  C28 UNL     1      -3.540  -2.272  -7.885  1.00  0.00     0.181 C 
ENDBRANCH  42  45
ENDBRANCH  13  39
BRANCH   6  47
HETATM   47  O1  UNL     1      -5.672   1.915   1.990  1.00  0.00    -0.328 OA
HETATM   48  C7  UNL     1      -6.799   1.319   1.388  1.00  0.00     0.181 C 
ENDBRANCH   6  47
TORSDOF 8
