REMARK  0 active torsions:
REMARK  status: ('A' for Active; 'I' for Inactive)
ROOT
HETATM    1  C1  UNL     1      -2.891   0.159  -0.539  1.00  0.00     0.064 C 
HETATM    2  C2  UNL     1      -2.933  -1.353  -0.333  1.00  0.00     0.155 C 
HETATM    3  C3  UNL     1      -1.874  -2.068  -1.189  1.00  0.00     0.034 C 
HETATM    4  C4  UNL     1      -0.444  -1.485  -0.921  1.00  0.00     0.074 C 
HETATM    5  C5  UNL     1      -0.327   0.052  -0.753  1.00  0.00     0.109 C 
HETATM    6  C6  UNL     1      -1.541   0.702  -0.089  1.00  0.00     0.136 C 
HETATM    7  O1  UNL     1      -1.546   2.095  -0.213  1.00  0.00    -0.304 OA
HETATM    8  C7  UNL     1      -0.382   2.794  -0.101  1.00  0.00     0.274 C 
HETATM    9  C8  UNL     1       0.722   2.025   0.610  1.00  0.00     0.111 C 
HETATM   10  C9  UNL     1       0.943   0.626  -0.035  1.00  0.00     0.023 C 
HETATM   11  C10 UNL     1       1.821  -0.272   0.876  1.00  0.00     0.002 C 
HETATM   12  C11 UNL     1       1.693  -0.051   2.390  1.00  0.00     0.004 C 
HETATM   13  C12 UNL     1       1.641   1.441   2.739  1.00  0.00     0.021 C 
HETATM   14  C13 UNL     1       0.356   1.992   2.117  1.00  0.00     0.016 C 
HETATM   15  C14 UNL     1       2.675   2.241   1.988  1.00  0.00    -0.014 C 
HETATM   16  C15 UNL     1       2.048   2.815   0.743  1.00  0.00     0.179 C 
HETATM   17  O2  UNL     1       2.909   2.685  -0.368  1.00  0.00    -0.218 OA
HETATM   18  C16 UNL     1       3.949   2.403   2.362  1.00  0.00    -0.007 C 
HETATM   19  O3  UNL     1      -0.292   3.970  -0.383  1.00  0.00    -0.264 OA
HETATM   20  C17 UNL     1      -0.214   0.413  -2.244  1.00  0.00     0.275 C 
HETATM   21  O4  UNL     1       0.354  -0.617  -2.930  1.00  0.00    -0.273 OA
HETATM   22  C18 UNL     1       0.470  -1.744  -2.106  1.00  0.00     0.276 C 
HETATM   23  O5  UNL     1       1.848  -1.721  -1.789  1.00  0.00    -0.190 OA
HETATM   24  O6  UNL     1      -0.520   1.469  -2.751  1.00  0.00    -0.264 OA
HETATM   25  C19 UNL     1      -1.873  -3.575  -0.822  1.00  0.00     0.003 C 
HETATM   26  C20 UNL     1      -2.351  -1.999  -2.665  1.00  0.00     0.003 C 
HETATM   27  O7  UNL     1      -2.736  -1.641   1.032  1.00  0.00    -0.223 OA
ENDROOT
TORSDOF 0
