REMARK  5 active torsions:
REMARK  status: ('A' for Active; 'I' for Inactive)
REMARK    1  A    between atoms: C7_7  and  C14_15 
REMARK    2  A    between atoms: C8_8  and  C9_10 
REMARK    3  A    between atoms: C9_10  and  C10_11 
REMARK    4  A    between atoms: C14_15  and  C15_16 
REMARK    5  A    between atoms: C25_27  and  C28_30 
ROOT
HETATM    1  C15 UNL     1       0.880   1.129  -1.372  1.00  0.00     0.008 C 
HETATM    2  C16 UNL     1       0.568   1.745   0.019  1.00  0.00     0.015 C 
HETATM    3  C17 UNL     1      -0.597   0.964   0.660  1.00  0.00    -0.049 C 
HETATM    4  C18 UNL     1      -1.778   0.553  -0.214  1.00  0.00     0.020 C 
HETATM    5  C19 UNL     1      -1.409   0.182  -1.659  1.00  0.00     0.004 C 
HETATM    6  C20 UNL     1      -0.374   1.126  -2.265  1.00  0.00     0.001 C 
HETATM    7  C21 UNL     1      -2.639  -0.567   0.445  1.00  0.00     0.029 C 
HETATM    8  C22 UNL     1      -3.061  -0.060   1.832  1.00  0.00     0.120 C 
HETATM    9  C23 UNL     1      -1.832   0.136   2.717  1.00  0.00     0.055 C 
HETATM   10  C24 UNL     1      -0.681   0.784   1.992  1.00  0.00    -0.032 C 
HETATM   11  O1  UNL     1      -3.936  -0.942   2.481  1.00  0.00    -0.356 OA
HETATM   12  C25 UNL     1      -5.152  -1.138   1.813  1.00  0.00     0.143 C 
HETATM   13  C26 UNL     1      -4.905  -1.707   0.416  1.00  0.00     0.032 C 
HETATM   14  C27 UNL     1      -3.932  -0.814  -0.361  1.00  0.00     0.005 C 
HETATM   15  C31 UNL     1      -1.839  -1.889   0.558  1.00  0.00     0.003 C 
HETATM   16  C32 UNL     1       1.854   1.694   0.879  1.00  0.00     0.004 C 
HETATM   17  C33 UNL     1       0.148   3.229  -0.052  1.00  0.00     0.004 C 
ENDROOT
BRANCH   1  18
HETATM   18  C14 UNL     1       2.075   1.643  -2.198  1.00  0.00     0.028 C 
BRANCH  18  19
HETATM   19  C7  UNL     1       3.483   1.267  -1.796  1.00  0.00    -0.007 A 
HETATM   20  C3  UNL     1       4.452   2.175  -1.567  1.00  0.00     0.015 A 
HETATM   21  C2  UNL     1       5.573   1.504  -1.290  1.00  0.00     0.081 A 
HETATM   22  C4  UNL     1       4.476   3.516  -1.585  1.00  0.00     0.001 A 
HETATM   23  C1  UNL     1       6.738   2.105  -1.028  1.00  0.00     0.019 A 
HETATM   24  N1  UNL     1       5.284   0.276  -1.353  1.00  0.00    -0.250 NA
HETATM   25  C6  UNL     1       6.758   3.448  -1.052  1.00  0.00     0.002 A 
HETATM   26  C5  UNL     1       5.638   4.142  -1.327  1.00  0.00     0.000 A 
HETATM   27  C8  UNL     1       4.069   0.051  -1.662  1.00  0.00     0.058 A 
BRANCH  27  28
HETATM   28  C9  UNL     1       3.548  -1.372  -1.839  1.00  0.00     0.054 C 
HETATM   29  C12 UNL     1       2.562  -1.539  -3.014  1.00  0.00     0.010 C 
HETATM   30  C13 UNL     1       2.931  -1.917  -0.534  1.00  0.00     0.010 C 
BRANCH  28  31
HETATM   31  C10 UNL     1       4.768  -2.220  -2.203  1.00  0.00    -0.021 C 
HETATM   32  C11 UNL     1       5.643  -2.760  -1.341  1.00  0.00    -0.004 C 
ENDBRANCH  28  31
ENDBRANCH  27  28
ENDBRANCH  18  19
ENDBRANCH   1  18
BRANCH  12  33
HETATM   33  C28 UNL     1      -6.063  -2.017   2.683  1.00  0.00     0.152 C 
HETATM   34  C29 UNL     1      -6.542  -1.247   3.919  1.00  0.00     0.035 C 
HETATM   35  C30 UNL     1      -5.403  -3.329   3.119  1.00  0.00     0.035 C 
HETATM   36  O2  UNL     1      -7.208  -2.347   1.938  1.00  0.00    -0.224 OA
ENDBRANCH  12  33
TORSDOF 5
