REMARK  5 active torsions:
REMARK  status: ('A' for Active; 'I' for Inactive)
REMARK    1  A    between atoms: C7_7  and  C14_15 
REMARK    2  A    between atoms: N1_9  and  C9_10 
REMARK    3  A    between atoms: C9_10  and  C10_11 
REMARK    4  A    between atoms: C14_15  and  C15_16 
REMARK    5  A    between atoms: C25_27  and  C28_30 
ROOT
HETATM    1  C15 UNL     1       0.547   1.089  -1.320  1.00  0.00     0.008 C 
HETATM    2  C16 UNL     1       0.210   1.525   0.137  1.00  0.00     0.015 C 
HETATM    3  C17 UNL     1      -0.942   0.675   0.708  1.00  0.00    -0.049 C 
HETATM    4  C18 UNL     1      -2.116   0.327  -0.199  1.00  0.00     0.020 C 
HETATM    5  C19 UNL     1      -1.683  -0.011  -1.633  1.00  0.00     0.004 C 
HETATM    6  C20 UNL     1      -0.717   1.032  -2.195  1.00  0.00     0.001 C 
HETATM    7  C21 UNL     1      -3.040  -0.775   0.402  1.00  0.00     0.029 C 
HETATM    8  C22 UNL     1      -3.435  -0.312   1.813  1.00  0.00     0.120 C 
HETATM    9  C23 UNL     1      -2.202  -0.243   2.708  1.00  0.00     0.055 C 
HETATM   10  C24 UNL     1      -1.033   0.417   2.027  1.00  0.00    -0.032 C 
HETATM   11  O1  UNL     1      -4.368  -1.162   2.419  1.00  0.00    -0.356 OA
HETATM   12  C25 UNL     1      -5.590  -1.244   1.742  1.00  0.00     0.143 C 
HETATM   13  C26 UNL     1      -5.374  -1.770   0.322  1.00  0.00     0.032 C 
HETATM   14  C27 UNL     1      -4.343  -0.909  -0.416  1.00  0.00     0.005 C 
HETATM   15  C31 UNL     1      -2.320  -2.144   0.448  1.00  0.00     0.003 C 
HETATM   16  C32 UNL     1       1.501   1.405   0.983  1.00  0.00     0.004 C 
HETATM   17  C33 UNL     1      -0.254   2.998   0.233  1.00  0.00     0.004 C 
ENDROOT
BRANCH   1  18
HETATM   18  C14 UNL     1       1.637   1.898  -2.064  1.00  0.00     0.028 C 
BRANCH  18  19
HETATM   19  C7  UNL     1       3.062   1.502  -1.787  1.00  0.00    -0.004 A 
HETATM   20  C3  UNL     1       4.139   2.288  -1.625  1.00  0.00     0.013 A 
HETATM   21  C2  UNL     1       5.215   1.506  -1.411  1.00  0.00     0.060 A 
HETATM   22  C4  UNL     1       4.225   3.626  -1.661  1.00  0.00     0.001 A 
HETATM   23  C1  UNL     1       6.410   2.088  -1.223  1.00  0.00     0.017 A 
HETATM   24  N1  UNL     1       4.778   0.311  -1.451  1.00  0.00    -0.327 N 
HETATM   25  C6  UNL     1       6.508   3.428  -1.260  1.00  0.00     0.002 A 
HETATM   26  C5  UNL     1       5.427   4.194  -1.478  1.00  0.00     0.000 A 
HETATM   27  C8  UNL     1       3.528   0.251  -1.672  1.00  0.00     0.072 A 
BRANCH  24  28
HETATM   28  C9  UNL     1       5.531  -0.968  -1.281  1.00  0.00     0.087 C 
HETATM   29  C12 UNL     1       5.069  -1.606   0.053  1.00  0.00     0.027 C 
HETATM   30  C13 UNL     1       7.072  -0.946  -1.239  1.00  0.00     0.027 C 
BRANCH  28  31
HETATM   31  C10 UNL     1       5.188  -1.894  -2.441  1.00  0.00    -0.006 C 
HETATM   32  C11 UNL     1       5.342  -1.548  -3.727  1.00  0.00    -0.003 C 
ENDBRANCH  28  31
ENDBRANCH  24  28
ENDBRANCH  18  19
ENDBRANCH   1  18
BRANCH  12  33
HETATM   33  C28 UNL     1      -6.560  -2.090   2.578  1.00  0.00     0.152 C 
HETATM   34  C29 UNL     1      -6.982  -1.337   3.844  1.00  0.00     0.035 C 
HETATM   35  C30 UNL     1      -5.995  -3.461   2.965  1.00  0.00     0.035 C 
HETATM   36  O2  UNL     1      -7.723  -2.310   1.821  1.00  0.00    -0.224 OA
ENDBRANCH  12  33
TORSDOF 5
