REMARK  2 active torsions:
REMARK  status: ('A' for Active; 'I' for Inactive)
REMARK    1  A    between atoms: C6_6  and  O1_7 
REMARK    2  A    between atoms: O1_7  and  C7_8 
ROOT
HETATM    1  C1  UNL     1      -2.600  -0.389   1.809  1.00  0.00     0.030 C 
HETATM    2  C2  UNL     1      -2.371  -1.902   1.803  1.00  0.00     0.003 C 
HETATM    3  C3  UNL     1      -1.900  -2.407   0.423  1.00  0.00     0.000 C 
HETATM    4  C4  UNL     1      -0.654  -1.579  -0.003  1.00  0.00     0.010 C 
HETATM    5  C5  UNL     1      -0.687  -0.021   0.130  1.00  0.00     0.054 C 
HETATM    6  C6  UNL     1      -1.314   0.377   1.488  1.00  0.00     0.127 C 
HETATM    7  C9  UNL     1       0.799   0.476   0.000  1.00  0.00     0.016 C 
HETATM    8  C10 UNL     1       1.268   0.206  -1.452  1.00  0.00     0.108 C 
HETATM    9  C11 UNL     1       0.228  -0.667  -2.131  1.00  0.00     0.225 C 
HETATM   10  C12 UNL     1      -0.096  -1.948  -1.389  1.00  0.00     0.060 C 
HETATM   11  O3  UNL     1      -0.963   0.049  -2.300  1.00  0.00    -0.332 OA
HETATM   12  C13 UNL     1      -1.430   0.574  -1.079  1.00  0.00     0.147 C 
HETATM   13  O4  UNL     1       0.589  -0.940  -3.465  1.00  0.00    -0.195 OA
HETATM   14  C14 UNL     1       1.567   1.523  -2.206  1.00  0.00     0.047 C 
HETATM   15  C15 UNL     1       2.827   1.956  -1.464  1.00  0.00     0.149 C 
HETATM   16  C16 UNL     1       2.485   2.442  -0.054  1.00  0.00     0.035 C 
HETATM   17  C17 UNL     1       1.110   1.931   0.421  1.00  0.00     0.004 C 
HETATM   18  C18 UNL     1       3.559   0.639  -1.405  1.00  0.00     0.040 C 
HETATM   19  C19 UNL     1       2.679  -0.391  -1.391  1.00  0.00     0.175 C 
HETATM   20  O5  UNL     1       2.957  -1.563  -1.302  1.00  0.00    -0.291 OA
HETATM   21  C20 UNL     1       4.888   0.480  -1.339  1.00  0.00     0.001 C 
HETATM   22  O6  UNL     1       3.534   2.925  -2.197  1.00  0.00    -0.221 OA
HETATM   23  C21 UNL     1      -1.494  -3.894   0.583  1.00  0.00     0.000 C 
HETATM   24  C22 UNL     1      -3.091  -2.388  -0.562  1.00  0.00     0.000 C 
ENDROOT
BRANCH   6  25
HETATM   25  O1  UNL     1      -1.612   1.744   1.512  1.00  0.00    -0.304 OA
BRANCH  25  26
HETATM   26  C7  UNL     1      -1.507   2.528   2.625  1.00  0.00     0.272 C 
HETATM   27  O2  UNL     1      -1.807   3.703   2.606  1.00  0.00    -0.264 OA
HETATM   28  C8  UNL     1      -0.969   1.880   3.890  1.00  0.00     0.106 C 
ENDBRANCH  25  26
ENDBRANCH   6  25
TORSDOF 2
