REMARK  0 active torsions:
REMARK  status: ('A' for Active; 'I' for Inactive)
ROOT
HETATM    1  C1  UNL     1      -2.294  -0.659   2.103  1.00  0.00     0.030 C 
HETATM    2  C2  UNL     1      -2.950  -1.630   1.120  1.00  0.00     0.003 C 
HETATM    3  C3  UNL     1      -1.969  -2.584   0.393  1.00  0.00     0.003 C 
HETATM    4  C4  UNL     1      -0.587  -1.904   0.122  1.00  0.00     0.040 C 
HETATM    5  C5  UNL     1      -0.596  -0.347   0.163  1.00  0.00     0.058 C 
HETATM    6  C6  UNL     1      -1.084   0.100   1.545  1.00  0.00     0.120 C 
HETATM    7  O1  UNL     1      -1.308   1.481   1.511  1.00  0.00    -0.337 OA
HETATM    8  C7  UNL     1      -0.309   2.267   2.110  1.00  0.00     0.187 C 
HETATM    9  O2  UNL     1       0.990   1.858   1.750  1.00  0.00    -0.337 OA
HETATM   10  C8  UNL     1       1.221   1.625   0.388  1.00  0.00     0.119 C 
HETATM   11  C9  UNL     1       0.848   0.201  -0.043  1.00  0.00     0.046 C 
HETATM   12  C10 UNL     1       1.264  -0.020  -1.517  1.00  0.00     0.138 C 
HETATM   13  C11 UNL     1       0.335  -1.110  -2.029  1.00  0.00     0.256 C 
HETATM   14  C12 UNL     1       0.178  -2.332  -1.146  1.00  0.00     0.206 C 
HETATM   15  O3  UNL     1       1.425  -2.886  -0.801  1.00  0.00    -0.218 OA
HETATM   16  O4  UNL     1      -0.963  -0.589  -2.199  1.00  0.00    -0.330 OA
HETATM   17  C13 UNL     1      -1.379   0.137  -1.063  1.00  0.00     0.147 C 
HETATM   18  O5  UNL     1       0.695  -1.427  -3.350  1.00  0.00    -0.192 OA
HETATM   19  C14 UNL     1       2.797  -0.144  -1.583  1.00  0.00     0.168 C 
HETATM   20  C15 UNL     1       3.191   1.304  -1.257  1.00  0.00     0.059 C 
HETATM   21  C16 UNL     1       2.739   1.780   0.139  1.00  0.00     0.037 C 
HETATM   22  C17 UNL     1       2.309   1.972  -2.273  1.00  0.00     0.015 C 
HETATM   23  C18 UNL     1       1.188   1.228  -2.436  1.00  0.00     0.176 C 
HETATM   24  O6  UNL     1       0.320   1.470  -3.241  1.00  0.00    -0.291 OA
HETATM   25  C19 UNL     1       2.570   3.111  -2.926  1.00  0.00    -0.002 C 
HETATM   26  O7  UNL     1       3.374  -1.049  -0.682  1.00  0.00    -0.223 OA
HETATM   27  C20 UNL     1      -0.419   2.183   3.634  1.00  0.00     0.061 C 
HETATM   28  C21 UNL     1      -0.549   3.723   1.707  1.00  0.00     0.061 C 
HETATM   29  C22 UNL     1      -2.717  -3.111  -0.857  1.00  0.00     0.000 C 
HETATM   30  C23 UNL     1      -1.729  -3.823   1.293  1.00  0.00     0.000 C 
ENDROOT
TORSDOF 0
