REMARK  5 active torsions:
REMARK  status: ('A' for Active; 'I' for Inactive)
REMARK    1  A    between atoms: C3_3  and  C21_27 
REMARK    2  A    between atoms: C16_20  and  C18_23 
REMARK    3  A    between atoms: C18_23  and  O6_24 
REMARK    4  A    between atoms: C21_27  and  O7_28 
REMARK    5  A    between atoms: O7_28  and  C22_29 
ROOT
HETATM    1  C1  UNL     1      -3.076   0.138   1.905  1.00  0.00     0.033 C 
HETATM    2  C2  UNL     1      -3.041  -1.397   1.912  1.00  0.00     0.005 C 
HETATM    3  C3  UNL     1      -2.374  -1.994   0.647  1.00  0.00     0.031 C 
HETATM    4  C4  UNL     1      -0.972  -1.318   0.507  1.00  0.00     0.043 C 
HETATM    5  C5  UNL     1      -0.884   0.233   0.553  1.00  0.00     0.059 C 
HETATM    6  C6  UNL     1      -1.683   0.750   1.763  1.00  0.00     0.154 C 
HETATM    7  O1  UNL     1      -0.979   0.476   2.954  1.00  0.00    -0.223 OA
HETATM    8  C7  UNL     1       0.626   0.679   0.605  1.00  0.00     0.016 C 
HETATM    9  C8  UNL     1       1.280   0.370  -0.765  1.00  0.00     0.104 C 
HETATM   10  C9  UNL     1       0.338  -0.593  -1.471  1.00  0.00     0.253 C 
HETATM   11  C10 UNL     1      -0.091  -1.798  -0.653  1.00  0.00     0.206 C 
HETATM   12  O2  UNL     1       1.008  -2.509  -0.138  1.00  0.00    -0.218 OA
HETATM   13  O3  UNL     1      -0.812   0.102  -1.872  1.00  0.00    -0.330 OA
HETATM   14  C11 UNL     1      -1.417   0.765  -0.786  1.00  0.00     0.147 C 
HETATM   15  O4  UNL     1       0.864  -1.017  -2.705  1.00  0.00    -0.192 OA
HETATM   16  C12 UNL     1       1.614   1.671  -1.531  1.00  0.00     0.012 C 
HETATM   17  C13 UNL     1       2.772   2.235  -0.686  1.00  0.00     0.010 C 
HETATM   18  C14 UNL     1       2.213   2.738   0.658  1.00  0.00     0.001 C 
HETATM   19  C15 UNL     1       0.834   2.157   1.013  1.00  0.00     0.001 C 
HETATM   20  C16 UNL     1       3.695   1.006  -0.586  1.00  0.00     0.087 C 
HETATM   21  C17 UNL     1       2.712  -0.148  -0.607  1.00  0.00     0.157 C 
HETATM   22  O5  UNL     1       3.079  -1.298  -0.560  1.00  0.00    -0.296 OA
HETATM   23  C20 UNL     1      -2.164  -3.510   0.900  1.00  0.00     0.003 C 
ENDROOT
BRANCH   3  24
HETATM   24  C21 UNL     1      -3.388  -1.873  -0.518  1.00  0.00     0.152 C 
BRANCH  24  25
HETATM   25  O7  UNL     1      -2.813  -2.234  -1.741  1.00  0.00    -0.302 OA
BRANCH  25  26
HETATM   26  C22 UNL     1      -3.281  -1.810  -2.947  1.00  0.00     0.272 C 
HETATM   27  O8  UNL     1      -2.690  -2.043  -3.981  1.00  0.00    -0.264 OA
HETATM   28  C23 UNL     1      -4.596  -1.052  -2.934  1.00  0.00     0.106 C 
ENDBRANCH  25  26
ENDBRANCH  24  25
ENDBRANCH   3  24
BRANCH  20  29
HETATM   29  C18 UNL     1       4.701   0.914   0.557  1.00  0.00     0.150 C 
BRANCH  29  30
HETATM   30  O6  UNL     1       5.496   2.073   0.567  1.00  0.00    -0.351 OA
HETATM   31  C19 UNL     1       6.425   2.073   1.629  1.00  0.00     0.174 C 
ENDBRANCH  29  30
ENDBRANCH  20  29
TORSDOF 5
