REMARK  0 active torsions:
REMARK  status: ('A' for Active; 'I' for Inactive)
ROOT
HETATM    1  C1  UNL     1      -2.869  -0.132   2.213  1.00  0.00     0.033 C 
HETATM    2  C2  UNL     1      -2.449  -1.594   2.365  1.00  0.00     0.003 C 
HETATM    3  C3  UNL     1      -1.923  -2.171   1.035  1.00  0.00     0.003 C 
HETATM    4  C4  UNL     1      -0.775  -1.255   0.513  1.00  0.00     0.040 C 
HETATM    5  C5  UNL     1      -0.942   0.298   0.541  1.00  0.00     0.059 C 
HETATM    6  C6  UNL     1      -1.679   0.737   1.824  1.00  0.00     0.154 C 
HETATM    7  O1  UNL     1      -2.159   2.058   1.728  1.00  0.00    -0.223 OA
HETATM    8  C7  UNL     1       0.497   0.930   0.470  1.00  0.00     0.015 C 
HETATM    9  C8  UNL     1       1.197   0.458  -0.845  1.00  0.00     0.113 C 
HETATM   10  C9  UNL     1       0.186  -0.389  -1.610  1.00  0.00     0.252 C 
HETATM   11  C10 UNL     1      -0.255  -1.633  -0.875  1.00  0.00     0.206 C 
HETATM   12  O2  UNL     1       0.827  -2.529  -0.778  1.00  0.00    -0.218 OA
HETATM   13  O3  UNL     1       0.677  -0.792  -2.874  1.00  0.00    -0.193 OA
HETATM   14  O4  UNL     1      -0.939   0.396  -1.903  1.00  0.00    -0.331 OA
HETATM   15  C11 UNL     1      -1.669   0.721  -0.744  1.00  0.00     0.147 C 
HETATM   16  C12 UNL     1       1.677   1.715  -1.587  1.00  0.00     0.163 C 
HETATM   17  C13 UNL     1       2.770   2.296  -0.650  1.00  0.00     0.051 C 
HETATM   18  C14 UNL     1       1.849   3.180   0.244  1.00  0.00     0.007 C 
HETATM   19  C15 UNL     1       0.548   2.467   0.690  1.00  0.00     0.001 C 
HETATM   20  C16 UNL     1       3.506   0.967  -0.619  1.00  0.00    -0.012 C 
HETATM   21  C17 UNL     1       2.563  -0.211  -0.577  1.00  0.00     0.178 C 
HETATM   22  O5  UNL     1       2.925  -1.109  -1.611  1.00  0.00    -0.219 OA
HETATM   23  C18 UNL     1       4.841   0.864  -0.692  1.00  0.00    -0.007 C 
HETATM   24  O6  UNL     1       2.237   1.402  -2.842  1.00  0.00    -0.223 OA
HETATM   25  C19 UNL     1      -1.362  -3.586   1.333  1.00  0.00     0.000 C 
HETATM   26  C20 UNL     1      -3.119  -2.390   0.077  1.00  0.00     0.000 C 
ENDROOT
TORSDOF 0
