REMARK  6 active torsions:
REMARK  status: ('A' for Active; 'I' for Inactive)
REMARK    1  A    between atoms: C6_6  and  O1_7 
REMARK    2  A    between atoms: O1_7  and  C7_8 
REMARK    3  A    between atoms: C12_14  and  O3_15 
REMARK    4  A    between atoms: O3_15  and  C13_16 
REMARK    5  A    between atoms: C21_27  and  O7_28 
REMARK    6  A    between atoms: O7_28  and  C22_29 
ROOT
HETATM    1  C1  UNL     1      -3.356   0.632   1.605  1.00  0.00     0.030 C 
HETATM    2  C2  UNL     1      -3.177  -0.882   1.764  1.00  0.00     0.003 C 
HETATM    3  C3  UNL     1      -2.528  -1.529   0.520  1.00  0.00     0.003 C 
HETATM    4  C4  UNL     1      -1.230  -0.749   0.131  1.00  0.00     0.037 C 
HETATM    5  C5  UNL     1      -1.250   0.811   0.155  1.00  0.00     0.056 C 
HETATM    6  C6  UNL     1      -2.006   1.321   1.403  1.00  0.00     0.127 C 
HETATM    7  C9  UNL     1       0.230   1.341   0.140  1.00  0.00     0.012 C 
HETATM    8  C10 UNL     1       0.885   0.952  -1.213  1.00  0.00     0.082 C 
HETATM    9  C11 UNL     1      -0.104   0.045  -1.939  1.00  0.00     0.247 C 
HETATM   10  C12 UNL     1      -0.607  -1.186  -1.205  1.00  0.00     0.178 C 
HETATM   11  O5  UNL     1       0.370  -0.329  -3.213  1.00  0.00    -0.193 OA
HETATM   12  O6  UNL     1      -1.232   0.801  -2.293  1.00  0.00    -0.331 OA
HETATM   13  C15 UNL     1      -1.883   1.316  -1.155  1.00  0.00     0.147 C 
HETATM   14  C16 UNL     1       1.203   2.240  -2.021  1.00  0.00     0.012 C 
HETATM   15  C17 UNL     1       2.331   2.853  -1.181  1.00  0.00     0.021 C 
HETATM   16  C18 UNL     1       1.774   3.415   0.136  1.00  0.00     0.004 C 
HETATM   17  C19 UNL     1       0.388   2.843   0.474  1.00  0.00     0.001 C 
HETATM   18  C20 UNL     1       3.160   1.627  -0.892  1.00  0.00    -0.017 C 
HETATM   19  C21 UNL     1       2.322   0.383  -1.073  1.00  0.00     0.147 C 
HETATM   20  C24 UNL     1       4.441   1.671  -0.504  1.00  0.00    -0.007 C 
HETATM   21  C25 UNL     1      -2.158  -2.984   0.909  1.00  0.00     0.000 C 
HETATM   22  C26 UNL     1      -3.615  -1.654  -0.576  1.00  0.00     0.000 C 
ENDROOT
BRANCH   6  23
HETATM   23  O1  UNL     1      -1.215   1.108   2.541  1.00  0.00    -0.304 OA
BRANCH  23  24
HETATM   24  C7  UNL     1      -1.447   1.861   3.648  1.00  0.00     0.272 C 
HETATM   25  C8  UNL     1      -0.521   1.427   4.767  1.00  0.00     0.106 C 
HETATM   26  O2  UNL     1      -2.271   2.743   3.735  1.00  0.00    -0.264 OA
ENDBRANCH  23  24
ENDBRANCH   6  23
BRANCH  10  27
HETATM   27  O3  UNL     1       0.394  -2.144  -1.001  1.00  0.00    -0.299 OA
BRANCH  27  28
HETATM   28  C13 UNL     1       0.302  -3.345  -1.641  1.00  0.00     0.273 C 
HETATM   29  C14 UNL     1       1.288  -4.338  -1.058  1.00  0.00     0.106 C 
HETATM   30  O4  UNL     1      -0.502  -3.624  -2.502  1.00  0.00    -0.264 OA
ENDBRANCH  27  28
ENDBRANCH  10  27
BRANCH  19  31
HETATM   31  O7  UNL     1       2.455  -0.512  -0.002  1.00  0.00    -0.300 OA
BRANCH  31  32
HETATM   32  C22 UNL     1       3.280  -1.599  -0.025  1.00  0.00     0.273 C 
HETATM   33  O8  UNL     1       3.403  -2.325   0.938  1.00  0.00    -0.264 OA
HETATM   34  C23 UNL     1       4.014  -1.892  -1.324  1.00  0.00     0.106 C 
ENDBRANCH  31  32
ENDBRANCH  19  31
TORSDOF 6
