REMARK  2 active torsions:
REMARK  status: ('A' for Active; 'I' for Inactive)
REMARK    1  A    between atoms: C2_2  and  O6_26 
REMARK    2  A    between atoms: O6_26  and  C21_27 
ROOT
HETATM    1  C1  UNL     1      -2.473   0.300  -0.302  1.00  0.00     0.060 C 
HETATM    2  C2  UNL     1      -2.416  -1.225  -0.178  1.00  0.00     0.127 C 
HETATM    3  C3  UNL     1      -1.478  -1.817  -1.252  1.00  0.00     0.031 C 
HETATM    4  C4  UNL     1      -0.052  -1.209  -1.091  1.00  0.00     0.067 C 
HETATM    5  C5  UNL     1       0.060   0.315  -0.835  1.00  0.00     0.059 C 
HETATM    6  C6  UNL     1      -1.102   0.918  -0.041  1.00  0.00     0.129 C 
HETATM    7  O1  UNL     1      -1.168   2.295  -0.237  1.00  0.00    -0.304 OA
HETATM    8  C7  UNL     1      -0.027   3.025  -0.141  1.00  0.00     0.278 C 
HETATM    9  C8  UNL     1       1.192   2.269   0.384  1.00  0.00     0.133 C 
HETATM   10  C9  UNL     1       1.333   0.789  -0.069  1.00  0.00     0.021 C 
HETATM   11  C10 UNL     1       1.777  -0.095   1.120  1.00  0.00     0.001 C 
HETATM   12  C11 UNL     1       2.865   0.544   2.008  1.00  0.00     0.004 C 
HETATM   13  C12 UNL     1       2.684   2.059   2.204  1.00  0.00     0.026 C 
HETATM   14  C13 UNL     1       1.227   2.435   1.921  1.00  0.00     0.021 C 
HETATM   15  C14 UNL     1       3.355   2.816   1.083  1.00  0.00     0.013 C 
HETATM   16  C15 UNL     1       2.526   2.941   0.018  1.00  0.00     0.177 C 
HETATM   17  O2  UNL     1       2.780   3.437  -1.055  1.00  0.00    -0.291 OA
HETATM   18  C16 UNL     1       4.609   3.285   1.108  1.00  0.00    -0.002 C 
HETATM   19  O3  UNL     1      -0.003   4.219  -0.353  1.00  0.00    -0.264 OA
HETATM   20  C17 UNL     1       0.152   0.813  -2.288  1.00  0.00     0.147 C 
HETATM   21  O4  UNL     1       0.735  -0.194  -3.081  1.00  0.00    -0.329 OA
HETATM   22  C18 UNL     1       0.800  -1.380  -2.333  1.00  0.00     0.269 C 
HETATM   23  O5  UNL     1       2.183  -1.443  -2.032  1.00  0.00    -0.190 OA
HETATM   24  C19 UNL     1      -1.400  -3.356  -1.053  1.00  0.00     0.003 C 
HETATM   25  C20 UNL     1      -2.118  -1.631  -2.652  1.00  0.00     0.003 C 
ENDROOT
BRANCH   2  26
HETATM   26  O6  UNL     1      -1.943  -1.563   1.098  1.00  0.00    -0.304 OA
BRANCH  26  27
HETATM   27  C21 UNL     1      -2.714  -2.044   2.113  1.00  0.00     0.272 C 
HETATM   28  O7  UNL     1      -2.236  -2.334   3.190  1.00  0.00    -0.264 OA
HETATM   29  C22 UNL     1      -4.202  -2.181   1.852  1.00  0.00     0.106 C 
ENDBRANCH  26  27
ENDBRANCH   2  26
TORSDOF 2
