REMARK  1 active torsions:
REMARK  status: ('A' for Active; 'I' for Inactive)
REMARK    1  A    between atoms: C9_9  and  C11_11 
ROOT
HETATM    1  C1  UNL     1       1.616   0.997   0.290  1.00  0.00     0.002 C 
HETATM    2  C2  UNL     1       3.013   0.618  -0.298  1.00  0.00     0.003 C 
HETATM    3  C3  UNL     1       3.349  -0.861  -0.016  1.00  0.00     0.003 C 
HETATM    4  C4  UNL     1       2.287  -1.804  -0.599  1.00  0.00     0.030 C 
HETATM    5  C5  UNL     1       0.872  -1.482  -0.107  1.00  0.00     0.127 C 
HETATM    6  C6  UNL     1       0.562   0.010  -0.326  1.00  0.00     0.028 C 
HETATM    7  C7  UNL     1      -0.918   0.314  -0.014  1.00  0.00     0.003 C 
HETATM    8  C8  UNL     1      -1.875  -0.605  -0.793  1.00  0.00     0.004 C 
HETATM    9  C9  UNL     1      -1.620  -2.096  -0.489  1.00  0.00     0.021 C 
HETATM   10  C10 UNL     1      -0.141  -2.382  -0.832  1.00  0.00     0.035 C 
HETATM   11  C13 UNL     1      -2.538  -2.968  -1.372  1.00  0.00     0.004 C 
HETATM   12  O1  UNL     1       0.821  -1.803   1.257  1.00  0.00    -0.226 OA
HETATM   13  C14 UNL     1       4.189   1.620  -0.079  1.00  0.00     0.028 C 
HETATM   14  C15 UNL     1       3.722   3.026  -0.507  1.00  0.00     0.152 C 
HETATM   15  C16 UNL     1       2.404   3.458   0.125  1.00  0.00     0.033 C 
HETATM   16  C17 UNL     1       1.287   2.445  -0.158  1.00  0.00     0.003 C 
HETATM   17  O2  UNL     1       4.697   4.001  -0.213  1.00  0.00    -0.224 OA
HETATM   18  C18 UNL     1       5.385   1.245  -0.999  1.00  0.00     0.003 C 
HETATM   19  C19 UNL     1       4.747   1.610   1.360  1.00  0.00     0.003 C 
HETATM   20  C20 UNL     1       1.562   0.965   1.835  1.00  0.00     0.000 C 
ENDROOT
BRANCH   9  21
HETATM   21  C11 UNL     1      -1.979  -2.398   0.956  1.00  0.00    -0.027 C 
HETATM   22  C12 UNL     1      -1.600  -3.489   1.637  1.00  0.00    -0.005 C 
ENDBRANCH   9  21
TORSDOF 1
