REMARK  5 active torsions:
REMARK  status: ('A' for Active; 'I' for Inactive)
REMARK    1  A    between atoms: C3_3  and  C21_25 
REMARK    2  A    between atoms: C14_15  and  O2_16 
REMARK    3  A    between atoms: O2_16  and  C15_17 
REMARK    4  A    between atoms: C21_25  and  O5_26 
REMARK    5  A    between atoms: O5_26  and  C22_27 
ROOT
HETATM    1  C1  UNL     1       5.003  -1.751  -1.686  1.00  0.00     0.000 C 
HETATM    2  C2  UNL     1       5.896  -0.632  -1.141  1.00  0.00     0.002 C 
HETATM    3  C3  UNL     1       5.179   0.733  -0.961  1.00  0.00     0.028 C 
HETATM    4  C4  UNL     1       3.873   0.477  -0.144  1.00  0.00     0.005 C 
HETATM    5  C5  UNL     1       2.893  -0.640  -0.644  1.00  0.00     0.003 C 
HETATM    6  C6  UNL     1       3.734  -1.933  -0.840  1.00  0.00     0.000 C 
HETATM    7  C7  UNL     1       1.788  -0.904   0.455  1.00  0.00     0.037 C 
HETATM    8  C8  UNL     1       1.124   0.370   1.039  1.00  0.00     0.086 C 
HETATM    9  C9  UNL     1       2.186   1.377   1.458  1.00  0.00     0.159 C 
HETATM   10  C10 UNL     1       3.108   1.741   0.304  1.00  0.00     0.034 C 
HETATM   11  O1  UNL     1       1.568   2.500   2.038  1.00  0.00    -0.223 OA
HETATM   12  C11 UNL     1      -0.006   0.883   0.123  1.00  0.00     0.014 C 
HETATM   13  C12 UNL     1      -1.085  -0.197   0.311  1.00  0.00     0.028 C 
HETATM   14  C13 UNL     1      -0.616  -1.490  -0.369  1.00  0.00     0.035 C 
HETATM   15  C14 UNL     1       0.735  -2.009   0.164  1.00  0.00     0.125 C 
HETATM   16  C17 UNL     1      -1.055  -0.339   1.808  1.00  0.00     0.012 C 
HETATM   17  C18 UNL     1       0.280   0.066   2.283  1.00  0.00     0.171 C 
HETATM   18  O4  UNL     1       0.609   0.355   3.427  1.00  0.00    -0.292 OA
HETATM   19  C19 UNL     1      -2.045  -0.767   2.609  1.00  0.00    -0.002 C 
HETATM   20  C20 UNL     1       2.251  -0.302  -2.007  1.00  0.00     0.000 C 
HETATM   21  C24 UNL     1       4.951   1.394  -2.337  1.00  0.00     0.003 C 
ENDROOT
BRANCH   3  22
HETATM   22  C21 UNL     1       6.193   1.625  -0.189  1.00  0.00     0.152 C 
BRANCH  22  23
HETATM   23  O5  UNL     1       5.904   2.992  -0.326  1.00  0.00    -0.302 OA
BRANCH  23  24
HETATM   24  C22 UNL     1       6.863   3.878   0.053  1.00  0.00     0.272 C 
HETATM   25  C23 UNL     1       6.384   5.296  -0.185  1.00  0.00     0.106 C 
HETATM   26  O6  UNL     1       7.943   3.580   0.510  1.00  0.00    -0.264 OA
ENDBRANCH  23  24
ENDBRANCH  22  23
ENDBRANCH   3  22
BRANCH  15  27
HETATM   27  O2  UNL     1       0.472  -2.712   1.354  1.00  0.00    -0.304 OA
BRANCH  27  28
HETATM   28  C15 UNL     1       0.700  -4.043   1.551  1.00  0.00     0.272 C 
HETATM   29  O3  UNL     1       0.445  -4.582   2.608  1.00  0.00    -0.264 OA
HETATM   30  C16 UNL     1       1.287  -4.836   0.398  1.00  0.00     0.106 C 
ENDBRANCH  27  28
ENDBRANCH  15  27
TORSDOF 5
