REMARK  0 active torsions:
REMARK  status: ('A' for Active; 'I' for Inactive)
ROOT
HETATM    1  C1  UNL     1      -2.432   0.579   0.693  1.00  0.00     0.000 C 
HETATM    2  C2  UNL     1      -2.505  -0.941   0.522  1.00  0.00     0.000 C 
HETATM    3  C3  UNL     1      -1.669  -1.473  -0.666  1.00  0.00     0.000 C 
HETATM    4  C4  UNL     1      -0.237  -0.859  -0.618  1.00  0.00     0.000 C 
HETATM    5  C5  UNL     1      -0.082   0.676  -0.396  1.00  0.00     0.003 C 
HETATM    6  C6  UNL     1      -0.972   1.036   0.819  1.00  0.00     0.000 C 
HETATM    7  C7  UNL     1       1.440   1.051  -0.212  1.00  0.00     0.037 C 
HETATM    8  C8  UNL     1       2.461  -0.115  -0.261  1.00  0.00     0.058 C 
HETATM    9  C9  UNL     1       2.183  -1.150  -1.363  1.00  0.00     0.007 C 
HETATM   10  C10 UNL     1       0.705  -1.342  -1.730  1.00  0.00     0.000 C 
HETATM   11  C11 UNL     1       3.885   0.465  -0.482  1.00  0.00     0.012 C 
HETATM   12  C12 UNL     1       4.169   1.180   0.844  1.00  0.00     0.028 C 
HETATM   13  C13 UNL     1       3.289   2.438   0.904  1.00  0.00     0.037 C 
HETATM   14  C14 UNL     1       1.793   2.096   0.871  1.00  0.00     0.153 C 
HETATM   15  O1  UNL     1       1.451   1.649   2.162  1.00  0.00    -0.223 OA
HETATM   16  C15 UNL     1       3.698   0.111   1.795  1.00  0.00     0.012 C 
HETATM   17  C16 UNL     1       2.660  -0.713   1.135  1.00  0.00     0.168 C 
HETATM   18  O2  UNL     1       2.131  -1.717   1.592  1.00  0.00    -0.292 OA
HETATM   19  C17 UNL     1       4.110  -0.083   3.059  1.00  0.00    -0.002 C 
HETATM   20  C18 UNL     1      -0.579   1.544  -1.585  1.00  0.00     0.000 C 
HETATM   21  C19 UNL     1      -1.602  -3.016  -0.481  1.00  0.00     0.000 C 
HETATM   22  C20 UNL     1      -2.418  -1.244  -1.995  1.00  0.00     0.000 C 
ENDROOT
TORSDOF 0
