REMARK  1 active torsions:
REMARK  status: ('A' for Active; 'I' for Inactive)
REMARK    1  A    between atoms: C4_4  and  C9_9 
ROOT
HETATM    1  C1  UNL     1      -0.926   0.957  -0.329  1.00  0.00     0.000 A 
HETATM    2  C2  UNL     1      -1.148  -0.518  -0.568  1.00  0.00     0.000 A 
HETATM    3  C3  UNL     1       0.266   0.035  -0.477  1.00  0.00     0.002 A 
HETATM    4  C4  UNL     1       1.055  -0.415   0.759  1.00  0.00     0.028 C 
HETATM    5  C5  UNL     1       0.914   0.600   1.908  1.00  0.00     0.002 C 
HETATM    6  C6  UNL     1      -0.569   0.844   2.216  1.00  0.00     0.000 C 
HETATM    7  C7  UNL     1      -1.253   1.553   1.035  1.00  0.00     0.000 C 
HETATM    8  C8  UNL     1      -2.766   1.654   1.291  1.00  0.00     0.000 C 
HETATM    9  C12 UNL     1      -1.766  -0.644  -1.962  1.00  0.00     0.000 C 
HETATM   10  C13 UNL     1      -2.377   0.743  -2.244  1.00  0.00     0.000 C 
HETATM   11  C14 UNL     1      -1.390   1.711  -1.572  1.00  0.00     0.000 C 
HETATM   12  C15 UNL     1      -2.797  -1.772  -2.095  1.00  0.00     0.000 C 
ENDROOT
BRANCH   4  13
HETATM   13  C9  UNL     1       2.521  -0.803   0.457  1.00  0.00     0.127 C 
HETATM   14  C10 UNL     1       3.152  -1.626   1.587  1.00  0.00     0.033 C 
HETATM   15  C11 UNL     1       3.410   0.404   0.145  1.00  0.00     0.033 C 
HETATM   16  O1  UNL     1       2.522  -1.633  -0.680  1.00  0.00    -0.226 OA
ENDBRANCH   4  13
TORSDOF 1
