REMARK  1 active torsions:
REMARK  status: ('A' for Active; 'I' for Inactive)
REMARK    1  A    between atoms: C11_12  and  C14_15 
ROOT
HETATM    1  C1  UNL     1      -2.297   1.264   0.059  1.00  0.00     0.033 C 
HETATM    2  C2  UNL     1      -2.393  -0.242   0.274  1.00  0.00     0.152 C 
HETATM    3  C3  UNL     1      -1.535  -1.040  -0.728  1.00  0.00     0.028 C 
HETATM    4  C4  UNL     1      -0.061  -0.529  -0.644  1.00  0.00     0.003 C 
HETATM    5  C5  UNL     1       0.201   1.003  -0.609  1.00  0.00     0.002 C 
HETATM    6  C6  UNL     1      -0.850   1.719   0.287  1.00  0.00     0.003 C 
HETATM    7  C7  UNL     1       1.665   1.217  -0.058  1.00  0.00     0.025 C 
HETATM    8  C8  UNL     1       2.749   0.231  -0.573  1.00  0.00     0.093 C 
HETATM    9  C9  UNL     1       2.264  -0.561  -1.796  1.00  0.00     0.027 C 
HETATM   10  C10 UNL     1       0.913  -1.261  -1.590  1.00  0.00     0.003 C 
HETATM   11  O1  UNL     1       3.026  -0.751   0.382  1.00  0.00    -0.360 OA
HETATM   12  C11 UNL     1       3.617  -0.351   1.595  1.00  0.00     0.111 C 
HETATM   13  C12 UNL     1       3.141   1.041   2.022  1.00  0.00     0.032 C 
HETATM   14  C13 UNL     1       1.732   1.294   1.486  1.00  0.00     0.005 C 
HETATM   15  C16 UNL     1       3.167  -1.404   2.626  1.00  0.00     0.034 C 
HETATM   16  C17 UNL     1       4.034   0.944  -1.040  1.00  0.00     0.030 C 
HETATM   17  C18 UNL     1       0.050   1.680  -1.999  1.00  0.00     0.000 C 
HETATM   18  C19 UNL     1      -1.582  -2.531  -0.302  1.00  0.00     0.003 C 
HETATM   19  C20 UNL     1      -2.139  -0.978  -2.149  1.00  0.00     0.003 C 
HETATM   20  O2  UNL     1      -3.748  -0.624   0.220  1.00  0.00    -0.224 OA
ENDROOT
BRANCH  12  21
HETATM   21  C14 UNL     1       5.133  -0.437   1.539  1.00  0.00     0.000 C 
HETATM   22  C15 UNL     1       5.949  -0.018   2.516  1.00  0.00    -0.003 C 
ENDBRANCH  12  21
TORSDOF 1
