REMARK  1 active torsions:
REMARK  status: ('A' for Active; 'I' for Inactive)
REMARK    1  A    between atoms: C12_12  and  C17_18 
ROOT
HETATM    1  C1  UNL     1      -2.921  -0.083   2.100  1.00  0.00     0.065 C 
HETATM    2  C2  UNL     1      -2.908  -1.574   2.045  1.00  0.00     0.150 C 
HETATM    3  C3  UNL     1      -2.206  -2.176   0.852  1.00  0.00     0.051 C 
HETATM    4  C4  UNL     1      -0.770  -1.668   0.852  1.00  0.00     0.006 C 
HETATM    5  C5  UNL     1      -0.770  -0.145   0.852  1.00  0.00     0.001 C 
HETATM    6  C6  UNL     1      -1.465   0.362   2.109  1.00  0.00     0.008 C 
HETATM    7  C7  UNL     1       0.665   0.362   0.825  1.00  0.00     0.000 C 
HETATM    8  C8  UNL     1       1.362  -0.151  -0.428  1.00  0.00     0.003 C 
HETATM    9  C9  UNL     1       1.379  -1.674  -0.412  1.00  0.00     0.000 C 
HETATM   10  C10 UNL     1      -0.052  -2.176  -0.391  1.00  0.00     0.000 C 
HETATM   11  C11 UNL     1       2.792   0.372  -0.465  1.00  0.00     0.033 C 
HETATM   12  C12 UNL     1       2.774   1.895  -0.500  1.00  0.00     0.157 C 
HETATM   13  C13 UNL     1       1.333   2.387  -0.455  1.00  0.00     0.031 C 
HETATM   14  C14 UNL     1       0.665   1.885   0.819  1.00  0.00     0.003 C 
HETATM   15  C15 UNL     1       0.577   1.858  -1.667  1.00  0.00     0.003 C 
HETATM   16  C16 UNL     1       0.611   0.336  -1.661  1.00  0.00     0.000 C 
HETATM   17  O1  UNL     1       3.473   2.397   0.606  1.00  0.00    -0.223 OA
HETATM   18  C18 UNL     1      -1.512   0.362  -0.378  1.00  0.00     0.000 C 
HETATM   19  C19 UNL     1      -2.218  -3.695   0.958  1.00  0.00     0.007 C 
HETATM   20  C20 UNL     1      -2.912  -1.778  -0.437  1.00  0.00     0.007 C 
HETATM   21  O3  UNL     1      -3.426  -2.254   2.898  1.00  0.00    -0.296 OA
ENDROOT
BRANCH  12  22
HETATM   22  C17 UNL     1       3.436   2.381  -1.783  1.00  0.00     0.212 C 
HETATM   23  O2  UNL     1       3.419   3.783  -1.816  1.00  0.00    -0.218 OA
ENDBRANCH  12  22
TORSDOF 1
