REMARK  0 active torsions:
REMARK  status: ('A' for Active; 'I' for Inactive)
ROOT
HETATM    1  C1  UNL     1      -2.431   0.631   0.665  1.00  0.00     0.000 C 
HETATM    2  C2  UNL     1      -2.510  -0.891   0.526  1.00  0.00     0.000 C 
HETATM    3  C3  UNL     1      -1.689  -1.442  -0.662  1.00  0.00     0.000 C 
HETATM    4  C4  UNL     1      -0.247  -0.845  -0.624  1.00  0.00     0.000 C 
HETATM    5  C5  UNL     1      -0.070   0.690  -0.413  1.00  0.00     0.002 C 
HETATM    6  C6  UNL     1      -0.968   1.080   0.786  1.00  0.00     0.000 C 
HETATM    7  C7  UNL     1       1.453   1.060  -0.209  1.00  0.00     0.031 C 
HETATM    8  C8  UNL     1       2.463  -0.116  -0.302  1.00  0.00     0.006 C 
HETATM    9  C9  UNL     1       2.155  -1.025  -1.506  1.00  0.00     0.000 C 
HETATM   10  C10 UNL     1       0.677  -1.369  -1.731  1.00  0.00     0.000 C 
HETATM   11  C11 UNL     1       3.894   0.449  -0.505  1.00  0.00     0.004 C 
HETATM   12  C12 UNL     1       4.165   1.109   0.849  1.00  0.00     0.021 C 
HETATM   13  C13 UNL     1       3.323   2.391   0.935  1.00  0.00     0.037 C 
HETATM   14  C14 UNL     1       1.819   2.091   0.882  1.00  0.00     0.152 C 
HETATM   15  O1  UNL     1       1.434   1.675   2.173  1.00  0.00    -0.224 OA
HETATM   16  C15 UNL     1       3.650   0.039   1.778  1.00  0.00    -0.044 C 
HETATM   17  C16 UNL     1       2.656  -0.837   1.054  1.00  0.00     0.022 C 
HETATM   18  C17 UNL     1       3.993  -0.091   3.066  1.00  0.00    -0.009 C 
HETATM   19  C18 UNL     1      -0.540   1.535  -1.627  1.00  0.00     0.000 C 
HETATM   20  C19 UNL     1      -1.642  -2.985  -0.471  1.00  0.00     0.000 C 
HETATM   21  C20 UNL     1      -2.453  -1.216  -1.985  1.00  0.00     0.000 C 
ENDROOT
TORSDOF 0
