REMARK  3 active torsions:
REMARK  status: ('A' for Active; 'I' for Inactive)
REMARK    1  A    between atoms: C3_3  and  C20_22 
REMARK    2  A    between atoms: C20_22  and  O3_23 
REMARK    3  A    between atoms: O3_23  and  C21_24 
ROOT
HETATM    1  C1  UNL     1       5.033  -1.940  -1.673  1.00  0.00     0.000 C 
HETATM    2  C2  UNL     1       5.893  -0.824  -1.075  1.00  0.00     0.002 C 
HETATM    3  C3  UNL     1       5.151   0.526  -0.889  1.00  0.00     0.028 C 
HETATM    4  C4  UNL     1       3.827   0.233  -0.111  1.00  0.00     0.003 C 
HETATM    5  C5  UNL     1       2.882  -0.885  -0.664  1.00  0.00     0.003 C 
HETATM    6  C6  UNL     1       3.749  -2.162  -0.862  1.00  0.00     0.000 C 
HETATM    7  C7  UNL     1       1.761  -1.191   0.399  1.00  0.00     0.037 C 
HETATM    8  C8  UNL     1       1.060   0.036   1.036  1.00  0.00     0.058 C 
HETATM    9  C9  UNL     1       2.045   1.133   1.447  1.00  0.00     0.007 C 
HETATM   10  C10 UNL     1       3.022   1.475   0.317  1.00  0.00     0.001 C 
HETATM   11  C11 UNL     1      -0.095   0.563   0.161  1.00  0.00     0.012 C 
HETATM   12  C12 UNL     1      -1.145  -0.546   0.307  1.00  0.00     0.028 C 
HETATM   13  C13 UNL     1      -0.645  -1.784  -0.450  1.00  0.00     0.037 C 
HETATM   14  C14 UNL     1       0.730  -2.283   0.023  1.00  0.00     0.153 C 
HETATM   15  O1  UNL     1       0.516  -3.111   1.147  1.00  0.00    -0.223 OA
HETATM   16  C15 UNL     1      -1.086  -0.767   1.793  1.00  0.00     0.012 C 
HETATM   17  C16 UNL     1       0.277  -0.449   2.265  1.00  0.00     0.168 C 
HETATM   18  O2  UNL     1       0.710  -0.558   3.404  1.00  0.00    -0.292 OA
HETATM   19  C17 UNL     1      -2.076  -1.201   2.591  1.00  0.00    -0.002 C 
HETATM   20  C18 UNL     1       2.248  -0.530  -2.027  1.00  0.00     0.000 C 
HETATM   21  C19 UNL     1       4.952   1.204  -2.262  1.00  0.00     0.003 C 
ENDROOT
BRANCH   3  22
HETATM   22  C20 UNL     1       6.130   1.424  -0.076  1.00  0.00     0.152 C 
BRANCH  22  23
HETATM   23  O3  UNL     1       5.819   2.788  -0.207  1.00  0.00    -0.302 OA
BRANCH  23  24
HETATM   24  C21 UNL     1       6.557   3.764   0.392  1.00  0.00     0.272 C 
HETATM   25  O4  UNL     1       6.243   4.934   0.338  1.00  0.00    -0.264 OA
HETATM   26  C22 UNL     1       7.819   3.314   1.107  1.00  0.00     0.106 C 
ENDBRANCH  23  24
ENDBRANCH  22  23
ENDBRANCH   3  22
TORSDOF 3
