REMARK  5 active torsions:
REMARK  status: ('A' for Active; 'I' for Inactive)
REMARK    1  A    between atoms: C7_7  and  C13_14 
REMARK    2  A    between atoms: C13_14  and  C14_15 
REMARK    3  A    between atoms: C14_15  and  C15_16 
REMARK    4  A    between atoms: C15_16  and  C16_17 
REMARK    5  A    between atoms: C16_17  and  C17_18 
ROOT
HETATM    1  C1  UNL     1      -2.115  -0.845  -1.296  1.00  0.00     0.172 C 
HETATM    2  C2  UNL     1      -2.040  -2.278  -0.936  1.00  0.00     0.029 C 
HETATM    3  C3  UNL     1      -0.872  -2.934  -0.777  1.00  0.00    -0.042 C 
HETATM    4  C4  UNL     1       0.477  -2.235  -0.991  1.00  0.00     0.018 C 
HETATM    5  C5  UNL     1       0.324  -0.740  -0.596  1.00  0.00     0.011 C 
HETATM    6  C6  UNL     1      -0.811  -0.079  -1.397  1.00  0.00     0.070 C 
HETATM    7  C7  UNL     1       1.609   0.139  -0.442  1.00  0.00     0.003 C 
HETATM    8  C8  UNL     1       2.682  -0.632   0.390  1.00  0.00     0.030 C 
HETATM    9  C9  UNL     1       2.863  -2.105   0.006  1.00  0.00     0.152 C 
HETATM   10  C10 UNL     1       1.546  -2.868  -0.076  1.00  0.00     0.037 C 
HETATM   11  O1  UNL     1       3.592  -2.248  -1.188  1.00  0.00    -0.224 OA
HETATM   12  C11 UNL     1       4.071   0.035   0.490  1.00  0.00     0.003 C 
HETATM   13  C12 UNL     1       2.191   0.585  -1.807  1.00  0.00     0.000 C 
HETATM   14  C19 UNL     1       0.796  -2.481  -2.481  1.00  0.00     0.004 C 
HETATM   15  C20 UNL     1      -0.892  -4.420  -0.483  1.00  0.00     0.026 C 
HETATM   16  O4  UNL     1      -3.192  -0.296  -1.496  1.00  0.00    -0.291 OA
ENDROOT
BRANCH   7  17
HETATM   17  C13 UNL     1       1.261   1.490   0.277  1.00  0.00     0.000 C 
BRANCH  17  18
HETATM   18  C14 UNL     1       0.427   1.455   1.570  1.00  0.00     0.001 C 
BRANCH  18  19
HETATM   19  C15 UNL     1       0.340   2.803   2.322  1.00  0.00     0.011 C 
HETATM   20  C18 UNL     1      -0.523   2.613   3.587  1.00  0.00     0.001 C 
BRANCH  19  21
HETATM   21  C16 UNL     1      -0.239   3.951   1.468  1.00  0.00     0.098 C 
BRANCH  21  22
HETATM   22  C17 UNL     1       0.758   4.672   0.578  1.00  0.00     0.185 C 
HETATM   23  O2  UNL     1       0.137   5.428  -0.346  1.00  0.00    -0.647 OA
HETATM   24  O3  UNL     1       1.963   4.634   0.645  1.00  0.00    -0.647 OA
ENDBRANCH  21  22
ENDBRANCH  19  21
ENDBRANCH  18  19
ENDBRANCH  17  18
ENDBRANCH   7  17
TORSDOF 5
