REMARK  0 active torsions:
REMARK  status: ('A' for Active; 'I' for Inactive)
ROOT
HETATM    1  C1  UNL     1      -3.971   0.618   0.627  1.00  0.00     0.005 C 
HETATM    2  C2  UNL     1      -3.981  -0.652  -0.218  1.00  0.00     0.004 C 
HETATM    3  C3  UNL     1      -2.829  -1.624   0.149  1.00  0.00     0.018 C 
HETATM    4  C4  UNL     1      -1.466  -0.902   0.148  1.00  0.00    -0.030 A 
HETATM    5  C5  UNL     1      -1.454   0.513   0.225  1.00  0.00    -0.021 A 
HETATM    6  C6  UNL     1      -2.688   1.380   0.310  1.00  0.00     0.026 C 
HETATM    7  C7  UNL     1      -0.214   1.153   0.192  1.00  0.00     0.059 A 
HETATM    8  C8  UNL     1       0.999   0.495   0.102  1.00  0.00     0.033 A 
HETATM    9  C9  UNL     1       0.998  -0.887   0.062  1.00  0.00    -0.004 A 
HETATM   10  C10 UNL     1      -0.222  -1.587   0.095  1.00  0.00    -0.026 A 
HETATM   11  C11 UNL     1      -0.056  -3.094   0.086  1.00  0.00     0.031 C 
HETATM   12  C12 UNL     1       2.141   1.478   0.096  1.00  0.00     0.215 A 
HETATM   13  O1  UNL     1       1.520   2.766   0.181  1.00  0.00    -0.274 OA
HETATM   14  C13 UNL     1       0.164   2.579   0.234  1.00  0.00     0.297 A 
HETATM   15  O2  UNL     1      -0.625   3.517   0.290  1.00  0.00    -0.259 OA
HETATM   16  O3  UNL     1       2.950   1.332   1.244  1.00  0.00    -0.331 OA
HETATM   17  C14 UNL     1       4.193   1.896   0.924  1.00  0.00     0.145 C 
HETATM   18  C15 UNL     1       4.466   1.463  -0.512  1.00  0.00     0.035 C 
HETATM   19  C16 UNL     1       3.056   1.399  -1.117  1.00  0.00     0.064 C 
HETATM   20  C17 UNL     1       5.424   2.397  -1.256  1.00  0.00     0.003 C 
HETATM   21  C18 UNL     1      -2.944  -2.749  -0.907  1.00  0.00     0.004 C 
HETATM   22  C19 UNL     1      -3.108  -2.206   1.554  1.00  0.00     0.004 C 
ENDROOT
TORSDOF 0
