REMARK  2 active torsions:
REMARK  status: ('A' for Active; 'I' for Inactive)
REMARK    1  A    between atoms: C16_20  and  C18_23 
REMARK    2  A    between atoms: C18_23  and  O6_24 
ROOT
HETATM    1  C1  UNL     1      -3.491  -0.143   2.382  1.00  0.00     0.033 C 
HETATM    2  C2  UNL     1      -3.648  -1.434   2.045  1.00  0.00    -0.024 C 
HETATM    3  C3  UNL     1      -3.054  -2.031   0.788  1.00  0.00     0.022 C 
HETATM    4  C4  UNL     1      -1.711  -1.308   0.523  1.00  0.00     0.049 C 
HETATM    5  C5  UNL     1      -1.704   0.243   0.527  1.00  0.00     0.086 C 
HETATM    6  C6  UNL     1      -2.673   0.794   1.574  1.00  0.00     0.174 C 
HETATM    7  O1  UNL     1      -2.801   1.997   1.757  1.00  0.00    -0.291 OA
HETATM    8  C7  UNL     1      -0.224   0.689   0.782  1.00  0.00     0.021 C 
HETATM    9  C8  UNL     1       0.585   0.318  -0.486  1.00  0.00     0.104 C 
HETATM   10  C9  UNL     1      -0.292  -0.560  -1.367  1.00  0.00     0.253 C 
HETATM   11  C10 UNL     1      -0.938  -1.767  -0.715  1.00  0.00     0.207 C 
HETATM   12  O2  UNL     1       0.017  -2.745  -0.372  1.00  0.00    -0.218 OA
HETATM   13  O3  UNL     1       0.392  -0.959  -2.531  1.00  0.00    -0.192 OA
HETATM   14  O4  UNL     1      -1.322   0.227  -1.893  1.00  0.00    -0.330 OA
HETATM   15  C11 UNL     1      -2.101   0.784  -0.860  1.00  0.00     0.152 C 
HETATM   16  C12 UNL     1       1.130   1.586  -1.179  1.00  0.00     0.012 C 
HETATM   17  C13 UNL     1       2.177   2.064  -0.160  1.00  0.00     0.010 C 
HETATM   18  C14 UNL     1       1.455   2.624   1.083  1.00  0.00     0.001 C 
HETATM   19  C15 UNL     1      -0.008   2.159   1.199  1.00  0.00     0.001 C 
HETATM   20  C16 UNL     1       2.958   0.770   0.157  1.00  0.00     0.087 C 
HETATM   21  C17 UNL     1       1.924  -0.311  -0.110  1.00  0.00     0.157 C 
HETATM   22  O5  UNL     1       2.163  -1.494  -0.073  1.00  0.00    -0.296 OA
HETATM   23  C20 UNL     1      -2.800  -3.538   1.023  1.00  0.00     0.004 C 
HETATM   24  C21 UNL     1      -4.124  -1.892  -0.314  1.00  0.00     0.004 C 
ENDROOT
BRANCH  20  25
HETATM   25  C18 UNL     1       4.213   0.579  -0.698  1.00  0.00     0.150 C 
BRANCH  25  26
HETATM   26  O6  UNL     1       5.167   1.544  -0.329  1.00  0.00    -0.351 OA
HETATM   27  C19 UNL     1       6.356   1.440  -1.083  1.00  0.00     0.174 C 
ENDBRANCH  25  26
ENDBRANCH  20  25
TORSDOF 2
