REMARK  7 active torsions:
REMARK  status: ('A' for Active; 'I' for Inactive)
REMARK    1  A    between atoms: C3_3  and  O6_28 
REMARK    2  A    between atoms: C7_8  and  C17_20 
REMARK    3  A    between atoms: C8_9  and  O2_11 
REMARK    4  A    between atoms: O2_11  and  C10_12 
REMARK    5  A    between atoms: C10_12  and  C11_14 
REMARK    6  A    between atoms: O6_28  and  C23_29 
REMARK    7  A    between atoms: C24_31  and  C28_38 
ROOT
HETATM    1  C1  UNL     1      -3.707   1.227   1.677  1.00  0.00     0.135 A 
HETATM    2  C2  UNL     1      -3.599   0.130   0.916  1.00  0.00     0.051 A 
HETATM    3  C3  UNL     1      -2.430  -0.319   0.423  1.00  0.00     0.097 A 
HETATM    4  C4  UNL     1      -1.338   0.460   0.616  1.00  0.00     0.025 A 
HETATM    5  C5  UNL     1      -1.397   1.578   1.371  1.00  0.00     0.095 A 
HETATM    6  C6  UNL     1      -2.584   1.923   1.897  1.00  0.00     0.051 A 
HETATM    7  O1  UNL     1      -0.325   2.393   1.633  1.00  0.00    -0.327 OA
HETATM    8  C7  UNL     1       0.956   1.953   1.250  1.00  0.00     0.172 C 
HETATM    9  C8  UNL     1       0.887   1.347  -0.144  1.00  0.00     0.161 C 
HETATM   10  C9  UNL     1      -0.016   0.115  -0.034  1.00  0.00     0.064 C 
HETATM   11  O12 UNL     1      -4.899   1.634   2.186  1.00  0.00    -0.190 OA
ENDROOT
BRANCH   3  12
HETATM   12  O6  UNL     1      -2.429  -1.465  -0.334  1.00  0.00    -0.304 OA
BRANCH  12  13
HETATM   13  C23 UNL     1      -1.762  -2.583   0.220  1.00  0.00     0.274 C 
HETATM   14  O7  UNL     1      -1.916  -3.629  -0.718  1.00  0.00    -0.326 OA
HETATM   15  C24 UNL     1      -3.216  -4.147  -0.802  1.00  0.00     0.184 C 
HETATM   16  C25 UNL     1      -3.649  -4.722   0.541  1.00  0.00     0.215 C 
HETATM   17  C26 UNL     1      -3.530  -3.708   1.658  1.00  0.00     0.220 C 
HETATM   18  O10 UNL     1      -5.002  -5.114   0.484  1.00  0.00    -0.218 OA
HETATM   19  C27 UNL     1      -2.188  -3.014   1.609  1.00  0.00     0.241 C 
HETATM   20  O9  UNL     1      -4.549  -2.755   1.492  1.00  0.00    -0.218 OA
HETATM   21  O8  UNL     1      -2.212  -1.933   2.511  1.00  0.00    -0.215 OA
BRANCH  15  22
HETATM   22  C28 UNL     1      -3.228  -5.218  -1.887  1.00  0.00     0.214 C 
HETATM   23  O11 UNL     1      -2.914  -4.641  -3.139  1.00  0.00    -0.218 OA
ENDBRANCH  15  22
ENDBRANCH  12  13
ENDBRANCH   3  12
BRANCH   9  24
HETATM   24  O2  UNL     1       2.141   0.911  -0.591  1.00  0.00    -0.298 OA
BRANCH  24  25
HETATM   25  C10 UNL     1       2.787   1.608  -1.579  1.00  0.00     0.296 C 
HETATM   26  O3  UNL     1       2.509   2.776  -1.756  1.00  0.00    -0.259 OA
BRANCH  25  27
HETATM   27  C11 UNL     1       3.645   0.999  -2.450  1.00  0.00     0.063 A 
HETATM   28  C12 UNL     1       3.910  -0.317  -2.337  1.00  0.00     0.005 A 
HETATM   29  C13 UNL     1       4.736  -0.929  -3.201  1.00  0.00     0.000 A 
HETATM   30  C14 UNL     1       5.316  -0.232  -4.189  1.00  0.00     0.000 A 
HETATM   31  C15 UNL     1       5.068   1.081  -4.304  1.00  0.00     0.000 A 
HETATM   32  C16 UNL     1       4.239   1.691  -3.442  1.00  0.00     0.005 A 
ENDBRANCH  25  27
ENDBRANCH  24  25
ENDBRANCH   9  24
BRANCH   8  33
HETATM   33  C17 UNL     1       1.926   3.116   1.358  1.00  0.00     0.010 A 
HETATM   34  C18 UNL     1       3.037   3.032   2.111  1.00  0.00     0.028 A 
HETATM   35  C19 UNL     1       3.895   4.058   2.238  1.00  0.00     0.156 A 
HETATM   36  C20 UNL     1       3.644   5.210   1.590  1.00  0.00     0.156 A 
HETATM   37  O5  UNL     1       5.010   3.957   3.012  1.00  0.00    -0.188 OA
HETATM   38  C21 UNL     1       2.540   5.303   0.833  1.00  0.00     0.029 A 
HETATM   39  O4  UNL     1       4.501   6.259   1.707  1.00  0.00    -0.188 OA
HETATM   40  C22 UNL     1       1.688   4.274   0.720  1.00  0.00     0.000 A 
ENDBRANCH   8  33
TORSDOF 7
