REMARK  4 active torsions:
REMARK  status: ('A' for Active; 'I' for Inactive)
REMARK    1  A    between atoms: C5_5  and  C7_8 
REMARK    2  A    between atoms: C7_8  and  C8_9 
REMARK    3  A    between atoms: C8_9  and  C9_10 
REMARK    4  A    between atoms: C10_11  and  C11_12 
ROOT
HETATM    1  C7  UNL     1      -0.350   0.028  -0.317  1.00  0.00     0.138 C 
HETATM    2  C14 UNL     1      -1.379   0.399   0.758  1.00  0.00     0.034 C 
HETATM    3  O2  UNL     1       0.472  -0.975   0.221  1.00  0.00    -0.225 OA
ENDROOT
BRANCH   1   4
HETATM    4  C5  UNL     1      -0.992  -0.498  -1.625  1.00  0.00     0.090 C 
HETATM    5  C4  UNL     1      -1.197  -2.021  -1.732  1.00  0.00     0.015 C 
HETATM    6  C3  UNL     1      -2.431  -2.496  -0.966  1.00  0.00     0.023 C 
HETATM    7  C2  UNL     1      -3.615  -1.630  -1.312  1.00  0.00    -0.041 C 
HETATM    8  C1  UNL     1      -3.477  -0.380  -1.786  1.00  0.00     0.029 C 
HETATM    9  C15 UNL     1      -4.971  -2.245  -1.065  1.00  0.00     0.026 C 
HETATM   10  C6  UNL     1      -2.282   0.234  -1.978  1.00  0.00     0.174 C 
HETATM   11  O1  UNL     1      -2.233   1.370  -2.395  1.00  0.00    -0.291 OA
ENDBRANCH   1   4
BRANCH   1  12
HETATM   12  C8  UNL     1       0.563   1.234  -0.602  1.00  0.00     0.057 C 
BRANCH  12  13
HETATM   13  C9  UNL     1       1.385   1.635   0.599  1.00  0.00    -0.028 C 
HETATM   14  C10 UNL     1       2.638   1.200   0.809  1.00  0.00    -0.031 C 
BRANCH  14  15
HETATM   15  C11 UNL     1       3.485   1.583   2.000  1.00  0.00     0.022 C 
HETATM   16  C12 UNL     1       4.059   0.326   2.671  1.00  0.00     0.005 C 
HETATM   17  C13 UNL     1       4.608   2.529   1.546  1.00  0.00     0.005 C 
ENDBRANCH  14  15
ENDBRANCH  12  13
ENDBRANCH   1  12
TORSDOF 4
