REMARK  8 active torsions:
REMARK  status: ('A' for Active; 'I' for Inactive)
REMARK    1  A    between atoms: C1_1  and  O5_36 
REMARK    2  A    between atoms: C2_2  and  N2_29 
REMARK    3  A    between atoms: C3_3  and  O2_25 
REMARK    4  A    between atoms: C15_15  and  C18_19 
REMARK    5  A    between atoms: C18_19  and  N1_21 
REMARK    6  A    between atoms: O2_25  and  C23_26 
REMARK       I    between atoms: N2_29  and  C25_30 
REMARK    7  A    between atoms: C25_30  and  C26_31 
REMARK    8  A    between atoms: O5_36  and  C30_37 
ROOT
HETATM    1  C1  UNL     1      -1.754  -1.039  -2.862  1.00  0.00     0.149 C 
HETATM    2  C2  UNL     1      -2.637  -1.910  -1.962  1.00  0.00     0.162 C 
HETATM    3  C3  UNL     1      -1.766  -2.671  -0.939  1.00  0.00     0.149 C 
HETATM    4  C4  UNL     1      -0.386  -2.020  -0.702  1.00  0.00     0.030 C 
HETATM    5  C5  UNL     1      -0.419  -0.469  -0.669  1.00  0.00     0.005 C 
HETATM    6  C6  UNL     1      -1.006   0.016  -2.027  1.00  0.00     0.032 C 
HETATM    7  C7  UNL     1       1.037   0.074  -0.498  1.00  0.00     0.000 C 
HETATM    8  C8  UNL     1       1.768  -0.562   0.712  1.00  0.00     0.000 C 
HETATM    9  C9  UNL     1       1.806  -2.091   0.576  1.00  0.00     0.000 C 
HETATM   10  C10 UNL     1       0.379  -2.647   0.477  1.00  0.00     0.003 C 
HETATM   11  C11 UNL     1       3.167   0.054   0.808  1.00  0.00     0.005 C 
HETATM   12  C12 UNL     1       3.159   1.584   1.060  1.00  0.00     0.027 C 
HETATM   13  C13 UNL     1       2.561   2.178  -0.229  1.00  0.00     0.002 C 
HETATM   14  C14 UNL     1       1.151   1.618  -0.511  1.00  0.00     0.000 C 
HETATM   15  C15 UNL     1       4.633   1.870   1.406  1.00  0.00     0.137 A 
HETATM   16  C16 UNL     1       5.206   0.654   1.925  1.00  0.00     0.142 A 
HETATM   17  C17 UNL     1       4.167  -0.460   1.850  1.00  0.00     0.032 C 
HETATM   18  O1  UNL     1       5.731   0.983   0.658  1.00  0.00    -0.355 OA
HETATM   19  C21 UNL     1       2.308   2.018   2.279  1.00  0.00     0.003 C 
HETATM   20  C22 UNL     1      -1.297   0.037   0.502  1.00  0.00     0.000 C 
ENDROOT
BRANCH   2  21
HETATM   21  N2  UNL     1      -3.644  -1.025  -1.360  1.00  0.00    -0.232 NA
HETATM   22  C25 UNL     1      -4.913  -1.421  -1.047  1.00  0.00     0.271 C 
HETATM   23  O4  UNL     1      -5.313  -2.556  -1.268  1.00  0.00    -0.266 OA
BRANCH  22  24
HETATM   24  C26 UNL     1      -5.721  -0.350  -0.402  1.00  0.00     0.031 C 
HETATM   25  C27 UNL     1      -6.972  -0.669   0.004  1.00  0.00    -0.025 C 
HETATM   26  C28 UNL     1      -7.966   0.226   0.699  1.00  0.00     0.030 C 
HETATM   27  C29 UNL     1      -5.116   1.026  -0.230  1.00  0.00     0.036 C 
ENDBRANCH  22  24
ENDBRANCH   2  21
BRANCH   1  28
HETATM   28  O5  UNL     1      -2.547  -0.360  -3.798  1.00  0.00    -0.302 OA
BRANCH  28  29
HETATM   29  C30 UNL     1      -2.779  -0.802  -5.068  1.00  0.00     0.272 C 
HETATM   30  O6  UNL     1      -3.473  -0.176  -5.843  1.00  0.00    -0.264 OA
HETATM   31  C31 UNL     1      -2.131  -2.111  -5.480  1.00  0.00     0.106 C 
ENDBRANCH  28  29
ENDBRANCH   1  28
BRANCH   3  32
HETATM   32  O2  UNL     1      -2.476  -2.803   0.261  1.00  0.00    -0.302 OA
BRANCH  32  33
HETATM   33  C23 UNL     1      -2.648  -4.032   0.816  1.00  0.00     0.272 C 
HETATM   34  C24 UNL     1      -3.487  -3.913   2.073  1.00  0.00     0.106 C 
HETATM   35  O3  UNL     1      -2.198  -5.069   0.385  1.00  0.00    -0.264 OA
ENDBRANCH  32  33
ENDBRANCH   3  32
BRANCH  15  36
HETATM   36  C18 UNL     1       5.167   3.242   1.826  1.00  0.00     0.125 C 
HETATM   37  C19 UNL     1       5.245   4.232   0.653  1.00  0.00     0.028 C 
BRANCH  36  38
HETATM   38  N1  UNL     1       6.486   3.092   2.455  1.00  0.00    -0.293 NA
HETATM   39  C20 UNL     1       7.008   4.275   3.135  1.00  0.00     0.146 C 
ENDBRANCH  36  38
ENDBRANCH  15  36
TORSDOF 8
