REMARK  3 active torsions:
REMARK  status: ('A' for Active; 'I' for Inactive)
REMARK    1  A    between atoms: C7_7  and  C14_14 
REMARK    2  A    between atoms: C8_8  and  C11_11 
REMARK    3  A    between atoms: C17_18  and  C19_21 
ROOT
HETATM    1  C1  UNL     1       0.074  -1.605  -2.033  1.00  0.00     0.000 C 
HETATM    2  C2  UNL     1      -1.477  -0.878  -1.863  1.00  0.00     0.000 C 
HETATM    3  C3  UNL     1      -2.203  -0.617  -0.332  1.00  0.00     0.000 C 
HETATM    4  C4  UNL     1      -1.207  -0.588   1.103  1.00  0.00     0.001 C 
HETATM    5  C5  UNL     1       0.494  -0.945   0.761  1.00  0.00     0.009 C 
HETATM    6  C6  UNL     1       1.204  -1.552  -0.684  1.00  0.00     0.001 C 
HETATM    7  C7  UNL     1      -0.101  -0.262  -0.358  1.00  0.00     0.058 C 
HETATM    8  C8  UNL     1      -0.737  -2.160  -0.101  1.00  0.00    -0.039 C 
HETATM    9  C9  UNL     1      -1.303  -2.691   1.249  1.00  0.00     0.022 C 
HETATM   10  C10 UNL     1      -1.628  -1.675   2.016  1.00  0.00     0.004 C 
HETATM   11  C21 UNL     1       0.809   0.597  -1.460  1.00  0.00     0.011 C 
HETATM   12  C22 UNL     1      -2.446  -1.317  -2.988  1.00  0.00     0.000 C 
ENDROOT
BRANCH   7  13
HETATM   13  C14 UNL     1      -0.309   1.259   0.336  1.00  0.00     0.119 C 
HETATM   14  C15 UNL     1       0.569   2.017   1.062  1.00  0.00     0.114 A 
HETATM   15  C16 UNL     1       1.883   1.766   1.365  1.00  0.00     0.262 A 
HETATM   16  C18 UNL     1       0.175   3.220   1.588  1.00  0.00     0.202 A 
HETATM   17  N1  UNL     1       2.307   2.822   2.115  1.00  0.00    -0.307 N 
HETATM   18  O3  UNL     1       2.636   0.872   1.061  1.00  0.00    -0.267 OA
HETATM   19  C17 UNL     1       1.356   3.887   2.278  1.00  0.00     0.179 A 
HETATM   20  C20 UNL     1       3.636   2.936   2.685  1.00  0.00     0.129 C 
HETATM   21  O1  UNL     1      -0.901   3.771   1.560  1.00  0.00    -0.289 OA
HETATM   22  O4  UNL     1      -1.457   1.878  -0.085  1.00  0.00    -0.194 OA
BRANCH  19  23
HETATM   23  C19 UNL     1       1.719   5.187   1.560  1.00  0.00     0.212 C 
HETATM   24  O2  UNL     1       2.831   5.795   2.183  1.00  0.00    -0.218 OA
ENDBRANCH  19  23
ENDBRANCH   7  13
BRANCH   8  25
HETATM   25  C11 UNL     1      -1.621  -3.163  -0.930  1.00  0.00    -0.013 C 
HETATM   26  C12 UNL     1      -1.226  -4.371  -1.383  1.00  0.00    -0.026 C 
HETATM   27  C13 UNL     1      -2.136  -5.348  -2.080  1.00  0.00     0.031 C 
ENDBRANCH   8  25
TORSDOF 3
