REMARK  13 active torsions:
REMARK  status: ('A' for Active; 'I' for Inactive)
REMARK    1  A    between atoms: C1_1  and  O5_30 
REMARK    2  A    between atoms: C2_2  and  C21_25 
REMARK    3  A    between atoms: C4_4  and  C11_14 
REMARK    4  A    between atoms: C5_5  and  O2_8 
REMARK    5  A    between atoms: O2_8  and  C7_9 
REMARK    6  A    between atoms: C7_9  and  C8_11 
REMARK    7  A    between atoms: C11_14  and  C12_15 
REMARK    8  A    between atoms: C13_16  and  C14_17 
REMARK    9  A    between atoms: C14_17  and  C15_18 
REMARK   10  A    between atoms: C15_18  and  C16_19 
REMARK   11  A    between atoms: C21_25  and  C22_26 
REMARK   12  A    between atoms: O5_30  and  C26_31 
REMARK   13  A    between atoms: C26_31  and  C27_33 
ROOT
HETATM    1  C1  UNL     1       2.562   0.013   1.245  1.00  0.00     0.143 A 
HETATM    2  C2  UNL     1       1.755   1.041   0.914  1.00  0.00     0.047 A 
HETATM    3  C3  UNL     1       0.505   0.813   0.429  1.00  0.00     0.192 A 
HETATM    4  C4  UNL     1       0.072  -0.465   0.264  1.00  0.00     0.047 A 
HETATM    5  C5  UNL     1       0.874  -1.502   0.579  1.00  0.00     0.143 A 
HETATM    6  C6  UNL     1       2.127  -1.262   1.052  1.00  0.00     0.240 A 
HETATM    7  O1  UNL     1       2.846  -2.198   1.323  1.00  0.00    -0.282 OA
HETATM    8  O4  UNL     1      -0.220   1.744   0.151  1.00  0.00    -0.287 OA
ENDROOT
BRANCH   4   9
HETATM    9  C11 UNL     1      -1.344  -0.685  -0.248  1.00  0.00     0.057 C 
BRANCH   9  10
HETATM   10  C12 UNL     1      -1.623  -0.017  -1.573  1.00  0.00    -0.030 C 
HETATM   11  C13 UNL     1      -2.839   0.329  -2.039  1.00  0.00    -0.048 C 
HETATM   12  C20 UNL     1      -4.128   0.069  -1.293  1.00  0.00     0.026 C 
BRANCH  11  13
HETATM   13  C14 UNL     1      -2.997   1.039  -3.371  1.00  0.00     0.026 C 
BRANCH  13  14
HETATM   14  C15 UNL     1      -3.652   0.175  -4.461  1.00  0.00     0.030 C 
BRANCH  14  15
HETATM   15  C16 UNL     1      -3.811   0.969  -5.738  1.00  0.00    -0.034 C 
HETATM   16  C17 UNL     1      -4.949   1.283  -6.384  1.00  0.00    -0.048 C 
HETATM   17  C18 UNL     1      -4.917   2.123  -7.642  1.00  0.00     0.026 C 
HETATM   18  C19 UNL     1      -6.341   0.875  -5.962  1.00  0.00     0.026 C 
ENDBRANCH  14  15
ENDBRANCH  13  14
ENDBRANCH  11  13
ENDBRANCH   9  10
ENDBRANCH   4   9
BRANCH   5  19
HETATM   19  O2  UNL     1       0.489  -2.815   0.436  1.00  0.00    -0.273 OA
BRANCH  19  20
HETATM   20  C7  UNL     1       0.433  -3.521   1.601  1.00  0.00     0.276 C 
HETATM   21  O3  UNL     1      -0.075  -3.076   2.606  1.00  0.00    -0.264 OA
BRANCH  20  22
HETATM   22  C8  UNL     1       1.073  -4.903   1.503  1.00  0.00     0.087 C 
HETATM   23  C9  UNL     1       0.132  -5.965   2.094  1.00  0.00     0.010 C 
HETATM   24  C10 UNL     1       1.528  -5.325   0.096  1.00  0.00     0.010 C 
ENDBRANCH  20  22
ENDBRANCH  19  20
ENDBRANCH   5  19
BRANCH   2  25
HETATM   25  C21 UNL     1       2.199   2.487   1.073  1.00  0.00     0.057 C 
BRANCH  25  26
HETATM   26  C22 UNL     1       1.522   3.174   2.232  1.00  0.00    -0.030 C 
HETATM   27  C23 UNL     1       1.733   4.448   2.606  1.00  0.00    -0.048 C 
HETATM   28  C24 UNL     1       1.014   5.051   3.789  1.00  0.00     0.026 C 
HETATM   29  C25 UNL     1       2.689   5.384   1.905  1.00  0.00     0.026 C 
ENDBRANCH  25  26
ENDBRANCH   2  25
BRANCH   1  30
HETATM   30  O5  UNL     1       3.820   0.178   1.780  1.00  0.00    -0.273 OA
BRANCH  30  31
HETATM   31  C26 UNL     1       3.830   0.284   3.142  1.00  0.00     0.276 C 
HETATM   32  O6  UNL     1       3.430   1.259   3.740  1.00  0.00    -0.264 OA
BRANCH  31  33
HETATM   33  C27 UNL     1       4.373  -0.960   3.839  1.00  0.00     0.087 C 
HETATM   34  C28 UNL     1       5.535  -0.587   4.774  1.00  0.00     0.010 C 
HETATM   35  C29 UNL     1       3.249  -1.650   4.631  1.00  0.00     0.010 C 
ENDBRANCH  31  33
ENDBRANCH  30  31
ENDBRANCH   1  30
TORSDOF 13
