REMARK  6 active torsions:
REMARK  status: ('A' for Active; 'I' for Inactive)
REMARK    1  A    between atoms: C1_1  and  C10_14 
REMARK    2  A    between atoms: C2_2  and  O4_12 
REMARK    3  A    between atoms: C5_5  and  C6_6 
REMARK    4  A    between atoms: C6_6  and  C7_7 
REMARK    5  A    between atoms: C7_7  and  O2_9 
REMARK    6  A    between atoms: C10_14  and  C11_15 
ROOT
HETATM    1  C1  UNL     1      -0.528   0.011   0.367  1.00  0.00     0.053 C 
HETATM    2  C2  UNL     1      -2.019   0.266   0.424  1.00  0.00     0.075 C 
HETATM    3  C3  UNL     1      -2.707  -0.877   0.563  1.00  0.00     0.057 C 
HETATM    4  C4  UNL     1      -1.912  -1.972   0.557  1.00  0.00     0.175 C 
HETATM    5  C5  UNL     1      -0.474  -1.532   0.312  1.00  0.00     0.078 C 
HETATM    6  O3  UNL     1      -2.277  -3.115   0.694  1.00  0.00    -0.291 OA
ENDROOT
BRANCH   5   7
HETATM    7  C6  UNL     1       0.530  -2.163   1.289  1.00  0.00     0.104 C 
BRANCH   7   8
HETATM    8  C7  UNL     1       1.947  -1.661   1.064  1.00  0.00     0.272 C 
HETATM    9  O1  UNL     1       2.530  -0.901   1.804  1.00  0.00    -0.264 OA
BRANCH   8  10
HETATM   10  O2  UNL     1       2.453  -2.163  -0.094  1.00  0.00    -0.299 OA
HETATM   11  C8  UNL     1       3.737  -1.715  -0.459  1.00  0.00     0.184 C 
ENDBRANCH   8  10
ENDBRANCH   7   8
ENDBRANCH   5   7
BRANCH   1  12
HETATM   12  C10 UNL     1       0.189   0.679  -0.817  1.00  0.00     0.007 C 
BRANCH  12  13
HETATM   13  C11 UNL     1       0.499   2.168  -0.595  1.00  0.00     0.000 C 
HETATM   14  C12 UNL     1       1.283   2.766  -1.771  1.00  0.00     0.000 C 
ENDBRANCH  12  13
ENDBRANCH   1  12
BRANCH   2  15
HETATM   15  O4  UNL     1      -2.493   1.546   0.388  1.00  0.00    -0.332 OA
HETATM   16  C9  UNL     1      -3.887   1.726   0.482  1.00  0.00     0.181 C 
ENDBRANCH   2  15
TORSDOF 6
