REMARK  6 active torsions:
REMARK  status: ('A' for Active; 'I' for Inactive)
REMARK    1  A    between atoms: C3_3  and  C4_4 
REMARK    2  A    between atoms: C4_4  and  C5_5 
REMARK    3  A    between atoms: C5_5  and  C6_6 
REMARK    4  A    between atoms: C7_7  and  C8_8 
REMARK    5  A    between atoms: C8_8  and  C9_9 
REMARK    6  A    between atoms: C10_10  and  O4_20 
ROOT
HETATM    1  C9  UNL     1      -1.417   0.482  -1.883  1.00  0.00     0.030 A 
HETATM    2  C10 UNL     1      -2.760   0.369  -1.706  1.00  0.00     0.093 A 
HETATM    3  C11 UNL     1      -3.431  -0.506  -2.486  1.00  0.00     0.029 A 
HETATM    4  C12 UNL     1      -2.751  -1.227  -3.381  1.00  0.00     0.066 A 
HETATM    5  C13 UNL     1      -1.436  -1.115  -3.535  1.00  0.00     0.038 A 
HETATM    6  C14 UNL     1      -0.733  -0.255  -2.789  1.00  0.00     0.128 A 
HETATM    7  O1  UNL     1       0.612  -0.151  -2.960  1.00  0.00    -0.191 OA
HETATM    8  C15 UNL     1      -0.981  -2.058  -4.612  1.00  0.00     0.181 A 
HETATM    9  O2  UNL     1      -2.185  -2.695  -5.034  1.00  0.00    -0.293 OA
HETATM   10  C16 UNL     1      -3.185  -2.156  -4.264  1.00  0.00     0.296 A 
HETATM   11  O3  UNL     1      -4.346  -2.488  -4.374  1.00  0.00    -0.259 OA
ENDROOT
BRANCH   1  12
HETATM   12  C8  UNL     1      -0.628   1.468  -1.034  1.00  0.00     0.056 C 
BRANCH  12  13
HETATM   13  C7  UNL     1       0.056   0.757   0.106  1.00  0.00    -0.030 C 
HETATM   14  C6  UNL     1      -0.113   0.952   1.426  1.00  0.00    -0.045 C 
HETATM   15  C18 UNL     1      -1.070   1.946   2.038  1.00  0.00     0.026 C 
BRANCH  14  16
HETATM   16  C5  UNL     1       0.768   0.204   2.411  1.00  0.00     0.059 C 
BRANCH  16  17
HETATM   17  C4  UNL     1       1.988   1.046   2.781  1.00  0.00     0.178 C 
HETATM   18  O5  UNL     1       2.617   1.534   1.608  1.00  0.00    -0.218 OA
BRANCH  17  19
HETATM   19  C3  UNL     1       2.966   0.317   3.672  1.00  0.00    -0.002 C 
HETATM   20  C2  UNL     1       3.828  -0.656   3.322  1.00  0.00    -0.045 C 
HETATM   21  C1  UNL     1       4.765  -1.266   4.341  1.00  0.00     0.026 C 
HETATM   22  C19 UNL     1       3.979  -1.231   1.934  1.00  0.00     0.026 C 
ENDBRANCH  17  19
ENDBRANCH  16  17
ENDBRANCH  14  16
ENDBRANCH  12  13
ENDBRANCH   1  12
BRANCH   2  23
HETATM   23  O4  UNL     1      -3.372   1.159  -0.759  1.00  0.00    -0.328 OA
HETATM   24  C17 UNL     1      -4.773   1.108  -0.618  1.00  0.00     0.181 C 
ENDBRANCH   2  23
TORSDOF 6
