REMARK  7 active torsions:
REMARK  status: ('A' for Active; 'I' for Inactive)
REMARK    1  A    between atoms: C3_3  and  C4_4 
REMARK    2  A    between atoms: C4_4  and  C5_6 
REMARK    3  A    between atoms: C5_6  and  C6_7 
REMARK    4  A    between atoms: C15_17  and  O3_18 
REMARK    5  A    between atoms: N1_21  and  C19_23 
REMARK    6  A    between atoms: C19_23  and  C20_24 
REMARK    7  A    between atoms: C20_24  and  C21_25 
ROOT
HETATM    1  C6  UNL     1      -0.120   2.830  -0.916  1.00  0.00     0.106 C 
HETATM    2  C7  UNL     1       0.114   2.650  -2.424  1.00  0.00     0.031 C 
HETATM    3  C8  UNL     1       0.935   3.713  -0.245  1.00  0.00     0.033 C 
HETATM    4  C9  UNL     1       2.338   3.132  -0.447  1.00  0.00     0.033 C 
HETATM    5  C10 UNL     1       2.348   1.631  -0.249  1.00  0.00     0.022 A 
HETATM    6  C11 UNL     1       1.164   0.983  -0.171  1.00  0.00     0.090 A 
HETATM    7  O2  UNL     1      -0.063   1.573  -0.311  1.00  0.00    -0.336 OA
HETATM    8  C12 UNL     1       1.221  -0.344   0.019  1.00  0.00     0.027 A 
HETATM    9  C13 UNL     1       2.378  -0.999   0.161  1.00  0.00     0.058 A 
HETATM   10  C14 UNL     1       3.538  -0.340   0.089  1.00  0.00     0.029 A 
HETATM   11  C15 UNL     1       3.537   0.984  -0.166  1.00  0.00     0.092 A 
HETATM   12  C17 UNL     1       2.214  -2.329   0.382  1.00  0.00     0.257 A 
HETATM   13  N1  UNL     1       0.852  -2.503   0.377  1.00  0.00    -0.312 N 
HETATM   14  C18 UNL     1       0.074  -1.301   0.138  1.00  0.00     0.133 A 
HETATM   15  O4  UNL     1       3.055  -3.177   0.547  1.00  0.00    -0.267 OA
ENDROOT
BRANCH   1  16
HETATM   16  C5  UNL     1      -1.547   3.357  -0.640  1.00  0.00     0.097 C 
BRANCH  16  17
HETATM   17  C4  UNL     1      -1.933   4.734  -1.161  1.00  0.00     0.175 C 
HETATM   18  O1  UNL     1      -1.169   5.309  -1.905  1.00  0.00    -0.291 OA
BRANCH  17  19
HETATM   19  C3  UNL     1      -3.085   5.378  -0.827  1.00  0.00     0.029 C 
HETATM   20  C1  UNL     1      -4.116   5.008  -0.041  1.00  0.00    -0.041 C 
HETATM   21  C2  UNL     1      -5.261   5.974   0.195  1.00  0.00     0.026 C 
HETATM   22  C27 UNL     1      -4.290   3.706   0.704  1.00  0.00     0.026 C 
ENDBRANCH  17  19
ENDBRANCH  16  17
ENDBRANCH   1  16
BRANCH  11  23
HETATM   23  O3  UNL     1       4.730   1.665  -0.198  1.00  0.00    -0.328 OA
HETATM   24  C16 UNL     1       5.359   1.654  -1.460  1.00  0.00     0.181 C 
ENDBRANCH  11  23
BRANCH  13  25
HETATM   25  C19 UNL     1       0.119  -3.749   0.569  1.00  0.00     0.109 C 
BRANCH  25  26
HETATM   26  C20 UNL     1       0.943  -4.995   0.931  1.00  0.00     0.051 C 
BRANCH  26  27
HETATM   27  C21 UNL     1       0.172  -6.280   1.183  1.00  0.00    -0.020 A 
HETATM   28  C22 UNL     1       0.859  -7.392   1.512  1.00  0.00    -0.004 A 
HETATM   29  C23 UNL     1       0.238  -8.558   1.747  1.00  0.00    -0.000 A 
HETATM   30  C24 UNL     1      -1.098  -8.634   1.657  1.00  0.00    -0.000 A 
HETATM   31  C25 UNL     1      -1.799  -7.539   1.330  1.00  0.00    -0.000 A 
HETATM   32  C26 UNL     1      -1.167  -6.377   1.095  1.00  0.00    -0.004 A 
ENDBRANCH  26  27
ENDBRANCH  25  26
ENDBRANCH  13  25
TORSDOF 7
