REMARK  2 active torsions:
REMARK  status: ('A' for Active; 'I' for Inactive)
REMARK    1  A    between atoms: C16_19  and  O4_20 
REMARK    2  A    between atoms: O4_20  and  C17_21 
ROOT
HETATM    1  C1  UNL     1      -1.121   2.239   2.958  1.00  0.00     0.094 C 
HETATM    2  C2  UNL     1      -1.207   0.731   3.187  1.00  0.00     0.123 C 
HETATM    3  C3  UNL     1       0.149   0.004   3.061  1.00  0.00     0.029 C 
HETATM    4  C4  UNL     1       0.764   0.404   1.688  1.00  0.00     0.049 C 
HETATM    5  C5  UNL     1      -0.310   1.119   0.824  1.00  0.00     0.082 C 
HETATM    6  C6  UNL     1      -0.565   2.442   1.566  1.00  0.00     0.155 C 
HETATM    7  O1  UNL     1      -0.319   3.545   1.133  1.00  0.00    -0.296 OA
HETATM    8  C7  UNL     1       0.174   1.393  -0.629  1.00  0.00     0.018 C 
HETATM    9  C8  UNL     1       0.893   0.237  -1.369  1.00  0.00     0.083 C 
HETATM   10  C9  UNL     1       1.970  -0.261  -0.422  1.00  0.00     0.182 C 
HETATM   11  C10 UNL     1       1.501  -0.710   0.946  1.00  0.00     0.209 C 
HETATM   12  O2  UNL     1       2.652  -1.118   1.667  1.00  0.00    -0.215 OA
HETATM   13  O3  UNL     1       3.149  -0.350  -0.678  1.00  0.00    -0.293 OA
HETATM   14  C11 UNL     1       1.465   0.816  -2.679  1.00  0.00     0.012 C 
HETATM   15  C12 UNL     1       0.256   1.056  -3.654  1.00  0.00     0.030 C 
HETATM   16  C13 UNL     1      -0.245   2.373  -2.946  1.00  0.00     0.003 C 
HETATM   17  C14 UNL     1      -0.846   2.088  -1.550  1.00  0.00     0.001 C 
HETATM   18  C15 UNL     1      -0.098  -0.439  -3.436  1.00  0.00     0.146 A 
HETATM   19  C16 UNL     1       0.052  -0.906  -1.984  1.00  0.00     0.158 C 
HETATM   20  O6  UNL     1       0.601  -1.376  -4.536  1.00  0.00    -0.352 OA
HETATM   21  C19 UNL     1      -0.791  -1.230  -4.418  1.00  0.00     0.172 A 
HETATM   22  C20 UNL     1      -1.629   0.344   0.924  1.00  0.00     0.149 C 
HETATM   23  O7  UNL     1      -2.108   0.221   2.245  1.00  0.00    -0.356 OA
HETATM   24  C21 UNL     1       1.089   0.427   4.214  1.00  0.00     0.003 C 
HETATM   25  C22 UNL     1      -0.090  -1.515   3.238  1.00  0.00     0.003 C 
ENDROOT
BRANCH  19  26
HETATM   26  O4  UNL     1       0.750  -2.125  -1.866  1.00  0.00    -0.301 OA
BRANCH  26  27
HETATM   27  C17 UNL     1       0.176  -3.333  -1.602  1.00  0.00     0.272 C 
HETATM   28  O5  UNL     1       0.820  -4.362  -1.605  1.00  0.00    -0.264 OA
HETATM   29  C18 UNL     1      -1.291  -3.336  -1.219  1.00  0.00     0.106 C 
ENDBRANCH  26  27
ENDBRANCH  19  26
TORSDOF 2
