REMARK  4 active torsions:
REMARK  status: ('A' for Active; 'I' for Inactive)
REMARK    1  A    between atoms: C2_2  and  C21_24 
REMARK    2  A    between atoms: C15_17  and  C16_18 
REMARK    3  A    between atoms: C16_18  and  C17_19 
REMARK    4  A    between atoms: C21_24  and  C22_25 
ROOT
HETATM    1  C1  UNL     1       4.037   2.497   0.509  1.00  0.00     0.129 A 
HETATM    2  C2  UNL     1       3.512   1.259   0.420  1.00  0.00     0.008 A 
HETATM    3  C3  UNL     1       2.198   1.140   0.157  1.00  0.00     0.002 A 
HETATM    4  C4  UNL     1       1.400   2.213   0.007  1.00  0.00     0.045 A 
HETATM    5  C5  UNL     1       1.910   3.462   0.079  1.00  0.00     0.098 A 
HETATM    6  C6  UNL     1       3.228   3.554   0.335  1.00  0.00     0.051 A 
HETATM    7  O1  UNL     1       1.195   4.627  -0.081  1.00  0.00    -0.326 OA
HETATM    8  C7  UNL     1      -0.214   4.555  -0.199  1.00  0.00     0.177 C 
HETATM    9  C8  UNL     1      -0.697   3.155  -0.339  1.00  0.00     0.033 A 
HETATM   10  C9  UNL     1       0.087   2.078  -0.231  1.00  0.00     0.100 A 
HETATM   11  O2  UNL     1      -0.565   1.038  -0.359  1.00  0.00    -0.308 OA
HETATM   12  C10 UNL     1      -1.744   1.335  -0.561  1.00  0.00     0.098 A 
HETATM   13  C11 UNL     1      -1.917   2.662  -0.564  1.00  0.00     0.023 A 
HETATM   14  C12 UNL     1      -3.111   3.225  -0.759  1.00  0.00     0.004 A 
HETATM   15  C13 UNL     1      -4.144   2.392  -0.962  1.00  0.00     0.027 A 
HETATM   16  C14 UNL     1      -4.001   1.051  -0.967  1.00  0.00     0.129 A 
HETATM   17  C15 UNL     1      -2.782   0.505  -0.759  1.00  0.00     0.030 A 
HETATM   18  O3  UNL     1      -5.095   0.269  -1.182  1.00  0.00    -0.190 OA
HETATM   19  O4  UNL     1       5.361   2.696   0.754  1.00  0.00    -0.190 OA
ENDROOT
BRANCH   2  20
HETATM   20  C21 UNL     1       4.426   0.059   0.592  1.00  0.00     0.054 C 
BRANCH  20  21
HETATM   21  C22 UNL     1       3.756  -1.262   0.879  1.00  0.00    -0.030 C 
HETATM   22  C23 UNL     1       4.115  -2.469   0.406  1.00  0.00    -0.048 C 
HETATM   23  C24 UNL     1       3.347  -3.715   0.785  1.00  0.00     0.026 C 
HETATM   24  C25 UNL     1       5.288  -2.727  -0.510  1.00  0.00     0.026 C 
ENDBRANCH  20  21
ENDBRANCH   2  20
BRANCH  17  25
HETATM   25  C16 UNL     1      -2.601  -0.999  -0.751  1.00  0.00     0.056 C 
BRANCH  25  26
HETATM   26  C17 UNL     1      -3.404  -1.625   0.362  1.00  0.00    -0.030 C 
HETATM   27  C18 UNL     1      -4.068  -2.795   0.320  1.00  0.00    -0.048 C 
HETATM   28  C19 UNL     1      -4.860  -3.285   1.512  1.00  0.00     0.026 C 
HETATM   29  C20 UNL     1      -4.105  -3.720  -0.872  1.00  0.00     0.026 C 
ENDBRANCH  25  26
ENDBRANCH  17  25
TORSDOF 4
