REMARK  4 active torsions:
REMARK  status: ('A' for Active; 'I' for Inactive)
REMARK    1  A    between atoms: C8_9  and  C10_12 
REMARK    2  A    between atoms: C12_14  and  C17_21 
REMARK    3  A    between atoms: C13_15  and  O4_19 
REMARK    4  A    between atoms: C17_21  and  C18_22 
ROOT
HETATM    1  C10 UNL     1      -0.428   0.608  -0.000  1.00  0.00     0.007 A 
HETATM    2  C11 UNL     1       0.447  -0.420  -0.027  1.00  0.00     0.002 A 
HETATM    3  C12 UNL     1       1.795  -0.338  -0.008  1.00  0.00     0.024 A 
HETATM    4  C13 UNL     1       2.389   0.876   0.048  1.00  0.00     0.119 A 
HETATM    5  C14 UNL     1       1.566   1.947   0.074  1.00  0.00     0.153 A 
HETATM    6  C15 UNL     1       0.231   1.783   0.049  1.00  0.00     0.030 A 
HETATM    7  O3  UNL     1       2.020   3.232   0.126  1.00  0.00    -0.188 OA
ENDROOT
BRANCH   1   8
HETATM    8  C8  UNL     1      -1.788   0.451  -0.021  1.00  0.00     0.064 A 
HETATM    9  C7  UNL     1      -2.351  -0.779  -0.052  1.00  0.00     0.126 A 
HETATM   10  O1  UNL     1      -3.685  -1.038  -0.072  1.00  0.00    -0.305 OA
HETATM   11  C5  UNL     1      -4.504   0.042  -0.061  1.00  0.00     0.105 A 
HETATM   12  C4  UNL     1      -4.017   1.293  -0.030  1.00  0.00     0.062 A 
HETATM   13  C6  UNL     1      -5.838  -0.137  -0.081  1.00  0.00     0.052 A 
HETATM   14  C3  UNL     1      -4.884   2.325  -0.021  1.00  0.00     0.007 A 
HETATM   15  C9  UNL     1      -2.668   1.505  -0.010  1.00  0.00     0.199 A 
HETATM   16  C2  UNL     1      -6.210   2.120  -0.041  1.00  0.00     0.028 A 
HETATM   17  C1  UNL     1      -6.715   0.878  -0.072  1.00  0.00     0.133 A 
HETATM   18  O5  UNL     1      -8.056   0.651  -0.093  1.00  0.00    -0.190 OA
HETATM   19  O2  UNL     1      -2.329   2.666   0.014  1.00  0.00    -0.286 OA
ENDBRANCH   1   8
BRANCH   3  20
HETATM   20  C17 UNL     1       2.519  -1.691  -0.052  1.00  0.00     0.001 C 
BRANCH  20  21
HETATM   21  C18 UNL     1       4.016  -1.890  -0.065  1.00  0.00    -0.008 C 
HETATM   22  C19 UNL     1       4.638  -3.084  -0.010  1.00  0.00    -0.044 C 
HETATM   23  C20 UNL     1       6.147  -3.183  -0.033  1.00  0.00     0.026 C 
HETATM   24  C21 UNL     1       3.929  -4.415   0.063  1.00  0.00     0.026 C 
ENDBRANCH  20  21
ENDBRANCH   3  20
BRANCH   4  25
HETATM   25  O4  UNL     1       3.759   0.942   0.072  1.00  0.00    -0.326 OA
HETATM   26  C16 UNL     1       4.462   2.158   0.136  1.00  0.00     0.181 C 
ENDBRANCH   4  25
TORSDOF 4
