REMARK  1 active torsions:
REMARK  status: ('A' for Active; 'I' for Inactive)
REMARK    1  A    between atoms: C11_12  and  O1_18 
ROOT
HETATM    1  C1  UNL     1      -3.261   1.785   0.240  1.00  0.00     0.119 A 
HETATM    2  C2  UNL     1      -3.284   0.451   0.227  1.00  0.00     0.119 A 
HETATM    3  C3  UNL     1      -2.162  -0.246   0.018  1.00  0.00     0.024 A 
HETATM    4  C4  UNL     1      -1.003   0.410  -0.197  1.00  0.00    -0.003 A 
HETATM    5  C5  UNL     1      -0.974   1.766  -0.163  1.00  0.00     0.009 A 
HETATM    6  C6  UNL     1      -2.118   2.450   0.047  1.00  0.00     0.024 A 
HETATM    7  C7  UNL     1       0.291   2.591  -0.371  1.00  0.00     0.196 C 
HETATM    8  C8  UNL     1       1.603   1.839  -0.605  1.00  0.00     0.139 C 
HETATM    9  N1  UNL     1       1.211   0.528  -1.121  1.00  0.00    -0.344 N 
HETATM   10  C9  UNL     1       0.273  -0.383  -0.433  1.00  0.00     0.093 A 
HETATM   11  C10 UNL     1       0.798  -0.830   0.946  1.00  0.00     0.059 C 
HETATM   12  C11 UNL     1       2.052  -1.697   0.831  1.00  0.00     0.139 C 
HETATM   13  C12 UNL     1       1.664  -2.925   0.045  1.00  0.00    -0.001 C 
HETATM   14  C13 UNL     1       0.776  -2.862  -0.958  1.00  0.00    -0.022 C 
HETATM   15  C14 UNL     1       0.156  -1.571  -1.427  1.00  0.00     0.068 A 
HETATM   16  C15 UNL     1       1.008  -1.058  -2.553  1.00  0.00    -0.002 A 
HETATM   17  C16 UNL     1       1.560   0.123  -2.269  1.00  0.00     0.068 A 
HETATM   18  O2  UNL     1       0.468   3.441   0.749  1.00  0.00    -0.216 OA
HETATM   19  O3  UNL     1      -4.416   0.021   0.428  1.00  0.00    -0.300 OA
HETATM   20  C18 UNL     1      -5.277   1.150   0.593  1.00  0.00     0.304 A 
HETATM   21  O4  UNL     1      -4.379   2.251   0.446  1.00  0.00    -0.300 OA
ENDROOT
BRANCH  12  22
HETATM   22  O1  UNL     1       2.503  -2.001   2.134  1.00  0.00    -0.350 OA
HETATM   23  C17 UNL     1       3.851  -2.420   2.170  1.00  0.00     0.175 C 
ENDBRANCH  12  22
TORSDOF 1
