REMARK  2 active torsions:
REMARK  status: ('A' for Active; 'I' for Inactive)
REMARK    1  A    between atoms: C1_1  and  C18_23 
REMARK    2  A    between atoms: C10_12  and  C12_15 
ROOT
HETATM    1  C1  UNL     1      -3.871   0.387   1.199  1.00  0.00     0.154 C 
HETATM    2  C2  UNL     1      -3.105  -0.863   0.713  1.00  0.00     0.063 C 
HETATM    3  C3  UNL     1      -1.722  -0.280   0.727  1.00  0.00     0.028 A 
HETATM    4  C4  UNL     1      -1.750   0.945   1.246  1.00  0.00     0.094 A 
HETATM    5  O1  UNL     1      -2.866   1.332   1.583  1.00  0.00    -0.331 OA
HETATM    6  C5  UNL     1      -0.610   1.628   1.361  1.00  0.00     0.049 A 
HETATM    7  C6  UNL     1       0.546   1.084   0.936  1.00  0.00     0.107 A 
HETATM    8  C7  UNL     1       0.562  -0.155   0.398  1.00  0.00     0.087 A 
HETATM    9  C8  UNL     1      -0.594  -0.864   0.292  1.00  0.00     0.134 A 
HETATM   10  O2  UNL     1      -0.721  -2.135  -0.189  1.00  0.00    -0.190 OA
HETATM   11  C9  UNL     1       1.760  -0.654  -0.042  1.00  0.00     0.201 A 
HETATM   12  C10 UNL     1       2.928   0.063   0.040  1.00  0.00     0.064 A 
HETATM   13  C11 UNL     1       2.820   1.287   0.600  1.00  0.00     0.126 A 
HETATM   14  O3  UNL     1       1.671   1.830   1.069  1.00  0.00    -0.305 OA
HETATM   15  O5  UNL     1       1.730  -1.753  -0.537  1.00  0.00    -0.286 OA
ENDROOT
BRANCH  12  16
HETATM   16  C12 UNL     1       4.137  -0.404  -0.405  1.00  0.00     0.005 A 
HETATM   17  C13 UNL     1       5.267   0.345  -0.369  1.00  0.00     0.002 A 
HETATM   18  C14 UNL     1       6.471  -0.064  -0.802  1.00  0.00     0.027 A 
HETATM   19  C15 UNL     1       6.653  -1.286  -1.317  1.00  0.00     0.131 A 
HETATM   20  C16 UNL     1       5.564  -2.063  -1.366  1.00  0.00     0.027 A 
HETATM   21  O4  UNL     1       7.862  -1.720  -1.764  1.00  0.00    -0.190 OA
HETATM   22  C17 UNL     1       4.369  -1.632  -0.927  1.00  0.00     0.002 A 
ENDBRANCH  12  16
BRANCH   1  23
HETATM   23  C18 UNL     1      -4.796   1.018   0.147  1.00  0.00     0.152 C 
HETATM   24  C19 UNL     1      -5.406   2.322   0.669  1.00  0.00     0.036 C 
HETATM   25  C20 UNL     1      -5.916   0.068  -0.281  1.00  0.00     0.036 C 
HETATM   26  O6  UNL     1      -4.026   1.332  -0.985  1.00  0.00    -0.224 OA
ENDBRANCH   1  23
TORSDOF 2
