REMARK  7 active torsions:
REMARK  status: ('A' for Active; 'I' for Inactive)
REMARK    1  A    between atoms: C4_4  and  O7_19 
REMARK    2  A    between atoms: C5_6  and  C6_7 
REMARK    3  A    between atoms: C6_7  and  O2_8 
REMARK    4  A    between atoms: O2_8  and  C7_9 
REMARK    5  A    between atoms: O7_19  and  C13_20 
REMARK    6  A    between atoms: C15_22  and  O10_30 
REMARK    7  A    between atoms: C16_23  and  C19_27 
ROOT
HETATM    1  C1  UNL     1      -2.134  -2.799   0.059  1.00  0.00     0.215 C 
HETATM    2  C2  UNL     1      -1.352  -4.101   0.072  1.00  0.00     0.220 C 
HETATM    3  C3  UNL     1      -0.312  -4.074   1.175  1.00  0.00     0.241 C 
HETATM    4  C4  UNL     1       0.533  -2.832   1.008  1.00  0.00     0.274 C 
HETATM    5  O1  UNL     1      -0.310  -1.706   1.117  1.00  0.00    -0.326 OA
HETATM    6  C5  UNL     1      -1.180  -1.611   0.023  1.00  0.00     0.180 C 
HETATM    7  O11 UNL     1       0.497  -5.218   1.075  1.00  0.00    -0.215 OA
HETATM    8  O12 UNL     1      -2.236  -5.174   0.281  1.00  0.00    -0.218 OA
HETATM    9  O13 UNL     1      -2.975  -2.799  -1.067  1.00  0.00    -0.218 OA
ENDROOT
BRANCH   4  10
HETATM   10  O7  UNL     1       1.469  -2.735   2.056  1.00  0.00    -0.303 OA
BRANCH  10  11
HETATM   11  C13 UNL     1       2.347  -1.675   2.079  1.00  0.00     0.101 A 
HETATM   12  C14 UNL     1       3.234  -1.576   3.081  1.00  0.00     0.049 A 
HETATM   13  C15 UNL     1       4.149  -0.596   3.213  1.00  0.00     0.101 A 
HETATM   14  C16 UNL     1       4.122   0.435   2.327  1.00  0.00     0.082 A 
HETATM   15  C17 UNL     1       3.255   0.370   1.288  1.00  0.00     0.138 A 
HETATM   16  C18 UNL     1       2.420  -0.677   1.184  1.00  0.00     0.052 A 
HETATM   17  O8  UNL     1       3.147   1.315   0.314  1.00  0.00    -0.190 OA
BRANCH  13  18
HETATM   18  O10 UNL     1       4.944  -0.640   4.336  1.00  0.00    -0.328 OA
HETATM   19  C21 UNL     1       6.159  -1.333   4.144  1.00  0.00     0.181 C 
ENDBRANCH  13  18
BRANCH  14  20
HETATM   20  C19 UNL     1       4.975   1.497   2.482  1.00  0.00     0.177 C 
HETATM   21  C20 UNL     1       5.013   2.716   1.566  1.00  0.00     0.077 C 
HETATM   22  O9  UNL     1       5.788   1.565   3.378  1.00  0.00    -0.291 OA
ENDBRANCH  14  20
ENDBRANCH  10  11
ENDBRANCH   4  10
BRANCH   6  23
HETATM   23  C6  UNL     1      -1.866  -0.248   0.076  1.00  0.00     0.177 C 
BRANCH  23  24
HETATM   24  O2  UNL     1      -2.147   0.175  -1.235  1.00  0.00    -0.326 OA
BRANCH  24  25
HETATM   25  C7  UNL     1      -2.664   1.487  -1.310  1.00  0.00     0.270 C 
HETATM   26  O3  UNL     1      -1.554   2.341  -1.127  1.00  0.00    -0.329 OA
HETATM   27  C8  UNL     1      -1.891   3.697  -1.231  1.00  0.00     0.151 C 
HETATM   28  C9  UNL     1      -2.410   3.994  -2.631  1.00  0.00     0.212 C 
HETATM   29  C12 UNL     1      -0.647   4.522  -0.902  1.00  0.00     0.035 C 
HETATM   30  C10 UNL     1      -3.591   3.104  -2.965  1.00  0.00     0.220 C 
HETATM   31  O6  UNL     1      -2.838   5.330  -2.734  1.00  0.00    -0.218 OA
HETATM   32  C11 UNL     1      -3.258   1.655  -2.690  1.00  0.00     0.241 C 
HETATM   33  O5  UNL     1      -3.890   3.251  -4.332  1.00  0.00    -0.218 OA
HETATM   34  O4  UNL     1      -2.320   1.228  -3.648  1.00  0.00    -0.215 OA
ENDBRANCH  24  25
ENDBRANCH  23  24
ENDBRANCH   6  23
TORSDOF 7
