REMARK  8 active torsions:
REMARK  status: ('A' for Active; 'I' for Inactive)
REMARK    1  A    between atoms: C4_4  and  O7_18 
REMARK    2  A    between atoms: C5_6  and  C6_7 
REMARK    3  A    between atoms: C6_7  and  O2_8 
REMARK    4  A    between atoms: O2_8  and  C7_9 
REMARK    5  A    between atoms: C9_12  and  C11_16 
REMARK    6  A    between atoms: O7_18  and  C12_19 
REMARK    7  A    between atoms: C14_21  and  O10_29 
REMARK    8  A    between atoms: C15_22  and  C18_26 
ROOT
HETATM    1  C1  UNL     1       0.853   4.288   0.257  1.00  0.00     0.215 C 
HETATM    2  C2  UNL     1       1.457   4.352   1.647  1.00  0.00     0.220 C 
HETATM    3  C3  UNL     1       2.402   3.184   1.840  1.00  0.00     0.241 C 
HETATM    4  C4  UNL     1       1.664   1.897   1.548  1.00  0.00     0.274 C 
HETATM    5  O1  UNL     1       1.184   1.934   0.223  1.00  0.00    -0.326 OA
HETATM    6  C5  UNL     1       0.208   2.925   0.051  1.00  0.00     0.180 C 
HETATM    7  O11 UNL     1       2.858   3.174   3.169  1.00  0.00    -0.215 OA
HETATM    8  O12 UNL     1       2.156   5.561   1.801  1.00  0.00    -0.218 OA
HETATM    9  O13 UNL     1      -0.098   5.318   0.148  1.00  0.00    -0.218 OA
ENDROOT
BRANCH   4  10
HETATM   10  O7  UNL     1       2.569   0.820   1.612  1.00  0.00    -0.303 OA
BRANCH  10  11
HETATM   11  C12 UNL     1       2.131  -0.455   1.344  1.00  0.00     0.101 A 
HETATM   12  C13 UNL     1       3.026  -1.449   1.247  1.00  0.00     0.049 A 
HETATM   13  C14 UNL     1       2.728  -2.739   0.999  1.00  0.00     0.101 A 
HETATM   14  C15 UNL     1       1.436  -3.059   0.723  1.00  0.00     0.082 A 
HETATM   15  C16 UNL     1       0.496  -2.087   0.800  1.00  0.00     0.138 A 
HETATM   16  C17 UNL     1       0.862  -0.833   1.119  1.00  0.00     0.052 A 
HETATM   17  O8  UNL     1      -0.833  -2.272   0.569  1.00  0.00    -0.190 OA
BRANCH  13  18
HETATM   18  O10 UNL     1       3.791  -3.608   0.895  1.00  0.00    -0.328 OA
HETATM   19  C20 UNL     1       4.170  -4.195   2.122  1.00  0.00     0.181 C 
ENDBRANCH  13  18
BRANCH  14  20
HETATM   20  C18 UNL     1       1.108  -4.349   0.394  1.00  0.00     0.177 C 
HETATM   21  C19 UNL     1      -0.301  -4.822   0.052  1.00  0.00     0.077 C 
HETATM   22  O9  UNL     1       1.920  -5.248   0.353  1.00  0.00    -0.291 OA
ENDBRANCH  14  20
ENDBRANCH  10  11
ENDBRANCH   4  10
BRANCH   6  23
HETATM   23  C6  UNL     1      -0.427   2.729  -1.319  1.00  0.00     0.177 C 
BRANCH  23  24
HETATM   24  O2  UNL     1      -1.023   1.453  -1.329  1.00  0.00    -0.326 OA
BRANCH  24  25
HETATM   25  C7  UNL     1      -1.882   1.228  -2.424  1.00  0.00     0.270 C 
HETATM   26  O3  UNL     1      -3.086   1.901  -2.142  1.00  0.00    -0.326 OA
HETATM   27  C8  UNL     1      -3.807   1.096  -1.244  1.00  0.00     0.181 C 
HETATM   28  C9  UNL     1      -3.466  -0.348  -1.579  1.00  0.00     0.217 C 
HETATM   29  C10 UNL     1      -2.250  -0.236  -2.491  1.00  0.00     0.241 C 
HETATM   30  O5  UNL     1      -3.083  -1.025  -0.411  1.00  0.00    -0.218 OA
HETATM   31  O4  UNL     1      -2.581  -0.581  -3.815  1.00  0.00    -0.215 OA
BRANCH  28  32
HETATM   32  C11 UNL     1      -4.642  -1.113  -2.158  1.00  0.00     0.218 C 
HETATM   33  O6  UNL     1      -4.189  -2.408  -2.494  1.00  0.00    -0.218 OA
ENDBRANCH  28  32
ENDBRANCH  24  25
ENDBRANCH  23  24
ENDBRANCH   6  23
TORSDOF 8
