REMARK  12 active torsions:
REMARK  status: ('A' for Active; 'I' for Inactive)
REMARK    1  A    between atoms: C1_1  and  O9_38 
REMARK    2  A    between atoms: C3_3  and  C8_10 
REMARK    3  A    between atoms: C5_5  and  O2_8 
REMARK    4  A    between atoms: C8_10  and  O4_12 
REMARK    5  A    between atoms: O4_12  and  C9_13 
REMARK    6  A    between atoms: C9_13  and  C10_14 
REMARK    7  A    between atoms: C9_13  and  C22_27 
REMARK    8  A    between atoms: C10_14  and  C11_15 
REMARK    9  A    between atoms: C13_17  and  C17_22 
REMARK   10  A    between atoms: C17_22  and  C18_23 
REMARK   11  A    between atoms: C22_27  and  C23_28 
REMARK   12  A    between atoms: C24_29  and  O7_35 
ROOT
HETATM    1  C9  UNL     1       0.414  -1.458   1.442  1.00  0.00     0.164 C 
ENDROOT
BRANCH   1   2
HETATM    2  O4  UNL     1      -0.722  -2.239   1.653  1.00  0.00    -0.298 OA
BRANCH   2   3
HETATM    3  C8  UNL     1      -2.036  -1.825   1.674  1.00  0.00     0.296 C 
HETATM    4  O3  UNL     1      -2.823  -2.752   1.734  1.00  0.00    -0.259 OA
BRANCH   3   5
HETATM    5  C3  UNL     1      -2.613  -0.578   1.636  1.00  0.00     0.067 A 
HETATM    6  C2  UNL     1      -1.955   0.593   1.631  1.00  0.00     0.032 A 
HETATM    7  C1  UNL     1      -2.568   1.788   1.549  1.00  0.00     0.121 A 
HETATM    8  C6  UNL     1      -3.916   1.840   1.556  1.00  0.00     0.175 A 
HETATM    9  C5  UNL     1      -4.640   0.700   1.586  1.00  0.00     0.121 A 
HETATM   10  O1  UNL     1      -4.490   3.074   1.543  1.00  0.00    -0.186 OA
HETATM   11  C4  UNL     1      -3.957  -0.463   1.609  1.00  0.00     0.032 A 
BRANCH   7  12
HETATM   12  O9  UNL     1      -1.835   2.949   1.590  1.00  0.00    -0.326 OA
HETATM   13  C30 UNL     1      -1.375   3.373   0.328  1.00  0.00     0.181 C 
ENDBRANCH   7  12
BRANCH   9  14
HETATM   14  O2  UNL     1      -6.015   0.609   1.549  1.00  0.00    -0.326 OA
HETATM   15  C7  UNL     1      -6.795   1.690   1.097  1.00  0.00     0.181 C 
ENDBRANCH   9  14
ENDBRANCH   3   5
ENDBRANCH   2   3
ENDBRANCH   1   2
BRANCH   1  16
HETATM   16  C10 UNL     1       0.427  -0.843   0.031  1.00  0.00     0.060 C 
BRANCH  16  17
HETATM   17  C11 UNL     1       1.185   0.450  -0.209  1.00  0.00    -0.020 A 
HETATM   18  C12 UNL     1       1.124   1.010  -1.431  1.00  0.00    -0.006 A 
HETATM   19  C13 UNL     1       1.731   2.170  -1.736  1.00  0.00     0.007 A 
HETATM   20  C14 UNL     1       2.439   2.813  -0.786  1.00  0.00     0.127 A 
HETATM   21  C15 UNL     1       2.514   2.255   0.434  1.00  0.00     0.027 A 
HETATM   22  O5  UNL     1       3.064   3.997  -1.029  1.00  0.00    -0.191 OA
HETATM   23  C16 UNL     1       1.903   1.097   0.724  1.00  0.00    -0.002 A 
BRANCH  19  24
HETATM   24  C17 UNL     1       1.582   2.734  -3.135  1.00  0.00     0.054 C 
BRANCH  24  25
HETATM   25  C18 UNL     1       0.200   3.300  -3.349  1.00  0.00    -0.030 C 
HETATM   26  C19 UNL     1      -0.249   3.854  -4.489  1.00  0.00    -0.048 C 
HETATM   27  C20 UNL     1      -1.660   4.382  -4.602  1.00  0.00     0.026 C 
HETATM   28  C21 UNL     1       0.587   4.002  -5.737  1.00  0.00     0.026 C 
ENDBRANCH  24  25
ENDBRANCH  19  24
ENDBRANCH  16  17
ENDBRANCH   1  16
BRANCH   1  29
HETATM   29  C22 UNL     1       1.666  -2.313   1.685  1.00  0.00     0.204 C 
HETATM   30  O8  UNL     1       1.706  -2.680   3.054  1.00  0.00    -0.216 OA
BRANCH  29  31
HETATM   31  C23 UNL     1       1.964  -3.564   0.863  1.00  0.00     0.033 A 
HETATM   32  C24 UNL     1       3.172  -4.159   1.021  1.00  0.00     0.095 A 
HETATM   33  C25 UNL     1       3.430  -5.256   0.279  1.00  0.00     0.051 A 
HETATM   34  C26 UNL     1       2.564  -5.787  -0.599  1.00  0.00     0.133 A 
HETATM   35  C27 UNL     1       1.372  -5.190  -0.722  1.00  0.00     0.027 A 
HETATM   36  O6  UNL     1       2.871  -6.892  -1.330  1.00  0.00    -0.190 OA
HETATM   37  C28 UNL     1       1.081  -4.100  -0.000  1.00  0.00     0.002 A 
BRANCH  32  38
HETATM   38  O7  UNL     1       4.061  -3.623   1.924  1.00  0.00    -0.328 OA
HETATM   39  C29 UNL     1       5.296  -4.262   2.147  1.00  0.00     0.181 C 
ENDBRANCH  32  38
ENDBRANCH  29  31
ENDBRANCH   1  29
TORSDOF 12
