REMARK  4 active torsions:
REMARK  status: ('A' for Active; 'I' for Inactive)
REMARK    1  A    between atoms: C6_6  and  C7_7 
REMARK    2  A    between atoms: C7_7  and  C8_8 
REMARK    3  A    between atoms: C13_14  and  O3_17 
REMARK    4  A    between atoms: O3_17  and  C15_18 
ROOT
HETATM    1  C1  UNL     1      -1.168  -0.635   0.678  1.00  0.00     0.092 A 
HETATM    2  C2  UNL     1      -1.391   0.694   0.637  1.00  0.00     0.022 A 
HETATM    3  C3  UNL     1      -0.466   1.516   0.117  1.00  0.00     0.007 A 
HETATM    4  C4  UNL     1       0.675   1.038  -0.407  1.00  0.00     0.064 A 
HETATM    5  C5  UNL     1       0.908  -0.288  -0.404  1.00  0.00     0.101 A 
HETATM    6  C6  UNL     1      -0.022  -1.107   0.137  1.00  0.00     0.027 A 
HETATM    7  O1  UNL     1       2.053  -0.811  -0.931  1.00  0.00    -0.303 OA
HETATM    8  C12 UNL     1       2.936   0.078  -1.450  1.00  0.00     0.150 A 
HETATM    9  C13 UNL     1       2.739   1.406  -1.472  1.00  0.00     0.164 A 
HETATM   10  C14 UNL     1       1.584   1.899  -0.945  1.00  0.00     0.222 A 
HETATM   11  O2  UNL     1       1.388   3.095  -0.967  1.00  0.00    -0.284 OA
HETATM   12  C21 UNL     1      -2.527   1.199   1.147  1.00  0.00    -0.000 C 
HETATM   13  C22 UNL     1      -3.509   0.378   1.536  1.00  0.00     0.001 C 
HETATM   14  C23 UNL     1      -3.411  -1.104   1.281  1.00  0.00     0.117 C 
HETATM   15  O6  UNL     1      -2.074  -1.515   1.216  1.00  0.00    -0.332 OA
HETATM   16  C24 UNL     1      -4.084  -1.419  -0.061  1.00  0.00     0.035 C 
HETATM   17  C25 UNL     1      -4.089  -1.888   2.408  1.00  0.00     0.035 C 
ENDROOT
BRANCH   9  18
HETATM   18  O3  UNL     1       3.675   2.235  -2.039  1.00  0.00    -0.300 OA
BRANCH  18  19
HETATM   19  C15 UNL     1       4.069   3.329  -1.312  1.00  0.00     0.126 A 
HETATM   20  C16 UNL     1       4.534   3.226  -0.049  1.00  0.00     0.156 A 
HETATM   21  C17 UNL     1       4.906   4.337   0.610  1.00  0.00     0.057 A 
HETATM   22  O5  UNL     1       4.623   2.017   0.569  1.00  0.00    -0.188 OA
HETATM   23  C18 UNL     1       4.842   5.564   0.067  1.00  0.00     0.133 A 
HETATM   24  C19 UNL     1       4.385   5.654  -1.191  1.00  0.00     0.030 A 
HETATM   25  O4  UNL     1       5.222   6.673   0.755  1.00  0.00    -0.190 OA
HETATM   26  C20 UNL     1       4.010   4.556  -1.862  1.00  0.00     0.029 A 
ENDBRANCH  18  19
ENDBRANCH   9  18
BRANCH   6  27
HETATM   27  C7  UNL     1       0.204  -2.612   0.146  1.00  0.00     0.056 C 
BRANCH  27  28
HETATM   28  C8  UNL     1      -0.715  -3.268  -0.857  1.00  0.00    -0.030 C 
HETATM   29  C9  UNL     1      -1.576  -4.280  -0.646  1.00  0.00    -0.048 C 
HETATM   30  C10 UNL     1      -2.447  -4.805  -1.765  1.00  0.00     0.026 C 
HETATM   31  C11 UNL     1      -1.784  -4.986   0.672  1.00  0.00     0.026 C 
ENDBRANCH  27  28
ENDBRANCH   6  27
TORSDOF 4
