REMARK  5 active torsions:
REMARK  status: ('A' for Active; 'I' for Inactive)
REMARK    1  A    between atoms: C6_6  and  C7_7 
REMARK    2  A    between atoms: C7_7  and  C8_8 
REMARK    3  A    between atoms: C8_8  and  C9_9 
REMARK    4  A    between atoms: C9_9  and  C10_10 
REMARK    5  A    between atoms: C14_15  and  C17_19 
ROOT
HETATM    1  C1  UNL     1      -1.925  -4.194   1.323  1.00  0.00     0.129 A 
HETATM    2  C2  UNL     1      -1.494  -5.320   0.738  1.00  0.00     0.027 A 
HETATM    3  C3  UNL     1      -0.414  -5.312  -0.052  1.00  0.00     0.007 A 
HETATM    4  C4  UNL     1       0.263  -4.170  -0.258  1.00  0.00     0.057 A 
HETATM    5  C5  UNL     1      -0.140  -3.019   0.324  1.00  0.00     0.095 A 
HETATM    6  C6  UNL     1      -1.252  -3.046   1.099  1.00  0.00     0.026 A 
HETATM    7  O1  UNL     1       0.503  -1.823   0.123  1.00  0.00    -0.329 OA
HETATM    8  C14 UNL     1       1.268  -1.704  -1.047  1.00  0.00     0.151 C 
HETATM    9  C15 UNL     1       2.167  -2.923  -1.199  1.00  0.00     0.104 C 
HETATM   10  C16 UNL     1       1.378  -4.207  -1.038  1.00  0.00     0.178 C 
HETATM   11  O2  UNL     1       1.787  -5.210  -1.581  1.00  0.00    -0.291 OA
HETATM   12  O4  UNL     1      -3.024  -4.247   2.127  1.00  0.00    -0.190 OA
ENDROOT
BRANCH   8  13
HETATM   13  C17 UNL     1       2.093  -0.428  -1.006  1.00  0.00     0.006 A 
HETATM   14  C18 UNL     1       2.071   0.468  -2.008  1.00  0.00     0.000 A 
HETATM   15  C19 UNL     1       2.809   1.595  -1.971  1.00  0.00     0.022 A 
HETATM   16  C20 UNL     1       3.612   1.858  -0.920  1.00  0.00     0.094 A 
HETATM   17  C25 UNL     1       2.753   2.464  -2.992  1.00  0.00    -0.000 A 
HETATM   18  C21 UNL     1       3.622   0.956   0.079  1.00  0.00     0.024 A 
HETATM   19  O3  UNL     1       4.403   2.970  -0.800  1.00  0.00    -0.332 OA
HETATM   20  C22 UNL     1       2.883  -0.161   0.046  1.00  0.00     0.000 A 
HETATM   21  C23 UNL     1       4.348   3.963  -1.791  1.00  0.00     0.117 A 
HETATM   22  C24 UNL     1       3.467   3.594  -2.957  1.00  0.00     0.001 A 
HETATM   23  C26 UNL     1       5.776   4.194  -2.300  1.00  0.00     0.035 C 
HETATM   24  C27 UNL     1       3.809   5.245  -1.145  1.00  0.00     0.035 C 
ENDBRANCH   8  13
BRANCH   6  25
HETATM   25  C7  UNL     1      -1.766  -1.772   1.761  1.00  0.00     0.031 C 
BRANCH  25  26
HETATM   26  C8  UNL     1      -3.043  -1.239   1.087  1.00  0.00     0.009 C 
BRANCH  26  27
HETATM   27  C9  UNL     1      -3.557   0.048   1.757  1.00  0.00     0.026 C 
BRANCH  27  28
HETATM   28  C10 UNL     1      -4.913   0.476   1.248  1.00  0.00    -0.035 C 
HETATM   29  C11 UNL     1      -5.573   1.570   1.668  1.00  0.00    -0.048 C 
HETATM   30  C12 UNL     1      -6.952   1.911   1.157  1.00  0.00     0.026 C 
HETATM   31  C13 UNL     1      -4.991   2.518   2.688  1.00  0.00     0.026 C 
ENDBRANCH  27  28
ENDBRANCH  26  27
ENDBRANCH  25  26
ENDBRANCH   6  25
TORSDOF 5
