REMARK  1 active torsions:
REMARK  status: ('A' for Active; 'I' for Inactive)
REMARK    1  A    between atoms: C9_9  and  C11_11 
ROOT
HETATM    1  C1  UNL     1      -2.631   0.643   2.237  1.00  0.00     0.025 C 
HETATM    2  C2  UNL     1      -2.786  -0.625   1.444  1.00  0.00    -0.035 C 
HETATM    3  C3  UNL     1      -1.803  -1.200   0.729  1.00  0.00    -0.048 C 
HETATM    4  C4  UNL     1      -0.403  -0.613   0.680  1.00  0.00     0.019 C 
HETATM    5  C5  UNL     1      -0.389   0.887   1.064  1.00  0.00     0.011 C 
HETATM    6  C6  UNL     1      -1.160   1.044   2.391  1.00  0.00     0.005 C 
HETATM    7  C7  UNL     1       1.074   1.330   1.266  1.00  0.00     0.065 C 
HETATM    8  C8  UNL     1       1.937   1.054   0.046  1.00  0.00     0.154 C 
HETATM    9  C9  UNL     1       1.785  -0.310  -0.615  1.00  0.00     0.076 C 
HETATM   10  C10 UNL     1       0.339  -0.837  -0.649  1.00  0.00     0.015 C 
HETATM   11  O1  UNL     1       2.769   1.857  -0.311  1.00  0.00    -0.296 OA
HETATM   12  C14 UNL     1      -1.024   1.787  -0.020  1.00  0.00     0.001 C 
HETATM   13  C15 UNL     1      -2.041  -2.517   0.027  1.00  0.00     0.026 C 
ENDROOT
BRANCH   9  14
HETATM   14  C11 UNL     1       2.429  -0.395  -1.988  1.00  0.00    -0.037 C 
HETATM   15  C12 UNL     1       3.387  -1.298  -2.252  1.00  0.00    -0.009 C 
HETATM   16  C13 UNL     1       1.940   0.552  -3.060  1.00  0.00     0.027 C 
ENDBRANCH   9  14
TORSDOF 1
