REMARK  5 active torsions:
REMARK  status: ('A' for Active; 'I' for Inactive)
REMARK    1  A    between atoms: C2_2  and  O1_10 
REMARK    2  A    between atoms: C5_5  and  C7_7 
REMARK    3  A    between atoms: C7_7  and  C8_8 
REMARK    4  A    between atoms: O1_10  and  C10_11 
REMARK    5  A    between atoms: C11_13  and  C15_20 
ROOT
HETATM    1  C10 UNL     1      -0.533   0.830  -1.391  1.00  0.00     0.274 C 
HETATM    2  O2  UNL     1      -1.031   2.155  -1.375  1.00  0.00    -0.326 OA
HETATM    3  C11 UNL     1      -1.706   2.561  -0.212  1.00  0.00     0.184 C 
HETATM    4  C12 UNL     1      -2.771   1.567   0.233  1.00  0.00     0.215 C 
HETATM    5  C13 UNL     1      -2.309   0.122   0.224  1.00  0.00     0.220 C 
HETATM    6  C14 UNL     1      -1.615  -0.184  -1.089  1.00  0.00     0.241 C 
HETATM    7  O3  UNL     1      -2.564  -0.145  -2.131  1.00  0.00    -0.215 OA
HETATM    8  O4  UNL     1      -1.449  -0.161   1.306  1.00  0.00    -0.218 OA
HETATM    9  O5  UNL     1      -3.875   1.673  -0.643  1.00  0.00    -0.218 OA
ENDROOT
BRANCH   1  10
HETATM   10  O1  UNL     1       0.513   0.823  -0.453  1.00  0.00    -0.301 OA
BRANCH  10  11
HETATM   11  C2  UNL     1       1.230  -0.326  -0.238  1.00  0.00     0.122 A 
HETATM   12  C1  UNL     1       1.678  -0.568   1.012  1.00  0.00     0.153 A 
HETATM   13  C6  UNL     1       2.369  -1.688   1.280  1.00  0.00     0.025 A 
HETATM   14  O7  UNL     1       1.431   0.324   2.010  1.00  0.00    -0.188 OA
HETATM   15  C5  UNL     1       2.629  -2.610   0.339  1.00  0.00    -0.016 A 
HETATM   16  C4  UNL     1       2.155  -2.385  -0.896  1.00  0.00    -0.002 A 
HETATM   17  C3  UNL     1       1.466  -1.268  -1.172  1.00  0.00     0.026 A 
BRANCH  15  18
HETATM   18  C7  UNL     1       3.411  -3.867   0.650  1.00  0.00     0.052 C 
BRANCH  18  19
HETATM   19  C8  UNL     1       4.661  -3.938  -0.190  1.00  0.00    -0.021 C 
HETATM   20  C9  UNL     1       4.956  -4.963  -1.003  1.00  0.00    -0.005 C 
ENDBRANCH  18  19
ENDBRANCH  15  18
ENDBRANCH  10  11
ENDBRANCH   1  10
BRANCH   3  21
HETATM   21  C15 UNL     1      -0.758   3.015   0.894  1.00  0.00     0.214 C 
HETATM   22  O6  UNL     1      -1.442   3.866   1.794  1.00  0.00    -0.218 OA
ENDBRANCH   3  21
TORSDOF 5
