REMARK  5 active torsions:
REMARK  status: ('A' for Active; 'I' for Inactive)
REMARK    1  A    between atoms: C2_2  and  C23_26 
REMARK    2  A    between atoms: C6_6  and  C7_7 
REMARK    3  A    between atoms: C10_12  and  C11_13 
REMARK    4  A    between atoms: C11_13  and  C12_14 
REMARK    5  A    between atoms: C16_18  and  C19_21 
ROOT
HETATM    1  C1  UNL     1      -3.691   1.608   0.956  1.00  0.00     0.141 A 
HETATM    2  C2  UNL     1      -3.692   0.268   0.777  1.00  0.00     0.093 A 
HETATM    3  C3  UNL     1      -2.536  -0.417   0.659  1.00  0.00     0.134 A 
HETATM    4  C4  UNL     1      -1.365   0.253   0.723  1.00  0.00     0.026 A 
HETATM    5  C5  UNL     1      -1.340   1.589   0.888  1.00  0.00     0.097 A 
HETATM    6  C6  UNL     1      -2.508   2.262   1.006  1.00  0.00     0.090 A 
HETATM    7  O2  UNL     1      -0.137   2.239   0.875  1.00  0.00    -0.332 OA
HETATM    8  C8  UNL     1       0.787   1.771  -0.067  1.00  0.00     0.117 C 
HETATM    9  C9  UNL     1       1.195   0.346   0.305  1.00  0.00     0.034 C 
HETATM   10  C10 UNL     1      -0.046  -0.522   0.645  1.00  0.00     0.029 C 
HETATM   11  C15 UNL     1       2.106  -0.308  -0.766  1.00  0.00     0.007 C 
HETATM   12  C16 UNL     1       2.023   0.241  -2.208  1.00  0.00     0.022 C 
HETATM   13  C17 UNL     1       0.728   0.981  -2.424  1.00  0.00    -0.029 C 
HETATM   14  C18 UNL     1       0.185   1.728  -1.454  1.00  0.00    -0.004 C 
HETATM   15  C22 UNL     1       1.964   2.752  -0.020  1.00  0.00     0.035 C 
HETATM   16  O3  UNL     1      -2.527  -1.771   0.491  1.00  0.00    -0.190 OA
HETATM   17  O5  UNL     1      -4.883   2.265   1.073  1.00  0.00    -0.190 OA
ENDROOT
BRANCH  10  18
HETATM   18  C11 UNL     1       0.126  -1.286   1.988  1.00  0.00     0.005 C 
BRANCH  18  19
HETATM   19  C12 UNL     1       0.970  -2.578   1.956  1.00  0.00     0.000 C 
HETATM   20  C13 UNL     1       0.499  -3.549   3.059  1.00  0.00     0.000 C 
HETATM   21  C14 UNL     1       2.474  -2.326   2.150  1.00  0.00     0.000 C 
ENDBRANCH  18  19
ENDBRANCH  10  18
BRANCH   2  22
HETATM   22  C23 UNL     1      -4.882  -0.397   0.721  1.00  0.00     0.238 C 
HETATM   23  O4  UNL     1      -5.037  -1.585   0.566  1.00  0.00    -0.283 OA
ENDBRANCH   2  22
BRANCH   6  24
HETATM   24  C7  UNL     1      -2.492   3.616   1.178  1.00  0.00     0.238 C 
HETATM   25  O1  UNL     1      -1.529   4.342   1.261  1.00  0.00    -0.283 OA
ENDBRANCH   6  24
BRANCH  12  26
HETATM   26  C19 UNL     1       2.339  -0.818  -3.293  1.00  0.00     0.004 C 
HETATM   27  C20 UNL     1       3.663  -1.558  -3.009  1.00  0.00     0.000 C 
HETATM   28  C21 UNL     1       2.437  -0.205  -4.706  1.00  0.00     0.000 C 
ENDBRANCH  12  26
TORSDOF 5
