REMARK  4 active torsions:
REMARK  status: ('A' for Active; 'I' for Inactive)
REMARK    1  A    between atoms: C5_5  and  O3_15 
REMARK    2  A    between atoms: O3_15  and  C13_16 
REMARK    3  A    between atoms: C13_16  and  C14_17 
REMARK    4  A    between atoms: C15_18  and  C16_19 
ROOT
HETATM    1  C1  UNL     1      -1.078   0.443  -2.570  1.00  0.00     0.068 A 
HETATM    2  C2  UNL     1      -0.941  -1.092  -2.338  1.00  0.00     0.051 A 
HETATM    3  C3  UNL     1       0.007  -1.560  -1.239  1.00  0.00     0.135 C 
HETATM    4  C4  UNL     1       1.446  -1.051  -1.403  1.00  0.00     0.084 C 
HETATM    5  C5  UNL     1       1.728   0.253  -0.663  1.00  0.00     0.134 C 
HETATM    6  C6  UNL     1       1.115   1.432  -1.423  1.00  0.00     0.064 C 
HETATM    7  C7  UNL     1      -0.385   1.502  -1.705  1.00  0.00     0.159 C 
HETATM    8  C8  UNL     1      -1.332   1.578  -0.528  1.00  0.00     0.173 C 
HETATM    9  O1  UNL     1      -2.596   1.631  -1.136  1.00  0.00    -0.350 OA
HETATM   10  C9  UNL     1      -2.552   0.798  -2.274  1.00  0.00     0.140 A 
HETATM   11  C10 UNL     1      -3.220  -0.520  -2.037  1.00  0.00    -0.005 A 
HETATM   12  C11 UNL     1      -2.362  -1.542  -2.080  1.00  0.00    -0.044 A 
HETATM   13  C12 UNL     1      -2.761  -2.980  -1.908  1.00  0.00     0.026 C 
HETATM   14  O2  UNL     1      -0.563   2.733  -2.382  1.00  0.00    -0.223 OA
HETATM   15  C18 UNL     1       2.242  -2.255  -0.977  1.00  0.00     0.045 C 
HETATM   16  C19 UNL     1       1.380  -3.297  -0.940  1.00  0.00     0.292 C 
HETATM   17  O6  UNL     1       0.085  -2.963  -1.179  1.00  0.00    -0.300 OA
HETATM   18  O7  UNL     1       1.717  -4.440  -0.714  1.00  0.00    -0.260 OA
HETATM   19  C20 UNL     1       3.558  -2.337  -0.738  1.00  0.00     0.001 C 
ENDROOT
BRANCH   5  20
HETATM   20  O3  UNL     1       1.275   0.150   0.653  1.00  0.00    -0.301 OA
BRANCH  20  21
HETATM   21  C13 UNL     1       1.599   1.103   1.580  1.00  0.00     0.291 C 
HETATM   22  O5  UNL     1       2.426   1.945   1.303  1.00  0.00    -0.260 OA
BRANCH  21  23
HETATM   23  C14 UNL     1       0.945   1.143   2.778  1.00  0.00     0.040 C 
HETATM   24  C15 UNL     1       1.230   2.107   3.675  1.00  0.00     0.010 C 
HETATM   25  C17 UNL     1      -0.086   0.066   3.044  1.00  0.00     0.036 C 
BRANCH  24  26
HETATM   26  C16 UNL     1       0.567   2.267   5.019  1.00  0.00     0.208 C 
HETATM   27  O4  UNL     1       0.990   1.251   5.918  1.00  0.00    -0.215 OA
ENDBRANCH  24  26
ENDBRANCH  21  23
ENDBRANCH  20  21
ENDBRANCH   5  20
TORSDOF 4
