REMARK  12 active torsions:
REMARK  status: ('A' for Active; 'I' for Inactive)
REMARK    1  A    between atoms: C1_1  and  O11_49 
REMARK    2  A    between atoms: C7_7  and  O8_36 
REMARK    3  A    between atoms: C8_8  and  O6_32 
REMARK    4  A    between atoms: C11_11  and  O4_27 
REMARK    5  A    between atoms: C13_13  and  O2_18 
REMARK    6  A    between atoms: O2_18  and  C17_19 
REMARK    7  A    between atoms: C17_19  and  C18_21 
REMARK    8  A    between atoms: O4_27  and  C24_28 
REMARK    9  A    between atoms: O6_32  and  C27_33 
REMARK   10  A    between atoms: O8_36  and  C29_37 
REMARK   11  A    between atoms: C29_37  and  C30_39 
REMARK   12  A    between atoms: O11_49  and  C38_50 
ROOT
HETATM    1  C1  UNL     1      -0.761   0.869  -2.009  1.00  0.00     0.160 C 
HETATM    2  C2  UNL     1       0.663   1.470  -1.979  1.00  0.00     0.179 C 
HETATM    3  C3  UNL     1       0.924   2.941  -1.634  1.00  0.00     0.082 C 
HETATM    4  C4  UNL     1       1.201   3.028  -0.151  1.00  0.00    -0.024 C 
HETATM    5  C5  UNL     1       2.439   2.922   0.353  1.00  0.00    -0.029 C 
HETATM    6  C6  UNL     1       2.788   2.806   1.826  1.00  0.00     0.046 C 
HETATM    7  C7  UNL     1       2.202   1.499   2.437  1.00  0.00     0.156 C 
HETATM    8  C8  UNL     1       2.246   0.183   1.617  1.00  0.00     0.156 C 
HETATM    9  C9  UNL     1       0.852  -0.174   1.063  1.00  0.00     0.057 C 
HETATM   10  C10 UNL     1       0.688  -1.300   0.059  1.00  0.00    -0.014 C 
HETATM   11  C11 UNL     1      -0.682  -1.393  -0.605  1.00  0.00     0.148 C 
HETATM   12  C12 UNL     1      -0.769  -0.684  -1.978  1.00  0.00     0.094 C 
HETATM   13  C13 UNL     1      -2.025  -1.080  -2.795  1.00  0.00     0.158 C 
HETATM   14  C14 UNL     1      -2.086  -0.040  -3.914  1.00  0.00     0.155 C 
HETATM   15  C15 UNL     1      -1.316   1.185  -3.407  1.00  0.00     0.068 C 
HETATM   16  C16 UNL     1      -1.482  -0.562  -5.222  1.00  0.00     0.036 C 
HETATM   17  O1  UNL     1      -3.418   0.318  -4.168  1.00  0.00    -0.223 OA
HETATM   18  C26 UNL     1       1.639  -2.209  -0.210  1.00  0.00    -0.007 C 
HETATM   19  C35 UNL     1       4.327   2.882   1.983  1.00  0.00     0.007 C 
HETATM   20  C36 UNL     1       2.217   4.040   2.567  1.00  0.00     0.007 C 
HETATM   21  C37 UNL     1      -0.130   3.965  -2.074  1.00  0.00     0.013 C 
HETATM   22  O10 UNL     1       1.616   0.763  -2.225  1.00  0.00    -0.293 OA
ENDROOT
BRANCH   7  23
HETATM   23  O8  UNL     1       2.796   1.308   3.694  1.00  0.00    -0.298 OA
BRANCH  23  24
HETATM   24  C29 UNL     1       2.046   0.793   4.718  1.00  0.00     0.297 C 
HETATM   25  O9  UNL     1       0.975   0.280   4.472  1.00  0.00    -0.259 OA
BRANCH  24  26
HETATM   26  C30 UNL     1       2.428   0.922   6.022  1.00  0.00     0.082 A 
HETATM   27  C31 UNL     1       1.669   0.456   7.031  1.00  0.00     0.009 A 
HETATM   28  C32 UNL     1       2.101   0.627   8.290  1.00  0.00     0.021 A 
HETATM   29  C33 UNL     1       3.272   1.254   8.482  1.00  0.00     0.099 A 
HETATM   30  N1  UNL     1       3.994   1.693   7.540  1.00  0.00    -0.242 NA
HETATM   31  C34 UNL     1       3.584   1.530   6.353  1.00  0.00     0.104 A 
ENDBRANCH  24  26
ENDBRANCH  23  24
ENDBRANCH   7  23
BRANCH   8  32
HETATM   32  O6  UNL     1       3.154   0.268   0.556  1.00  0.00    -0.301 OA
BRANCH  32  33
HETATM   33  C27 UNL     1       4.364  -0.344   0.655  1.00  0.00     0.272 C 
HETATM   34  C28 UNL     1       5.101  -0.230  -0.665  1.00  0.00     0.106 C 
HETATM   35  O7  UNL     1       4.790  -0.907   1.638  1.00  0.00    -0.264 OA
ENDBRANCH  32  33
ENDBRANCH   8  32
BRANCH  11  36
HETATM   36  O4  UNL     1      -1.088  -2.736  -0.769  1.00  0.00    -0.300 OA
BRANCH  36  37
HETATM   37  C24 UNL     1      -1.301  -3.477   0.354  1.00  0.00     0.273 C 
HETATM   38  C25 UNL     1      -1.825  -4.851  -0.011  1.00  0.00     0.106 C 
HETATM   39  O5  UNL     1      -1.117  -3.091   1.486  1.00  0.00    -0.264 OA
ENDBRANCH  36  37
ENDBRANCH  11  36
BRANCH   1  40
HETATM   40  O11 UNL     1      -1.499   1.352  -0.914  1.00  0.00    -0.299 OA
BRANCH  40  41
HETATM   41  C38 UNL     1      -2.797   1.754  -0.951  1.00  0.00     0.273 C 
HETATM   42  C39 UNL     1      -3.220   2.196   0.436  1.00  0.00     0.106 C 
HETATM   43  O12 UNL     1      -3.527   1.755  -1.913  1.00  0.00    -0.264 OA
ENDBRANCH  40  41
ENDBRANCH   1  40
BRANCH  13  44
HETATM   44  O2  UNL     1      -3.144  -0.995  -1.959  1.00  0.00    -0.298 OA
BRANCH  44  45
HETATM   45  C17 UNL     1      -3.978  -2.055  -1.689  1.00  0.00     0.296 C 
HETATM   46  O3  UNL     1      -4.435  -2.062  -0.562  1.00  0.00    -0.259 OA
BRANCH  45  47
HETATM   47  C18 UNL     1      -4.400  -3.062  -2.516  1.00  0.00     0.063 A 
HETATM   48  C19 UNL     1      -4.140  -3.094  -3.837  1.00  0.00     0.005 A 
HETATM   49  C20 UNL     1      -4.563  -4.096  -4.623  1.00  0.00     0.000 A 
HETATM   50  C21 UNL     1      -5.274  -5.105  -4.103  1.00  0.00     0.000 A 
HETATM   51  C22 UNL     1      -5.568  -5.087  -2.796  1.00  0.00     0.000 A 
HETATM   52  C23 UNL     1      -5.143  -4.075  -2.021  1.00  0.00     0.005 A 
ENDBRANCH  45  47
ENDBRANCH  44  45
ENDBRANCH  13  44
TORSDOF 12
