REMARK  8 active torsions:
REMARK  status: ('A' for Active; 'I' for Inactive)
REMARK    1  A    between atoms: C2_2  and  O4_33 
REMARK    2  A    between atoms: O4_33  and  C30_34 
REMARK    3  A    between atoms: C31_36  and  C47_64 
REMARK    4  A    between atoms: C33_38  and  O11_51 
REMARK    5  A    between atoms: C34_39  and  O6_40 
REMARK    6  A    between atoms: O6_40  and  C35_41 
REMARK    7  A    between atoms: O11_51  and  C41_52 
REMARK    8  A    between atoms: C42_54  and  C46_61 
ROOT
HETATM    1  O4  UNL     1      -2.475  -0.620  -0.893  1.00  0.00    -0.332 OA
ENDROOT
BRANCH   1   2
HETATM    2  C2  UNL     1      -2.215  -1.564  -1.900  1.00  0.00     0.118 C 
HETATM    3  C1  UNL     1      -1.286  -0.847  -2.881  1.00  0.00     0.030 C 
HETATM    4  C6  UNL     1      -0.097  -0.250  -2.113  1.00  0.00     0.003 C 
HETATM    5  C5  UNL     1       0.652  -1.242  -1.165  1.00  0.00     0.003 C 
HETATM    6  C4  UNL     1       0.110  -2.685  -1.392  1.00  0.00     0.002 C 
HETATM    7  C7  UNL     1       2.182  -1.102  -1.517  1.00  0.00     0.030 C 
HETATM    8  C27 UNL     1       0.424  -0.888   0.337  1.00  0.00     0.000 C 
HETATM    9  C3  UNL     1      -1.456  -2.850  -1.457  1.00  0.00     0.025 C 
HETATM   10  C10 UNL     1       0.995  -3.381  -2.448  1.00  0.00     0.000 C 
HETATM   11  C28 UNL     1      -1.863  -3.967  -2.458  1.00  0.00     0.002 C 
HETATM   12  C29 UNL     1      -1.961  -3.381  -0.089  1.00  0.00     0.002 C 
HETATM   13  C9  UNL     1       2.455  -3.559  -1.963  1.00  0.00     0.000 C 
HETATM   14  C8  UNL     1       3.075  -2.339  -1.218  1.00  0.00     0.005 C 
HETATM   15  C11 UNL     1       4.557  -2.004  -1.683  1.00  0.00     0.026 C 
HETATM   16  C26 UNL     1       3.005  -2.657   0.302  1.00  0.00     0.000 C 
HETATM   17  C12 UNL     1       5.082  -0.788  -0.831  1.00  0.00     0.129 C 
HETATM   18  C18 UNL     1       5.546  -3.193  -1.482  1.00  0.00     0.003 C 
HETATM   19  C25 UNL     1       4.625  -1.760  -3.228  1.00  0.00     0.002 C 
HETATM   20  C13 UNL     1       4.076   0.362  -0.679  1.00  0.00     0.168 A 
HETATM   21  C15 UNL     1       6.468  -0.302  -1.303  1.00  0.00     0.041 C 
HETATM   22  O2  UNL     1       5.400  -1.252   0.465  1.00  0.00    -0.304 OA
HETATM   23  C14 UNL     1       2.737   0.252  -1.063  1.00  0.00     0.145 A 
HETATM   24  O1  UNL     1       3.713   0.886  -2.072  1.00  0.00    -0.352 OA
HETATM   25  C16 UNL     1       7.327  -1.470  -0.792  1.00  0.00     0.081 C 
HETATM   26  C22 UNL     1       6.893   1.044  -0.673  1.00  0.00     0.025 C 
HETATM   27  C17 UNL     1       7.026  -2.766  -1.571  1.00  0.00     0.010 C 
HETATM   28  C19 UNL     1       8.835  -1.179  -0.766  1.00  0.00     0.014 C 
HETATM   29  C24 UNL     1       6.702  -1.619   0.579  1.00  0.00     0.271 C 
HETATM   30  C20 UNL     1       9.188   0.155  -0.100  1.00  0.00     0.022 C 
HETATM   31  C21 UNL     1       8.384   1.244  -0.761  1.00  0.00    -0.044 C 
HETATM   32  C23 UNL     1       8.945   2.304  -1.361  1.00  0.00    -0.009 C 
HETATM   33  O3  UNL     1       7.229  -2.026   1.589  1.00  0.00    -0.264 OA
ENDBRANCH   1   2
BRANCH   1  34
HETATM   34  C30 UNL     1      -3.700  -0.663  -0.204  1.00  0.00     0.266 C 
HETATM   35  O5  UNL     1      -4.769  -0.270  -1.035  1.00  0.00    -0.326 OA
HETATM   36  C31 UNL     1      -4.928   1.097  -1.284  1.00  0.00     0.184 C 
HETATM   37  C32 UNL     1      -4.943   1.901   0.004  1.00  0.00     0.211 C 
HETATM   38  C33 UNL     1      -3.722   1.659   0.877  1.00  0.00     0.183 C 
HETATM   39  O17 UNL     1      -6.103   1.574   0.741  1.00  0.00    -0.218 OA
HETATM   40  C34 UNL     1      -3.571   0.149   1.086  1.00  0.00     0.204 C 
BRANCH  36  41
HETATM   41  C47 UNL     1      -3.992   1.596  -2.377  1.00  0.00     0.214 C 
HETATM   42  O18 UNL     1      -4.373   2.892  -2.795  1.00  0.00    -0.218 OA
ENDBRANCH  36  41
BRANCH  38  43
HETATM   43  O11 UNL     1      -2.586   2.211   0.265  1.00  0.00    -0.326 OA
BRANCH  43  44
HETATM   44  C41 UNL     1      -1.629   2.757   1.147  1.00  0.00     0.270 C 
HETATM   45  O12 UNL     1      -2.042   4.049   1.537  1.00  0.00    -0.326 OA
HETATM   46  C42 UNL     1      -1.913   5.077   0.588  1.00  0.00     0.184 C 
HETATM   47  C43 UNL     1      -0.540   5.129  -0.071  1.00  0.00     0.215 C 
HETATM   48  C44 UNL     1      -0.066   3.780  -0.573  1.00  0.00     0.220 C 
HETATM   49  O15 UNL     1       0.392   5.592   0.880  1.00  0.00    -0.218 OA
HETATM   50  C45 UNL     1      -0.249   2.765   0.532  1.00  0.00     0.241 C 
HETATM   51  O14 UNL     1      -0.780   3.393  -1.722  1.00  0.00    -0.218 OA
HETATM   52  O13 UNL     1       0.716   2.994   1.535  1.00  0.00    -0.215 OA
BRANCH  46  53
HETATM   53  C46 UNL     1      -3.084   5.129  -0.381  1.00  0.00     0.214 C 
HETATM   54  O16 UNL     1      -3.089   6.366  -1.065  1.00  0.00    -0.218 OA
ENDBRANCH  46  53
ENDBRANCH  43  44
ENDBRANCH  38  43
BRANCH  40  55
HETATM   55  O6  UNL     1      -4.536  -0.250   2.023  1.00  0.00    -0.324 OA
BRANCH  55  56
HETATM   56  C35 UNL     1      -4.227  -1.434   2.734  1.00  0.00     0.270 C 
HETATM   57  O7  UNL     1      -5.451  -2.129   2.858  1.00  0.00    -0.329 OA
HETATM   58  C36 UNL     1      -6.375  -1.513   3.714  1.00  0.00     0.151 C 
HETATM   59  C37 UNL     1      -5.791  -1.389   5.112  1.00  0.00     0.212 C 
HETATM   60  C40 UNL     1      -7.654  -2.351   3.705  1.00  0.00     0.035 C 
HETATM   61  C38 UNL     1      -4.518  -0.571   5.068  1.00  0.00     0.220 C 
HETATM   62  O10 UNL     1      -6.688  -0.740   5.980  1.00  0.00    -0.218 OA
HETATM   63  C39 UNL     1      -3.554  -1.157   4.061  1.00  0.00     0.241 C 
HETATM   64  O9  UNL     1      -3.927  -0.601   6.344  1.00  0.00    -0.218 OA
HETATM   65  O8  UNL     1      -3.052  -2.360   4.597  1.00  0.00    -0.215 OA
ENDBRANCH  55  56
ENDBRANCH  40  55
ENDBRANCH   1  34
TORSDOF 8
