REMARK  0 active torsions:
REMARK  status: ('A' for Active; 'I' for Inactive)
ROOT
HETATM    1  C1  UNL     1      -1.416  -0.173   0.636  1.00  0.00     0.078 C 
HETATM    2  C2  UNL     1      -1.452  -1.648   0.325  1.00  0.00    -0.016 C 
HETATM    3  C3  UNL     1      -0.333  -2.373   0.158  1.00  0.00     0.033 C 
HETATM    4  C4  UNL     1       0.914  -1.823   0.122  1.00  0.00     0.172 C 
HETATM    5  C5  UNL     1       1.096  -0.296   0.220  1.00  0.00     0.068 C 
HETATM    6  C6  UNL     1      -0.247   0.372  -0.184  1.00  0.00     0.051 C 
HETATM    7  C7  UNL     1      -0.173   1.869  -0.511  1.00  0.00     0.181 C 
HETATM    8  C8  UNL     1       1.096   2.202  -1.306  1.00  0.00     0.155 C 
HETATM    9  C9  UNL     1       2.346   1.771  -0.550  1.00  0.00     0.040 C 
HETATM   10  C10 UNL     1       2.185   0.255  -0.748  1.00  0.00     0.096 C 
HETATM   11  C11 UNL     1       1.745   0.238  -2.205  1.00  0.00     0.272 C 
HETATM   12  O1  UNL     1       1.113   1.418  -2.466  1.00  0.00    -0.302 OA
HETATM   13  O2  UNL     1       1.881  -0.671  -2.993  1.00  0.00    -0.264 OA
HETATM   14  C12 UNL     1       3.641   2.321  -1.169  1.00  0.00     0.003 C 
HETATM   15  O3  UNL     1      -0.240   2.635   0.663  1.00  0.00    -0.221 OA
HETATM   16  C13 UNL     1       1.601  -0.063   1.663  1.00  0.00     0.008 C 
HETATM   17  O4  UNL     1       1.890  -2.528  -0.015  1.00  0.00    -0.291 OA
HETATM   18  C14 UNL     1      -2.720  -2.065   0.161  1.00  0.00    -0.012 C 
HETATM   19  C15 UNL     1      -3.509  -0.978   0.052  1.00  0.00     0.088 C 
HETATM   20  C16 UNL     1      -2.821   0.189   0.186  1.00  0.00     0.186 C 
HETATM   21  O5  UNL     1      -3.215   1.328   0.080  1.00  0.00    -0.290 OA
HETATM   22 CL1  UNL     1      -5.205  -1.053  -0.253  1.00  0.00    -0.080 Cl
HETATM   23  C17 UNL     1      -3.142  -3.498  -0.026  1.00  0.00     0.032 C 
HETATM   24  C18 UNL     1      -1.438   0.070   2.157  1.00  0.00     0.012 C 
ENDROOT
TORSDOF 0
