REMARK  3 active torsions:
REMARK  status: ('A' for Active; 'I' for Inactive)
REMARK    1  A    between atoms: C6_6  and  O1_7 
REMARK    2  A    between atoms: O1_7  and  C7_8 
REMARK    3  A    between atoms: C8_10  and  C12_17 
ROOT
HETATM    1  C1  UNL     1      -2.093  -1.288  -1.400  1.00  0.00     0.001 C 
HETATM    2  C2  UNL     1      -2.340  -2.547  -1.020  1.00  0.00     0.001 C 
HETATM    3  C3  UNL     1      -1.465  -3.348  -0.094  1.00  0.00     0.147 C 
HETATM    4  C4  UNL     1      -0.115  -2.630   0.110  1.00  0.00     0.068 C 
HETATM    5  C5  UNL     1      -0.166  -1.074   0.265  1.00  0.00     0.037 C 
HETATM    6  C6  UNL     1      -0.923  -0.442  -0.945  1.00  0.00     0.140 C 
HETATM    7  C13 UNL     1       1.331  -0.605   0.251  1.00  0.00     0.039 C 
HETATM    8  C14 UNL     1       2.326  -1.242   1.247  1.00  0.00     0.040 C 
HETATM    9  C15 UNL     1       2.171  -2.764   1.294  1.00  0.00     0.155 C 
HETATM   10  C16 UNL     1       0.752  -3.293   1.190  1.00  0.00     0.182 C 
HETATM   11  O7  UNL     1       0.819  -4.683   0.965  1.00  0.00    -0.221 OA
HETATM   12  O8  UNL     1       2.986  -3.296   0.296  1.00  0.00    -0.302 OA
HETATM   13  C17 UNL     1       4.006  -2.457  -0.007  1.00  0.00     0.272 C 
HETATM   14  C18 UNL     1       3.761  -1.114   0.661  1.00  0.00     0.091 C 
HETATM   15  C19 UNL     1       4.042   0.131  -0.225  1.00  0.00     0.043 C 
HETATM   16  C20 UNL     1       3.098   1.263   0.184  1.00  0.00     0.183 C 
HETATM   17  C21 UNL     1       1.631   0.885   0.053  1.00  0.00     0.182 C 
HETATM   18  O9  UNL     1       0.922   1.653   0.986  1.00  0.00    -0.221 OA
HETATM   19  O10 UNL     1       3.320   2.437  -0.565  1.00  0.00    -0.221 OA
HETATM   20  C22 UNL     1       4.053  -0.098  -1.751  1.00  0.00     0.003 C 
HETATM   21  O11 UNL     1       4.945  -2.762  -0.708  1.00  0.00    -0.264 OA
HETATM   22  C23 UNL     1       2.230  -0.685   2.682  1.00  0.00     0.003 C 
HETATM   23  C24 UNL     1      -0.951  -0.690   1.542  1.00  0.00     0.003 C 
HETATM   24  C25 UNL     1      -2.264  -3.711   1.161  1.00  0.00     0.038 C 
HETATM   25  O12 UNL     1      -1.194  -4.575  -0.753  1.00  0.00    -0.221 OA
ENDROOT
BRANCH   6  26
HETATM   26  O1  UNL     1      -1.321   0.887  -0.623  1.00  0.00    -0.327 OA
BRANCH  26  27
HETATM   27  C7  UNL     1      -1.952   1.611  -1.662  1.00  0.00     0.270 C 
HETATM   28  O2  UNL     1      -1.284   2.842  -1.854  1.00  0.00    -0.326 OA
HETATM   29  C8  UNL     1      -1.632   3.939  -1.049  1.00  0.00     0.184 C 
HETATM   30  C9  UNL     1      -3.127   4.097  -0.808  1.00  0.00     0.215 C 
HETATM   31  C10 UNL     1      -3.812   2.800  -0.434  1.00  0.00     0.220 C 
HETATM   32  O5  UNL     1      -3.745   4.622  -1.963  1.00  0.00    -0.218 OA
HETATM   33  C11 UNL     1      -3.447   1.742  -1.452  1.00  0.00     0.241 C 
HETATM   34  O4  UNL     1      -3.407   2.382   0.847  1.00  0.00    -0.218 OA
HETATM   35  O3  UNL     1      -4.042   2.068  -2.687  1.00  0.00    -0.215 OA
BRANCH  29  36
HETATM   36  C12 UNL     1      -0.823   4.021   0.237  1.00  0.00     0.214 C 
HETATM   37  O6  UNL     1       0.564   3.961  -0.038  1.00  0.00    -0.218 OA
ENDBRANCH  29  36
ENDBRANCH  26  27
ENDBRANCH   6  26
TORSDOF 3
