REMARK  0 active torsions:
REMARK  status: ('A' for Active; 'I' for Inactive)
ROOT
HETATM    1  C1  UNL     1      -1.071  -0.043  -0.070  1.00  0.00     0.049 C 
HETATM    2  C2  UNL     1      -0.963  -1.562  -0.231  1.00  0.00    -0.040 C 
HETATM    3  C3  UNL     1       0.188  -2.229  -0.017  1.00  0.00     0.029 C 
HETATM    4  C4  UNL     1       1.348  -1.700   0.453  1.00  0.00     0.172 C 
HETATM    5  C5  UNL     1       1.351  -0.248   0.936  1.00  0.00     0.067 C 
HETATM    6  C6  UNL     1       0.371   0.533   0.034  1.00  0.00     0.046 C 
HETATM    7  C7  UNL     1       0.573   2.063   0.080  1.00  0.00     0.180 C 
HETATM    8  C8  UNL     1       2.054   2.457   0.145  1.00  0.00     0.155 C 
HETATM    9  C9  UNL     1       2.724   1.837   1.365  1.00  0.00     0.040 C 
HETATM   10  C10 UNL     1       2.764   0.396   0.840  1.00  0.00     0.096 C 
HETATM   11  C11 UNL     1       3.192   0.663  -0.597  1.00  0.00     0.272 C 
HETATM   12  O1  UNL     1       2.722   1.893  -0.947  1.00  0.00    -0.302 OA
HETATM   13  O2  UNL     1       3.808  -0.080  -1.327  1.00  0.00    -0.264 OA
HETATM   14  C12 UNL     1       4.118   2.417   1.649  1.00  0.00     0.003 C 
HETATM   15  O3  UNL     1      -0.098   2.637   1.172  1.00  0.00    -0.221 OA
HETATM   16  C13 UNL     1       0.958  -0.357   2.427  1.00  0.00     0.008 C 
HETATM   17  O4  UNL     1       2.333  -2.389   0.601  1.00  0.00    -0.291 OA
HETATM   18  C14 UNL     1      -2.254  -2.307  -0.566  1.00  0.00     0.021 C 
HETATM   19  C15 UNL     1      -3.231  -1.453  -1.399  1.00  0.00     0.040 C 
HETATM   20  C16 UNL     1      -2.499  -0.408  -2.221  1.00  0.00     0.183 C 
HETATM   21  C17 UNL     1      -1.709   0.561  -1.353  1.00  0.00     0.186 C 
HETATM   22  O5  UNL     1      -2.508   1.672  -1.021  1.00  0.00    -0.220 OA
HETATM   23  O6  UNL     1      -1.619  -1.062  -3.108  1.00  0.00    -0.221 OA
HETATM   24  C18 UNL     1      -2.080  -3.697  -1.209  1.00  0.00     0.004 C 
HETATM   25  C19 UNL     1      -1.958   0.219   1.169  1.00  0.00     0.007 C 
ENDROOT
TORSDOF 0
