REMARK  1 active torsions:
REMARK  status: ('A' for Active; 'I' for Inactive)
REMARK    1  A    between atoms: C12_14  and  C13_15 
ROOT
HETATM    1  C1  UNL     1       0.156   1.637   0.513  1.00  0.00     0.251 C 
HETATM    2  C2  UNL     1      -0.190   0.214   0.110  1.00  0.00     0.067 C 
HETATM    3  C3  UNL     1       0.415  -0.425   1.369  1.00  0.00     0.090 C 
HETATM    4  C4  UNL     1       1.937  -0.467   1.310  1.00  0.00     0.186 C 
HETATM    5  C5  UNL     1       2.502   0.923   1.093  1.00  0.00     0.021 C 
HETATM    6  C6  UNL     1       1.639   1.917   0.340  1.00  0.00     0.227 C 
HETATM    7  O1  UNL     1       1.938   1.890  -1.043  1.00  0.00    -0.213 OA
HETATM    8  C7  UNL     1       3.737   1.258   1.500  1.00  0.00    -0.004 C 
HETATM    9  C8  UNL     1       2.379  -1.432   0.237  1.00  0.00     0.269 C 
HETATM   10  C9  UNL     1       1.617  -2.738   0.178  1.00  0.00     0.305 C 
HETATM   11  O2  UNL     1       0.346  -2.782   0.651  1.00  0.00    -0.302 OA
HETATM   12  C10 UNL     1      -0.229  -1.794   1.456  1.00  0.00     0.130 C 
HETATM   13  C11 UNL     1      -1.665  -1.524   0.994  1.00  0.00     0.033 C 
HETATM   14  C12 UNL     1      -1.623  -0.369  -0.050  1.00  0.00     0.037 C 
HETATM   15  C18 UNL     1      -2.758   0.636   0.226  1.00  0.00     0.003 C 
HETATM   16  O5  UNL     1       2.180  -3.670  -0.357  1.00  0.00    -0.261 OA
HETATM   17  O6  UNL     1       3.740  -1.774   0.445  1.00  0.00    -0.210 OA
HETATM   18  O7  UNL     1       2.399  -1.007   2.528  1.00  0.00    -0.218 OA
HETATM   19  C19 UNL     1      -0.062   0.549   2.462  1.00  0.00     0.150 C 
HETATM   20  O8  UNL     1      -0.188   1.807   1.854  1.00  0.00    -0.330 OA
HETATM   21  O9  UNL     1      -0.593   2.612  -0.164  1.00  0.00    -0.192 OA
ENDROOT
BRANCH  14  22
HETATM   22  C13 UNL     1      -1.824  -1.004  -1.453  1.00  0.00     0.143 A 
HETATM   23  O3  UNL     1      -3.061  -1.702  -1.490  1.00  0.00    -0.297 OA
HETATM   24  C14 UNL     1      -3.774  -1.176  -2.529  1.00  0.00     0.296 A 
HETATM   25  C15 UNL     1      -3.121  -0.217  -3.223  1.00  0.00     0.062 A 
HETATM   26  O4  UNL     1      -4.891  -1.549  -2.815  1.00  0.00    -0.259 OA
HETATM   27  C16 UNL     1      -1.927  -0.070  -2.639  1.00  0.00    -0.011 A 
HETATM   28  C17 UNL     1      -0.832   0.824  -3.134  1.00  0.00     0.029 C 
ENDBRANCH  14  22
TORSDOF 1
