REMARK  6 active torsions:
REMARK  status: ('A' for Active; 'I' for Inactive)
REMARK    1  A    between atoms: C2_2  and  O5_21 
REMARK    2  A    between atoms: C4_4  and  C7_7 
REMARK    3  A    between atoms: C7_7  and  C8_8 
REMARK    4  A    between atoms: C7_7  and  C9_10 
REMARK    5  A    between atoms: C9_10  and  C10_11 
REMARK    6  A    between atoms: C14_15  and  O2_17 
ROOT
HETATM    1  C7  UNL     1       0.615  -0.569   1.099  1.00  0.00     0.117 C 
ENDROOT
BRANCH   1   2
HETATM    2  C4  UNL     1       1.523   0.574   0.671  1.00  0.00    -0.011 A 
HETATM    3  C3  UNL     1       2.855   0.415   0.579  1.00  0.00     0.022 A 
HETATM    4  C2  UNL     1       3.698   1.407   0.223  1.00  0.00     0.119 A 
HETATM    5  C1  UNL     1       3.154   2.609  -0.067  1.00  0.00     0.153 A 
HETATM    6  C6  UNL     1       1.824   2.780   0.021  1.00  0.00     0.029 A 
HETATM    7  O6  UNL     1       3.943   3.654  -0.443  1.00  0.00    -0.188 OA
HETATM    8  C5  UNL     1       1.012   1.781   0.387  1.00  0.00    -0.002 A 
BRANCH   4   9
HETATM    9  O5  UNL     1       5.062   1.270   0.109  1.00  0.00    -0.326 OA
HETATM   10  C17 UNL     1       5.630  -0.016   0.216  1.00  0.00     0.181 C 
ENDBRANCH   4   9
ENDBRANCH   1   2
BRANCH   1  11
HETATM   11  C8  UNL     1       0.210  -0.373   2.560  1.00  0.00     0.194 C 
HETATM   12  O1  UNL     1       1.366  -0.440   3.375  1.00  0.00    -0.220 OA
ENDBRANCH   1  11
BRANCH   1  13
HETATM   13  C9  UNL     1      -0.383  -0.902  -0.024  1.00  0.00     0.179 C 
HETATM   14  O4  UNL     1       0.169  -1.348  -1.010  1.00  0.00    -0.291 OA
BRANCH  13  15
HETATM   15  C10 UNL     1      -1.744  -0.772  -0.041  1.00  0.00     0.037 A 
HETATM   16  C11 UNL     1      -2.469  -0.258   0.965  1.00  0.00     0.005 A 
HETATM   17  C12 UNL     1      -3.804  -0.182   0.884  1.00  0.00     0.029 A 
HETATM   18  C13 UNL     1      -4.468  -0.605  -0.202  1.00  0.00     0.153 A 
HETATM   19  C14 UNL     1      -3.778  -1.112  -1.244  1.00  0.00     0.119 A 
HETATM   20  O3  UNL     1      -5.825  -0.520  -0.261  1.00  0.00    -0.188 OA
HETATM   21  C15 UNL     1      -2.435  -1.176  -1.130  1.00  0.00     0.029 A 
BRANCH  19  22
HETATM   22  O2  UNL     1      -4.503  -1.519  -2.340  1.00  0.00    -0.326 OA
HETATM   23  C16 UNL     1      -3.830  -2.006  -3.477  1.00  0.00     0.181 C 
ENDBRANCH  19  22
ENDBRANCH  13  15
ENDBRANCH   1  13
TORSDOF 6
