REMARK  1 active torsions:
REMARK  status: ('A' for Active; 'I' for Inactive)
REMARK    1  A    between atoms: C3_3  and  C20_24 
ROOT
HETATM    1  C1  UNL     1      -2.757   0.118   2.149  1.00  0.00     0.033 C 
HETATM    2  C2  UNL     1      -2.727  -1.407   2.034  1.00  0.00     0.005 C 
HETATM    3  C3  UNL     1      -2.107  -1.919   0.713  1.00  0.00     0.031 C 
HETATM    4  C4  UNL     1      -0.753  -1.179   0.484  1.00  0.00     0.007 C 
HETATM    5  C5  UNL     1      -0.735   0.392   0.536  1.00  0.00     0.029 C 
HETATM    6  C6  UNL     1      -1.386   0.756   1.901  1.00  0.00     0.152 C 
HETATM    7  O1  UNL     1      -1.561   2.145   2.054  1.00  0.00    -0.224 OA
HETATM    8  C7  UNL     1       0.765   0.893   0.450  1.00  0.00     0.014 C 
HETATM    9  C8  UNL     1       1.644   0.203  -0.635  1.00  0.00     0.112 C 
HETATM   10  C9  UNL     1       1.535  -1.308  -0.473  1.00  0.00     0.161 C 
HETATM   11  C10 UNL     1       0.097  -1.757  -0.670  1.00  0.00     0.034 C 
HETATM   12  O2  UNL     1       2.442  -1.984  -1.309  1.00  0.00    -0.223 OA
HETATM   13  C11 UNL     1       1.393   0.825  -2.018  1.00  0.00     0.165 C 
HETATM   14  C12 UNL     1       2.106   2.168  -1.870  1.00  0.00     0.056 C 
HETATM   15  C13 UNL     1       1.286   3.069  -0.942  1.00  0.00     0.007 C 
HETATM   16  C14 UNL     1       1.048   2.421   0.435  1.00  0.00     0.001 C 
HETATM   17  C15 UNL     1       3.368   1.705  -1.191  1.00  0.00     0.015 C 
HETATM   18  C16 UNL     1       3.124   0.577  -0.482  1.00  0.00     0.173 C 
HETATM   19  O3  UNL     1       3.927  -0.106   0.107  1.00  0.00    -0.291 OA
HETATM   20  C17 UNL     1       4.567   2.292  -1.279  1.00  0.00    -0.002 C 
HETATM   21  O4  UNL     1       2.022   0.096  -3.043  1.00  0.00    -0.223 OA
HETATM   22  C18 UNL     1      -1.576   1.035  -0.587  1.00  0.00     0.003 C 
HETATM   23  C19 UNL     1      -3.104  -1.756  -0.455  1.00  0.00     0.003 C 
ENDROOT
BRANCH   3  24
HETATM   24  C20 UNL     1      -1.933  -3.450   0.870  1.00  0.00     0.182 C 
HETATM   25  O5  UNL     1      -0.941  -3.778   1.823  1.00  0.00    -0.221 OA
ENDBRANCH   3  24
TORSDOF 1
