REMARK  4 active torsions:
REMARK  status: ('A' for Active; 'I' for Inactive)
REMARK    1  A    between atoms: C1_1  and  C17_19 
REMARK    2  A    between atoms: C2_2  and  C15_15 
REMARK    3  A    between atoms: C15_15  and  C16_16 
REMARK    4  A    between atoms: C17_19  and  C18_20 
ROOT
HETATM    1  C1  UNL     1      -0.643  -1.053  -1.120  1.00  0.00     0.010 C 
HETATM    2  C2  UNL     1      -1.247  -0.126   0.016  1.00  0.00     0.011 C 
HETATM    3  C3  UNL     1      -0.242   0.248   1.174  1.00  0.00     0.001 C 
HETATM    4  C4  UNL     1       1.039  -0.609   1.332  1.00  0.00     0.004 C 
HETATM    5  C5  UNL     1       0.738  -2.043   0.894  1.00  0.00     0.000 C 
HETATM    6  C6  UNL     1       0.411  -2.068  -0.600  1.00  0.00     0.001 C 
HETATM    7  C7  UNL     1       2.232   0.007   0.578  1.00  0.00     0.004 C 
HETATM    8  C8  UNL     1       2.515   1.265   1.404  1.00  0.00     0.018 C 
HETATM    9  C9  UNL     1       1.404   2.280   1.107  1.00  0.00     0.004 C 
HETATM   10  C10 UNL     1       0.028   1.738   1.525  1.00  0.00     0.000 C 
HETATM   11  C11 UNL     1       2.388   0.726   2.806  1.00  0.00    -0.045 C 
HETATM   12  C12 UNL     1       1.583  -0.550   2.785  1.00  0.00     0.022 C 
HETATM   13  C13 UNL     1       2.889   1.306   3.903  1.00  0.00    -0.009 C 
HETATM   14  C14 UNL     1      -1.972   1.122  -0.538  1.00  0.00     0.001 C 
ENDROOT
BRANCH   1  15
HETATM   15  C17 UNL     1      -0.316  -0.603  -2.598  1.00  0.00     0.078 C 
HETATM   16  C19 UNL     1      -0.047  -1.871  -3.472  1.00  0.00     0.011 C 
HETATM   17  C20 UNL     1      -1.459   0.102  -3.372  1.00  0.00     0.011 C 
BRANCH  15  18
HETATM   18  C18 UNL     1       0.950   0.247  -2.693  1.00  0.00     0.184 C 
HETATM   19  O3  UNL     1       0.758   1.522  -2.319  1.00  0.00    -0.647 OA
HETATM   20  O4  UNL     1       2.041  -0.120  -3.062  1.00  0.00    -0.647 OA
ENDBRANCH  15  18
ENDBRANCH   1  15
BRANCH   2  21
HETATM   21  C15 UNL     1      -2.444  -0.951   0.642  1.00  0.00     0.098 C 
BRANCH  21  22
HETATM   22  C16 UNL     1      -3.237  -0.369   1.807  1.00  0.00     0.185 C 
HETATM   23  O1  UNL     1      -4.211  -1.218   2.193  1.00  0.00    -0.647 OA
HETATM   24  O2  UNL     1      -3.087   0.686   2.375  1.00  0.00    -0.647 OA
ENDBRANCH  21  22
ENDBRANCH   2  21
TORSDOF 4
