REMARK  8 active torsions:
REMARK  status: ('A' for Active; 'I' for Inactive)
REMARK    1  A    between atoms: C8_8  and  C10_12 
REMARK    2  A    between atoms: C10_12  and  C11_13 
REMARK    3  A    between atoms: C12_14  and  C13_15 
REMARK    4  A    between atoms: C13_15  and  C14_16 
REMARK    5  A    between atoms: C14_16  and  C15_17 
REMARK    6  A    between atoms: C16_18  and  C17_19 
REMARK    7  A    between atoms: C17_19  and  C18_20 
REMARK    8  A    between atoms: C18_20  and  C19_21 
ROOT
HETATM    1  C11 UNL     1       0.458  -1.804   1.738  1.00  0.00    -0.030 C 
HETATM    2  C12 UNL     1      -0.173  -0.693   2.159  1.00  0.00    -0.048 C 
HETATM    3  C24 UNL     1      -0.580  -0.442   3.593  1.00  0.00     0.026 C 
ENDROOT
BRANCH   1   4
HETATM    4  C10 UNL     1       0.850  -2.983   2.592  1.00  0.00     0.059 C 
BRANCH   4   5
HETATM    5  C8  UNL     1       0.902  -4.264   1.776  1.00  0.00     0.071 A 
HETATM    6  C7  UNL     1       2.061  -4.876   1.455  1.00  0.00     0.134 A 
HETATM    7  C5  UNL     1       2.038  -6.024   0.744  1.00  0.00     0.048 A 
HETATM    8  O3  UNL     1       3.251  -4.330   1.838  1.00  0.00    -0.190 OA
HETATM    9  C4  UNL     1       0.862  -6.552   0.347  1.00  0.00     0.105 A 
HETATM   10  C6  UNL     1       3.184  -6.659   0.427  1.00  0.00     0.004 A 
HETATM   11  C3  UNL     1       0.874  -7.701  -0.354  1.00  0.00     0.025 A 
HETATM   12  O1  UNL     1      -0.333  -5.961   0.631  1.00  0.00    -0.273 OA
HETATM   13  C2  UNL     1       2.014  -8.332  -0.666  1.00  0.00     0.002 A 
HETATM   14  C1  UNL     1       3.180  -7.805  -0.271  1.00  0.00     0.000 A 
HETATM   15  C9  UNL     1      -0.270  -4.815   1.360  1.00  0.00     0.298 A 
HETATM   16  O2  UNL     1      -1.309  -4.258   1.653  1.00  0.00    -0.259 OA
ENDBRANCH   4   5
ENDBRANCH   1   4
BRANCH   2  17
HETATM   17  C13 UNL     1      -0.529   0.417   1.188  1.00  0.00     0.026 C 
BRANCH  17  18
HETATM   18  C14 UNL     1       0.430   1.616   1.272  1.00  0.00     0.030 C 
BRANCH  18  19
HETATM   19  C15 UNL     1      -0.020   2.712   0.333  1.00  0.00    -0.034 C 
HETATM   20  C16 UNL     1      -0.396   3.967   0.642  1.00  0.00    -0.048 C 
HETATM   21  C23 UNL     1      -0.392   4.542   2.042  1.00  0.00     0.026 C 
BRANCH  20  22
HETATM   22  C17 UNL     1      -0.883   4.966  -0.397  1.00  0.00     0.026 C 
BRANCH  22  23
HETATM   23  C18 UNL     1      -1.060   4.464  -1.839  1.00  0.00     0.030 C 
BRANCH  23  24
HETATM   24  C19 UNL     1      -1.606   5.530  -2.758  1.00  0.00    -0.034 C 
HETATM   25  C20 UNL     1      -1.985   5.337  -4.034  1.00  0.00    -0.048 C 
HETATM   26  C21 UNL     1      -2.525   6.469  -4.877  1.00  0.00     0.026 C 
HETATM   27  C22 UNL     1      -1.910   4.004  -4.741  1.00  0.00     0.026 C 
ENDBRANCH  23  24
ENDBRANCH  22  23
ENDBRANCH  20  22
ENDBRANCH  18  19
ENDBRANCH  17  18
ENDBRANCH   2  17
TORSDOF 8
