REMARK  5 active torsions:
REMARK  status: ('A' for Active; 'I' for Inactive)
REMARK    1  A    between atoms: C3_3  and  O1_9 
REMARK    2  A    between atoms: O1_9  and  C9_10 
REMARK    3  A    between atoms: C9_10  and  C10_11 
REMARK    4  A    between atoms: C13_14  and  O2_17 
REMARK    5  A    between atoms: C17_20  and  C20_24 
ROOT
HETATM    1  C1  UNL     1       1.430   2.486   1.575  1.00  0.00     0.009 C 
HETATM    2  C2  UNL     1       0.683   1.188   1.141  1.00  0.00     0.057 C 
HETATM    3  C3  UNL     1       0.374   1.031  -0.355  1.00  0.00     0.131 C 
HETATM    4  C4  UNL     1       1.135   1.936  -1.333  1.00  0.00     0.052 C 
HETATM    5  C5  UNL     1       2.641   1.901  -1.261  1.00  0.00    -0.046 C 
HETATM    6  C6  UNL     1       3.374   2.138  -0.160  1.00  0.00    -0.035 C 
HETATM    7  C7  UNL     1       2.936   2.451   1.248  1.00  0.00     0.025 C 
HETATM    8  C8  UNL     1       3.324   1.644  -2.588  1.00  0.00     0.026 C 
HETATM    9  C17 UNL     1      -0.438   0.959   2.210  1.00  0.00     0.129 C 
HETATM   10  C18 UNL     1      -0.209   2.054   3.272  1.00  0.00     0.031 C 
HETATM   11  C19 UNL     1       1.264   2.425   3.114  1.00  0.00     0.003 C 
HETATM   12  O4  UNL     1      -0.130  -0.233   2.903  1.00  0.00    -0.226 OA
HETATM   13  C23 UNL     1       0.809   3.816   1.093  1.00  0.00     0.001 C 
ENDROOT
BRANCH   3  14
HETATM   14  O1  UNL     1       0.405  -0.250  -0.941  1.00  0.00    -0.301 OA
BRANCH  14  15
HETATM   15  C9  UNL     1       0.401  -1.463  -0.318  1.00  0.00     0.296 C 
HETATM   16  O3  UNL     1       0.745  -1.579   0.835  1.00  0.00    -0.259 OA
BRANCH  15  17
HETATM   17  C10 UNL     1      -0.096  -2.574  -0.940  1.00  0.00     0.063 A 
HETATM   18  C11 UNL     1      -0.524  -2.511  -2.214  1.00  0.00     0.007 A 
HETATM   19  C12 UNL     1      -1.029  -3.595  -2.823  1.00  0.00     0.024 A 
HETATM   20  C13 UNL     1      -1.170  -4.771  -2.184  1.00  0.00     0.094 A 
HETATM   21  C14 UNL     1      -0.679  -4.836  -0.933  1.00  0.00     0.024 A 
HETATM   22  C15 UNL     1      -0.166  -3.762  -0.312  1.00  0.00     0.007 A 
BRANCH  20  23
HETATM   23  O2  UNL     1      -1.655  -5.885  -2.822  1.00  0.00    -0.328 OA
HETATM   24  C16 UNL     1      -3.060  -5.902  -2.938  1.00  0.00     0.181 C 
ENDBRANCH  20  23
ENDBRANCH  15  17
ENDBRANCH  14  15
ENDBRANCH   3  14
BRANCH   9  25
HETATM   25  C20 UNL     1      -1.945   0.874   1.859  1.00  0.00     0.028 C 
HETATM   26  C21 UNL     1      -2.623   2.121   1.254  1.00  0.00     0.003 C 
HETATM   27  C22 UNL     1      -2.366  -0.380   1.069  1.00  0.00     0.003 C 
ENDBRANCH   9  25
TORSDOF 5
