REMARK  6 active torsions:
REMARK  status: ('A' for Active; 'I' for Inactive)
REMARK    1  A    between atoms: C1_1  and  C2_2 
REMARK    2  A    between atoms: C1_1  and  C12_15 
REMARK    3  A    between atoms: C2_2  and  O1_3 
REMARK    4  A    between atoms: O1_3  and  C3_4 
REMARK    5  A    between atoms: C13_16  and  C14_17 
REMARK    6  A    between atoms: C15_18  and  C16_19 
ROOT
HETATM    1  O1  UNL     1      -0.286   1.502   0.756  1.00  0.00    -0.330 OA
ENDROOT
BRANCH   1   2
HETATM    2  C2  UNL     1       0.867   0.702   0.838  1.00  0.00     0.153 C 
BRANCH   2   3
HETATM    3  C1  UNL     1       0.636  -0.566   0.011  1.00  0.00     0.055 C 
BRANCH   3   4
HETATM    4  C12 UNL     1       1.782  -1.560  -0.047  1.00  0.00    -0.041 C 
HETATM    5  C13 UNL     1       1.679  -2.743  -0.685  1.00  0.00    -0.009 C 
HETATM    6  C19 UNL     1       3.091  -1.164   0.599  1.00  0.00     0.026 C 
BRANCH   5   7
HETATM    7  C14 UNL     1       0.590  -3.199  -1.327  1.00  0.00    -0.003 C 
HETATM    8  C15 UNL     1       0.565  -4.379  -1.969  1.00  0.00     0.003 C 
BRANCH   8   9
HETATM    9  C16 UNL     1      -0.645  -4.904  -2.716  1.00  0.00     0.145 C 
HETATM   10  C17 UNL     1      -1.011  -3.978  -3.878  1.00  0.00     0.038 C 
HETATM   11  C18 UNL     1      -0.388  -6.323  -3.233  1.00  0.00     0.038 C 
HETATM   12  O4  UNL     1      -1.749  -4.966  -1.837  1.00  0.00    -0.222 OA
ENDBRANCH   8   9
ENDBRANCH   5   7
ENDBRANCH   3   4
ENDBRANCH   2   3
ENDBRANCH   1   2
BRANCH   1  13
HETATM   13  C3  UNL     1      -0.308   2.716   1.400  1.00  0.00     0.096 A 
HETATM   14  C4  UNL     1      -1.423   3.467   1.320  1.00  0.00     0.049 A 
HETATM   15  C5  UNL     1      -1.577   4.672   1.899  1.00  0.00     0.105 A 
HETATM   16  C6  UNL     1      -0.540   5.159   2.607  1.00  0.00     0.023 A 
HETATM   17  O2  UNL     1      -2.756   5.353   1.752  1.00  0.00    -0.273 OA
HETATM   18  C7  UNL     1       0.590   4.439   2.713  1.00  0.00     0.004 A 
HETATM   19  C9  UNL     1      -0.657   6.362   3.196  1.00  0.00     0.007 A 
HETATM   20  C8  UNL     1       0.702   3.241   2.121  1.00  0.00     0.024 A 
HETATM   21  C10 UNL     1      -1.788   7.071   3.083  1.00  0.00     0.069 A 
HETATM   22  C11 UNL     1      -2.826   6.568   2.367  1.00  0.00     0.300 A 
HETATM   23  O3  UNL     1      -3.840   7.231   2.280  1.00  0.00    -0.259 OA
ENDBRANCH   1  13
TORSDOF 6
