REMARK  1 active torsions:
REMARK  status: ('A' for Active; 'I' for Inactive)
REMARK    1  A    between atoms: C6_6  and  O1_7 
ROOT
HETATM    1  C1  UNL     1      -2.930   0.088   0.076  1.00  0.00     0.153 A 
HETATM    2  C2  UNL     1      -2.454   1.329  -0.103  1.00  0.00     0.035 A 
HETATM    3  C3  UNL     1      -1.135   1.575  -0.126  1.00  0.00     0.066 A 
HETATM    4  C4  UNL     1      -0.270   0.561   0.057  1.00  0.00     0.009 A 
HETATM    5  C5  UNL     1      -0.747  -0.689   0.239  1.00  0.00     0.025 A 
HETATM    6  C6  UNL     1      -2.075  -0.947   0.201  1.00  0.00     0.119 A 
HETATM    7  C8  UNL     1       0.140  -1.679   0.453  1.00  0.00     0.002 A 
HETATM    8  C9  UNL     1       1.460  -1.444   0.466  1.00  0.00     0.000 A 
HETATM    9  C10 UNL     1       1.929  -0.203   0.266  1.00  0.00     0.004 A 
HETATM   10  C11 UNL     1       1.057   0.803   0.066  1.00  0.00     0.023 A 
HETATM   11  C12 UNL     1       1.511   2.057  -0.126  1.00  0.00     0.105 A 
HETATM   12  O2  UNL     1       0.674   3.115  -0.331  1.00  0.00    -0.273 OA
HETATM   13  C13 UNL     1      -0.659   2.837  -0.312  1.00  0.00     0.300 A 
HETATM   14  O3  UNL     1      -1.434   3.758  -0.473  1.00  0.00    -0.259 OA
HETATM   15  C14 UNL     1       2.841   2.261  -0.117  1.00  0.00     0.052 A 
HETATM   16  C15 UNL     1       3.733   1.276   0.075  1.00  0.00     0.133 A 
HETATM   17  C16 UNL     1       3.251   0.039   0.269  1.00  0.00     0.028 A 
HETATM   18  O4  UNL     1       5.072   1.517   0.078  1.00  0.00    -0.190 OA
HETATM   19  O5  UNL     1      -4.274  -0.134   0.115  1.00  0.00    -0.188 OA
ENDROOT
BRANCH   6  20
HETATM   20  O1  UNL     1      -2.596  -2.200   0.422  1.00  0.00    -0.326 OA
HETATM   21  C7  UNL     1      -2.752  -2.968  -0.751  1.00  0.00     0.181 C 
ENDBRANCH   6  20
TORSDOF 1
