REMARK  1 active torsions:
REMARK  status: ('A' for Active; 'I' for Inactive)
REMARK    1  A    between atoms: C1_1  and  O6_22 
ROOT
HETATM    1  C1  UNL     1      -3.870   1.269  -0.023  1.00  0.00     0.096 A 
HETATM    2  C2  UNL     1      -3.595  -0.049   0.026  1.00  0.00     0.024 A 
HETATM    3  C3  UNL     1      -2.333  -0.501   0.043  1.00  0.00     0.006 A 
HETATM    4  C4  UNL     1      -1.298   0.353   0.011  1.00  0.00     0.046 A 
HETATM    5  C5  UNL     1      -1.519   1.684  -0.040  1.00  0.00     0.107 A 
HETATM    6  C6  UNL     1      -2.803   2.090  -0.055  1.00  0.00     0.049 A 
HETATM    7  O1  UNL     1      -0.511   2.620  -0.076  1.00  0.00    -0.273 OA
HETATM    8  C7  UNL     1       0.770   2.140  -0.061  1.00  0.00     0.302 A 
HETATM    9  C8  UNL     1       0.987   0.807  -0.011  1.00  0.00     0.088 A 
HETATM   10  C9  UNL     1      -0.024  -0.067   0.026  1.00  0.00     0.107 A 
HETATM   11  O2  UNL     1       0.398  -1.225   0.066  1.00  0.00    -0.307 OA
HETATM   12  C10 UNL     1       1.631  -1.184   0.057  1.00  0.00     0.102 A 
HETATM   13  C11 UNL     1       2.105   0.074   0.011  1.00  0.00     0.032 A 
HETATM   14  C12 UNL     1       3.415   0.356  -0.005  1.00  0.00     0.029 A 
HETATM   15  C13 UNL     1       4.238  -0.703   0.024  1.00  0.00     0.119 A 
HETATM   16  C14 UNL     1       3.776  -1.962   0.060  1.00  0.00     0.121 A 
HETATM   17  C15 UNL     1       2.462  -2.237   0.079  1.00  0.00     0.051 A 
HETATM   18  O3  UNL     1       4.697  -2.773   0.075  1.00  0.00    -0.299 OA
HETATM   19  C16 UNL     1       5.920  -2.036   0.049  1.00  0.00     0.304 A 
HETATM   20  O4  UNL     1       5.467  -0.682   0.017  1.00  0.00    -0.300 OA
HETATM   21  O5  UNL     1       1.711   2.906  -0.096  1.00  0.00    -0.259 OA
ENDROOT
BRANCH   1  22
HETATM   22  O6  UNL     1      -5.129   1.821  -0.046  1.00  0.00    -0.328 OA
HETATM   23  C17 UNL     1      -6.246   0.963  -0.042  1.00  0.00     0.181 C 
ENDBRANCH   1  22
TORSDOF 1
