REMARK  3 active torsions:
REMARK  status: ('A' for Active; 'I' for Inactive)
REMARK    1  A    between atoms: C5_5  and  C18_22 
REMARK    2  A    between atoms: C18_22  and  O5_23 
REMARK    3  A    between atoms: O5_23  and  C19_24 
ROOT
HETATM    1  C1  UNL     1      -2.629  -0.291   2.318  1.00  0.00     0.000 C 
HETATM    2  C2  UNL     1      -2.557  -1.822   2.296  1.00  0.00     0.000 C 
HETATM    3  C3  UNL     1      -1.957  -2.410   0.997  1.00  0.00     0.000 C 
HETATM    4  C4  UNL     1      -0.632  -1.657   0.668  1.00  0.00     0.005 C 
HETATM    5  C5  UNL     1      -0.624  -0.089   0.671  1.00  0.00     0.031 C 
HETATM    6  C6  UNL     1      -1.263   0.349   2.021  1.00  0.00     0.003 C 
HETATM    7  C7  UNL     1       0.882   0.400   0.621  1.00  0.00     0.045 C 
HETATM    8  C8  UNL     1       1.780  -0.270  -0.459  1.00  0.00     0.114 C 
HETATM    9  C9  UNL     1       1.618  -1.788  -0.379  1.00  0.00     0.161 C 
HETATM   10  C10 UNL     1       0.168  -2.225  -0.526  1.00  0.00     0.034 C 
HETATM   11  O1  UNL     1       2.475  -2.449  -1.276  1.00  0.00    -0.223 OA
HETATM   12  C11 UNL     1       1.614   0.458  -1.801  1.00  0.00     0.165 C 
HETATM   13  C12 UNL     1       2.379   1.752  -1.526  1.00  0.00     0.059 C 
HETATM   14  C13 UNL     1       1.572   2.632  -0.566  1.00  0.00     0.040 C 
HETATM   15  C14 UNL     1       1.172   1.915   0.733  1.00  0.00     0.153 C 
HETATM   16  O2  UNL     1       2.239   2.095   1.643  1.00  0.00    -0.223 OA
HETATM   17  C15 UNL     1       3.591   1.188  -0.838  1.00  0.00     0.015 C 
HETATM   18  C16 UNL     1       3.269   0.028  -0.220  1.00  0.00     0.173 C 
HETATM   19  O3  UNL     1       4.018  -0.731   0.349  1.00  0.00    -0.291 OA
HETATM   20  C17 UNL     1       4.818   1.724  -0.842  1.00  0.00    -0.002 C 
HETATM   21  O4  UNL     1       2.254  -0.229  -2.849  1.00  0.00    -0.223 OA
HETATM   22  C21 UNL     1      -1.664  -3.908   1.298  1.00  0.00     0.000 C 
HETATM   23  C22 UNL     1      -3.005  -2.421  -0.136  1.00  0.00     0.000 C 
ENDROOT
BRANCH   5  24
HETATM   24  C18 UNL     1      -1.501   0.463  -0.471  1.00  0.00     0.152 C 
BRANCH  24  25
HETATM   25  O5  UNL     1      -1.464   1.860  -0.525  1.00  0.00    -0.302 OA
BRANCH  25  26
HETATM   26  C19 UNL     1      -2.190   2.467  -1.503  1.00  0.00     0.272 C 
HETATM   27  C20 UNL     1      -2.043   3.974  -1.424  1.00  0.00     0.106 C 
HETATM   28  O6  UNL     1      -2.856   1.888  -2.331  1.00  0.00    -0.264 OA
ENDBRANCH  25  26
ENDBRANCH  24  25
ENDBRANCH   5  24
TORSDOF 3
