REMARK  1 active torsions:
REMARK  status: ('A' for Active; 'I' for Inactive)
REMARK    1  A    between atoms: C9_10  and  C11_12 
ROOT
HETATM    1  C1  UNL     1      -1.309   1.194   0.169  1.00  0.00     0.028 C 
HETATM    2  C2  UNL     1      -1.207  -0.343   0.385  1.00  0.00     0.002 C 
HETATM    3  C3  UNL     1       0.171  -0.994   0.581  1.00  0.00     0.003 A 
HETATM    4  C4  UNL     1       1.211  -0.033   0.009  1.00  0.00     0.003 A 
HETATM    5  C5  UNL     1       1.791   0.777   1.149  1.00  0.00     0.003 C 
HETATM    6  C6  UNL     1       0.657   1.522   1.876  1.00  0.00     0.030 C 
HETATM    7  C7  UNL     1      -0.409   2.173   0.973  1.00  0.00     0.127 C 
HETATM    8  O1  UNL     1      -1.256   2.863   1.869  1.00  0.00    -0.226 OA
HETATM    9  C8  UNL     1       0.223   3.273   0.111  1.00  0.00     0.033 C 
HETATM   10  C9  UNL     1       1.327  -1.497  -0.269  1.00  0.00     0.031 A 
HETATM   11  C10 UNL     1       1.159  -1.920  -1.719  1.00  0.00     0.003 C 
HETATM   12  C12 UNL     1      -2.214  -0.864  -0.660  1.00  0.00     0.000 C 
HETATM   13  C13 UNL     1      -2.064   0.051  -1.885  1.00  0.00     0.000 C 
HETATM   14  C14 UNL     1      -1.461   1.370  -1.358  1.00  0.00     0.002 C 
HETATM   15  C15 UNL     1      -2.224  -2.370  -0.923  1.00  0.00     0.000 C 
ENDROOT
BRANCH  10  16
HETATM   16  C11 UNL     1       2.430  -2.270   0.449  1.00  0.00     0.182 C 
HETATM   17  O2  UNL     1       3.712  -1.955  -0.078  1.00  0.00    -0.221 OA
ENDBRANCH  10  16
TORSDOF 1
