REMARK  4 active torsions:
REMARK  status: ('A' for Active; 'I' for Inactive)
REMARK    1  A    between atoms: C7_7  and  C17_19 
REMARK    2  A    between atoms: N1_9  and  C9_10 
REMARK    3  A    between atoms: C9_10  and  C10_11 
REMARK    4  A    between atoms: C17_19  and  C18_20 
ROOT
HETATM    1  C1  UNL     1      -3.787   0.436  -0.560  1.00  0.00     0.006 A 
HETATM    2  C2  UNL     1      -3.765  -0.870  -0.245  1.00  0.00     0.036 A 
HETATM    3  C3  UNL     1      -2.598  -1.498  -0.021  1.00  0.00     0.023 A 
HETATM    4  C4  UNL     1      -1.443  -0.817  -0.118  1.00  0.00     0.054 A 
HETATM    5  C5  UNL     1      -1.475   0.495  -0.404  1.00  0.00    -0.003 A 
HETATM    6  C6  UNL     1      -2.637   1.123  -0.635  1.00  0.00    -0.002 A 
HETATM    7  C7  UNL     1      -0.111   1.131  -0.387  1.00  0.00     0.076 C 
HETATM    8  C8  UNL     1       0.726  -0.172  -0.264  1.00  0.00     0.308 C 
HETATM    9  N1  UNL     1      -0.253  -1.246   0.033  1.00  0.00    -0.320 N 
HETATM   10  N2  UNL     1       1.483  -0.318  -1.505  1.00  0.00     0.158 N 
HETATM   11  C14 UNL     1       1.683   1.051  -1.954  1.00  0.00     0.253 C 
HETATM   12  C15 UNL     1       0.350   1.767  -1.706  1.00  0.00     0.044 C 
HETATM   13  C16 UNL     1       0.817  -1.118  -2.521  1.00  0.00     0.288 C 
HETATM   14 BR1  UNL     1      -5.391  -1.833  -0.129  1.00  0.00    -0.049 Br
ENDROOT
BRANCH   7  15
HETATM   15  C17 UNL     1       0.099   2.021   0.856  1.00  0.00     0.033 C 
BRANCH  15  16
HETATM   16  C18 UNL     1      -0.625   3.343   0.847  1.00  0.00    -0.034 C 
HETATM   17  C19 UNL     1      -0.697   4.195   1.886  1.00  0.00    -0.048 C 
HETATM   18  C20 UNL     1      -1.441   5.506   1.777  1.00  0.00     0.026 C 
HETATM   19  C21 UNL     1      -0.049   3.948   3.227  1.00  0.00     0.026 C 
ENDBRANCH  15  16
ENDBRANCH   7  15
BRANCH   9  20
HETATM   20  C9  UNL     1      -0.002  -2.660   0.396  1.00  0.00     0.129 C 
BRANCH  20  21
HETATM   21  C10 UNL     1       1.473  -2.975   0.468  1.00  0.00    -0.011 C 
HETATM   22  C11 UNL     1       2.089  -4.084   0.019  1.00  0.00    -0.046 C 
HETATM   23  C12 UNL     1       3.587  -4.245   0.142  1.00  0.00     0.026 C 
HETATM   24  C13 UNL     1       1.398  -5.262  -0.627  1.00  0.00     0.026 C 
ENDBRANCH  20  21
ENDBRANCH   9  20
TORSDOF 4
