REMARK  4 active torsions:
REMARK  status: ('A' for Active; 'I' for Inactive)
REMARK    1  A    between atoms: C3_3  and  C12_14 
REMARK    2  A    between atoms: C5_5  and  C7_8 
REMARK    3  A    between atoms: C7_8  and  C8_9 
REMARK    4  A    between atoms: C12_14  and  C13_15 
ROOT
HETATM    1  C1  UNL     1      -1.289  -0.817   0.015  1.00  0.00     0.087 A 
HETATM    2  C2  UNL     1      -1.236   0.518   0.255  1.00  0.00     0.105 A 
HETATM    3  C3  UNL     1      -2.390   1.187   0.467  1.00  0.00     0.030 A 
HETATM    4  C4  UNL     1      -3.581   0.559   0.433  1.00  0.00     0.128 A 
HETATM    5  C5  UNL     1      -3.620  -0.758   0.160  1.00  0.00     0.033 A 
HETATM    6  C6  UNL     1      -2.482  -1.455  -0.045  1.00  0.00     0.134 A 
HETATM    7  O1  UNL     1      -2.608  -2.784  -0.339  1.00  0.00    -0.190 OA
HETATM    8  O2  UNL     1      -4.721   1.262   0.684  1.00  0.00    -0.191 OA
HETATM    9  O3  UNL     1      -0.067   1.238   0.308  1.00  0.00    -0.285 OA
HETATM   10  C17 UNL     1       1.056   0.501   0.143  1.00  0.00     0.206 A 
HETATM   11  C18 UNL     1       1.028  -0.817  -0.066  1.00  0.00     0.088 A 
HETATM   12  C19 UNL     1      -0.125  -1.518  -0.150  1.00  0.00     0.203 A 
HETATM   13  O4  UNL     1      -0.047  -2.708  -0.345  1.00  0.00    -0.286 OA
HETATM   14  C20 UNL     1       2.309  -1.191  -0.150  1.00  0.00     0.032 A 
HETATM   15  C21 UNL     1       2.973  -0.041   0.008  1.00  0.00     0.103 A 
HETATM   16  O5  UNL     1       2.217   0.918   0.170  1.00  0.00    -0.285 OA
HETATM   17  C22 UNL     1       4.312  -0.007  -0.020  1.00  0.00     0.058 A 
HETATM   18  C23 UNL     1       4.992  -1.160  -0.194  1.00  0.00     0.119 A 
HETATM   19  C24 UNL     1       4.310  -2.318  -0.362  1.00  0.00     0.153 A 
HETATM   20  C25 UNL     1       2.964  -2.339  -0.335  1.00  0.00     0.032 A 
HETATM   21  O6  UNL     1       5.003  -3.474  -0.556  1.00  0.00    -0.188 OA
HETATM   22  O7  UNL     1       6.360  -1.198  -0.273  1.00  0.00    -0.331 OA
HETATM   23  C26 UNL     1       7.003  -0.032  -0.682  1.00  0.00     0.129 C 
HETATM   24  C27 UNL     1       6.527   1.148   0.164  1.00  0.00     0.212 C 
HETATM   25  C28 UNL     1       5.019   1.311   0.142  1.00  0.00     0.211 C 
HETATM   26  O8  UNL     1       4.623   2.168  -0.913  1.00  0.00    -0.216 OA
HETATM   27  O9  UNL     1       6.914   0.959   1.507  1.00  0.00    -0.218 OA
HETATM   28  C29 UNL     1       8.512  -0.261  -0.502  1.00  0.00     0.033 C 
HETATM   29  C30 UNL     1       6.741   0.188  -2.181  1.00  0.00     0.033 C 
ENDROOT
BRANCH   3  30
HETATM   30  C12 UNL     1      -2.377   2.681   0.769  1.00  0.00     0.056 C 
BRANCH  30  31
HETATM   31  C13 UNL     1      -3.189   3.465  -0.233  1.00  0.00    -0.030 C 
HETATM   32  C14 UNL     1      -3.868   4.601   0.007  1.00  0.00    -0.048 C 
HETATM   33  C15 UNL     1      -4.678   5.274  -1.077  1.00  0.00     0.026 C 
HETATM   34  C16 UNL     1      -3.902   5.310   1.340  1.00  0.00     0.026 C 
ENDBRANCH  30  31
ENDBRANCH   3  30
BRANCH   5  35
HETATM   35  C7  UNL     1      -4.949  -1.497   0.059  1.00  0.00     0.056 C 
BRANCH  35  36
HETATM   36  C8  UNL     1      -5.051  -2.602   1.080  1.00  0.00    -0.030 C 
HETATM   37  C9  UNL     1      -5.555  -3.834   0.883  1.00  0.00    -0.048 C 
HETATM   38  C10 UNL     1      -5.546  -4.868   1.986  1.00  0.00     0.026 C 
HETATM   39  C11 UNL     1      -6.149  -4.324  -0.417  1.00  0.00     0.026 C 
ENDBRANCH  35  36
ENDBRANCH   5  35
TORSDOF 4
