REMARK  2 active torsions:
REMARK  status: ('A' for Active; 'I' for Inactive)
REMARK    1  A    between atoms: C3_3  and  C12_14 
REMARK    2  A    between atoms: C12_14  and  C13_15 
ROOT
HETATM    1  C1  UNL     1      -0.793  -1.487   0.157  1.00  0.00     0.087 A 
HETATM    2  C2  UNL     1      -0.778  -0.133   0.070  1.00  0.00     0.105 A 
HETATM    3  C3  UNL     1      -1.950   0.535   0.013  1.00  0.00     0.027 A 
HETATM    4  C4  UNL     1      -3.136  -0.107   0.045  1.00  0.00     0.090 A 
HETATM    5  C5  UNL     1      -3.123  -1.451   0.130  1.00  0.00     0.025 A 
HETATM    6  C6  UNL     1      -1.971  -2.151   0.200  1.00  0.00     0.134 A 
HETATM    7  O1  UNL     1      -2.077  -3.513   0.252  1.00  0.00    -0.190 OA
HETATM    8  C7  UNL     1      -4.435  -2.211   0.148  1.00  0.00     0.033 C 
HETATM    9  C8  UNL     1      -5.626  -1.276   0.362  1.00  0.00     0.033 C 
HETATM   10  C9  UNL     1      -5.455  -0.007  -0.469  1.00  0.00     0.099 C 
HETATM   11  O2  UNL     1      -4.288   0.630  -0.069  1.00  0.00    -0.336 OA
HETATM   12  C10 UNL     1      -6.612   0.960  -0.179  1.00  0.00     0.030 C 
HETATM   13  C11 UNL     1      -5.401  -0.276  -1.977  1.00  0.00     0.030 C 
HETATM   14  O3  UNL     1       0.375   0.613   0.022  1.00  0.00    -0.285 OA
HETATM   15  C17 UNL     1       1.516  -0.112   0.022  1.00  0.00     0.206 A 
HETATM   16  C18 UNL     1       1.525  -1.443   0.111  1.00  0.00     0.088 A 
HETATM   17  C19 UNL     1       0.391  -2.174   0.198  1.00  0.00     0.203 A 
HETATM   18  O4  UNL     1       0.500  -3.374   0.287  1.00  0.00    -0.286 OA
HETATM   19  C20 UNL     1       2.817  -1.788   0.078  1.00  0.00     0.032 A 
HETATM   20  C21 UNL     1       3.455  -0.616  -0.035  1.00  0.00     0.104 A 
HETATM   21  O5  UNL     1       2.664   0.330  -0.056  1.00  0.00    -0.285 OA
HETATM   22  C22 UNL     1       4.795  -0.568  -0.114  1.00  0.00     0.047 A 
HETATM   23  C23 UNL     1       5.492  -1.726  -0.108  1.00  0.00     0.121 A 
HETATM   24  C24 UNL     1       4.835  -2.902   0.030  1.00  0.00     0.153 A 
HETATM   25  C25 UNL     1       3.493  -2.938   0.121  1.00  0.00     0.032 A 
HETATM   26  O6  UNL     1       5.546  -4.064   0.055  1.00  0.00    -0.188 OA
HETATM   27  O7  UNL     1       6.859  -1.771  -0.217  1.00  0.00    -0.329 OA
HETATM   28  C26 UNL     1       7.587  -0.602   0.042  1.00  0.00     0.117 C 
HETATM   29  C27 UNL     1       6.774   0.639  -0.220  1.00  0.00     0.001 C 
HETATM   30  C28 UNL     1       5.436   0.605  -0.235  1.00  0.00     0.002 C 
HETATM   31  C29 UNL     1       8.825  -0.617  -0.862  1.00  0.00     0.035 C 
HETATM   32  C30 UNL     1       8.010  -0.614   1.516  1.00  0.00     0.035 C 
ENDROOT
BRANCH   3  33
HETATM   33  C12 UNL     1      -1.951   2.056  -0.119  1.00  0.00     0.056 C 
BRANCH  33  34
HETATM   34  C13 UNL     1      -2.884   2.736   0.853  1.00  0.00    -0.030 C 
HETATM   35  C14 UNL     1      -3.727   3.750   0.588  1.00  0.00    -0.048 C 
HETATM   36  C15 UNL     1      -4.653   4.288   1.654  1.00  0.00     0.026 C 
HETATM   37  C16 UNL     1      -3.862   4.434  -0.751  1.00  0.00     0.026 C 
ENDBRANCH  33  34
ENDBRANCH   3  33
TORSDOF 2
