REMARK  0 active torsions:
REMARK  status: ('A' for Active; 'I' for Inactive)
ROOT
HETATM    1  C1  UNL     1      -2.095  -1.345   0.400  1.00  0.00     0.087 A 
HETATM    2  C2  UNL     1      -2.088   0.013   0.352  1.00  0.00     0.105 A 
HETATM    3  C3  UNL     1      -3.255   0.692   0.408  1.00  0.00     0.023 A 
HETATM    4  C4  UNL     1      -4.440   0.062   0.514  1.00  0.00     0.094 A 
HETATM    5  C5  UNL     1      -4.399  -1.279   0.544  1.00  0.00     0.051 A 
HETATM    6  C6  UNL     1      -3.271  -2.007   0.500  1.00  0.00     0.138 A 
HETATM    7  O1  UNL     1      -3.419  -3.364   0.551  1.00  0.00    -0.190 OA
HETATM    8  O2  UNL     1      -5.658   0.693   0.536  1.00  0.00    -0.336 OA
HETATM    9  C7  UNL     1      -5.711   2.009   0.085  1.00  0.00     0.099 C 
HETATM   10  C8  UNL     1      -4.580   2.798   0.742  1.00  0.00     0.033 C 
HETATM   11  C9  UNL     1      -3.224   2.205   0.356  1.00  0.00     0.033 C 
HETATM   12  C10 UNL     1      -7.061   2.591   0.525  1.00  0.00     0.030 C 
HETATM   13  C11 UNL     1      -5.641   2.035  -1.448  1.00  0.00     0.030 C 
HETATM   14  O3  UNL     1      -0.946   0.767   0.243  1.00  0.00    -0.285 OA
HETATM   15  C12 UNL     1       0.195   0.044   0.168  1.00  0.00     0.206 A 
HETATM   16  C13 UNL     1       0.213  -1.289   0.216  1.00  0.00     0.088 A 
HETATM   17  C14 UNL     1      -0.911  -2.029   0.337  1.00  0.00     0.203 A 
HETATM   18  O4  UNL     1      -0.800  -3.232   0.371  1.00  0.00    -0.286 OA
HETATM   19  C15 UNL     1       1.504  -1.624   0.114  1.00  0.00     0.032 A 
HETATM   20  C16 UNL     1       2.132  -0.446   0.009  1.00  0.00     0.104 A 
HETATM   21  O5  UNL     1       1.336   0.495   0.048  1.00  0.00    -0.285 OA
HETATM   22  C17 UNL     1       3.466  -0.384  -0.125  1.00  0.00     0.047 A 
HETATM   23  C18 UNL     1       4.176  -1.534  -0.155  1.00  0.00     0.121 A 
HETATM   24  C19 UNL     1       3.528  -2.718  -0.038  1.00  0.00     0.153 A 
HETATM   25  C20 UNL     1       2.190  -2.769   0.095  1.00  0.00     0.032 A 
HETATM   26  O6  UNL     1       4.245  -3.877  -0.063  1.00  0.00    -0.188 OA
HETATM   27  O7  UNL     1       5.539  -1.579  -0.297  1.00  0.00    -0.329 OA
HETATM   28  C21 UNL     1       6.277  -0.386  -0.352  1.00  0.00     0.117 A 
HETATM   29  C22 UNL     1       5.416   0.851  -0.361  1.00  0.00     0.001 A 
HETATM   30  C23 UNL     1       4.086   0.799  -0.240  1.00  0.00     0.002 A 
HETATM   31  C24 UNL     1       7.118  -0.416  -1.633  1.00  0.00     0.035 C 
HETATM   32  C25 UNL     1       7.191  -0.338   0.878  1.00  0.00     0.035 C 
ENDROOT
TORSDOF 0
