REMARK  8 active torsions:
REMARK  status: ('A' for Active; 'I' for Inactive)
REMARK    1  A    between atoms: C9_9  and  O3_15 
REMARK    2  A    between atoms: C10_10  and  O1_11 
REMARK    3  A    between atoms: O1_11  and  C11_12 
REMARK    4  A    between atoms: O3_15  and  C13_16 
REMARK    5  A    between atoms: C18_22  and  O5_23 
REMARK    6  A    between atoms: O5_23  and  C19_24 
REMARK    7  A    between atoms: C22_28  and  O7_29 
REMARK    8  A    between atoms: O7_29  and  C23_30 
ROOT
HETATM    1  C1  UNL     1      -1.228   0.050   3.345  1.00  0.00     0.033 C 
HETATM    2  C2  UNL     1      -1.528  -1.379   3.123  1.00  0.00     0.172 C 
HETATM    3  C3  UNL     1      -1.083  -2.049   1.822  1.00  0.00     0.058 C 
HETATM    4  C4  UNL     1       0.001  -1.189   1.103  1.00  0.00     0.041 C 
HETATM    5  C5  UNL     1      -0.184   0.362   1.048  1.00  0.00     0.024 C 
HETATM    6  C6  UNL     1      -0.619   0.821   2.430  1.00  0.00    -0.024 C 
HETATM    7  C7  UNL     1       1.193   0.991   0.608  1.00  0.00     0.037 C 
HETATM    8  C8  UNL     1       1.741   0.439  -0.750  1.00  0.00     0.060 C 
HETATM    9  C9  UNL     1       1.851  -1.103  -0.646  1.00  0.00     0.154 C 
HETATM   10  C10 UNL     1       0.537  -1.775  -0.222  1.00  0.00     0.153 C 
HETATM   11  C15 UNL     1       3.135   1.067  -0.987  1.00  0.00     0.009 C 
HETATM   12  C16 UNL     1       2.932   2.579  -1.334  1.00  0.00     0.023 C 
HETATM   13  C17 UNL     1       2.701   3.048   0.136  1.00  0.00     0.034 C 
HETATM   14  C18 UNL     1       1.420   2.510   0.803  1.00  0.00     0.125 C 
HETATM   15  C21 UNL     1       2.024   2.096  -2.459  1.00  0.00    -0.017 C 
HETATM   16  C22 UNL     1       1.082   0.983  -2.048  1.00  0.00     0.145 C 
HETATM   17  C25 UNL     1       2.141   2.584  -3.706  1.00  0.00    -0.007 C 
HETATM   18  C26 UNL     1      -1.376   0.845   0.192  1.00  0.00     0.004 C 
HETATM   19  C27 UNL     1      -2.356  -2.346   1.003  1.00  0.00     0.008 C 
HETATM   20  C28 UNL     1      -0.503  -3.427   2.241  1.00  0.00     0.008 C 
HETATM   21  O9  UNL     1      -2.140  -1.995   3.989  1.00  0.00    -0.291 OA
ENDROOT
BRANCH   9  22
HETATM   22  O3  UNL     1       2.829  -1.450   0.303  1.00  0.00    -0.302 OA
BRANCH  22  23
HETATM   23  C13 UNL     1       3.979  -2.060  -0.090  1.00  0.00     0.272 C 
HETATM   24  C14 UNL     1       4.905  -2.265   1.094  1.00  0.00     0.106 C 
HETATM   25  O4  UNL     1       4.249  -2.387  -1.223  1.00  0.00    -0.264 OA
ENDBRANCH  22  23
ENDBRANCH   9  22
BRANCH  10  26
HETATM   26  O1  UNL     1      -0.440  -1.656  -1.209  1.00  0.00    -0.302 OA
BRANCH  26  27
HETATM   27  C11 UNL     1      -0.708  -2.594  -2.163  1.00  0.00     0.272 C 
HETATM   28  O2  UNL     1      -1.637  -2.458  -2.930  1.00  0.00    -0.264 OA
HETATM   29  C12 UNL     1       0.215  -3.796  -2.236  1.00  0.00     0.106 C 
ENDBRANCH  26  27
ENDBRANCH  10  26
BRANCH  16  30
HETATM   30  O7  UNL     1       1.062   0.003  -3.060  1.00  0.00    -0.300 OA
BRANCH  30  31
HETATM   31  C23 UNL     1       0.171  -0.032  -4.091  1.00  0.00     0.273 C 
HETATM   32  O8  UNL     1       0.317  -0.788  -5.029  1.00  0.00    -0.264 OA
HETATM   33  C24 UNL     1      -1.053   0.857  -3.970  1.00  0.00     0.106 C 
ENDBRANCH  30  31
ENDBRANCH  16  30
BRANCH  14  34
HETATM   34  O5  UNL     1       1.562   2.803   2.171  1.00  0.00    -0.304 OA
BRANCH  34  35
HETATM   35  C19 UNL     1       1.191   4.030   2.623  1.00  0.00     0.272 C 
HETATM   36  C20 UNL     1       1.467   4.135   4.110  1.00  0.00     0.106 C 
HETATM   37  O6  UNL     1       0.720   4.912   1.942  1.00  0.00    -0.264 OA
ENDBRANCH  34  35
ENDBRANCH  14  34
TORSDOF 8
