REMARK  3 active torsions:
REMARK  status: ('A' for Active; 'I' for Inactive)
REMARK    1  A    between atoms: C6_9  and  C7_10 
REMARK    2  A    between atoms: C9_12  and  O5_18 
REMARK    3  A    between atoms: C10_13  and  O4_16 
ROOT
HETATM    1  C7  UNL     1      -0.394   0.232   0.566  1.00  0.00     0.007 A 
HETATM    2  C8  UNL     1       0.326  -0.828   1.120  1.00  0.00     0.024 A 
HETATM    3  C9  UNL     1       0.050  -2.188   0.900  1.00  0.00     0.116 A 
HETATM    4  C10 UNL     1      -1.042  -2.520   0.064  1.00  0.00     0.116 A 
HETATM    5  C11 UNL     1      -1.762  -1.453  -0.500  1.00  0.00     0.026 A 
HETATM    6  C12 UNL     1      -1.464  -0.113  -0.259  1.00  0.00     0.000 A 
ENDROOT
BRANCH   1   7
HETATM    7  C6  UNL     1      -0.017   1.677   0.842  1.00  0.00     0.141 C 
HETATM    8  C1  UNL     1       0.518   2.387  -0.394  1.00  0.00     0.074 C 
HETATM    9  C2  UNL     1      -0.695   3.133  -0.930  1.00  0.00     0.121 C 
HETATM   10  C4  UNL     1       1.492   3.530  -0.130  1.00  0.00     0.155 C 
HETATM   11  C3  UNL     1      -0.130   4.432  -1.460  1.00  0.00     0.274 C 
HETATM   12  C5  UNL     1      -1.583   3.285   0.299  1.00  0.00     0.153 C 
HETATM   13  O1  UNL     1       1.126   4.592  -0.974  1.00  0.00    -0.302 OA
HETATM   14  O2  UNL     1      -0.706   5.210  -2.187  1.00  0.00    -0.264 OA
HETATM   15  O3  UNL     1      -1.118   2.421   1.310  1.00  0.00    -0.352 OA
ENDBRANCH   1   7
BRANCH   3  16
HETATM   16  O5  UNL     1       0.881  -3.068   1.556  1.00  0.00    -0.326 OA
HETATM   17  C14 UNL     1       0.657  -4.456   1.515  1.00  0.00     0.181 C 
ENDBRANCH   3  16
BRANCH   4  18
HETATM   18  O4  UNL     1      -1.346  -3.833  -0.199  1.00  0.00    -0.326 OA
HETATM   19  C13 UNL     1      -2.352  -4.140  -1.135  1.00  0.00     0.181 C 
ENDBRANCH   4  18
TORSDOF 3
