REMARK  8 active torsions:
REMARK  status: ('A' for Active; 'I' for Inactive)
REMARK    1  A    between atoms: C3_3  and  C30_36 
REMARK    2  A    between atoms: C6_6  and  O1_7 
REMARK    3  A    between atoms: N1_16  and  C15_18 
REMARK    4  A    between atoms: C18_21  and  O5_34 
REMARK    5  A    between atoms: C20_23  and  O3_24 
REMARK    6  A    between atoms: O3_24  and  C21_25 
REMARK    7  A    between atoms: C21_25  and  C22_27 
REMARK    8  A    between atoms: C30_36  and  O6_37 
ROOT
HETATM    1  C1  UNL     1      -1.741  -0.783  -2.651  1.00  0.00     0.030 C 
HETATM    2  C2  UNL     1      -2.220  -1.943  -1.777  1.00  0.00     0.007 C 
HETATM    3  C3  UNL     1      -1.077  -2.797  -1.161  1.00  0.00     0.062 C 
HETATM    4  C4  UNL     1      -0.236  -1.839  -0.264  1.00  0.00     0.042 C 
HETATM    5  C5  UNL     1       0.394  -0.688  -1.098  1.00  0.00     0.084 C 
HETATM    6  C6  UNL     1      -0.730   0.086  -1.897  1.00  0.00     0.120 C 
HETATM    7  C8  UNL     1       1.072   0.405  -0.187  1.00  0.00     0.013 C 
HETATM    8  C9  UNL     1       0.956   0.332   1.351  1.00  0.00     0.046 C 
HETATM    9  C10 UNL     1       1.778  -0.819   1.906  1.00  0.00    -0.042 C 
HETATM   10  C11 UNL     1       1.681  -2.091   1.488  1.00  0.00    -0.005 C 
HETATM   11  C12 UNL     1       1.059  -2.487   0.179  1.00  0.00     0.139 C 
HETATM   12  O2  UNL     1       1.992  -2.069  -0.782  1.00  0.00    -0.327 OA
HETATM   13  C13 UNL     1       1.406  -1.569  -1.984  1.00  0.00     0.339 C 
HETATM   14  N1  UNL     1       1.134  -2.953  -2.493  1.00  0.00     0.162 N 
HETATM   15  C14 UNL     1      -0.237  -3.464  -2.304  1.00  0.00     0.256 C 
HETATM   16  C17 UNL     1       2.976  -0.442   2.746  1.00  0.00     0.051 C 
HETATM   17  C18 UNL     1       3.819   0.524   1.888  1.00  0.00     0.122 C 
HETATM   18  C19 UNL     1       2.939   1.474   1.037  1.00  0.00     0.056 C 
HETATM   19  C20 UNL     1       1.581   1.700   1.720  1.00  0.00     0.131 C 
HETATM   20  C28 UNL     1       2.538   0.870  -0.349  1.00  0.00     0.005 C 
ENDROOT
BRANCH  19  21
HETATM   21  O3  UNL     1       1.643   1.904   3.095  1.00  0.00    -0.301 OA
BRANCH  21  22
HETATM   22  C21 UNL     1       1.304   3.071   3.719  1.00  0.00     0.296 C 
HETATM   23  O4  UNL     1       1.241   3.051   4.947  1.00  0.00    -0.259 OA
BRANCH  22  24
HETATM   24  C22 UNL     1       1.014   4.409   3.108  1.00  0.00     0.063 A 
HETATM   25  C23 UNL     1       1.663   4.866   1.952  1.00  0.00     0.005 A 
HETATM   26  C24 UNL     1       1.372   6.125   1.427  1.00  0.00     0.000 A 
HETATM   27  C25 UNL     1       0.444   6.956   2.060  1.00  0.00     0.000 A 
HETATM   28  C26 UNL     1      -0.189   6.522   3.225  1.00  0.00     0.000 A 
HETATM   29  C27 UNL     1       0.098   5.258   3.747  1.00  0.00     0.005 A 
ENDBRANCH  22  24
ENDBRANCH  21  22
ENDBRANCH  19  21
BRANCH  17  30
HETATM   30  O5  UNL     1       4.662   1.250   2.744  1.00  0.00    -0.354 OA
HETATM   31  C29 UNL     1       5.859   1.676   2.125  1.00  0.00     0.174 C 
ENDBRANCH  17  30
BRANCH   6  32
HETATM   32  O1  UNL     1      -0.079   0.975  -2.772  1.00  0.00    -0.354 OA
HETATM   33  C7  UNL     1      -0.926   1.911  -3.403  1.00  0.00     0.174 C 
ENDBRANCH   6  32
BRANCH   3  34
HETATM   34  C30 UNL     1      -1.838  -3.865  -0.331  1.00  0.00     0.144 C 
BRANCH  34  35
HETATM   35  O6  UNL     1      -0.970  -4.716   0.371  1.00  0.00    -0.351 OA
HETATM   36  C31 UNL     1      -1.658  -5.723   1.082  1.00  0.00     0.174 C 
ENDBRANCH  34  35
ENDBRANCH   3  34
BRANCH  14  37
HETATM   37  C15 UNL     1       1.691  -3.167  -3.822  1.00  0.00     0.253 C 
HETATM   38  C16 UNL     1       1.136  -2.259  -4.930  1.00  0.00     0.037 C 
ENDBRANCH  14  37
TORSDOF 8
