REMARK  3 active torsions:
REMARK  status: ('A' for Active; 'I' for Inactive)
REMARK    1  A    between atoms: C2_2  and  O3_23 
REMARK    2  A    between atoms: C15_15  and  C17_17 
REMARK    3  A    between atoms: O3_23  and  C21_24 
ROOT
HETATM    1  C1  UNL     1       5.903  -1.501  -1.544  1.00  0.00     0.030 C 
HETATM    2  C2  UNL     1       6.787  -0.403  -0.956  1.00  0.00     0.124 C 
HETATM    3  C3  UNL     1       6.027   0.908  -0.640  1.00  0.00     0.026 C 
HETATM    4  C4  UNL     1       4.726   0.571   0.153  1.00  0.00     0.002 C 
HETATM    5  C5  UNL     1       3.777  -0.525  -0.422  1.00  0.00     0.000 C 
HETATM    6  C6  UNL     1       4.660  -1.777  -0.685  1.00  0.00     0.003 C 
HETATM    7  C7  UNL     1       2.684  -0.867   0.658  1.00  0.00     0.000 C 
HETATM    8  C8  UNL     1       1.974   0.325   1.361  1.00  0.00     0.001 C 
HETATM    9  C9  UNL     1       2.979   1.409   1.775  1.00  0.00     0.000 C 
HETATM   10  C10 UNL     1       3.924   1.795   0.633  1.00  0.00     0.000 C 
HETATM   11  C11 UNL     1       0.822   0.891   0.513  1.00  0.00     0.001 C 
HETATM   12  C12 UNL     1      -0.213  -0.234   0.619  1.00  0.00     0.010 C 
HETATM   13  C13 UNL     1       0.285  -1.437  -0.196  1.00  0.00     0.001 C 
HETATM   14  C14 UNL     1       1.652  -1.958   0.282  1.00  0.00     0.000 C 
HETATM   15  C15 UNL     1      -0.242  -0.528   2.130  1.00  0.00     0.087 C 
HETATM   16  C16 UNL     1       1.181  -0.162   2.607  1.00  0.00     0.011 C 
HETATM   17  C18 UNL     1       3.118  -0.136  -1.763  1.00  0.00     0.000 C 
HETATM   18  C19 UNL     1       6.977   1.763   0.248  1.00  0.00     0.002 C 
HETATM   19  C20 UNL     1       5.774   1.745  -1.913  1.00  0.00     0.002 C 
ENDROOT
BRANCH   2  20
HETATM   20  O3  UNL     1       7.835  -0.142  -1.850  1.00  0.00    -0.304 OA
BRANCH  20  21
HETATM   21  C21 UNL     1       9.083  -0.607  -1.576  1.00  0.00     0.272 C 
HETATM   22  C22 UNL     1      10.045  -0.155  -2.658  1.00  0.00     0.106 C 
HETATM   23  O4  UNL     1       9.395  -1.271  -0.614  1.00  0.00    -0.264 OA
ENDBRANCH  20  21
ENDBRANCH   2  20
BRANCH  15  24
HETATM   24  C17 UNL     1      -1.337   0.282   2.810  1.00  0.00     0.185 C 
HETATM   25  O1  UNL     1      -2.500  -0.394   2.860  1.00  0.00    -0.647 OA
HETATM   26  O2  UNL     1      -1.248   1.401   3.257  1.00  0.00    -0.647 OA
ENDBRANCH  15  24
TORSDOF 3
