REMARK  0 active torsions:
REMARK  status: ('A' for Active; 'I' for Inactive)
ROOT
HETATM    1  C1  UNL     1      -1.586  -1.633   0.670  1.00  0.00     0.034 C 
HETATM    2  C2  UNL     1      -1.959  -2.370   1.950  1.00  0.00     0.156 C 
HETATM    3  C3  UNL     1      -0.807  -3.253   2.427  1.00  0.00     0.055 C 
HETATM    4  C4  UNL     1       0.531  -2.822   1.863  1.00  0.00    -0.046 C 
HETATM    5  C5  UNL     1       0.764  -1.320   1.694  1.00  0.00     0.015 C 
HETATM    6  C6  UNL     1      -0.432  -0.661   0.957  1.00  0.00     0.006 C 
HETATM    7  C7  UNL     1       2.035  -1.140   0.834  1.00  0.00     0.004 C 
HETATM    8  C8  UNL     1       3.201  -1.992   1.347  1.00  0.00     0.005 C 
HETATM    9  C9  UNL     1       2.865  -3.459   1.087  1.00  0.00     0.025 C 
HETATM   10  C10 UNL     1       1.471  -3.749   1.590  1.00  0.00    -0.035 C 
HETATM   11  C11 UNL     1       4.468  -1.425   0.679  1.00  0.00     0.000 C 
HETATM   12  C12 UNL     1       4.030  -0.097   0.024  1.00  0.00     0.002 C 
HETATM   13  C13 UNL     1       2.677   0.243   0.681  1.00  0.00     0.000 C 
HETATM   14  C14 UNL     1       5.064   1.044   0.106  1.00  0.00     0.036 C 
HETATM   15  C15 UNL     1       6.500   0.514  -0.039  1.00  0.00     0.032 C 
HETATM   16  C16 UNL     1       6.827  -0.563   1.024  1.00  0.00     0.003 C 
HETATM   17  C17 UNL     1       5.590  -1.177   1.693  1.00  0.00     0.000 C 
HETATM   18  C18 UNL     1       7.524   1.669  -0.104  1.00  0.00     0.156 C 
HETATM   19  C19 UNL     1       7.024   2.862  -0.968  1.00  0.00     0.247 C 
HETATM   20  N1  UNL     1       5.808   2.625  -1.731  1.00  0.00     0.137 N 
HETATM   21  C20 UNL     1       4.714   2.175  -0.886  1.00  0.00     0.250 C 
HETATM   22  C21 UNL     1       5.967   1.819  -2.935  1.00  0.00     0.250 C 
HETATM   23  C22 UNL     1       7.298   2.068  -3.666  1.00  0.00     0.033 C 
HETATM   24  C23 UNL     1       7.781   3.488  -3.358  1.00  0.00     0.004 C 
HETATM   25  C24 UNL     1       8.044   3.627  -1.849  1.00  0.00     0.036 C 
HETATM   26  C25 UNL     1       7.192   1.802  -5.175  1.00  0.00     0.002 C 
HETATM   27  O1  UNL     1       7.662   2.173   1.206  1.00  0.00    -0.224 OA
HETATM   28  C26 UNL     1       8.905   1.102  -0.462  1.00  0.00     0.035 C 
HETATM   29  C27 UNL     1       0.898  -0.702   3.104  1.00  0.00     0.004 C 
HETATM   30  O2  UNL     1      -3.104  -3.159   1.725  1.00  0.00    -0.223 OA
ENDROOT
TORSDOF 0
