REMARK  6 active torsions:
REMARK  status: ('A' for Active; 'I' for Inactive)
REMARK    1  A    between atoms: C2_2  and  O5_29 
REMARK    2  A    between atoms: C10_12  and  C13_16 
REMARK    3  A    between atoms: C13_16  and  C14_17 
REMARK    4  A    between atoms: C14_17  and  C15_18 
REMARK    5  A    between atoms: C16_19  and  C18_21 
REMARK    6  A    between atoms: C18_21  and  C19_22 
ROOT
HETATM    1  C1  UNL     1       0.278   1.756   3.424  1.00  0.00     0.035 C 
HETATM    2  C2  UNL     1      -0.400   0.461   3.033  1.00  0.00     0.122 C 
HETATM    3  C3  UNL     1       0.555  -0.702   2.892  1.00  0.00     0.081 C 
HETATM    4  C4  UNL     1       1.918  -0.514   2.305  1.00  0.00     0.077 C 
HETATM    5  C5  UNL     1       2.454   0.722   2.425  1.00  0.00     0.005 C 
HETATM    6  C6  UNL     1       1.753   1.834   3.114  1.00  0.00     0.029 C 
HETATM    7  C7  UNL     1       3.785   0.999   1.819  1.00  0.00     0.158 C 
HETATM    8  C8  UNL     1       4.590  -0.186   1.411  1.00  0.00     0.037 C 
HETATM    9  C9  UNL     1       3.839  -1.504   1.361  1.00  0.00     0.227 C 
HETATM   10  O1  UNL     1       2.526  -1.594   1.717  1.00  0.00    -0.289 OA
HETATM   11  O2  UNL     1       4.487  -2.582   0.957  1.00  0.00    -0.164 OA
HETATM   12  C10 UNL     1       6.064   0.072   1.639  1.00  0.00     0.047 C 
HETATM   13  C11 UNL     1       6.027   1.569   2.087  1.00  0.00     0.120 C 
HETATM   14  O3  UNL     1       4.684   1.911   2.440  1.00  0.00    -0.350 OA
HETATM   15  C12 UNL     1       6.973   1.971   3.225  1.00  0.00     0.033 C 
HETATM   16  C24 UNL     1       6.603  -0.876   2.722  1.00  0.00     0.007 C 
ENDROOT
BRANCH  12  17
HETATM   17  C13 UNL     1       6.774  -0.123   0.282  1.00  0.00     0.011 C 
BRANCH  17  18
HETATM   18  C14 UNL     1       8.251   0.293   0.236  1.00  0.00     0.026 C 
BRANCH  18  19
HETATM   19  C15 UNL     1       8.766   0.132  -1.174  1.00  0.00    -0.034 C 
HETATM   20  C16 UNL     1       9.269  -0.990  -1.719  1.00  0.00    -0.042 C 
HETATM   21  C17 UNL     1       9.486  -2.279  -0.963  1.00  0.00     0.026 C 
BRANCH  20  22
HETATM   22  C18 UNL     1       9.683  -1.016  -3.174  1.00  0.00     0.073 C 
BRANCH  22  23
HETATM   23  C19 UNL     1       8.642  -0.448  -4.095  1.00  0.00     0.081 A 
HETATM   24  C20 UNL     1       8.889   0.128  -5.308  1.00  0.00     0.018 A 
HETATM   25  C21 UNL     1       7.618   0.507  -5.848  1.00  0.00     0.004 A 
HETATM   26  C22 UNL     1       6.694   0.118  -4.927  1.00  0.00     0.118 A 
HETATM   27  C23 UNL     1       7.362   1.152  -7.175  1.00  0.00     0.033 C 
HETATM   28  O4  UNL     1       7.295  -0.463  -3.851  1.00  0.00    -0.309 OA
ENDBRANCH  22  23
ENDBRANCH  20  22
ENDBRANCH  18  19
ENDBRANCH  17  18
ENDBRANCH  12  17
BRANCH   2  29
HETATM   29  O5  UNL     1      -1.764   0.370   2.999  1.00  0.00    -0.354 OA
HETATM   30  C25 UNL     1      -2.314  -0.926   2.971  1.00  0.00     0.174 C 
ENDBRANCH   2  29
TORSDOF 6
