REMARK  2 active torsions:
REMARK  status: ('A' for Active; 'I' for Inactive)
REMARK    1  A    between atoms: C15_16  and  C18_19 
REMARK    2  A    between atoms: C18_19  and  N1_21 
ROOT
HETATM    1  C1  UNL     1      -1.825  -2.009  -2.024  1.00  0.00     0.065 C 
HETATM    2  C2  UNL     1      -0.345  -1.910  -1.611  1.00  0.00     0.007 C 
HETATM    3  C3  UNL     1       0.203  -0.461  -1.715  1.00  0.00     0.001 C 
HETATM    4  C4  UNL     1       0.147  -0.032  -3.208  1.00  0.00     0.008 C 
HETATM    5  C5  UNL     1      -0.974  -0.675  -4.043  1.00  0.00     0.065 C 
HETATM    6  C6  UNL     1      -2.155  -1.121  -3.209  1.00  0.00     0.151 C 
HETATM    7  O1  UNL     1      -3.295  -0.826  -3.491  1.00  0.00    -0.296 OA
HETATM    8  C7  UNL     1       1.683  -0.442  -1.215  1.00  0.00     0.000 C 
HETATM    9  C8  UNL     1       1.829  -1.038   0.207  1.00  0.00     0.000 C 
HETATM   10  C9  UNL     1       1.316  -2.488   0.226  1.00  0.00     0.000 C 
HETATM   11  C10 UNL     1      -0.147  -2.549  -0.225  1.00  0.00     0.000 C 
HETATM   12  C11 UNL     1       3.298  -0.966   0.649  1.00  0.00     0.000 C 
HETATM   13  C12 UNL     1       3.901   0.463   0.622  1.00  0.00     0.002 C 
HETATM   14  C13 UNL     1       3.844   0.938  -0.839  1.00  0.00     0.000 C 
HETATM   15  C14 UNL     1       2.401   0.919  -1.380  1.00  0.00     0.000 C 
HETATM   16  C15 UNL     1       5.320   0.124   1.155  1.00  0.00     0.031 C 
HETATM   17  C16 UNL     1       5.033  -0.799   2.361  1.00  0.00     0.002 C 
HETATM   18  C17 UNL     1       3.689  -1.498   2.038  1.00  0.00     0.000 C 
HETATM   19  C22 UNL     1       3.086   1.396   1.547  1.00  0.00     0.000 C 
HETATM   20  C23 UNL     1      -0.677   0.513  -0.893  1.00  0.00     0.000 C 
ENDROOT
BRANCH  16  21
HETATM   21  C18 UNL     1       6.545   1.082   1.172  1.00  0.00     0.219 C 
HETATM   22  C19 UNL     1       7.799   0.285   1.612  1.00  0.00     0.035 C 
BRANCH  21  23
HETATM   23  N1  UNL     1       6.563   2.346   1.910  1.00  0.00     0.139 N 
HETATM   24  C20 UNL     1       6.016   2.289   3.251  1.00  0.00     0.285 C 
HETATM   25  C21 UNL     1       6.057   3.475   1.147  1.00  0.00     0.285 C 
ENDBRANCH  21  23
ENDBRANCH  16  21
TORSDOF 2
