REMARK  5 active torsions:
REMARK  status: ('A' for Active; 'I' for Inactive)
REMARK    1  A    between atoms: C2_2  and  C3_3 
REMARK    2  A    between atoms: C3_3  and  C4_4 
REMARK    3  A    between atoms: C8_9  and  C10_12 
REMARK    4  A    between atoms: C10_12  and  C11_13 
REMARK    5  A    between atoms: C16_19  and  C18_21 
ROOT
HETATM    1  C4  UNL     1       0.183   1.908  -0.113  1.00  0.00     0.093 C 
HETATM    2  C5  UNL     1      -1.115   1.559  -0.081  1.00  0.00     0.146 C 
HETATM    3  O1  UNL     1      -2.135   2.459  -0.089  1.00  0.00    -0.192 OA
HETATM    4  C6  UNL     1      -1.551   0.110  -0.049  1.00  0.00     0.221 C 
HETATM    5  C7  UNL     1      -0.469  -0.905   0.258  1.00  0.00     0.257 C 
HETATM    6  C8  UNL     1       0.815  -0.350   0.881  1.00  0.00     0.112 C 
HETATM    7  C9  UNL     1       1.213   0.843   0.013  1.00  0.00     0.182 C 
HETATM    8  O2  UNL     1       2.306   0.963  -0.525  1.00  0.00    -0.291 OA
HETATM    9  C15 UNL     1       0.518   0.132   2.320  1.00  0.00     0.013 C 
HETATM   10  O3  UNL     1      -0.191  -1.587  -0.934  1.00  0.00    -0.330 OA
HETATM   11  C16 UNL     1      -1.364  -1.630  -1.690  1.00  0.00     0.149 C 
HETATM   12  C17 UNL     1      -2.032  -0.282  -1.450  1.00  0.00     0.074 C 
HETATM   13  O5  UNL     1      -0.988  -1.955   1.048  1.00  0.00    -0.192 OA
HETATM   14  O6  UNL     1      -2.602  -0.019   0.884  1.00  0.00    -0.214 OA
ENDROOT
BRANCH   6  15
HETATM   15  C10 UNL     1       1.944  -1.412   0.899  1.00  0.00     0.038 C 
BRANCH  15  16
HETATM   16  C11 UNL     1       3.239  -0.963   1.532  1.00  0.00    -0.034 C 
HETATM   17  C12 UNL     1       4.324  -1.736   1.724  1.00  0.00    -0.048 C 
HETATM   18  C13 UNL     1       5.577  -1.183   2.361  1.00  0.00     0.026 C 
HETATM   19  C14 UNL     1       4.404  -3.189   1.325  1.00  0.00     0.026 C 
ENDBRANCH  15  16
ENDBRANCH   6  15
BRANCH   1  20
HETATM   20  C3  UNL     1       0.574   3.357  -0.268  1.00  0.00     0.177 C 
HETATM   21  O7  UNL     1       0.171   3.976  -1.241  1.00  0.00    -0.291 OA
BRANCH  20  22
HETATM   22  C2  UNL     1       1.345   4.074   0.837  1.00  0.00     0.062 C 
HETATM   23  C1  UNL     1       2.683   3.428   1.222  1.00  0.00     0.008 C 
HETATM   24  C21 UNL     1       0.456   4.269   2.074  1.00  0.00     0.008 C 
ENDBRANCH  20  22
ENDBRANCH   1  20
BRANCH  11  25
HETATM   25  C18 UNL     1      -1.056  -1.998  -3.142  1.00  0.00     0.152 C 
HETATM   26  O4  UNL     1      -0.653  -3.344  -3.147  1.00  0.00    -0.224 OA
HETATM   27  C19 UNL     1       0.084  -1.178  -3.756  1.00  0.00     0.035 C 
HETATM   28  C20 UNL     1      -2.311  -1.899  -4.013  1.00  0.00     0.035 C 
ENDBRANCH  11  25
TORSDOF 5
