REMARK  10 active torsions:
REMARK  status: ('A' for Active; 'I' for Inactive)
REMARK    1  A    between atoms: C2_2  and  C32_35 
REMARK    2  A    between atoms: C6_6  and  C7_7 
REMARK    3  A    between atoms: C7_7  and  C8_8 
REMARK    4  A    between atoms: C12_13  and  C14_15 
REMARK    5  A    between atoms: C18_20  and  C27_29 
REMARK    6  A    between atoms: C19_21  and  C20_22 
REMARK    7  A    between atoms: C20_22  and  C21_23 
REMARK    8  A    between atoms: C21_23  and  C22_24 
REMARK    9  A    between atoms: C27_29  and  C28_30 
REMARK   10  A    between atoms: C32_35  and  C33_37 
ROOT
HETATM    1  C1  UNL     1       3.489   1.360   0.124  1.00  0.00     0.183 C 
HETATM    2  C2  UNL     1       3.409  -0.137  -0.294  1.00  0.00     0.158 C 
HETATM    3  C3  UNL     1       4.757  -0.600  -0.851  1.00  0.00     0.168 C 
HETATM    4  C4  UNL     1       5.896  -0.069  -0.010  1.00  0.00     0.094 C 
HETATM    5  C5  UNL     1       5.884   1.417  -0.209  1.00  0.00     0.077 C 
HETATM    6  C6  UNL     1       4.749   2.132  -0.087  1.00  0.00     0.036 C 
HETATM    7  O1  UNL     1       7.149   1.923  -0.440  1.00  0.00    -0.335 OA
HETATM    8  C12 UNL     1       7.934   0.885  -1.018  1.00  0.00     0.149 C 
HETATM    9  C13 UNL     1       7.319  -0.429  -0.478  1.00  0.00     0.046 C 
HETATM   10  C17 UNL     1       5.569  -0.334   1.474  1.00  0.00     0.013 C 
HETATM   11  C18 UNL     1       4.521  -1.450   1.666  1.00  0.00     0.006 C 
HETATM   12  C19 UNL     1       3.175  -1.163   0.889  1.00  0.00     0.020 C 
HETATM   13  C26 UNL     1       2.614  -2.498   0.327  1.00  0.00     0.001 C 
HETATM   14  O3  UNL     1       4.874  -1.306  -1.827  1.00  0.00    -0.295 OA
HETATM   15  O5  UNL     1       2.478   1.956   0.483  1.00  0.00    -0.291 OA
ENDROOT
BRANCH  12  16
HETATM   16  C20 UNL     1       2.115  -0.595   1.879  1.00  0.00     0.006 C 
BRANCH  16  17
HETATM   17  C21 UNL     1       1.567  -1.545   2.962  1.00  0.00     0.025 C 
BRANCH  17  18
HETATM   18  C22 UNL     1       0.417  -0.907   3.705  1.00  0.00    -0.035 C 
HETATM   19  C23 UNL     1      -0.876  -0.936   3.332  1.00  0.00    -0.048 C 
HETATM   20  C24 UNL     1      -1.948  -0.271   4.163  1.00  0.00     0.026 C 
HETATM   21  C25 UNL     1      -1.389  -1.609   2.079  1.00  0.00     0.026 C 
ENDBRANCH  17  18
ENDBRANCH  16  17
ENDBRANCH  12  16
BRANCH   2  22
HETATM   22  C32 UNL     1       2.338  -0.135  -1.415  1.00  0.00     0.163 C 
HETATM   23  O4  UNL     1       1.255  -0.663  -1.298  1.00  0.00    -0.295 OA
BRANCH  22  24
HETATM   24  C33 UNL     1       2.611   0.641  -2.705  1.00  0.00     0.059 C 
HETATM   25  C34 UNL     1       2.577  -0.289  -3.930  1.00  0.00     0.008 C 
HETATM   26  C35 UNL     1       1.570   1.760  -2.889  1.00  0.00     0.008 C 
ENDBRANCH  22  24
ENDBRANCH   2  22
BRANCH  11  27
HETATM   27  C27 UNL     1       5.225  -2.814   1.442  1.00  0.00     0.025 C 
BRANCH  27  28
HETATM   28  C28 UNL     1       4.664  -3.936   2.288  1.00  0.00    -0.035 C 
HETATM   29  C29 UNL     1       4.374  -5.194   1.908  1.00  0.00    -0.048 C 
HETATM   30  C30 UNL     1       3.809  -6.188   2.897  1.00  0.00     0.026 C 
HETATM   31  C31 UNL     1       4.556  -5.744   0.515  1.00  0.00     0.026 C 
ENDBRANCH  27  28
ENDBRANCH  11  27
BRANCH   6  32
HETATM   32  C7  UNL     1       4.753   3.642  -0.106  1.00  0.00     0.056 C 
BRANCH  32  33
HETATM   33  C8  UNL     1       3.779   4.198  -1.110  1.00  0.00    -0.030 C 
HETATM   34  C9  UNL     1       3.025   5.304  -0.970  1.00  0.00    -0.048 C 
HETATM   35  C10 UNL     1       2.064   5.736  -2.055  1.00  0.00     0.026 C 
HETATM   36  C11 UNL     1       3.045   6.214   0.235  1.00  0.00     0.026 C 
ENDBRANCH  32  33
ENDBRANCH   6  32
BRANCH   8  37
HETATM   37  C14 UNL     1       7.930   1.045  -2.548  1.00  0.00     0.152 C 
HETATM   38  C15 UNL     1       8.801  -0.002  -3.246  1.00  0.00     0.035 C 
HETATM   39  C16 UNL     1       8.407   2.447  -2.943  1.00  0.00     0.035 C 
HETATM   40  O2  UNL     1       6.611   0.902  -3.003  1.00  0.00    -0.224 OA
ENDBRANCH   8  37
TORSDOF 10
