REMARK  4 active torsions:
REMARK  status: ('A' for Active; 'I' for Inactive)
REMARK    1  A    between atoms: C18_25  and  O10_30 
REMARK    2  A    between atoms: C19_27  and  C20_28 
REMARK    3  A    between atoms: O10_30  and  C21_31 
REMARK    4  A    between atoms: C21_31  and  C22_32 
ROOT
HETATM    1  C1  UNL     1      -2.463  -2.412   1.766  1.00  0.00     0.169 C 
HETATM    2  C2  UNL     1      -1.390  -3.183   2.470  1.00  0.00     0.341 C 
HETATM    3  C3  UNL     1      -0.099  -3.174   1.696  1.00  0.00     0.289 A 
HETATM    4  C4  UNL     1       0.410  -1.805   1.146  1.00  0.00     0.111 A 
HETATM    5  C5  UNL     1      -0.688  -0.742   1.204  1.00  0.00     0.037 C 
HETATM    6  C6  UNL     1      -1.999  -1.032   1.412  1.00  0.00     0.029 C 
HETATM    7  C7  UNL     1      -0.552   0.698   0.725  1.00  0.00     0.225 C 
HETATM    8  O1  UNL     1      -1.159   0.901  -0.426  1.00  0.00    -0.164 OA
HETATM    9  O2  UNL     1       0.162   1.634   1.406  1.00  0.00    -0.306 OA
HETATM   10  C8  UNL     1       0.563   2.891   0.908  1.00  0.00     0.186 C 
HETATM   11  C9  UNL     1       2.058   2.829   0.614  1.00  0.00     0.215 C 
HETATM   12  C10 UNL     1       2.293   1.935  -0.605  1.00  0.00     0.214 C 
HETATM   13  O3  UNL     1       2.207   0.582  -0.216  1.00  0.00    -0.293 OA
HETATM   14  C11 UNL     1       3.117   0.175   0.711  1.00  0.00     0.296 C 
HETATM   15  C12 UNL     1       2.876  -0.854   1.766  1.00  0.00     0.064 C 
HETATM   16  C13 UNL     1       1.733  -1.673   1.898  1.00  0.00     0.017 A 
HETATM   17  C14 UNL     1       1.866  -2.751   2.774  1.00  0.00     0.121 A 
HETATM   18  C15 UNL     1       2.914  -2.955   3.677  1.00  0.00     0.178 C 
HETATM   19  C16 UNL     1       3.950  -2.028   3.665  1.00  0.00     0.158 C 
HETATM   20  C17 UNL     1       3.933  -1.037   2.679  1.00  0.00     0.035 C 
HETATM   21  O4  UNL     1       5.005  -2.176   4.508  1.00  0.00    -0.188 OA
HETATM   22  O5  UNL     1       2.952  -3.998   4.546  1.00  0.00    -0.186 OA
HETATM   23  O6  UNL     1       0.855  -3.661   2.623  1.00  0.00    -0.301 OA
HETATM   24  O7  UNL     1       4.170   0.806   0.796  1.00  0.00    -0.259 OA
HETATM   25  C18 UNL     1       1.255   2.197  -1.687  1.00  0.00     0.274 C 
HETATM   26  O8  UNL     1       0.556   3.406  -1.484  1.00  0.00    -0.326 OA
HETATM   27  C19 UNL     1      -0.180   3.490  -0.291  1.00  0.00     0.181 C 
HETATM   28  O15 UNL     1       2.579   4.115   0.372  1.00  0.00    -0.218 OA
HETATM   29  O16 UNL     1      -0.238  -4.089   0.635  1.00  0.00    -0.189 OA
HETATM   30  O17 UNL     1      -1.848  -4.501   2.710  1.00  0.00    -0.180 OA
HETATM   31  O18 UNL     1      -1.205  -2.688   3.784  1.00  0.00    -0.180 OA
HETATM   32  O19 UNL     1      -3.664  -2.930   1.659  1.00  0.00    -0.190 OA
ENDROOT
BRANCH  25  33
HETATM   33  O10 UNL     1       1.846   2.374  -2.960  1.00  0.00    -0.270 OA
BRANCH  33  34
HETATM   34  C21 UNL     1       1.335   1.785  -4.092  1.00  0.00     0.298 C 
HETATM   35  O14 UNL     1       1.966   1.923  -5.138  1.00  0.00    -0.259 OA
BRANCH  34  36
HETATM   36  C22 UNL     1       0.100   0.938  -4.197  1.00  0.00     0.068 A 
HETATM   37  C23 UNL     1       0.094  -0.170  -5.052  1.00  0.00     0.035 A 
HETATM   38  C24 UNL     1      -0.999  -1.042  -5.102  1.00  0.00     0.158 A 
HETATM   39  C25 UNL     1      -2.086  -0.825  -4.250  1.00  0.00     0.181 A 
HETATM   40  O13 UNL     1      -1.000  -2.142  -5.900  1.00  0.00    -0.188 OA
HETATM   41  C26 UNL     1      -2.118   0.298  -3.416  1.00  0.00     0.158 A 
HETATM   42  O12 UNL     1      -3.122  -1.702  -4.221  1.00  0.00    -0.186 OA
HETATM   43  C27 UNL     1      -1.047   1.188  -3.436  1.00  0.00     0.035 A 
HETATM   44  O11 UNL     1      -3.135   0.473  -2.534  1.00  0.00    -0.188 OA
ENDBRANCH  34  36
ENDBRANCH  33  34
ENDBRANCH  25  33
BRANCH  27  45
HETATM   45  C20 UNL     1      -0.493   4.974  -0.084  1.00  0.00     0.214 C 
HETATM   46  O9  UNL     1      -1.386   5.133   1.001  1.00  0.00    -0.218 OA
ENDBRANCH  27  45
TORSDOF 4
