REMARK  10 active torsions:
REMARK  status: ('A' for Active; 'I' for Inactive)
REMARK    1  A    between atoms: C1_1  and  O11_23 
REMARK    2  A    between atoms: C2_3  and  C11_19 
REMARK    3  A    between atoms: C3_4  and  O3_7 
REMARK    4  A    between atoms: O3_7  and  C5_8 
REMARK    5  A    between atoms: C6_10  and  C9_15 
REMARK    6  A    between atoms: C9_15  and  C10_17 
REMARK    7  A    between atoms: C11_19  and  C12_21 
REMARK    8  A    between atoms: O11_23  and  C13_24 
REMARK    9  A    between atoms: C13_24  and  C14_25 
REMARK   10  A    between atoms: C13_24  and  C15_27 
ROOT
HETATM    1  C1  UNL     1       2.975  -0.058  -0.961  1.00  0.00     0.270 C 
HETATM    2  O1  UNL     1       2.141   0.377  -2.020  1.00  0.00    -0.326 OA
HETATM    3  C2  UNL     1       0.812   0.399  -1.567  1.00  0.00     0.181 C 
HETATM    4  C3  UNL     1       0.780  -0.441  -0.299  1.00  0.00     0.183 C 
HETATM    5  C4  UNL     1       2.125  -0.071   0.291  1.00  0.00     0.238 C 
HETATM    6  O2  UNL     1       2.079   1.223   0.845  1.00  0.00    -0.215 OA
ENDROOT
BRANCH   4   7
HETATM    7  O3  UNL     1      -0.300  -0.108   0.519  1.00  0.00    -0.326 OA
BRANCH   7   8
HETATM    8  C5  UNL     1      -0.334  -0.830   1.736  1.00  0.00     0.270 C 
HETATM    9  O4  UNL     1       0.177   0.086   2.685  1.00  0.00    -0.326 OA
HETATM   10  C6  UNL     1      -0.885   0.575   3.455  1.00  0.00     0.184 C 
HETATM   11  C7  UNL     1      -2.166   0.207   2.722  1.00  0.00     0.217 C 
HETATM   12  C8  UNL     1      -1.772  -1.113   2.103  1.00  0.00     0.241 C 
HETATM   13  O6  UNL     1      -2.452   1.117   1.684  1.00  0.00    -0.218 OA
HETATM   14  O5  UNL     1      -1.826  -2.140   3.063  1.00  0.00    -0.215 OA
BRANCH  10  15
HETATM   15  C9  UNL     1      -0.701   2.053   3.759  1.00  0.00     0.215 C 
HETATM   16  O7  UNL     1      -1.745   2.483   4.600  1.00  0.00    -0.218 OA
BRANCH  15  17
HETATM   17  C10 UNL     1       0.602   2.363   4.471  1.00  0.00     0.218 C 
HETATM   18  O8  UNL     1       0.570   3.724   4.851  1.00  0.00    -0.218 OA
ENDBRANCH  15  17
ENDBRANCH  10  15
ENDBRANCH   7   8
ENDBRANCH   4   7
BRANCH   3  19
HETATM   19  C11 UNL     1      -0.133  -0.062  -2.664  1.00  0.00     0.214 C 
HETATM   20  O9  UNL     1      -1.452  -0.082  -2.171  1.00  0.00    -0.218 OA
BRANCH  19  21
HETATM   21  C12 UNL     1      -0.121   0.853  -3.874  1.00  0.00     0.218 C 
HETATM   22  O10 UNL     1      -1.169   0.450  -4.732  1.00  0.00    -0.218 OA
ENDBRANCH  19  21
ENDBRANCH   3  19
BRANCH   1  23
HETATM   23  O11 UNL     1       3.322  -1.395  -1.266  1.00  0.00    -0.326 OA
BRANCH  23  24
HETATM   24  C13 UNL     1       4.564  -1.586  -1.887  1.00  0.00     0.184 C 
BRANCH  24  25
HETATM   25  C14 UNL     1       4.796  -3.095  -1.909  1.00  0.00     0.214 C 
HETATM   26  O12 UNL     1       6.118  -3.387  -2.314  1.00  0.00    -0.218 OA
ENDBRANCH  24  25
BRANCH  24  27
HETATM   27  C15 UNL     1       4.609  -1.014  -3.299  1.00  0.00     0.214 C 
HETATM   28  O13 UNL     1       4.819   0.382  -3.263  1.00  0.00    -0.218 OA
ENDBRANCH  24  27
ENDBRANCH  23  24
ENDBRANCH   1  23
TORSDOF 10
