REMARK  3 active torsions:
REMARK  status: ('A' for Active; 'I' for Inactive)
REMARK    1  A    between atoms: N1_9  and  C21_28 
REMARK    2  A    between atoms: C10_12  and  O2_13 
REMARK    3  A    between atoms: C18_22  and  O4_24 
ROOT
HETATM    1  C1  UNL     1      -1.055  -1.838   2.539  1.00  0.00     0.030 C 
HETATM    2  C2  UNL     1      -1.789  -2.567   1.401  1.00  0.00     0.007 C 
HETATM    3  C3  UNL     1      -1.442  -1.858   0.068  1.00  0.00     0.059 C 
HETATM    4  C4  UNL     1       0.106  -1.759   0.001  1.00  0.00     0.038 C 
HETATM    5  C5  UNL     1       0.375  -0.531   0.906  1.00  0.00     0.060 C 
HETATM    6  C6  UNL     1      -0.699  -0.449   2.006  1.00  0.00     0.119 C 
HETATM    7  O1  UNL     1      -1.867   0.074   1.452  1.00  0.00    -0.331 OA
HETATM    8  C7  UNL     1      -1.974  -0.399   0.131  1.00  0.00     0.336 C 
HETATM    9  N1  UNL     1      -1.172   0.452  -0.740  1.00  0.00     0.163 N 
HETATM   10  C8  UNL     1       0.184   0.537  -0.188  1.00  0.00     0.257 C 
HETATM   11  C9  UNL     1       1.210   0.032  -1.228  1.00  0.00     0.206 C 
HETATM   12  C10 UNL     1       0.692  -1.409  -1.386  1.00  0.00     0.148 C 
HETATM   13  C12 UNL     1       2.664   0.216  -0.739  1.00  0.00     0.161 C 
HETATM   14  C13 UNL     1       2.908  -0.690   0.478  1.00  0.00     0.061 C 
HETATM   15  C14 UNL     1       1.789  -0.510   1.511  1.00  0.00     0.009 C 
HETATM   16  C15 UNL     1       2.226   0.764   2.266  1.00  0.00     0.005 C 
HETATM   17  C16 UNL     1       3.689   1.032   1.837  1.00  0.00     0.058 C 
HETATM   18  C17 UNL     1       4.143  -0.312   1.283  1.00  0.00     0.157 C 
HETATM   19  O3  UNL     1       5.288  -0.237   0.475  1.00  0.00    -0.223 OA
HETATM   20  C18 UNL     1       3.791   2.101   0.743  1.00  0.00     0.120 C 
HETATM   21  C19 UNL     1       3.005   1.711  -0.519  1.00  0.00     0.063 C 
HETATM   22  O5  UNL     1       3.543  -0.236  -1.742  1.00  0.00    -0.223 OA
HETATM   23  O6  UNL     1       1.012   0.745  -2.418  1.00  0.00    -0.219 OA
HETATM   24  C23 UNL     1      -2.079  -2.655  -1.083  1.00  0.00     0.005 C 
ENDROOT
BRANCH   9  25
HETATM   25  C21 UNL     1      -1.773   1.739  -1.070  1.00  0.00     0.253 C 
HETATM   26  C22 UNL     1      -2.153   2.672   0.093  1.00  0.00     0.037 C 
ENDBRANCH   9  25
BRANCH  12  27
HETATM   27  O2  UNL     1       1.632  -2.368  -1.780  1.00  0.00    -0.351 OA
HETATM   28  C11 UNL     1       1.857  -2.400  -3.174  1.00  0.00     0.174 C 
ENDBRANCH  12  27
BRANCH  20  29
HETATM   29  O4  UNL     1       5.151   2.305   0.455  1.00  0.00    -0.354 OA
HETATM   30  C20 UNL     1       5.446   3.601  -0.018  1.00  0.00     0.174 C 
ENDBRANCH  20  29
TORSDOF 3
