REMARK  2 active torsions:
REMARK  status: ('A' for Active; 'I' for Inactive)
REMARK    1  A    between atoms: C4_4  and  C16_17 
REMARK    2  A    between atoms: C5_5  and  C7_7 
ROOT
HETATM    1  C1  UNL     1      -0.466   1.025  -0.432  1.00  0.00     0.119 A 
HETATM    2  C2  UNL     1      -0.901  -0.004   0.394  1.00  0.00     0.119 A 
HETATM    3  C3  UNL     1      -0.003  -0.811   1.082  1.00  0.00     0.025 A 
HETATM    4  C4  UNL     1       1.376  -0.571   0.936  1.00  0.00     0.013 A 
HETATM    5  C5  UNL     1       1.800   0.464   0.081  1.00  0.00     0.002 A 
HETATM    6  C6  UNL     1       0.890   1.280  -0.606  1.00  0.00     0.026 A 
HETATM    7  O2  UNL     1      -2.284  -0.025   0.392  1.00  0.00    -0.300 OA
HETATM    8  C17 UNL     1      -2.735   1.045  -0.449  1.00  0.00     0.304 A 
HETATM    9  O3  UNL     1      -1.558   1.675  -0.970  1.00  0.00    -0.300 OA
ENDROOT
BRANCH   5  10
HETATM   10  C7  UNL     1       3.246   0.816  -0.060  1.00  0.00     0.016 A 
HETATM   11  C8  UNL     1       3.693   1.962   0.562  1.00  0.00     0.001 A 
HETATM   12  C9  UNL     1       5.072   2.310   0.608  1.00  0.00     0.000 A 
HETATM   13  C10 UNL     1       6.024   1.491   0.047  1.00  0.00     0.002 A 
HETATM   14  C11 UNL     1       5.582   0.305  -0.594  1.00  0.00     0.017 A 
HETATM   15  C12 UNL     1       4.220  -0.024  -0.669  1.00  0.00     0.060 A 
HETATM   16  C14 UNL     1       6.348  -0.702  -1.256  1.00  0.00     0.020 A 
HETATM   17  N1  UNL     1       4.207  -1.212  -1.372  1.00  0.00    -0.324 N 
HETATM   18  C13 UNL     1       5.468  -1.637  -1.738  1.00  0.00     0.076 A 
HETATM   19  C15 UNL     1       3.013  -1.959  -1.778  1.00  0.00     0.131 C 
ENDBRANCH   5  10
BRANCH   4  20
HETATM   20  C16 UNL     1       2.346  -1.414   1.738  1.00  0.00     0.209 C 
HETATM   21  O1  UNL     1       3.399  -0.649   2.310  1.00  0.00    -0.215 OA
ENDBRANCH   4  20
TORSDOF 2
