REMARK  6 active torsions:
REMARK  status: ('A' for Active; 'I' for Inactive)
REMARK    1  A    between atoms: C1_1  and  C22_25 
REMARK    2  A    between atoms: C6_6  and  C7_7 
REMARK    3  A    between atoms: C7_7  and  O1_8 
REMARK    4  A    between atoms: O1_8  and  C8_9 
REMARK    5  A    between atoms: C22_25  and  C23_26 
REMARK    6  A    between atoms: C23_26  and  C24_27 
ROOT
HETATM    1  C1  UNL     1       3.172   1.369   0.506  1.00  0.00     0.021 C 
HETATM    2  C2  UNL     1       2.316   2.028   1.583  1.00  0.00    -0.052 C 
HETATM    3  C3  UNL     1       1.647   3.285   1.068  1.00  0.00     0.021 C 
HETATM    4  C4  UNL     1       0.708   2.932  -0.086  1.00  0.00     0.004 C 
HETATM    5  C5  UNL     1       1.441   2.168  -1.208  1.00  0.00     0.003 C 
HETATM    6  C6  UNL     1       2.254   0.943  -0.689  1.00  0.00     0.031 C 
HETATM    7  C17 UNL     1       3.142   0.388  -1.828  1.00  0.00     0.003 C 
HETATM    8  C18 UNL     1       0.430   1.872  -2.332  1.00  0.00     0.000 C 
HETATM    9  C19 UNL     1       2.177   1.558   2.842  1.00  0.00    -0.051 C 
HETATM   10  C20 UNL     1       1.242   2.156   3.872  1.00  0.00     0.026 C 
HETATM   11  C21 UNL     1       2.931   0.371   3.404  1.00  0.00     0.026 C 
ENDROOT
BRANCH   6  12
HETATM   12  C7  UNL     1       1.322  -0.191  -0.181  1.00  0.00     0.149 C 
BRANCH  12  13
HETATM   13  O1  UNL     1       0.807  -0.946  -1.248  1.00  0.00    -0.331 OA
BRANCH  13  14
HETATM   14  C8  UNL     1       0.018  -2.034  -0.969  1.00  0.00     0.096 A 
HETATM   15  C9  UNL     1       0.077  -3.145  -1.822  1.00  0.00     0.049 A 
HETATM   16  C10 UNL     1      -0.644  -4.332  -1.640  1.00  0.00     0.105 A 
HETATM   17  C11 UNL     1      -1.478  -4.401  -0.511  1.00  0.00     0.023 A 
HETATM   18  O2  UNL     1      -0.514  -5.351  -2.543  1.00  0.00    -0.273 OA
HETATM   19  C12 UNL     1      -1.534  -3.330   0.392  1.00  0.00     0.004 A 
HETATM   20  C14 UNL     1      -2.271  -5.607  -0.287  1.00  0.00     0.007 A 
HETATM   21  C13 UNL     1      -0.775  -2.181   0.178  1.00  0.00     0.024 A 
HETATM   22  C15 UNL     1      -2.165  -6.624  -1.169  1.00  0.00     0.069 A 
HETATM   23  C16 UNL     1      -1.251  -6.478  -2.325  1.00  0.00     0.300 A 
HETATM   24  O3  UNL     1      -1.169  -7.425  -3.105  1.00  0.00    -0.259 OA
ENDBRANCH  13  14
ENDBRANCH  12  13
ENDBRANCH   6  12
BRANCH   1  25
HETATM   25  C22 UNL     1       4.403   2.260   0.212  1.00  0.00     0.015 C 
BRANCH  25  26
HETATM   26  C23 UNL     1       5.713   1.512  -0.098  1.00  0.00     0.098 C 
BRANCH  26  27
HETATM   27  C24 UNL     1       6.935   2.412  -0.117  1.00  0.00     0.185 C 
HETATM   28  O4  UNL     1       7.986   2.205   0.442  1.00  0.00    -0.647 OA
HETATM   29  O5  UNL     1       6.752   3.499  -0.888  1.00  0.00    -0.647 OA
ENDBRANCH  26  27
ENDBRANCH  25  26
ENDBRANCH   1  25
TORSDOF 6
