REMARK  5 active torsions:
REMARK  status: ('A' for Active; 'I' for Inactive)
REMARK    1  A    between atoms: C13_16  and  C21_27 
REMARK    2  A    between atoms: C14_17  and  C16_19 
REMARK    3  A    between atoms: C16_19  and  C19_23 
REMARK    4  A    between atoms: C17_20  and  O2_21 
REMARK    5  A    between atoms: C19_23  and  O3_24 
ROOT
HETATM    1  C1  UNL     1      -2.532   0.157  -0.405  1.00  0.00     0.028 A 
HETATM    2  C2  UNL     1      -2.471  -1.266  -0.411  1.00  0.00     0.004 A 
HETATM    3  C3  UNL     1      -1.264  -1.929  -0.465  1.00  0.00     0.019 A 
HETATM    4  C4  UNL     1      -0.095  -1.130  -0.515  1.00  0.00     0.083 A 
HETATM    5  C5  UNL     1      -0.160   0.268  -0.497  1.00  0.00     0.040 A 
HETATM    6  C6  UNL     1      -1.404   0.954  -0.438  1.00  0.00     0.132 A 
HETATM    7  O1  UNL     1      -1.494   2.308  -0.443  1.00  0.00    -0.190 OA
HETATM    8  C7  UNL     1       1.185   0.741  -0.567  1.00  0.00    -0.001 A 
HETATM    9  C8  UNL     1       2.024  -0.342  -0.640  1.00  0.00     0.086 A 
HETATM   10  N1  UNL     1       1.236  -1.484  -0.603  1.00  0.00    -0.248 NA
HETATM   11  C9  UNL     1       3.513  -0.217  -0.799  1.00  0.00     0.259 C 
HETATM   12  N2  UNL     1       3.965   1.150  -0.591  1.00  0.00     0.141 N 
HETATM   13  C10 UNL     1       3.106   2.153  -1.207  1.00  0.00     0.255 C 
HETATM   14  C11 UNL     1       1.693   2.146  -0.601  1.00  0.00     0.063 C 
HETATM   15  C12 UNL     1       5.356   1.326  -0.998  1.00  0.00     0.255 C 
HETATM   16  C13 UNL     1       6.224   0.050  -0.945  1.00  0.00     0.060 C 
HETATM   17  C14 UNL     1       5.786  -0.945   0.150  1.00  0.00     0.038 C 
HETATM   18  C15 UNL     1       4.257  -1.148   0.176  1.00  0.00     0.044 C 
ENDROOT
BRANCH  17  19
HETATM   19  C16 UNL     1       6.439  -0.650   1.501  1.00  0.00     0.065 C 
HETATM   20  C17 UNL     1       7.506  -1.370   1.930  1.00  0.00     0.117 C 
BRANCH  20  21
HETATM   21  O2  UNL     1       8.037  -2.403   1.209  1.00  0.00    -0.326 OA
HETATM   22  C18 UNL     1       9.015  -3.171   1.873  1.00  0.00     0.181 C 
ENDBRANCH  20  21
BRANCH  19  23
HETATM   23  C19 UNL     1       5.977   0.459   2.386  1.00  0.00     0.294 C 
HETATM   24  O4  UNL     1       6.691   0.800   3.327  1.00  0.00    -0.259 OA
BRANCH  23  25
HETATM   25  O3  UNL     1       4.851   1.173   2.117  1.00  0.00    -0.296 OA
HETATM   26  C20 UNL     1       4.647   2.373   2.824  1.00  0.00     0.185 C 
ENDBRANCH  23  25
ENDBRANCH  19  23
ENDBRANCH  17  19
BRANCH  16  27
HETATM   27  C21 UNL     1       6.247  -0.617  -2.312  1.00  0.00    -0.024 C 
HETATM   28  C22 UNL     1       6.891  -0.109  -3.373  1.00  0.00    -0.005 C 
ENDBRANCH  16  27
TORSDOF 5
