REMARK  4 active torsions:
REMARK  status: ('A' for Active; 'I' for Inactive)
REMARK    1  A    between atoms: C8_10  and  C10_12 
REMARK    2  A    between atoms: C13_15  and  O4_24 
REMARK    3  A    between atoms: C14_16  and  C16_19 
REMARK    4  A    between atoms: C16_19  and  C17_20 
ROOT
HETATM    1  C10 UNL     1       3.527   0.312   1.089  1.00  0.00     0.006 A 
HETATM    2  C11 UNL     1       4.913   0.374   1.239  1.00  0.00    -0.000 A 
HETATM    3  C12 UNL     1       5.745   0.454   0.127  1.00  0.00     0.024 A 
HETATM    4  C13 UNL     1       5.232   0.500  -1.175  1.00  0.00     0.096 A 
HETATM    5  C14 UNL     1       3.829   0.423  -1.333  1.00  0.00     0.047 A 
HETATM    6  C15 UNL     1       2.985   0.337  -0.208  1.00  0.00     0.129 A 
HETATM    7  O3  UNL     1       1.637   0.247  -0.335  1.00  0.00    -0.190 OA
ENDROOT
BRANCH   1   8
HETATM    8  C8  UNL     1       2.654   0.205   2.332  1.00  0.00     0.059 C 
HETATM    9  C7  UNL     1       1.702   1.392   2.489  1.00  0.00     0.153 C 
HETATM   10  O2  UNL     1       0.993   1.297   3.695  1.00  0.00    -0.331 OA
HETATM   11  C4  UNL     1       0.302   0.129   3.870  1.00  0.00     0.092 A 
HETATM   12  C3  UNL     1       0.678  -1.071   3.248  1.00  0.00     0.001 A 
HETATM   13  C5  UNL     1      -0.895   0.131   4.599  1.00  0.00     0.051 A 
HETATM   14  C2  UNL     1      -0.096  -2.223   3.422  1.00  0.00    -0.000 A 
HETATM   15  C9  UNL     1       1.916  -1.142   2.392  1.00  0.00     0.035 C 
HETATM   16  C1  UNL     1      -1.267  -2.192   4.177  1.00  0.00     0.027 A 
HETATM   17  C6  UNL     1      -1.691  -1.005   4.777  1.00  0.00     0.133 A 
HETATM   18  O1  UNL     1      -2.850  -0.962   5.485  1.00  0.00    -0.190 OA
ENDBRANCH   1   8
BRANCH   5  19
HETATM   19  C16 UNL     1       3.349   0.431  -2.784  1.00  0.00     0.003 C 
BRANCH  19  20
HETATM   20  C17 UNL     1       1.903   0.442  -3.218  1.00  0.00    -0.008 C 
HETATM   21  C18 UNL     1       1.488   0.523  -4.497  1.00  0.00    -0.044 C 
HETATM   22  C19 UNL     1       0.018   0.500  -4.851  1.00  0.00     0.026 C 
HETATM   23  C20 UNL     1       2.413   0.632  -5.686  1.00  0.00     0.026 C 
ENDBRANCH  19  20
ENDBRANCH   5  19
BRANCH   4  24
HETATM   24  O4  UNL     1       6.029   0.548  -2.296  1.00  0.00    -0.328 OA
HETATM   25  C21 UNL     1       7.415   0.333  -2.162  1.00  0.00     0.181 C 
ENDBRANCH   4  24
TORSDOF 4
