REMARK  5 active torsions:
REMARK  status: ('A' for Active; 'I' for Inactive)
REMARK    1  A    between atoms: C16_18  and  C19_22 
REMARK    2  A    between atoms: C21_24  and  C22_25 
REMARK    3  A    between atoms: C22_25  and  C23_27 
REMARK    4  A    between atoms: C23_27  and  C24_28 
REMARK    5  A    between atoms: C24_28  and  C26_30 
ROOT
HETATM    1  C1  UNL     1      -2.068  -1.447  -0.142  1.00  0.00     0.033 C 
HETATM    2  C2  UNL     1      -2.075  -2.827  -0.782  1.00  0.00     0.152 C 
HETATM    3  C3  UNL     1      -0.909  -3.713  -0.307  1.00  0.00     0.029 C 
HETATM    4  C4  UNL     1       0.423  -2.914  -0.470  1.00  0.00     0.014 C 
HETATM    5  C5  UNL     1       0.514  -1.463   0.086  1.00  0.00     0.022 C 
HETATM    6  C6  UNL     1      -0.747  -0.715  -0.412  1.00  0.00     0.007 C 
HETATM    7  C7  UNL     1       1.834  -0.809  -0.384  1.00  0.00     0.011 C 
HETATM    8  C8  UNL     1       2.950  -1.542  -0.653  1.00  0.00     0.013 C 
HETATM    9  C9  UNL     1       2.921  -3.029  -0.581  1.00  0.00     0.169 C 
HETATM   10  C10 UNL     1       1.671  -3.712  -0.081  1.00  0.00     0.069 C 
HETATM   11  O1  UNL     1       3.873  -3.719  -0.913  1.00  0.00    -0.292 OA
HETATM   12  C11 UNL     1       4.239  -0.869  -1.101  1.00  0.00     0.050 C 
HETATM   13  C12 UNL     1       4.447   0.402  -0.225  1.00  0.00     0.017 C 
HETATM   14  C13 UNL     1       3.312   1.376  -0.544  1.00  0.00     0.070 C 
HETATM   15  C14 UNL     1       1.955   0.692  -0.437  1.00  0.00     0.169 C 
HETATM   16  O2  UNL     1       0.999   1.448  -0.354  1.00  0.00    -0.292 OA
HETATM   17  C15 UNL     1       4.371   0.070   1.288  1.00  0.00     0.001 C 
HETATM   18  C16 UNL     1       5.853   0.864  -0.677  1.00  0.00     0.022 C 
HETATM   19  C17 UNL     1       6.646  -0.452  -0.759  1.00  0.00     0.037 C 
HETATM   20  C18 UNL     1       5.592  -1.567  -0.855  1.00  0.00     0.156 C 
HETATM   21  O3  UNL     1       5.935  -2.474  -1.874  1.00  0.00    -0.223 OA
HETATM   22  C27 UNL     1       4.038  -0.643  -2.623  1.00  0.00     0.007 C 
HETATM   23  C28 UNL     1       0.586  -1.358   1.627  1.00  0.00     0.004 C 
HETATM   24  C29 UNL     1      -0.895  -4.966  -1.228  1.00  0.00     0.003 C 
HETATM   25  C30 UNL     1      -1.142  -4.246   1.124  1.00  0.00     0.003 C 
HETATM   26  O7  UNL     1      -3.320  -3.436  -0.524  1.00  0.00    -0.224 OA
ENDROOT
BRANCH  18  27
HETATM   27  C19 UNL     1       6.620   2.011  -0.038  1.00  0.00    -0.041 C 
HETATM   28  C20 UNL     1       7.310   2.900  -1.052  1.00  0.00     0.026 C 
HETATM   29  C21 UNL     1       6.797   2.134   1.292  1.00  0.00     0.029 C 
BRANCH  29  30
HETATM   30  C22 UNL     1       7.516   3.204   2.048  1.00  0.00     0.173 C 
HETATM   31  O4  UNL     1       8.097   2.886   3.080  1.00  0.00    -0.291 OA
BRANCH  30  32
HETATM   32  C23 UNL     1       7.413   4.685   1.704  1.00  0.00     0.080 C 
BRANCH  32  33
HETATM   33  C24 UNL     1       6.067   5.197   1.159  1.00  0.00     0.095 C 
HETATM   34  C25 UNL     1       4.896   4.870   2.101  1.00  0.00     0.012 C 
BRANCH  33  35
HETATM   35  C26 UNL     1       6.156   6.698   0.908  1.00  0.00     0.185 C 
HETATM   36  O5  UNL     1       6.740   6.975  -0.273  1.00  0.00    -0.647 OA
HETATM   37  O6  UNL     1       5.765   7.577   1.638  1.00  0.00    -0.647 OA
ENDBRANCH  33  35
ENDBRANCH  32  33
ENDBRANCH  30  32
ENDBRANCH  29  30
ENDBRANCH  18  27
TORSDOF 5
