REMARK  6 active torsions:
REMARK  status: ('A' for Active; 'I' for Inactive)
REMARK    1  A    between atoms: C16_18  and  C19_22 
REMARK    2  A    between atoms: C19_22  and  C21_24 
REMARK    3  A    between atoms: C21_24  and  C22_25 
REMARK    4  A    between atoms: C22_25  and  C23_26 
REMARK    5  A    between atoms: C23_26  and  C24_27 
REMARK    6  A    between atoms: C24_27  and  C25_28 
ROOT
HETATM    1  C1  UNL     1      -2.239  -1.526   0.123  1.00  0.00     0.033 C 
HETATM    2  C2  UNL     1      -2.137  -2.922  -0.470  1.00  0.00     0.152 C 
HETATM    3  C3  UNL     1      -0.879  -3.688  -0.016  1.00  0.00     0.029 C 
HETATM    4  C4  UNL     1       0.376  -2.782  -0.229  1.00  0.00     0.009 C 
HETATM    5  C5  UNL     1       0.328  -1.314   0.289  1.00  0.00     0.021 C 
HETATM    6  C6  UNL     1      -0.997  -0.692  -0.211  1.00  0.00     0.007 C 
HETATM    7  C7  UNL     1       1.575  -0.560  -0.210  1.00  0.00     0.007 C 
HETATM    8  C8  UNL     1       2.746  -1.196  -0.469  1.00  0.00    -0.010 C 
HETATM    9  C9  UNL     1       2.896  -2.698  -0.406  1.00  0.00     0.171 C 
HETATM   10  C10 UNL     1       1.701  -3.431   0.193  1.00  0.00     0.038 C 
HETATM   11  O1  UNL     1       4.038  -3.072   0.344  1.00  0.00    -0.219 OA
HETATM   12  C11 UNL     1       3.931  -0.376  -0.950  1.00  0.00     0.069 C 
HETATM   13  C12 UNL     1       4.096   0.821   0.027  1.00  0.00     0.017 C 
HETATM   14  C13 UNL     1       2.883   1.720  -0.232  1.00  0.00     0.070 C 
HETATM   15  C14 UNL     1       1.575   0.939  -0.292  1.00  0.00     0.169 C 
HETATM   16  O2  UNL     1       0.558   1.615  -0.359  1.00  0.00    -0.292 OA
HETATM   17  C15 UNL     1       4.078   0.368   1.509  1.00  0.00     0.001 C 
HETATM   18  C16 UNL     1       5.492   1.407  -0.312  1.00  0.00     0.009 C 
HETATM   19  C17 UNL     1       6.333   0.127  -0.503  1.00  0.00     0.065 C 
HETATM   20  C18 UNL     1       5.348  -0.936  -0.956  1.00  0.00     0.153 C 
HETATM   21  O3  UNL     1       5.670  -2.029  -1.357  1.00  0.00    -0.296 OA
HETATM   22  C27 UNL     1       3.676  -0.053  -2.443  1.00  0.00     0.011 C 
HETATM   23  C28 UNL     1       0.402  -1.143   1.826  1.00  0.00     0.004 C 
HETATM   24  C29 UNL     1      -0.777  -4.949  -0.919  1.00  0.00     0.003 C 
HETATM   25  C30 UNL     1      -1.026  -4.215   1.429  1.00  0.00     0.003 C 
HETATM   26  O7  UNL     1      -3.314  -3.627  -0.147  1.00  0.00    -0.224 OA
ENDROOT
BRANCH  18  27
HETATM   27  C19 UNL     1       6.160   2.443   0.627  1.00  0.00     0.008 C 
HETATM   28  C20 UNL     1       5.278   3.689   0.847  1.00  0.00     0.001 C 
BRANCH  27  29
HETATM   29  C21 UNL     1       7.530   2.909   0.073  1.00  0.00     0.065 C 
BRANCH  29  30
HETATM   30  C22 UNL     1       8.748   2.100   0.490  1.00  0.00     0.151 C 
HETATM   31  O6  UNL     1       8.665   1.227   1.325  1.00  0.00    -0.296 OA
BRANCH  30  32
HETATM   32  C23 UNL     1      10.088   2.381  -0.180  1.00  0.00     0.075 C 
BRANCH  32  33
HETATM   33  C24 UNL     1      10.542   3.851  -0.311  1.00  0.00     0.095 C 
HETATM   34  C26 UNL     1      10.007   4.531  -1.584  1.00  0.00     0.012 C 
BRANCH  33  35
HETATM   35  C25 UNL     1      10.308   4.711   0.924  1.00  0.00     0.185 C 
HETATM   36  O4  UNL     1      10.035   5.888   0.936  1.00  0.00    -0.647 OA
HETATM   37  O5  UNL     1      10.453   4.019   2.066  1.00  0.00    -0.647 OA
ENDBRANCH  33  35
ENDBRANCH  32  33
ENDBRANCH  30  32
ENDBRANCH  29  30
ENDBRANCH  27  29
ENDBRANCH  18  27
TORSDOF 6
