REMARK  5 active torsions:
REMARK  status: ('A' for Active; 'I' for Inactive)
REMARK    1  A    between atoms: C15_15  and  C18_18 
REMARK    2  A    between atoms: C18_18  and  C19_19 
REMARK    3  A    between atoms: C19_19  and  C20_20 
REMARK    4  A    between atoms: C20_20  and  C21_21 
REMARK    5  A    between atoms: C22_22  and  C24_24 
ROOT
HETATM    1  C1  UNL     1      -2.099   0.637  -2.522  1.00  0.00     0.065 C 
HETATM    2  C2  UNL     1      -2.603  -0.662  -3.131  1.00  0.00     0.150 C 
HETATM    3  C3  UNL     1      -2.087  -1.978  -2.536  1.00  0.00     0.051 C 
HETATM    4  C4  UNL     1      -0.876  -1.662  -1.617  1.00  0.00     0.006 C 
HETATM    5  C5  UNL     1      -1.043  -0.592  -0.507  1.00  0.00     0.001 C 
HETATM    6  C6  UNL     1      -2.021   0.508  -0.998  1.00  0.00     0.008 C 
HETATM    7  C7  UNL     1       0.377  -0.056  -0.079  1.00  0.00     0.005 C 
HETATM    8  C8  UNL     1       1.596  -0.982  -0.380  1.00  0.00     0.004 C 
HETATM    9  C9  UNL     1       1.152  -2.454  -0.242  1.00  0.00     0.000 C 
HETATM   10  C10 UNL     1      -0.018  -2.855  -1.161  1.00  0.00     0.000 C 
HETATM   11  C11 UNL     1       2.728  -0.638   0.652  1.00  0.00     0.015 C 
HETATM   12  C12 UNL     1       3.072   0.826   0.486  1.00  0.00    -0.049 C 
HETATM   13  C13 UNL     1       2.196   1.722   0.001  1.00  0.00    -0.035 C 
HETATM   14  C14 UNL     1       0.768   1.402  -0.389  1.00  0.00     0.025 C 
HETATM   15  C15 UNL     1       4.534   1.105   0.779  1.00  0.00     0.018 C 
HETATM   16  C16 UNL     1       5.154  -0.315   0.807  1.00  0.00     0.004 C 
HETATM   17  C17 UNL     1       4.081  -1.313   0.343  1.00  0.00     0.004 C 
HETATM   18  C26 UNL     1       2.419  -0.889   2.149  1.00  0.00     0.004 C 
HETATM   19  C27 UNL     1       2.159  -0.744  -1.817  1.00  0.00     0.000 C 
HETATM   20  C28 UNL     1      -1.710  -1.204   0.761  1.00  0.00     0.000 C 
HETATM   21  C29 UNL     1      -1.654  -2.877  -3.720  1.00  0.00     0.007 C 
HETATM   22  C30 UNL     1      -3.272  -2.674  -1.843  1.00  0.00     0.007 C 
HETATM   23  O3  UNL     1      -3.388  -0.642  -4.053  1.00  0.00    -0.296 OA
ENDROOT
BRANCH  15  24
HETATM   24  C18 UNL     1       4.844   1.929   2.056  1.00  0.00     0.004 C 
HETATM   25  C25 UNL     1       3.791   3.009   2.369  1.00  0.00     0.000 C 
BRANCH  24  26
HETATM   26  C19 UNL     1       6.234   2.613   2.016  1.00  0.00     0.005 C 
BRANCH  26  27
HETATM   27  C20 UNL     1       7.418   1.668   1.770  1.00  0.00     0.026 C 
BRANCH  27  28
HETATM   28  C21 UNL     1       8.771   2.333   1.851  1.00  0.00    -0.024 C 
HETATM   29  C22 UNL     1       9.929   1.749   1.465  1.00  0.00     0.038 C 
HETATM   30  C23 UNL     1      10.017   0.343   0.921  1.00  0.00     0.037 C 
BRANCH  29  31
HETATM   31  C24 UNL     1      11.200   2.511   1.571  1.00  0.00     0.206 C 
HETATM   32  O1  UNL     1      12.378   1.983   1.177  1.00  0.00    -0.644 OA
HETATM   33  O2  UNL     1      11.236   3.653   2.014  1.00  0.00    -0.644 OA
ENDBRANCH  29  31
ENDBRANCH  27  28
ENDBRANCH  26  27
ENDBRANCH  24  26
ENDBRANCH  15  24
TORSDOF 5
