REMARK  5 active torsions:
REMARK  status: ('A' for Active; 'I' for Inactive)
REMARK    1  A    between atoms: C3_3  and  O3_16 
REMARK    2  A    between atoms: C4_4  and  C7_8 
REMARK    3  A    between atoms: C7_8  and  C8_10 
REMARK    4  A    between atoms: O3_16  and  C14_17 
REMARK    5  A    between atoms: C18_21  and  C19_23 
ROOT
HETATM    1  C1  UNL     1       0.239   4.182  -0.479  1.00  0.00     0.135 A 
HETATM    2  C2  UNL     1       0.937   2.973  -0.420  1.00  0.00     0.052 A 
HETATM    3  C3  UNL     1       0.394   1.715  -0.723  1.00  0.00     0.104 A 
HETATM    4  C4  UNL     1      -0.979   1.727  -1.046  1.00  0.00     0.087 A 
HETATM    5  C5  UNL     1      -1.726   2.909  -1.131  1.00  0.00     0.138 A 
HETATM    6  C6  UNL     1      -1.101   4.127  -0.855  1.00  0.00     0.055 A 
HETATM    7  O1  UNL     1      -3.034   2.893  -1.497  1.00  0.00    -0.190 OA
HETATM    8  O9  UNL     1       0.842   5.373  -0.215  1.00  0.00    -0.190 OA
ENDROOT
BRANCH   3   9
HETATM    9  O3  UNL     1       1.266   0.652  -0.616  1.00  0.00    -0.303 OA
BRANCH   9  10
HETATM   10  C14 UNL     1       0.868  -0.672  -0.363  1.00  0.00     0.274 C 
HETATM   11  C15 UNL     1       1.590  -1.657  -1.256  1.00  0.00     0.241 C 
HETATM   12  C16 UNL     1       3.025  -1.892  -0.830  1.00  0.00     0.220 C 
HETATM   13  O8  UNL     1       0.891  -2.883  -1.224  1.00  0.00    -0.215 OA
HETATM   14  C17 UNL     1       3.083  -2.145   0.664  1.00  0.00     0.215 C 
HETATM   15  O7  UNL     1       3.813  -0.776  -1.168  1.00  0.00    -0.218 OA
HETATM   16  C18 UNL     1       2.303  -1.135   1.494  1.00  0.00     0.184 C 
HETATM   17  O6  UNL     1       2.547  -3.428   0.910  1.00  0.00    -0.218 OA
HETATM   18  O4  UNL     1       0.999  -0.950   1.014  1.00  0.00    -0.326 OA
BRANCH  16  19
HETATM   19  C19 UNL     1       3.012   0.183   1.781  1.00  0.00     0.214 C 
HETATM   20  O5  UNL     1       4.214  -0.065   2.482  1.00  0.00    -0.218 OA
ENDBRANCH  16  19
ENDBRANCH   9  10
ENDBRANCH   3   9
BRANCH   4  21
HETATM   21  C7  UNL     1      -1.759   0.478  -1.449  1.00  0.00     0.199 C 
HETATM   22  O2  UNL     1      -1.707   0.091  -2.608  1.00  0.00    -0.286 OA
BRANCH  21  23
HETATM   23  C8  UNL     1      -2.462  -0.264  -0.367  1.00  0.00     0.039 A 
HETATM   24  C9  UNL     1      -2.487   0.219   0.952  1.00  0.00     0.003 A 
HETATM   25  C10 UNL     1      -3.078  -0.536   1.965  1.00  0.00     0.000 A 
HETATM   26  C11 UNL     1      -3.643  -1.781   1.674  1.00  0.00     0.000 A 
HETATM   27  C12 UNL     1      -3.621  -2.268   0.367  1.00  0.00     0.000 A 
HETATM   28  C13 UNL     1      -3.030  -1.515  -0.651  1.00  0.00     0.003 A 
ENDBRANCH  21  23
ENDBRANCH   4  21
TORSDOF 5
