REMARK  2 active torsions:
REMARK  status: ('A' for Active; 'I' for Inactive)
REMARK    1  A    between atoms: C6_7  and  C22_28 
REMARK    2  A    between atoms: C22_28  and  C23_29 
ROOT
HETATM    1  C1  UNL     1      -1.703  -0.203   0.262  1.00  0.00     0.117 C 
HETATM    2  C2  UNL     1      -1.647  -1.631  -0.218  1.00  0.00     0.001 C 
HETATM    3  C3  UNL     1      -0.483  -2.303  -0.223  1.00  0.00     0.002 C 
HETATM    4  C4  UNL     1       0.732  -1.584   0.168  1.00  0.00     0.049 A 
HETATM    5  C5  UNL     1       0.675  -0.182   0.247  1.00  0.00     0.093 A 
HETATM    6  O1  UNL     1      -0.503   0.477   0.010  1.00  0.00    -0.332 OA
HETATM    7  C6  UNL     1       1.841   0.517   0.626  1.00  0.00     0.010 A 
HETATM    8  C7  UNL     1       3.040  -0.210   0.772  1.00  0.00     0.062 A 
HETATM    9  C8  UNL     1       3.091  -1.609   0.646  1.00  0.00     0.128 A 
HETATM   10  C9  UNL     1       1.917  -2.307   0.369  1.00  0.00     0.155 A 
HETATM   11  O2  UNL     1       1.968  -3.662   0.261  1.00  0.00    -0.188 OA
HETATM   12  O3  UNL     1       4.247  -2.312   0.827  1.00  0.00    -0.305 OA
HETATM   13  C10 UNL     1       5.364  -1.701   0.346  1.00  0.00     0.107 A 
HETATM   14  C11 UNL     1       5.522  -0.309   0.428  1.00  0.00     0.087 A 
HETATM   15  C12 UNL     1       4.364   0.456   0.973  1.00  0.00     0.201 C 
HETATM   16  O4  UNL     1       4.525   1.569   1.458  1.00  0.00    -0.286 OA
HETATM   17  C13 UNL     1       6.678   0.336  -0.035  1.00  0.00     0.138 A 
HETATM   18  C14 UNL     1       7.699  -0.469  -0.572  1.00  0.00     0.048 A 
HETATM   19  C15 UNL     1       7.581  -1.862  -0.695  1.00  0.00     0.098 A 
HETATM   20  C16 UNL     1       6.413  -2.447  -0.194  1.00  0.00     0.049 A 
HETATM   21  O5  UNL     1       8.581  -2.651  -1.200  1.00  0.00    -0.331 OA
HETATM   22  C17 UNL     1       9.889  -2.151  -1.104  1.00  0.00     0.117 C 
HETATM   23  C18 UNL     1       9.948  -0.674  -1.415  1.00  0.00     0.001 C 
HETATM   24  C19 UNL     1       8.917   0.136  -1.119  1.00  0.00     0.002 C 
HETATM   25  C20 UNL     1      10.751  -2.935  -2.099  1.00  0.00     0.035 C 
HETATM   26  C21 UNL     1      10.405  -2.378   0.323  1.00  0.00     0.035 C 
HETATM   27  O6  UNL     1       6.832   1.689   0.004  1.00  0.00    -0.190 OA
HETATM   28  C27 UNL     1      -2.813   0.559  -0.468  1.00  0.00     0.035 C 
HETATM   29  C28 UNL     1      -1.974  -0.193   1.772  1.00  0.00     0.035 C 
ENDROOT
BRANCH   7  30
HETATM   30  C22 UNL     1       1.853   2.034   0.776  1.00  0.00     0.054 C 
BRANCH  30  31
HETATM   31  C23 UNL     1       0.543   2.764   0.940  1.00  0.00    -0.030 C 
HETATM   32  C24 UNL     1       0.077   3.798   0.216  1.00  0.00    -0.048 C 
HETATM   33  C25 UNL     1      -1.270   4.414   0.526  1.00  0.00     0.026 C 
HETATM   34  C26 UNL     1       0.798   4.459  -0.935  1.00  0.00     0.026 C 
ENDBRANCH  30  31
ENDBRANCH   7  30
TORSDOF 2
