REMARK  10 active torsions:
REMARK  status: ('A' for Active; 'I' for Inactive)
REMARK    1  A    between atoms: C6_6  and  O1_7 
REMARK    2  A    between atoms: C9_10  and  C23_29 
REMARK    3  A    between atoms: C10_11  and  C20_24 
REMARK    4  A    between atoms: C11_12  and  C12_13 
REMARK    5  A    between atoms: C14_15  and  O4_22 
REMARK    6  A    between atoms: C16_17  and  O2_19 
REMARK    7  A    between atoms: C20_24  and  O5_25 
REMARK    8  A    between atoms: O5_25  and  C21_26 
REMARK    9  A    between atoms: C23_29  and  O7_30 
REMARK   10  A    between atoms: O7_30  and  C24_31 
ROOT
HETATM    1  C1  UNL     1       0.016  -0.499   0.892  1.00  0.00     0.153 C 
HETATM    2  C2  UNL     1       1.163   0.294   0.943  1.00  0.00     0.025 C 
HETATM    3  C3  UNL     1       2.452  -0.247   0.894  1.00  0.00    -0.020 C 
HETATM    4  C4  UNL     1       2.595  -1.638   0.818  1.00  0.00    -0.024 C 
HETATM    5  C5  UNL     1       1.438  -2.423   0.757  1.00  0.00     0.022 C 
HETATM    6  C6  UNL     1       0.147  -1.883   0.715  1.00  0.00     0.119 C 
HETATM    7  C8  UNL     1       3.946  -2.316   0.861  1.00  0.00     0.029 C 
HETATM    8  C9  UNL     1       5.147  -1.373   0.676  1.00  0.00     0.038 C 
HETATM    9  C10 UNL     1       4.922  -0.038   1.420  1.00  0.00     0.041 C 
HETATM   10  C11 UNL     1       3.641   0.683   0.952  1.00  0.00     0.047 C 
HETATM   11  O9  UNL     1      -1.225   0.047   0.981  1.00  0.00    -0.188 OA
ENDROOT
BRANCH  10  12
HETATM   12  C12 UNL     1       3.826   1.461  -0.340  1.00  0.00    -0.014 C 
HETATM   13  C13 UNL     1       4.534   2.667  -0.333  1.00  0.00     0.022 C 
HETATM   14  C14 UNL     1       4.726   3.445  -1.483  1.00  0.00     0.121 C 
HETATM   15  C15 UNL     1       4.184   2.964  -2.686  1.00  0.00     0.175 C 
HETATM   16  C16 UNL     1       3.535   1.723  -2.754  1.00  0.00     0.121 C 
HETATM   17  O3  UNL     1       4.308   3.688  -3.833  1.00  0.00    -0.186 OA
HETATM   18  C17 UNL     1       3.293   1.038  -1.560  1.00  0.00     0.022 C 
BRANCH  14  19
HETATM   19  O4  UNL     1       5.348   4.670  -1.497  1.00  0.00    -0.326 OA
HETATM   20  C19 UNL     1       5.604   5.307  -0.267  1.00  0.00     0.181 C 
ENDBRANCH  14  19
BRANCH  16  21
HETATM   21  O2  UNL     1       2.977   1.304  -3.932  1.00  0.00    -0.326 OA
HETATM   22  C18 UNL     1       3.724   0.298  -4.578  1.00  0.00     0.181 C 
ENDBRANCH  16  21
ENDBRANCH  10  12
BRANCH   9  23
HETATM   23  C20 UNL     1       4.907  -0.267   2.945  1.00  0.00     0.152 C 
BRANCH  23  24
HETATM   24  O5  UNL     1       5.007   0.968   3.606  1.00  0.00    -0.302 OA
BRANCH  24  25
HETATM   25  C21 UNL     1       5.051   1.048   4.966  1.00  0.00     0.272 C 
HETATM   26  O6  UNL     1       5.159   2.108   5.546  1.00  0.00    -0.264 OA
HETATM   27  C22 UNL     1       4.946  -0.264   5.725  1.00  0.00     0.106 C 
ENDBRANCH  24  25
ENDBRANCH  23  24
ENDBRANCH   9  23
BRANCH   8  28
HETATM   28  C23 UNL     1       5.522  -1.205  -0.802  1.00  0.00     0.152 C 
BRANCH  28  29
HETATM   29  O7  UNL     1       6.275  -2.314  -1.225  1.00  0.00    -0.302 OA
BRANCH  29  30
HETATM   30  C24 UNL     1       6.719  -2.289  -2.511  1.00  0.00     0.272 C 
HETATM   31  C25 UNL     1       7.588  -3.499  -2.790  1.00  0.00     0.106 C 
HETATM   32  O8  UNL     1       6.473  -1.415  -3.312  1.00  0.00    -0.264 OA
ENDBRANCH  29  30
ENDBRANCH  28  29
ENDBRANCH   8  28
BRANCH   6  33
HETATM   33  O1  UNL     1      -0.965  -2.680   0.735  1.00  0.00    -0.326 OA
HETATM   34  C7  UNL     1      -1.441  -3.010  -0.550  1.00  0.00     0.181 C 
ENDBRANCH   6  33
TORSDOF 10
