REMARK  11 active torsions:
REMARK  status: ('A' for Active; 'I' for Inactive)
REMARK    1  A    between atoms: C2_2  and  O9_34 
REMARK    2  A    between atoms: C6_6  and  O1_7 
REMARK    3  A    between atoms: C9_10  and  C23_29 
REMARK    4  A    between atoms: C10_11  and  C20_24 
REMARK    5  A    between atoms: C11_12  and  C12_13 
REMARK    6  A    between atoms: C14_15  and  O4_22 
REMARK    7  A    between atoms: C16_17  and  O2_19 
REMARK    8  A    between atoms: C20_24  and  O5_25 
REMARK    9  A    between atoms: O5_25  and  C21_26 
REMARK   10  A    between atoms: C23_29  and  O7_30 
REMARK   11  A    between atoms: O7_30  and  C24_31 
ROOT
HETATM    1  C1  UNL     1       0.098  -0.523   1.017  1.00  0.00     0.175 C 
HETATM    2  C2  UNL     1       1.251   0.277   0.964  1.00  0.00     0.117 C 
HETATM    3  C3  UNL     1       2.508  -0.351   0.854  1.00  0.00     0.002 C 
HETATM    4  C4  UNL     1       2.602  -1.742   0.701  1.00  0.00    -0.022 C 
HETATM    5  C5  UNL     1       1.421  -2.489   0.679  1.00  0.00     0.022 C 
HETATM    6  C6  UNL     1       0.157  -1.901   0.769  1.00  0.00     0.121 C 
HETATM    7  C8  UNL     1       3.920  -2.484   0.650  1.00  0.00     0.029 C 
HETATM    8  C9  UNL     1       5.179  -1.607   0.542  1.00  0.00     0.038 C 
HETATM    9  C10 UNL     1       5.007  -0.304   1.348  1.00  0.00     0.041 C 
HETATM   10  C11 UNL     1       3.764   0.494   0.905  1.00  0.00     0.049 C 
HETATM   11  O10 UNL     1      -1.121   0.031   1.261  1.00  0.00    -0.186 OA
ENDROOT
BRANCH  10  12
HETATM   12  C12 UNL     1       3.967   1.266  -0.386  1.00  0.00    -0.014 C 
HETATM   13  C13 UNL     1       4.657   2.482  -0.374  1.00  0.00     0.022 C 
HETATM   14  C14 UNL     1       4.844   3.264  -1.523  1.00  0.00     0.121 C 
HETATM   15  C15 UNL     1       4.314   2.776  -2.729  1.00  0.00     0.175 C 
HETATM   16  C16 UNL     1       3.687   1.524  -2.803  1.00  0.00     0.121 C 
HETATM   17  O3  UNL     1       4.430   3.504  -3.874  1.00  0.00    -0.186 OA
HETATM   18  C17 UNL     1       3.449   0.836  -1.610  1.00  0.00     0.022 C 
BRANCH  14  19
HETATM   19  O4  UNL     1       5.440   4.501  -1.531  1.00  0.00    -0.326 OA
HETATM   20  C19 UNL     1       5.652   5.150  -0.299  1.00  0.00     0.181 C 
ENDBRANCH  14  19
BRANCH  16  21
HETATM   21  O2  UNL     1       3.134   1.101  -3.983  1.00  0.00    -0.326 OA
HETATM   22  C18 UNL     1       3.899   0.116  -4.638  1.00  0.00     0.181 C 
ENDBRANCH  16  21
ENDBRANCH  10  12
BRANCH   9  23
HETATM   23  C20 UNL     1       4.964  -0.607   2.860  1.00  0.00     0.152 C 
BRANCH  23  24
HETATM   24  O5  UNL     1       5.124   0.585   3.583  1.00  0.00    -0.302 OA
BRANCH  24  25
HETATM   25  C21 UNL     1       5.122   0.600   4.947  1.00  0.00     0.272 C 
HETATM   26  O6  UNL     1       5.297   1.619   5.581  1.00  0.00    -0.264 OA
HETATM   27  C22 UNL     1       4.875  -0.730   5.638  1.00  0.00     0.106 C 
ENDBRANCH  24  25
ENDBRANCH  23  24
ENDBRANCH   9  23
BRANCH   2  28
HETATM   28  O9  UNL     1       1.155   1.623   1.219  1.00  0.00    -0.326 OA
HETATM   29  C26 UNL     1       0.670   2.399   0.146  1.00  0.00     0.181 C 
ENDBRANCH   2  28
BRANCH   8  30
HETATM   30  C23 UNL     1       5.621  -1.392  -0.913  1.00  0.00     0.152 C 
BRANCH  30  31
HETATM   31  O7  UNL     1       6.460  -2.446  -1.311  1.00  0.00    -0.302 OA
BRANCH  31  32
HETATM   32  C24 UNL     1       6.966  -2.375  -2.572  1.00  0.00     0.272 C 
HETATM   33  C25 UNL     1       7.954  -3.501  -2.804  1.00  0.00     0.106 C 
HETATM   34  O8  UNL     1       6.691  -1.518  -3.382  1.00  0.00    -0.264 OA
ENDBRANCH  31  32
ENDBRANCH  30  31
ENDBRANCH   8  30
BRANCH   6  35
HETATM   35  O1  UNL     1      -0.977  -2.663   0.864  1.00  0.00    -0.326 OA
HETATM   36  C7  UNL     1      -1.611  -2.881  -0.375  1.00  0.00     0.181 C 
ENDBRANCH   6  35
TORSDOF 11
