REMARK  13 active torsions:
REMARK  status: ('A' for Active; 'I' for Inactive)
REMARK    1  A    between atoms: C5_5  and  C7_8 
REMARK    2  A    between atoms: C7_8  and  C8_9 
REMARK    3  A    between atoms: C8_9  and  C9_10 
REMARK    4  A    between atoms: C9_10  and  C10_11 
REMARK    5  A    between atoms: C14_15  and  C16_18 
REMARK    6  A    between atoms: C16_18  and  C17_19 
REMARK    7  A    between atoms: C18_20  and  C19_21 
REMARK    8  A    between atoms: C19_21  and  O3_22 
REMARK    9  A    between atoms: O3_22  and  C20_23 
REMARK   10  A    between atoms: C20_23  and  C21_25 
REMARK   11  A    between atoms: C21_25  and  C22_26 
REMARK   12  A    between atoms: C22_26  and  C23_27 
REMARK   13  A    between atoms: C25_29  and  O6_34 
ROOT
HETATM    1  C10 UNL     1      -0.387   3.436  -0.634  1.00  0.00     0.025 C 
HETATM    2  C11 UNL     1      -1.349   3.645   0.510  1.00  0.00     0.037 C 
HETATM    3  C12 UNL     1      -2.597   2.795   0.508  1.00  0.00     0.059 C 
HETATM    4  C13 UNL     1      -2.461   1.403  -0.073  1.00  0.00     0.107 C 
HETATM    5  C14 UNL     1      -1.028   0.990  -0.355  1.00  0.00     0.029 C 
HETATM    6  C15 UNL     1      -0.235   2.018  -1.142  1.00  0.00     0.127 C 
HETATM    7  O2  UNL     1       0.836   1.672  -1.902  1.00  0.00    -0.191 OA
HETATM    8  O7  UNL     1      -3.402   0.456   0.170  1.00  0.00    -0.195 OA
ENDROOT
BRANCH   5   9
HETATM    9  C16 UNL     1      -0.359   0.108   0.675  1.00  0.00     0.056 C 
BRANCH   9  10
HETATM   10  C17 UNL     1       1.131  -0.043   0.505  1.00  0.00    -0.027 C 
HETATM   11  C18 UNL     1       1.800  -1.129   0.075  1.00  0.00    -0.018 C 
HETATM   12  C30 UNL     1       1.147  -2.418  -0.366  1.00  0.00     0.029 C 
BRANCH  11  13
HETATM   13  C19 UNL     1       3.314  -1.147  -0.030  1.00  0.00     0.173 C 
BRANCH  13  14
HETATM   14  O3  UNL     1       3.943  -0.265   0.873  1.00  0.00    -0.305 OA
BRANCH  14  15
HETATM   15  C20 UNL     1       5.294  -0.109   0.782  1.00  0.00     0.225 C 
HETATM   16  O4  UNL     1       5.909   0.726   1.601  1.00  0.00    -0.164 OA
BRANCH  15  17
HETATM   17  C21 UNL     1       6.192  -0.771  -0.261  1.00  0.00     0.031 C 
BRANCH  17  18
HETATM   18  C22 UNL     1       6.267  -2.266  -0.417  1.00  0.00     0.052 C 
BRANCH  18  19
HETATM   19  C23 UNL     1       7.100  -3.113   0.497  1.00  0.00    -0.037 C 
HETATM   20  C24 UNL     1       6.641  -4.466   0.817  1.00  0.00     0.075 C 
HETATM   21  C25 UNL     1       7.477  -5.367   1.701  1.00  0.00     0.097 C 
HETATM   22  C26 UNL     1       8.957  -5.077   1.585  1.00  0.00     0.131 C 
HETATM   23  C27 UNL     1       9.248  -3.598   1.631  1.00  0.00     0.081 C 
HETATM   24  O5  UNL     1       9.832  -5.986   2.086  1.00  0.00    -0.193 OA
HETATM   25  C28 UNL     1       8.335  -2.696   0.864  1.00  0.00    -0.027 C 
BRANCH  21  26
HETATM   26  O6  UNL     1       7.072  -6.548   2.258  1.00  0.00    -0.330 OA
HETATM   27  C29 UNL     1       5.828  -7.061   1.845  1.00  0.00     0.181 C 
ENDBRANCH  21  26
ENDBRANCH  18  19
ENDBRANCH  17  18
ENDBRANCH  15  17
ENDBRANCH  14  15
ENDBRANCH  13  14
ENDBRANCH  11  13
ENDBRANCH   9  10
ENDBRANCH   5   9
BRANCH   1  28
HETATM   28  C9  UNL     1      -0.455   4.518  -1.704  1.00  0.00     0.111 C 
HETATM   29  O8  UNL     1      -1.595   4.875  -2.251  1.00  0.00    -0.195 OA
BRANCH  28  30
HETATM   30  C8  UNL     1       0.796   5.099  -2.095  1.00  0.00     0.080 C 
BRANCH  30  31
HETATM   31  C7  UNL     1       2.089   4.591  -1.512  1.00  0.00    -0.022 C 
BRANCH  31  32
HETATM   32  C5  UNL     1       3.519   4.129  -1.505  1.00  0.00    -0.005 C 
HETATM   33  C4  UNL     1       3.831   2.669  -1.296  1.00  0.00     0.030 C 
HETATM   34  C3  UNL     1       5.240   2.229  -1.579  1.00  0.00     0.038 C 
HETATM   35  C2  UNL     1       6.355   3.159  -1.165  1.00  0.00     0.159 C 
HETATM   36  C1  UNL     1       6.025   4.620  -1.387  1.00  0.00     0.087 C 
HETATM   37  O9  UNL     1       7.121   2.811  -0.098  1.00  0.00    -0.223 OA
HETATM   38  C6  UNL     1       4.615   5.111  -1.149  1.00  0.00     0.107 C 
HETATM   39  O1  UNL     1       4.363   6.441  -1.060  1.00  0.00    -0.195 OA
ENDBRANCH  31  32
ENDBRANCH  30  31
ENDBRANCH  28  30
ENDBRANCH   1  28
TORSDOF 13
