REMARK  0 active torsions:
REMARK  status: ('A' for Active; 'I' for Inactive)
ROOT
HETATM    1  C1  UNL     1      -1.742   0.457   0.858  1.00  0.00     0.001 C 
HETATM    2  C2  UNL     1      -1.715  -1.051   0.763  1.00  0.00     0.117 C 
HETATM    3  O1  UNL     1      -0.434  -1.629   0.823  1.00  0.00    -0.329 OA
HETATM    4  C3  UNL     1       0.683  -0.850   0.694  1.00  0.00     0.121 A 
HETATM    5  C4  UNL     1       0.651   0.550   0.635  1.00  0.00     0.024 A 
HETATM    6  C5  UNL     1      -0.640   1.218   0.767  1.00  0.00    -0.000 C 
HETATM    7  C6  UNL     1       1.828   1.298   0.507  1.00  0.00     0.007 A 
HETATM    8  C7  UNL     1       3.060   0.644   0.447  1.00  0.00     0.064 A 
HETATM    9  C8  UNL     1       3.131  -0.754   0.512  1.00  0.00     0.130 A 
HETATM   10  C9  UNL     1       1.938  -1.482   0.622  1.00  0.00     0.176 A 
HETATM   11  O2  UNL     1       2.016  -2.840   0.684  1.00  0.00    -0.186 OA
HETATM   12  O3  UNL     1       4.309  -1.437   0.503  1.00  0.00    -0.305 OA
HETATM   13  C10 UNL     1       5.460  -0.765   0.205  1.00  0.00     0.107 A 
HETATM   14  C11 UNL     1       5.558   0.641   0.097  1.00  0.00     0.087 A 
HETATM   15  C12 UNL     1       4.313   1.425   0.305  1.00  0.00     0.201 C 
HETATM   16  O4  UNL     1       4.290   2.652   0.345  1.00  0.00    -0.286 OA
HETATM   17  C13 UNL     1       6.772   1.302  -0.207  1.00  0.00     0.134 A 
HETATM   18  C14 UNL     1       7.900   0.496  -0.386  1.00  0.00     0.027 A 
HETATM   19  C15 UNL     1       7.822  -0.884  -0.263  1.00  0.00     0.094 A 
HETATM   20  C16 UNL     1       6.621  -1.524   0.026  1.00  0.00     0.049 A 
HETATM   21  O5  UNL     1       9.048  -1.479  -0.457  1.00  0.00    -0.333 OA
HETATM   22  C17 UNL     1      10.045  -0.458  -0.481  1.00  0.00     0.125 C 
HETATM   23  C18 UNL     1       9.312   0.888  -0.769  1.00  0.00     0.048 C 
HETATM   24  C19 UNL     1       9.888   2.021   0.094  1.00  0.00     0.007 C 
HETATM   25  C20 UNL     1       9.326   1.280  -2.256  1.00  0.00     0.007 C 
HETATM   26  C21 UNL     1      11.198  -0.836  -1.415  1.00  0.00     0.033 C 
HETATM   27  O6  UNL     1       6.880   2.647  -0.377  1.00  0.00    -0.190 OA
HETATM   28  C22 UNL     1      -2.522  -1.637   1.930  1.00  0.00     0.035 C 
HETATM   29  C23 UNL     1      -2.361  -1.456  -0.568  1.00  0.00     0.035 C 
ENDROOT
TORSDOF 0
