REMARK  4 active torsions:
REMARK  status: ('A' for Active; 'I' for Inactive)
REMARK    1  A    between atoms: C6_6  and  C7_7 
REMARK    2  A    between atoms: C7_7  and  C8_8 
REMARK    3  A    between atoms: C15_16  and  C19_22 
REMARK    4  A    between atoms: C19_22  and  C20_23 
ROOT
HETATM    1  C1  UNL     1       0.367   3.159  -1.227  1.00  0.00     0.128 A 
HETATM    2  C2  UNL     1       0.281   3.382   0.148  1.00  0.00     0.029 A 
HETATM    3  C3  UNL     1       0.211   2.320   1.046  1.00  0.00     0.027 A 
HETATM    4  C4  UNL     1       0.187   0.995   0.605  1.00  0.00     0.103 A 
HETATM    5  C5  UNL     1       0.247   0.772  -0.781  1.00  0.00     0.060 A 
HETATM    6  C6  UNL     1       0.376   1.836  -1.699  1.00  0.00     0.013 A 
HETATM    7  C12 UNL     1       0.192  -0.648  -1.226  1.00  0.00     0.201 C 
HETATM    8  C13 UNL     1       0.428  -1.681  -0.181  1.00  0.00     0.087 A 
HETATM    9  C14 UNL     1       0.366  -1.274   1.163  1.00  0.00     0.103 A 
HETATM   10  O1  UNL     1       0.042   0.001   1.526  1.00  0.00    -0.307 OA
HETATM   11  C15 UNL     1       0.584  -2.228   2.171  1.00  0.00     0.030 A 
HETATM   12  C16 UNL     1       0.875  -3.561   1.849  1.00  0.00     0.131 A 
HETATM   13  C17 UNL     1       0.938  -3.917   0.501  1.00  0.00     0.055 A 
HETATM   14  C18 UNL     1       0.721  -3.010  -0.538  1.00  0.00     0.138 A 
HETATM   15  O2  UNL     1       0.824  -3.455  -1.820  1.00  0.00    -0.190 OA
HETATM   16  O3  UNL     1       1.083  -4.510   2.800  1.00  0.00    -0.190 OA
HETATM   17  O4  UNL     1      -0.052  -0.970  -2.383  1.00  0.00    -0.286 OA
HETATM   18  O5  UNL     1       0.383   4.219  -2.081  1.00  0.00    -0.191 OA
ENDROOT
BRANCH   6  19
HETATM   19  C7  UNL     1       0.528   1.614  -3.193  1.00  0.00     0.054 C 
BRANCH  19  20
HETATM   20  C8  UNL     1      -0.816   1.454  -3.853  1.00  0.00    -0.030 C 
HETATM   21  C9  UNL     1      -1.031   0.934  -5.075  1.00  0.00    -0.048 C 
HETATM   22  C10 UNL     1      -2.428   0.782  -5.630  1.00  0.00     0.026 C 
HETATM   23  C11 UNL     1       0.067   0.451  -5.992  1.00  0.00     0.026 C 
ENDBRANCH  19  20
ENDBRANCH   6  19
BRANCH  11  24
HETATM   24  C19 UNL     1       0.484  -1.805   3.624  1.00  0.00     0.056 C 
BRANCH  24  25
HETATM   25  C20 UNL     1       1.543  -0.796   3.991  1.00  0.00    -0.030 C 
HETATM   26  C21 UNL     1       1.514   0.010   5.067  1.00  0.00    -0.048 C 
HETATM   27  C22 UNL     1       2.625   0.997   5.338  1.00  0.00     0.026 C 
HETATM   28  C23 UNL     1       0.405   0.012   6.092  1.00  0.00     0.026 C 
ENDBRANCH  24  25
ENDBRANCH  11  24
TORSDOF 4
