REMARK  4 active torsions:
REMARK  status: ('A' for Active; 'I' for Inactive)
REMARK    1  A    between atoms: C10_11  and  C19_22 
REMARK    2  A    between atoms: C12_13  and  C14_16 
REMARK    3  A    between atoms: C14_16  and  C15_17 
REMARK    4  A    between atoms: C19_22  and  C20_23 
ROOT
HETATM    1  C1  UNL     1      -1.087   5.626  -2.726  1.00  0.00     0.030 A 
HETATM    2  C2  UNL     1      -1.038   5.900  -1.357  1.00  0.00     0.158 A 
HETATM    3  C3  UNL     1      -0.983   4.834  -0.451  1.00  0.00     0.179 A 
HETATM    4  C4  UNL     1      -0.976   3.503  -0.890  1.00  0.00     0.130 A 
HETATM    5  C5  UNL     1      -1.031   3.258  -2.264  1.00  0.00     0.064 A 
HETATM    6  C6  UNL     1      -1.082   4.310  -3.186  1.00  0.00     0.007 A 
HETATM    7  C7  UNL     1      -1.025   1.852  -2.723  1.00  0.00     0.201 C 
HETATM    8  C8  UNL     1      -0.837   0.808  -1.676  1.00  0.00     0.087 A 
HETATM    9  C9  UNL     1      -0.796   1.208  -0.325  1.00  0.00     0.103 A 
HETATM   10  O1  UNL     1      -0.944   2.515   0.041  1.00  0.00    -0.305 OA
HETATM   11  C10 UNL     1      -0.625   0.237   0.689  1.00  0.00     0.029 A 
HETATM   12  C11 UNL     1      -0.487  -1.115   0.309  1.00  0.00     0.128 A 
HETATM   13  C12 UNL     1      -0.536  -1.489  -1.042  1.00  0.00     0.033 A 
HETATM   14  C13 UNL     1      -0.711  -0.539  -2.056  1.00  0.00     0.134 A 
HETATM   15  O2  UNL     1      -0.709  -0.956  -3.353  1.00  0.00    -0.190 OA
HETATM   16  O3  UNL     1      -0.301  -2.109   1.220  1.00  0.00    -0.191 OA
HETATM   17  O4  UNL     1      -1.169   1.609  -3.917  1.00  0.00    -0.286 OA
HETATM   18  O5  UNL     1      -0.941   5.092   0.883  1.00  0.00    -0.186 OA
HETATM   19  O6  UNL     1      -1.049   7.173  -0.882  1.00  0.00    -0.188 OA
ENDROOT
BRANCH  11  20
HETATM   20  C19 UNL     1      -0.608   0.662   2.183  1.00  0.00     0.041 C 
HETATM   21  C22 UNL     1      -1.967   1.302   2.570  1.00  0.00     0.009 C 
HETATM   22  C23 UNL     1       0.520   1.678   2.482  1.00  0.00     0.009 C 
BRANCH  20  23
HETATM   23  C20 UNL     1      -0.453  -0.498   3.163  1.00  0.00    -0.023 C 
HETATM   24  C21 UNL     1       0.700  -0.980   3.651  1.00  0.00    -0.005 C 
ENDBRANCH  20  23
ENDBRANCH  11  20
BRANCH  13  25
HETATM   25  C14 UNL     1      -0.397  -2.959  -1.409  1.00  0.00     0.056 C 
BRANCH  25  26
HETATM   26  C15 UNL     1      -1.511  -3.777  -0.803  1.00  0.00    -0.030 C 
HETATM   27  C16 UNL     1      -1.414  -5.041  -0.356  1.00  0.00    -0.048 C 
HETATM   28  C17 UNL     1      -2.594  -5.739   0.280  1.00  0.00     0.026 C 
HETATM   29  C18 UNL     1      -0.166  -5.886  -0.444  1.00  0.00     0.026 C 
ENDBRANCH  25  26
ENDBRANCH  13  25
TORSDOF 4
