REMARK  2 active torsions:
REMARK  status: ('A' for Active; 'I' for Inactive)
REMARK    1  A    between atoms: C10_10  and  O1_11 
REMARK    2  A    between atoms: O1_11  and  C11_12 
ROOT
HETATM    1  C1  UNL     1       5.138  -2.144  -1.632  1.00  0.00     0.000 C 
HETATM    2  C2  UNL     1       6.069  -1.159  -0.921  1.00  0.00     0.000 C 
HETATM    3  C3  UNL     1       5.422   0.220  -0.644  1.00  0.00     0.002 C 
HETATM    4  C4  UNL     1       4.041   0.004   0.053  1.00  0.00     0.028 C 
HETATM    5  C5  UNL     1       3.050  -1.035  -0.565  1.00  0.00     0.009 C 
HETATM    6  C6  UNL     1       3.843  -2.346  -0.832  1.00  0.00     0.001 C 
HETATM    7  C7  UNL     1       1.916  -1.327   0.479  1.00  0.00     0.065 C 
HETATM    8  C8  UNL     1       1.278  -0.100   1.177  1.00  0.00     0.064 C 
HETATM    9  C9  UNL     1       2.314   0.934   1.637  1.00  0.00     0.038 C 
HETATM   10  C10 UNL     1       3.356   1.283   0.571  1.00  0.00     0.125 C 
HETATM   11  C13 UNL     1       0.111   0.493   0.360  1.00  0.00     0.013 C 
HETATM   12  C14 UNL     1      -0.974  -0.586   0.479  1.00  0.00     0.033 C 
HETATM   13  C15 UNL     1      -0.554  -1.814  -0.339  1.00  0.00     0.069 C 
HETATM   14  C16 UNL     1       0.845  -2.316  -0.000  1.00  0.00     0.151 C 
HETATM   15  O3  UNL     1       1.095  -3.494  -0.127  1.00  0.00    -0.296 OA
HETATM   16  C17 UNL     1      -0.875  -0.897   1.946  1.00  0.00     0.013 C 
HETATM   17  C18 UNL     1       0.504  -0.629   2.398  1.00  0.00     0.169 C 
HETATM   18  O4  UNL     1       0.953  -0.808   3.522  1.00  0.00    -0.292 OA
HETATM   19  C19 UNL     1      -1.853  -1.357   2.745  1.00  0.00    -0.002 C 
HETATM   20  C20 UNL     1       2.419  -0.639  -1.920  1.00  0.00     0.001 C 
HETATM   21  C21 UNL     1       6.414   0.966   0.292  1.00  0.00     0.000 C 
HETATM   22  C22 UNL     1       5.373   1.060  -1.937  1.00  0.00     0.000 C 
ENDROOT
BRANCH  10  23
HETATM   23  O1  UNL     1       2.755   1.990  -0.469  1.00  0.00    -0.304 OA
BRANCH  23  24
HETATM   24  C11 UNL     1       2.730   3.350  -0.565  1.00  0.00     0.272 C 
HETATM   25  O2  UNL     1       2.165   3.912  -1.479  1.00  0.00    -0.264 OA
HETATM   26  C12 UNL     1       3.446   4.139   0.517  1.00  0.00     0.106 C 
ENDBRANCH  23  24
ENDBRANCH  10  23
TORSDOF 2
