REMARK  8 active torsions:
REMARK  status: ('A' for Active; 'I' for Inactive)
REMARK    1  A    between atoms: C15_18  and  C16_19 
REMARK    2  A    between atoms: C16_19  and  C17_20 
REMARK    3  A    between atoms: C16_19  and  O6_29 
REMARK    4  A    between atoms: C17_20  and  C18_21 
REMARK    5  A    between atoms: C19_22  and  C20_23 
REMARK    6  A    between atoms: C20_23  and  O4_26 
REMARK    7  A    between atoms: O6_29  and  C24_30 
REMARK    8  A    between atoms: C25_32  and  C29_39 
ROOT
HETATM    1  O1  UNL     1      -3.221  -0.271  -2.055  1.00  0.00    -0.224 OA
HETATM    2  C1  UNL     1      -2.432  -0.840  -3.073  1.00  0.00     0.152 C 
HETATM    3  C2  UNL     1      -1.712  -2.130  -2.627  1.00  0.00     0.031 C 
HETATM    4  C3  UNL     1      -0.250  -1.873  -2.106  1.00  0.00     0.033 C 
HETATM    5  C4  UNL     1       0.091  -0.448  -1.557  1.00  0.00     0.003 C 
HETATM    6  C5  UNL     1      -0.488   0.667  -2.481  1.00  0.00     0.003 C 
HETATM    7  C6  UNL     1      -1.453   0.204  -3.578  1.00  0.00     0.033 C 
HETATM    8  C7  UNL     1       1.647  -0.234  -1.430  1.00  0.00     0.003 C 
HETATM    9  C8  UNL     1       2.512  -1.499  -1.135  1.00  0.00     0.003 C 
HETATM   10  C9  UNL     1       2.216  -2.595  -2.190  1.00  0.00     0.033 C 
HETATM   11  C10 UNL     1       0.901  -2.431  -2.960  1.00  0.00     0.152 C 
HETATM   12  O2  UNL     1       1.118  -1.639  -4.103  1.00  0.00    -0.224 OA
HETATM   13  C11 UNL     1       4.034  -1.093  -1.189  1.00  0.00     0.003 C 
HETATM   14  C12 UNL     1       4.265  -0.005  -0.104  1.00  0.00     0.033 C 
HETATM   15  C13 UNL     1       3.582   1.293  -0.535  1.00  0.00     0.152 C 
HETATM   16  C14 UNL     1       2.070   1.011  -0.602  1.00  0.00     0.033 C 
HETATM   17  O3  UNL     1       3.806   2.343   0.377  1.00  0.00    -0.224 OA
HETATM   18  C15 UNL     1       5.724  -0.156   0.380  1.00  0.00     0.028 C 
HETATM   19  C30 UNL     1       5.802  -1.708   0.420  1.00  0.00     0.002 C 
HETATM   20  C31 UNL     1       5.033  -2.214  -0.807  1.00  0.00     0.000 C 
HETATM   21  C32 UNL     1       4.520  -0.584  -2.582  1.00  0.00     0.000 C 
HETATM   22  C33 UNL     1       2.147  -2.098   0.257  1.00  0.00     0.000 C 
HETATM   23  C34 UNL     1      -0.574  -0.271  -0.164  1.00  0.00     0.000 C 
HETATM   24  C35 UNL     1      -1.758  -3.100  -3.841  1.00  0.00     0.003 C 
HETATM   25  C36 UNL     1      -2.551  -2.865  -1.546  1.00  0.00     0.003 C 
ENDROOT
BRANCH  18  26
HETATM   26  C16 UNL     1       6.176   0.491   1.730  1.00  0.00     0.100 C 
HETATM   27  C23 UNL     1       5.035   0.430   2.771  1.00  0.00     0.030 C 
BRANCH  26  28
HETATM   28  C17 UNL     1       6.662   1.956   1.588  1.00  0.00     0.053 C 
BRANCH  28  29
HETATM   29  C18 UNL     1       6.838   2.528   0.203  1.00  0.00    -0.026 C 
HETATM   30  C19 UNL     1       7.743   3.462  -0.128  1.00  0.00    -0.001 C 
BRANCH  30  31
HETATM   31  C20 UNL     1       7.797   4.096  -1.507  1.00  0.00     0.148 C 
HETATM   32  C21 UNL     1       8.423   3.095  -2.485  1.00  0.00     0.038 C 
HETATM   33  C22 UNL     1       8.635   5.381  -1.487  1.00  0.00     0.038 C 
BRANCH  31  34
HETATM   34  O4  UNL     1       6.506   4.396  -2.001  1.00  0.00    -0.190 OA
HETATM   35  O5  UNL     1       5.804   5.111  -0.924  1.00  0.00    -0.035 OA
ENDBRANCH  31  34
ENDBRANCH  30  31
ENDBRANCH  28  29
ENDBRANCH  26  28
BRANCH  26  36
HETATM   36  O6  UNL     1       7.247  -0.323   2.144  1.00  0.00    -0.334 OA
BRANCH  36  37
HETATM   37  C24 UNL     1       7.791  -0.149   3.438  1.00  0.00     0.270 C 
HETATM   38  O7  UNL     1       9.163   0.118   3.214  1.00  0.00    -0.326 OA
HETATM   39  C25 UNL     1       9.889   0.283   4.408  1.00  0.00     0.184 C 
HETATM   40  C26 UNL     1       9.791  -0.971   5.274  1.00  0.00     0.215 C 
HETATM   41  C27 UNL     1       8.342  -1.313   5.535  1.00  0.00     0.220 C 
HETATM   42  O10 UNL     1      10.411  -0.782   6.522  1.00  0.00    -0.218 OA
HETATM   43  C28 UNL     1       7.657  -1.454   4.197  1.00  0.00     0.241 C 
HETATM   44  O9  UNL     1       8.257  -2.527   6.237  1.00  0.00    -0.218 OA
HETATM   45  O8  UNL     1       6.312  -1.779   4.427  1.00  0.00    -0.215 OA
BRANCH  39  46
HETATM   46  C29 UNL     1      11.341   0.577   4.056  1.00  0.00     0.214 C 
HETATM   47  O11 UNL     1      11.433   1.813   3.377  1.00  0.00    -0.218 OA
ENDBRANCH  39  46
ENDBRANCH  36  37
ENDBRANCH  26  36
ENDBRANCH  18  26
TORSDOF 8
