REMARK  7 active torsions:
REMARK  status: ('A' for Active; 'I' for Inactive)
REMARK    1  A    between atoms: O1_1  and  C1_2 
REMARK    2  A    between atoms: O1_1  and  C7_13 
REMARK    3  A    between atoms: C2_4  and  C6_11 
REMARK    4  A    between atoms: C21_28  and  C34_47 
REMARK    5  A    between atoms: C23_30  and  O8_35 
REMARK    6  A    between atoms: O8_35  and  C28_36 
REMARK    7  A    between atoms: C29_38  and  C33_45 
ROOT
HETATM    1  C7  UNL     1       1.938  -3.164  -3.295  1.00  0.00     0.118 C 
HETATM    2  C8  UNL     1       2.891  -4.183  -2.608  1.00  0.00     0.025 C 
HETATM    3  C9  UNL     1       4.187  -3.488  -2.060  1.00  0.00     0.002 C 
HETATM    4  C10 UNL     1       4.079  -1.973  -1.702  1.00  0.00     0.000 C 
HETATM    5  C11 UNL     1       3.645  -1.255  -3.019  1.00  0.00     0.003 C 
HETATM    6  C12 UNL     1       2.774  -2.084  -3.980  1.00  0.00     0.030 C 
HETATM    7  C13 UNL     1       5.489  -1.433  -1.274  1.00  0.00     0.002 C 
HETATM    8  C14 UNL     1       6.244  -2.232  -0.154  1.00  0.00     0.000 C 
HETATM    9  C15 UNL     1       6.332  -3.694  -0.661  1.00  0.00     0.000 C 
HETATM   10  C16 UNL     1       4.960  -4.307  -1.008  1.00  0.00     0.000 C 
HETATM   11  C17 UNL     1       7.668  -1.583   0.056  1.00  0.00     0.002 C 
HETATM   12  C18 UNL     1       7.502  -0.073   0.365  1.00  0.00     0.030 C 
HETATM   13  C19 UNL     1       6.910   0.678  -0.808  1.00  0.00     0.121 C 
HETATM   14  C20 UNL     1       5.519   0.103  -1.092  1.00  0.00     0.030 C 
HETATM   15  O7  UNL     1       6.889   2.073  -0.686  1.00  0.00    -0.334 OA
HETATM   16  C21 UNL     1       6.635   2.645   0.579  1.00  0.00     0.091 C 
HETATM   17  C22 UNL     1       7.910   2.771   1.430  1.00  0.00     0.025 C 
HETATM   18  C23 UNL     1       8.599   1.546   2.070  1.00  0.00     0.116 C 
HETATM   19  C24 UNL     1       8.801   0.443   1.002  1.00  0.00     0.031 C 
HETATM   20  C25 UNL     1       9.488  -0.840   1.529  1.00  0.00     0.003 C 
HETATM   21  C26 UNL     1       8.472  -1.981   1.320  1.00  0.00     0.000 C 
HETATM   22  C27 UNL     1       7.861   1.019   3.322  1.00  0.00     0.034 C 
HETATM   23  C38 UNL     1       8.621  -1.828  -1.146  1.00  0.00     0.000 C 
HETATM   24  C39 UNL     1       5.492  -2.308   1.203  1.00  0.00     0.000 C 
HETATM   25  C40 UNL     1       3.050  -1.656  -0.586  1.00  0.00     0.000 C 
HETATM   26  C41 UNL     1       3.311  -5.234  -3.678  1.00  0.00     0.002 C 
HETATM   27  C42 UNL     1       2.121  -5.008  -1.547  1.00  0.00     0.002 C 
ENDROOT
BRANCH  18  28
HETATM   28  O8  UNL     1       9.909   1.894   2.458  1.00  0.00    -0.330 OA
BRANCH  28  29
HETATM   29  C28 UNL     1      10.047   2.941   3.398  1.00  0.00     0.270 C 
HETATM   30  O9  UNL     1      10.318   4.112   2.659  1.00  0.00    -0.326 OA
HETATM   31  C29 UNL     1      10.457   5.243   3.481  1.00  0.00     0.184 C 
HETATM   32  C30 UNL     1      11.634   5.043   4.430  1.00  0.00     0.215 C 
HETATM   33  C31 UNL     1      11.435   3.781   5.244  1.00  0.00     0.220 C 
HETATM   34  O12 UNL     1      11.750   6.120   5.327  1.00  0.00    -0.218 OA
HETATM   35  C32 UNL     1      11.226   2.626   4.291  1.00  0.00     0.241 C 
HETATM   36  O11 UNL     1      12.567   3.545   6.040  1.00  0.00    -0.218 OA
HETATM   37  O10 UNL     1      10.954   1.464   5.032  1.00  0.00    -0.215 OA
BRANCH  31  38
HETATM   38  C33 UNL     1      10.646   6.464   2.593  1.00  0.00     0.214 C 
HETATM   39  O13 UNL     1       9.498   6.645   1.786  1.00  0.00    -0.218 OA
ENDBRANCH  31  38
ENDBRANCH  28  29
ENDBRANCH  18  28
BRANCH  16  40
HETATM   40  C34 UNL     1       5.375   2.207   1.287  1.00  0.00     0.015 C 
HETATM   41  C35 UNL     1       4.109   2.389   0.866  1.00  0.00    -0.042 C 
HETATM   42  C36 UNL     1       3.726   3.059  -0.432  1.00  0.00     0.026 C 
HETATM   43  C37 UNL     1       2.937   1.875   1.669  1.00  0.00     0.026 C 
ENDBRANCH  16  40
BRANCH   1  44
HETATM   44  O1  UNL     1       1.025  -2.664  -2.356  1.00  0.00    -0.332 OA
BRANCH  44  45
HETATM   45  C1  UNL     1       0.038  -1.764  -2.814  1.00  0.00     0.270 C 
HETATM   46  O2  UNL     1       0.641  -0.491  -2.853  1.00  0.00    -0.326 OA
HETATM   47  C2  UNL     1      -0.231   0.536  -3.234  1.00  0.00     0.184 C 
HETATM   48  C3  UNL     1      -1.344   0.653  -2.202  1.00  0.00     0.215 C 
HETATM   49  C4  UNL     1      -2.068  -0.671  -2.083  1.00  0.00     0.220 C 
HETATM   50  O5  UNL     1      -2.281   1.633  -2.574  1.00  0.00    -0.218 OA
HETATM   51  C5  UNL     1      -1.054  -1.747  -1.764  1.00  0.00     0.241 C 
HETATM   52  O4  UNL     1      -3.015  -0.591  -1.047  1.00  0.00    -0.218 OA
HETATM   53  O3  UNL     1      -1.697  -2.995  -1.731  1.00  0.00    -0.215 OA
BRANCH  47  54
HETATM   54  C6  UNL     1       0.576   1.821  -3.344  1.00  0.00     0.214 C 
HETATM   55  O6  UNL     1       1.551   1.689  -4.360  1.00  0.00    -0.218 OA
ENDBRANCH  47  54
ENDBRANCH  44  45
ENDBRANCH   1  44
TORSDOF 7
