REMARK  14 active torsions:
REMARK  status: ('A' for Active; 'I' for Inactive)
REMARK    1  A    between atoms: O1_1  and  C1_2 
REMARK    2  A    between atoms: O1_1  and  C7_13 
REMARK    3  A    between atoms: C2_4  and  C6_11 
REMARK    4  A    between atoms: C21_28  and  C24_31 
REMARK    5  A    between atoms: C24_31  and  O8_32 
REMARK    6  A    between atoms: C24_31  and  C37_55 
REMARK    7  A    between atoms: O8_32  and  C25_33 
REMARK    8  A    between atoms: C26_35  and  C36_53 
REMARK    9  A    between atoms: C29_38  and  O10_39 
REMARK   10  A    between atoms: O10_39  and  C30_40 
REMARK   11  A    between atoms: C31_42  and  C35_49 
REMARK   12  A    between atoms: C37_55  and  C38_56 
REMARK   13  A    between atoms: C38_56  and  C39_57 
REMARK   14  A    between atoms: C39_57  and  C40_58 
ROOT
HETATM    1  C7  UNL     1       1.926  -3.708  -2.983  1.00  0.00     0.118 C 
HETATM    2  C8  UNL     1       2.820  -4.651  -2.129  1.00  0.00     0.025 C 
HETATM    3  C9  UNL     1       4.230  -4.029  -1.833  1.00  0.00     0.002 C 
HETATM    4  C10 UNL     1       4.332  -2.477  -1.884  1.00  0.00     0.000 C 
HETATM    5  C11 UNL     1       3.877  -2.050  -3.311  1.00  0.00     0.003 C 
HETATM    6  C12 UNL     1       2.790  -2.920  -3.964  1.00  0.00     0.030 C 
HETATM    7  C13 UNL     1       5.824  -2.050  -1.670  1.00  0.00     0.003 C 
HETATM    8  C14 UNL     1       6.534  -2.587  -0.373  1.00  0.00     0.000 C 
HETATM    9  C15 UNL     1       6.418  -4.132  -0.463  1.00  0.00     0.000 C 
HETATM   10  C16 UNL     1       4.968  -4.637  -0.622  1.00  0.00     0.000 C 
HETATM   11  C17 UNL     1       8.026  -2.072  -0.375  1.00  0.00     0.002 C 
HETATM   12  C18 UNL     1       7.968  -0.503  -0.450  1.00  0.00     0.033 C 
HETATM   13  C19 UNL     1       7.567  -0.163  -1.884  1.00  0.00     0.152 C 
HETATM   14  C20 UNL     1       6.098  -0.568  -2.023  1.00  0.00     0.033 C 
HETATM   15  O7  UNL     1       7.685   1.187  -2.233  1.00  0.00    -0.224 OA
HETATM   16  C21 UNL     1       9.195   0.056   0.300  1.00  0.00     0.028 C 
HETATM   17  C22 UNL     1       9.265  -0.981   1.457  1.00  0.00     0.002 C 
HETATM   18  C23 UNL     1       8.900  -2.349   0.878  1.00  0.00     0.000 C 
HETATM   19  C44 UNL     1       8.869  -2.724  -1.513  1.00  0.00     0.000 C 
HETATM   20  C45 UNL     1       5.873  -2.197   0.979  1.00  0.00     0.000 C 
HETATM   21  C46 UNL     1       3.460  -1.754  -0.833  1.00  0.00     0.000 C 
HETATM   22  C47 UNL     1       3.030  -5.965  -2.937  1.00  0.00     0.002 C 
HETATM   23  C48 UNL     1       2.057  -5.094  -0.856  1.00  0.00     0.002 C 
ENDROOT
BRANCH  16  24
HETATM   24  C24 UNL     1       9.249   1.529   0.861  1.00  0.00     0.096 C 
HETATM   25  C43 UNL     1       8.400   2.546   0.084  1.00  0.00     0.030 C 
BRANCH  24  26
HETATM   26  O8  UNL     1       8.726   1.473   2.165  1.00  0.00    -0.334 OA
BRANCH  26  27
HETATM   27  C25 UNL     1       8.789   2.599   3.020  1.00  0.00     0.266 C 
HETATM   28  O9  UNL     1      10.022   2.442   3.696  1.00  0.00    -0.326 OA
HETATM   29  C26 UNL     1      10.271   3.452   4.635  1.00  0.00     0.184 C 
HETATM   30  C27 UNL     1       9.244   3.318   5.750  1.00  0.00     0.215 C 
HETATM   31  C28 UNL     1       7.867   3.501   5.153  1.00  0.00     0.217 C 
HETATM   32  O17 UNL     1       9.412   4.300   6.743  1.00  0.00    -0.218 OA
HETATM   33  C29 UNL     1       7.634   2.522   4.011  1.00  0.00     0.207 C 
HETATM   34  O16 UNL     1       6.886   3.299   6.142  1.00  0.00    -0.218 OA
BRANCH  29  35
HETATM   35  C36 UNL     1      11.714   3.311   5.101  1.00  0.00     0.214 C 
HETATM   36  O18 UNL     1      12.164   4.514   5.690  1.00  0.00    -0.218 OA
ENDBRANCH  29  35
BRANCH  33  37
HETATM   37  O10 UNL     1       6.416   2.921   3.443  1.00  0.00    -0.324 OA
BRANCH  37  38
HETATM   38  C30 UNL     1       5.639   1.899   2.857  1.00  0.00     0.270 C 
HETATM   39  O11 UNL     1       5.071   2.568   1.747  1.00  0.00    -0.326 OA
HETATM   40  C31 UNL     1       4.201   1.755   1.006  1.00  0.00     0.184 C 
HETATM   41  C32 UNL     1       3.049   1.301   1.895  1.00  0.00     0.215 C 
HETATM   42  C33 UNL     1       3.592   0.549   3.092  1.00  0.00     0.220 C 
HETATM   43  O14 UNL     1       2.169   0.446   1.208  1.00  0.00    -0.218 OA
HETATM   44  C34 UNL     1       4.559   1.457   3.821  1.00  0.00     0.241 C 
HETATM   45  O13 UNL     1       2.530   0.197   3.942  1.00  0.00    -0.218 OA
HETATM   46  O12 UNL     1       5.117   0.753   4.902  1.00  0.00    -0.215 OA
BRANCH  40  47
HETATM   47  C35 UNL     1       3.704   2.534  -0.202  1.00  0.00     0.214 C 
HETATM   48  O15 UNL     1       4.784   2.850  -1.058  1.00  0.00    -0.218 OA
ENDBRANCH  40  47
ENDBRANCH  37  38
ENDBRANCH  33  37
ENDBRANCH  26  27
ENDBRANCH  24  26
BRANCH  24  49
HETATM   49  C37 UNL     1      10.720   2.014   0.872  1.00  0.00     0.035 C 
BRANCH  49  50
HETATM   50  C38 UNL     1      11.479   1.899  -0.469  1.00  0.00     0.071 C 
BRANCH  50  51
HETATM   51  C39 UNL     1      12.616   2.890  -0.676  1.00  0.00     0.169 C 
HETATM   52  O19 UNL     1      12.992   3.613   0.239  1.00  0.00    -0.292 OA
BRANCH  51  53
HETATM   53  C40 UNL     1      13.242   3.013  -2.025  1.00  0.00     0.013 C 
HETATM   54  C41 UNL     1      14.213   4.147  -2.254  1.00  0.00     0.034 C 
HETATM   55  C42 UNL     1      12.954   2.144  -3.015  1.00  0.00    -0.002 C 
ENDBRANCH  51  53
ENDBRANCH  50  51
ENDBRANCH  49  50
ENDBRANCH  24  49
ENDBRANCH  16  24
BRANCH   1  56
HETATM   56  O1  UNL     1       1.141  -2.907  -2.143  1.00  0.00    -0.332 OA
BRANCH  56  57
HETATM   57  C1  UNL     1       0.254  -1.993  -2.757  1.00  0.00     0.270 C 
HETATM   58  O2  UNL     1       0.988  -0.800  -2.938  1.00  0.00    -0.326 OA
HETATM   59  C2  UNL     1       0.238   0.270  -3.443  1.00  0.00     0.184 C 
HETATM   60  C3  UNL     1      -0.886   0.601  -2.469  1.00  0.00     0.215 C 
HETATM   61  C4  UNL     1      -1.751  -0.624  -2.257  1.00  0.00     0.220 C 
HETATM   62  O5  UNL     1      -1.710   1.635  -2.946  1.00  0.00    -0.218 OA
HETATM   63  C5  UNL     1      -0.864  -1.745  -1.768  1.00  0.00     0.241 C 
HETATM   64  O4  UNL     1      -2.732  -0.342  -1.291  1.00  0.00    -0.218 OA
HETATM   65  O3  UNL     1      -1.631  -2.913  -1.625  1.00  0.00    -0.215 OA
BRANCH  59  66
HETATM   66  C6  UNL     1       1.198   1.437  -3.648  1.00  0.00     0.214 C 
HETATM   67  O6  UNL     1       0.672   2.356  -4.584  1.00  0.00    -0.218 OA
ENDBRANCH  59  66
ENDBRANCH  56  57
ENDBRANCH   1  56
TORSDOF 14
