REMARK  6 active torsions:
REMARK  status: ('A' for Active; 'I' for Inactive)
REMARK    1  A    between atoms: O1_1  and  C1_2 
REMARK    2  A    between atoms: O1_1  and  C25_33 
REMARK    3  A    between atoms: C10_12  and  O6_27 
REMARK    4  A    between atoms: C13_15  and  O4_23 
REMARK    5  A    between atoms: O4_23  and  C20_24 
REMARK    6  A    between atoms: O6_27  and  C22_28 
ROOT
HETATM    1  C1  UNL     1       6.011   0.035  -1.594  1.00  0.00     0.154 C 
HETATM    2  C2  UNL     1       5.107  -1.018  -2.223  1.00  0.00     0.180 C 
HETATM    3  O2  UNL     1       5.837  -2.214  -2.387  1.00  0.00    -0.221 OA
HETATM    4  C3  UNL     1       3.859  -1.307  -1.387  1.00  0.00     0.036 C 
HETATM    5  C4  UNL     1       2.980  -0.060  -1.075  1.00  0.00     0.008 C 
HETATM    6  C5  UNL     1       3.945   1.022  -0.491  1.00  0.00     0.035 C 
HETATM    7  C6  UNL     1       5.258   1.351  -1.273  1.00  0.00     0.031 C 
HETATM    8  C7  UNL     1       5.055   2.161  -2.575  1.00  0.00     0.003 C 
HETATM    9  C8  UNL     1       6.204   2.243  -0.417  1.00  0.00     0.003 C 
HETATM   10  C9  UNL     1       3.222   2.221   0.146  1.00  0.00     0.180 C 
HETATM   11  C10 UNL     1       2.251   1.793   1.242  1.00  0.00     0.161 C 
HETATM   12  C11 UNL     1       1.228   0.754   0.754  1.00  0.00     0.086 C 
HETATM   13  C12 UNL     1       1.900  -0.439   0.015  1.00  0.00     0.037 C 
HETATM   14  C13 UNL     1       0.850  -1.518  -0.373  1.00  0.00     0.125 C 
HETATM   15  C14 UNL     1      -0.495  -0.945  -0.871  1.00  0.00     0.035 C 
HETATM   16  C15 UNL     1      -0.989   0.262  -0.061  1.00  0.00     0.028 C 
HETATM   17  C16 UNL     1       0.086   1.355  -0.098  1.00  0.00     0.014 C 
HETATM   18  C17 UNL     1      -0.978  -0.040   1.408  1.00  0.00     0.012 C 
HETATM   19  C18 UNL     1       0.378   0.226   1.931  1.00  0.00     0.171 C 
HETATM   20  O3  UNL     1       0.729   0.072   3.093  1.00  0.00    -0.292 OA
HETATM   21  C19 UNL     1      -2.000  -0.494   2.153  1.00  0.00    -0.002 C 
HETATM   22  O8  UNL     1       2.552   3.009  -0.804  1.00  0.00    -0.221 OA
HETATM   23  C24 UNL     1       2.317   0.342  -2.411  1.00  0.00     0.000 C 
ENDROOT
BRANCH   1  24
HETATM   24  O1  UNL     1       6.578  -0.505  -0.428  1.00  0.00    -0.302 OA
BRANCH  24  25
HETATM   25  C25 UNL     1       7.917  -0.757  -0.398  1.00  0.00     0.272 C 
HETATM   26  C26 UNL     1       8.320  -1.358   0.934  1.00  0.00     0.106 C 
HETATM   27  O9  UNL     1       8.702  -0.527  -1.290  1.00  0.00    -0.264 OA
ENDBRANCH  24  25
ENDBRANCH   1  24
BRANCH  11  28
HETATM   28  O6  UNL     1       3.005   1.257   2.300  1.00  0.00    -0.301 OA
BRANCH  28  29
HETATM   29  C22 UNL     1       3.071   1.931   3.481  1.00  0.00     0.272 C 
HETATM   30  C23 UNL     1       3.718   1.069   4.547  1.00  0.00     0.106 C 
HETATM   31  O7  UNL     1       2.654   3.051   3.669  1.00  0.00    -0.264 OA
ENDBRANCH  28  29
ENDBRANCH  11  28
BRANCH  14  32
HETATM   32  O4  UNL     1       0.560  -2.315   0.751  1.00  0.00    -0.304 OA
BRANCH  32  33
HETATM   33  C20 UNL     1       0.899  -3.627   0.905  1.00  0.00     0.272 C 
HETATM   34  O5  UNL     1       0.568  -4.259   1.886  1.00  0.00    -0.264 OA
HETATM   35  C21 UNL     1       1.730  -4.271  -0.187  1.00  0.00     0.106 C 
ENDBRANCH  32  33
ENDBRANCH  14  32
TORSDOF 6
