REMARK  8 active torsions:
REMARK  status: ('A' for Active; 'I' for Inactive)
REMARK    1  A    between atoms: C4_6  and  C36_51 
REMARK    2  A    between atoms: C6_9  and  C32_46 
REMARK    3  A    between atoms: C10_15  and  C27_39 
REMARK    4  A    between atoms: C12_18  and  C24_35 
REMARK    5  A    between atoms: C14_21  and  C17_26 
REMARK    6  A    between atoms: C17_26  and  C18_27 
REMARK    7  A    between atoms: C27_39  and  C28_40 
REMARK    8  A    between atoms: C32_46  and  C33_47 
ROOT
HETATM    1  N1  UNL     1      -0.111  -2.220  -2.156  1.00  0.00    -0.226 NA
HETATM    2  C1  UNL     1      -0.291  -2.040  -0.812  1.00  0.00     0.272 C 
HETATM    3  C2  UNL     1      -0.759  -3.269  -0.047  1.00  0.00     0.165 C 
HETATM    4  N2  UNL     1      -1.472  -4.296  -0.802  1.00  0.00    -0.309 N 
HETATM    5  C3  UNL     1      -2.720  -4.228  -1.385  1.00  0.00     0.271 C 
HETATM    6  C4  UNL     1      -3.438  -2.869  -1.536  1.00  0.00     0.117 C 
HETATM    7  N3  UNL     1      -3.316  -1.963  -0.380  1.00  0.00    -0.210 NA
HETATM    8  C5  UNL     1      -2.974  -0.633  -0.424  1.00  0.00     0.278 C 
HETATM    9  C6  UNL     1      -3.016   0.081   0.926  1.00  0.00     0.187 C 
HETATM   10  N4  UNL     1      -1.830  -0.316   1.697  1.00  0.00    -0.229 NA
HETATM   11  C7  UNL     1      -1.376   0.388   2.779  1.00  0.00     0.274 C 
HETATM   12  C8  UNL     1      -0.093  -0.158   3.397  1.00  0.00     0.186 C 
HETATM   13  N5  UNL     1       1.040  -0.104   2.456  1.00  0.00    -0.229 NA
HETATM   14  C9  UNL     1       2.222   0.513   2.783  1.00  0.00     0.274 C 
HETATM   15  C10 UNL     1       3.376   0.351   1.796  1.00  0.00     0.186 C 
HETATM   16  N6  UNL     1       3.464   1.480   0.861  1.00  0.00    -0.226 NA
HETATM   17  C11 UNL     1       3.502   2.846   0.613  1.00  0.00     0.289 C 
HETATM   18  C12 UNL     1       3.713   3.208  -0.861  1.00  0.00     0.119 C 
HETATM   19  N7  UNL     1       2.549   3.721  -1.608  1.00  0.00    -0.210 NA
HETATM   20  C13 UNL     1       1.393   3.064  -1.942  1.00  0.00     0.278 C 
HETATM   21  C14 UNL     1       0.864   1.988  -1.004  1.00  0.00     0.191 C 
HETATM   22  N8  UNL     1       0.306   0.844  -1.738  1.00  0.00    -0.228 NA
HETATM   23  C15 UNL     1       1.078  -0.016  -2.467  1.00  0.00     0.277 C 
HETATM   24  O1  UNL     1       2.266   0.126  -2.621  1.00  0.00    -0.268 OA
HETATM   25  C16 UNL     1       0.313  -1.169  -3.093  1.00  0.00     0.218 C 
HETATM   26  O3  UNL     1       0.730   3.457  -2.871  1.00  0.00    -0.268 OA
HETATM   27  O4  UNL     1       3.417   3.733   1.436  1.00  0.00    -0.264 OA
HETATM   28  O5  UNL     1       2.390   1.148   3.796  1.00  0.00    -0.268 OA
HETATM   29  C31 UNL     1      -0.294  -1.602   3.880  1.00  0.00     0.037 C 
HETATM   30  O6  UNL     1      -1.949   1.360   3.213  1.00  0.00    -0.268 OA
HETATM   31  O7  UNL     1      -2.613  -0.054  -1.421  1.00  0.00    -0.268 OA
HETATM   32  O8  UNL     1      -3.250  -5.223  -1.827  1.00  0.00    -0.266 OA
HETATM   33  C39 UNL     1      -0.742  -5.556  -0.714  1.00  0.00     0.105 C 
HETATM   34  C40 UNL     1       0.108  -5.430   0.556  1.00  0.00     0.027 C 
HETATM   35  C41 UNL     1       0.513  -3.956   0.500  1.00  0.00     0.034 C 
HETATM   36  O9  UNL     1      -0.050  -1.024  -0.209  1.00  0.00    -0.269 OA
ENDROOT
BRANCH  21  37
HETATM   37  C17 UNL     1      -0.251   2.584  -0.120  1.00  0.00     0.060 C 
BRANCH  37  38
HETATM   38  C18 UNL     1       0.191   3.736   0.757  1.00  0.00    -0.020 A 
HETATM   39  C19 UNL     1       0.482   3.549   2.055  1.00  0.00    -0.002 A 
HETATM   40  C20 UNL     1       0.864   4.566   2.841  1.00  0.00     0.027 A 
HETATM   41  C21 UNL     1       0.969   5.815   2.358  1.00  0.00     0.131 A 
HETATM   42  C22 UNL     1       0.669   6.005   1.062  1.00  0.00     0.027 A 
HETATM   43  O2  UNL     1       1.363   6.853   3.145  1.00  0.00    -0.190 OA
HETATM   44  C23 UNL     1       0.279   4.989   0.278  1.00  0.00    -0.002 A 
ENDBRANCH  37  38
ENDBRANCH  21  37
BRANCH  18  45
HETATM   45  C24 UNL     1       4.592   2.237  -1.677  1.00  0.00     0.045 C 
HETATM   46  C25 UNL     1       4.734   2.679  -3.146  1.00  0.00     0.006 C 
HETATM   47  C26 UNL     1       5.992   2.070  -1.058  1.00  0.00     0.006 C 
ENDBRANCH  18  45
BRANCH  15  48
HETATM   48  C27 UNL     1       3.350  -1.000   1.058  1.00  0.00     0.034 C 
BRANCH  48  49
HETATM   49  C28 UNL     1       4.601  -1.330   0.220  1.00  0.00     0.002 C 
HETATM   50  C29 UNL     1       5.891  -1.392   1.053  1.00  0.00     0.000 C 
HETATM   51  C30 UNL     1       4.392  -2.663  -0.523  1.00  0.00     0.000 C 
ENDBRANCH  48  49
ENDBRANCH  15  48
BRANCH   6  52
HETATM   52  C36 UNL     1      -3.349  -2.304  -2.980  1.00  0.00     0.045 C 
HETATM   53  C37 UNL     1      -3.200  -3.386  -4.070  1.00  0.00     0.006 C 
HETATM   54  C38 UNL     1      -4.557  -1.426  -3.362  1.00  0.00     0.006 C 
ENDBRANCH   6  52
BRANCH   9  55
HETATM   55  C32 UNL     1      -4.316  -0.140   1.725  1.00  0.00     0.034 C 
BRANCH  55  56
HETATM   56  C33 UNL     1      -5.630   0.410   1.127  1.00  0.00     0.002 C 
HETATM   57  C34 UNL     1      -5.484   1.818   0.528  1.00  0.00     0.000 C 
HETATM   58  C35 UNL     1      -6.280  -0.547   0.117  1.00  0.00     0.000 C 
ENDBRANCH  55  56
ENDBRANCH   9  55
TORSDOF 8
