REMARK  10 active torsions:
REMARK  status: ('A' for Active; 'I' for Inactive)
REMARK    1  A    between atoms: O1_1  and  C1_2 
REMARK    2  A    between atoms: O1_1  and  C29_39 
REMARK    3  A    between atoms: C2_3  and  O2_4 
REMARK    4  A    between atoms: O2_4  and  C3_5 
REMARK    5  A    between atoms: C11_14  and  O9_34 
REMARK    6  A    between atoms: C12_15  and  O7_30 
REMARK    7  A    between atoms: C15_18  and  O5_26 
REMARK    8  A    between atoms: O5_26  and  C22_27 
REMARK    9  A    between atoms: O7_30  and  C24_31 
REMARK   10  A    between atoms: O9_34  and  C26_35 
ROOT
HETATM    1  C1  UNL     1       6.037  -0.154  -1.103  1.00  0.00     0.152 C 
HETATM    2  C2  UNL     1       5.122  -1.148  -1.820  1.00  0.00     0.152 C 
HETATM    3  C5  UNL     1       3.853  -1.432  -1.005  1.00  0.00     0.033 C 
HETATM    4  C6  UNL     1       2.990  -0.180  -0.658  1.00  0.00     0.007 C 
HETATM    5  C7  UNL     1       3.969   0.874  -0.048  1.00  0.00     0.033 C 
HETATM    6  C8  UNL     1       5.312   1.181  -0.787  1.00  0.00     0.030 C 
HETATM    7  C9  UNL     1       5.168   2.025  -2.075  1.00  0.00     0.003 C 
HETATM    8  C10 UNL     1       6.264   2.027   0.109  1.00  0.00     0.003 C 
HETATM    9  C11 UNL     1       3.257   2.090   0.570  1.00  0.00     0.152 C 
HETATM   10  C12 UNL     1       2.294   1.663   1.679  1.00  0.00     0.154 C 
HETATM   11  C13 UNL     1       1.257   0.617   1.226  1.00  0.00     0.062 C 
HETATM   12  C14 UNL     1       1.909  -0.563   0.432  1.00  0.00     0.033 C 
HETATM   13  C15 UNL     1       0.862  -1.633   0.011  1.00  0.00     0.125 C 
HETATM   14  C16 UNL     1      -0.475  -1.034  -0.462  1.00  0.00     0.034 C 
HETATM   15  C17 UNL     1      -0.953   0.117   0.434  1.00  0.00     0.023 C 
HETATM   16  C18 UNL     1       0.098   1.234   0.406  1.00  0.00     0.009 C 
HETATM   17  C19 UNL     1      -0.898  -0.288   1.881  1.00  0.00    -0.015 C 
HETATM   18  C20 UNL     1       0.417   0.160   2.455  1.00  0.00     0.173 C 
HETATM   19  O4  UNL     1       1.028  -0.858   3.223  1.00  0.00    -0.219 OA
HETATM   20  C21 UNL     1      -1.845  -0.961   2.544  1.00  0.00    -0.007 C 
HETATM   21  C28 UNL     1       2.322   0.242  -1.986  1.00  0.00     0.000 C 
ENDROOT
BRANCH   1  22
HETATM   22  O1  UNL     1       6.498  -0.748   0.083  1.00  0.00    -0.302 OA
BRANCH  22  23
HETATM   23  C29 UNL     1       7.789  -1.119   0.319  1.00  0.00     0.272 C 
HETATM   24  O11 UNL     1       8.128  -1.598   1.382  1.00  0.00    -0.264 OA
HETATM   25  C30 UNL     1       8.795  -0.919  -0.800  1.00  0.00     0.106 C 
ENDBRANCH  22  23
ENDBRANCH   1  22
BRANCH   2  26
HETATM   26  O2  UNL     1       5.836  -2.338  -2.016  1.00  0.00    -0.302 OA
BRANCH  26  27
HETATM   27  C3  UNL     1       5.796  -3.079  -3.161  1.00  0.00     0.272 C 
HETATM   28  O3  UNL     1       6.461  -4.085  -3.293  1.00  0.00    -0.264 OA
HETATM   29  C4  UNL     1       4.873  -2.600  -4.268  1.00  0.00     0.106 C 
ENDBRANCH  26  27
ENDBRANCH   2  26
BRANCH   9  30
HETATM   30  O9  UNL     1       2.585   2.829  -0.404  1.00  0.00    -0.302 OA
BRANCH  30  31
HETATM   31  C26 UNL     1       2.672   4.186  -0.401  1.00  0.00     0.272 C 
HETATM   32  C27 UNL     1       1.869   4.754  -1.553  1.00  0.00     0.106 C 
HETATM   33  O10 UNL     1       3.299   4.850   0.393  1.00  0.00    -0.264 OA
ENDBRANCH  30  31
ENDBRANCH   9  30
BRANCH  10  34
HETATM   34  O7  UNL     1       3.062   1.137   2.733  1.00  0.00    -0.302 OA
BRANCH  34  35
HETATM   35  C24 UNL     1       2.858   1.572   4.006  1.00  0.00     0.272 C 
HETATM   36  C25 UNL     1       3.710   0.769   4.969  1.00  0.00     0.106 C 
HETATM   37  O8  UNL     1       2.096   2.454   4.334  1.00  0.00    -0.264 OA
ENDBRANCH  34  35
ENDBRANCH  10  34
BRANCH  13  38
HETATM   38  O5  UNL     1       0.570  -2.458   1.110  1.00  0.00    -0.304 OA
BRANCH  38  39
HETATM   39  C22 UNL     1       0.957  -3.751   1.276  1.00  0.00     0.272 C 
HETATM   40  O6  UNL     1       0.684  -4.354   2.293  1.00  0.00    -0.264 OA
HETATM   41  C23 UNL     1       1.726  -4.406   0.147  1.00  0.00     0.106 C 
ENDBRANCH  38  39
ENDBRANCH  13  38
TORSDOF 10
