REMARK  2 active torsions:
REMARK  status: ('A' for Active; 'I' for Inactive)
REMARK    1  A    between atoms: C9_11  and  O5_24 
REMARK    2  A    between atoms: O5_24  and  C20_25 
ROOT
HETATM    1  O1  UNL     1       6.497  -1.529   0.197  1.00  0.00    -0.221 OA
HETATM    2  C1  UNL     1       6.074  -0.900  -0.993  1.00  0.00     0.182 C 
HETATM    3  C2  UNL     1       5.152  -1.881  -1.687  1.00  0.00     0.182 C 
HETATM    4  O2  UNL     1       5.846  -3.105  -1.782  1.00  0.00    -0.221 OA
HETATM    5  C3  UNL     1       3.860  -2.101  -0.902  1.00  0.00     0.036 C 
HETATM    6  C4  UNL     1       3.053  -0.801  -0.613  1.00  0.00     0.008 C 
HETATM    7  C5  UNL     1       4.043   0.245   0.001  1.00  0.00     0.030 C 
HETATM    8  C6  UNL     1       5.424   0.466  -0.695  1.00  0.00     0.033 C 
HETATM    9  C7  UNL     1       5.366   1.298  -1.995  1.00  0.00     0.003 C 
HETATM   10  C8  UNL     1       6.403   1.239   0.232  1.00  0.00     0.003 C 
HETATM   11  C9  UNL     1       3.356   1.518   0.536  1.00  0.00     0.125 C 
HETATM   12  C10 UNL     1       2.334   1.152   1.615  1.00  0.00     0.038 C 
HETATM   13  C11 UNL     1       1.304   0.106   1.167  1.00  0.00     0.060 C 
HETATM   14  C12 UNL     1       1.946  -1.117   0.460  1.00  0.00     0.038 C 
HETATM   15  C13 UNL     1       0.880  -2.166   0.067  1.00  0.00     0.153 C 
HETATM   16  C14 UNL     1      -0.483  -1.603  -0.361  1.00  0.00     0.037 C 
HETATM   17  C15 UNL     1      -0.939  -0.399   0.477  1.00  0.00     0.028 C 
HETATM   18  C16 UNL     1       0.129   0.696   0.361  1.00  0.00     0.012 C 
HETATM   19  C17 UNL     1      -0.843  -0.691   1.949  1.00  0.00     0.012 C 
HETATM   20  C18 UNL     1       0.539  -0.417   2.395  1.00  0.00     0.168 C 
HETATM   21  O3  UNL     1       0.995  -0.578   3.518  1.00  0.00    -0.292 OA
HETATM   22  C19 UNL     1      -1.816  -1.145   2.755  1.00  0.00    -0.002 C 
HETATM   23  O4  UNL     1       0.663  -3.028   1.165  1.00  0.00    -0.223 OA
HETATM   24  C22 UNL     1       2.413  -0.392  -1.958  1.00  0.00     0.000 C 
ENDROOT
BRANCH  11  25
HETATM   25  O5  UNL     1       2.739   2.225  -0.494  1.00  0.00    -0.304 OA
BRANCH  25  26
HETATM   26  C20 UNL     1       2.657   3.584  -0.559  1.00  0.00     0.272 C 
HETATM   27  O6  UNL     1       2.105   4.143  -1.483  1.00  0.00    -0.264 OA
HETATM   28  C21 UNL     1       3.284   4.378   0.574  1.00  0.00     0.106 C 
ENDBRANCH  25  26
ENDBRANCH  11  25
TORSDOF 2
