REMARK  10 active torsions:
REMARK  status: ('A' for Active; 'I' for Inactive)
REMARK    1  A    between atoms: O1_1  and  C1_2 
REMARK    2  A    between atoms: O1_1  and  C29_40 
REMARK    3  A    between atoms: C2_3  and  O2_4 
REMARK    4  A    between atoms: O2_4  and  C3_5 
REMARK    5  A    between atoms: C11_14  and  O10_35 
REMARK    6  A    between atoms: C12_15  and  O8_31 
REMARK    7  A    between atoms: C15_18  and  O6_27 
REMARK    8  A    between atoms: O6_27  and  C22_28 
REMARK    9  A    between atoms: O8_31  and  C24_32 
REMARK   10  A    between atoms: O10_35  and  C26_36 
ROOT
HETATM    1  C1  UNL     1       6.040  -0.186  -1.105  1.00  0.00     0.152 C 
HETATM    2  C2  UNL     1       5.139  -1.190  -1.821  1.00  0.00     0.152 C 
HETATM    3  C5  UNL     1       3.867  -1.493  -1.020  1.00  0.00     0.033 C 
HETATM    4  C6  UNL     1       2.991  -0.251  -0.673  1.00  0.00     0.007 C 
HETATM    5  C7  UNL     1       3.956   0.801  -0.039  1.00  0.00     0.033 C 
HETATM    6  C8  UNL     1       5.299   1.134  -0.767  1.00  0.00     0.030 C 
HETATM    7  C9  UNL     1       5.156   1.996  -2.044  1.00  0.00     0.003 C 
HETATM    8  C10 UNL     1       6.238   1.976   0.147  1.00  0.00     0.003 C 
HETATM    9  C11 UNL     1       3.226   2.003   0.586  1.00  0.00     0.152 C 
HETATM   10  C12 UNL     1       2.231   1.571   1.662  1.00  0.00     0.155 C 
HETATM   11  C13 UNL     1       1.208   0.527   1.173  1.00  0.00     0.065 C 
HETATM   12  C14 UNL     1       1.893  -0.648   0.397  1.00  0.00     0.033 C 
HETATM   13  C15 UNL     1       0.867  -1.730  -0.048  1.00  0.00     0.127 C 
HETATM   14  C16 UNL     1      -0.471  -1.145  -0.542  1.00  0.00     0.065 C 
HETATM   15  C17 UNL     1      -0.961  -0.004   0.342  1.00  0.00     0.147 C 
HETATM   16  C18 UNL     1       0.060   1.129   0.330  1.00  0.00     0.040 C 
HETATM   17  C19 UNL     1      -0.951  -0.401   1.789  1.00  0.00     0.013 C 
HETATM   18  C20 UNL     1       0.373   0.003   2.377  1.00  0.00     0.175 C 
HETATM   19  O4  UNL     1       0.106   1.027   3.317  1.00  0.00    -0.219 OA
HETATM   20  C21 UNL     1      -1.931  -1.024   2.452  1.00  0.00    -0.004 C 
HETATM   21  O5  UNL     1      -2.221   0.461  -0.076  1.00  0.00    -0.222 OA
HETATM   22  C28 UNL     1       2.341   0.188  -2.004  1.00  0.00     0.000 C 
ENDROOT
BRANCH   1  23
HETATM   23  O1  UNL     1       6.525  -0.790   0.066  1.00  0.00    -0.302 OA
BRANCH  23  24
HETATM   24  C29 UNL     1       7.821  -1.175   0.261  1.00  0.00     0.272 C 
HETATM   25  O12 UNL     1       8.177  -1.714   1.288  1.00  0.00    -0.264 OA
HETATM   26  C30 UNL     1       8.813  -0.902  -0.856  1.00  0.00     0.106 C 
ENDBRANCH  23  24
ENDBRANCH   1  23
BRANCH   2  27
HETATM   27  O2  UNL     1       5.874  -2.367  -2.021  1.00  0.00    -0.302 OA
BRANCH  27  28
HETATM   28  C3  UNL     1       5.645  -3.102  -3.142  1.00  0.00     0.272 C 
HETATM   29  C4  UNL     1       6.604  -4.274  -3.197  1.00  0.00     0.106 C 
HETATM   30  O3  UNL     1       4.811  -2.850  -3.981  1.00  0.00    -0.264 OA
ENDBRANCH  27  28
ENDBRANCH   2  27
BRANCH   9  31
HETATM   31  O10 UNL     1       2.587   2.764  -0.394  1.00  0.00    -0.302 OA
BRANCH  31  32
HETATM   32  C26 UNL     1       2.566   4.118  -0.271  1.00  0.00     0.272 C 
HETATM   33  C27 UNL     1       1.868   4.734  -1.466  1.00  0.00     0.106 C 
HETATM   34  O11 UNL     1       3.038   4.745   0.650  1.00  0.00    -0.264 OA
ENDBRANCH  31  32
ENDBRANCH   9  31
BRANCH  10  35
HETATM   35  O8  UNL     1       2.940   1.024   2.744  1.00  0.00    -0.302 OA
BRANCH  35  36
HETATM   36  C24 UNL     1       3.128   1.648   3.943  1.00  0.00     0.272 C 
HETATM   37  O9  UNL     1       3.634   1.076   4.885  1.00  0.00    -0.264 OA
HETATM   38  C25 UNL     1       2.757   3.117   4.026  1.00  0.00     0.106 C 
ENDBRANCH  35  36
ENDBRANCH  10  35
BRANCH  13  39
HETATM   39  O6  UNL     1       0.567  -2.578   1.033  1.00  0.00    -0.304 OA
BRANCH  39  40
HETATM   40  C22 UNL     1       0.909  -3.892   1.141  1.00  0.00     0.272 C 
HETATM   41  O7  UNL     1       0.539  -4.568   2.079  1.00  0.00    -0.264 OA
HETATM   42  C23 UNL     1       1.804  -4.476   0.066  1.00  0.00     0.106 C 
ENDBRANCH  39  40
ENDBRANCH  13  39
TORSDOF 10
