REMARK  0 active torsions:
REMARK  status: ('A' for Active; 'I' for Inactive)
ROOT
HETATM    1  C1  UNL     1      -0.947   1.813   1.236  1.00  0.00     0.108 C 
HETATM    2  C2  UNL     1      -0.491   1.291  -0.130  1.00  0.00     0.022 C 
HETATM    3  C3  UNL     1      -0.149  -0.224  -0.256  1.00  0.00     0.017 C 
HETATM    4  C4  UNL     1       0.537  -0.715   1.051  1.00  0.00     0.006 C 
HETATM    5  C5  UNL     1       0.033  -0.137   2.383  1.00  0.00     0.032 C 
HETATM    6  C6  UNL     1      -0.030   1.392   2.378  1.00  0.00     0.141 C 
HETATM    7  O1  UNL     1      -0.644   1.805   3.574  1.00  0.00    -0.225 OA
HETATM    8  C7  UNL     1       1.368   2.016   2.350  1.00  0.00     0.034 C 
HETATM    9  C8  UNL     1      -1.435  -1.054  -0.452  1.00  0.00    -0.049 C 
HETATM   10  C9  UNL     1      -1.473  -2.142  -1.241  1.00  0.00    -0.034 C 
HETATM   11  C10 UNL     1      -0.341  -2.663  -2.072  1.00  0.00     0.037 C 
HETATM   12  C11 UNL     1       0.977  -1.981  -1.748  1.00  0.00     0.062 C 
HETATM   13  C12 UNL     1       0.808  -0.462  -1.510  1.00  0.00     0.013 C 
HETATM   14  C13 UNL     1       2.227   0.150  -1.322  1.00  0.00     0.001 C 
HETATM   15  C14 UNL     1       0.202   0.214  -2.768  1.00  0.00     0.001 C 
HETATM   16 BR1  UNL     1       2.290  -2.500  -3.101  1.00  0.00    -0.082 Br
HETATM   17  C15 UNL     1      -2.725  -0.689   0.252  1.00  0.00     0.026 C 
HETATM   18 CL1  UNL     1      -1.177   3.585   1.226  1.00  0.00    -0.113 Cl
ENDROOT
TORSDOF 0
