REMARK  0 active torsions:
REMARK  status: ('A' for Active; 'I' for Inactive)
ROOT
HETATM    1  C1  UNL     1      -2.489  -0.242   2.654  1.00  0.00     0.065 C 
HETATM    2  C2  UNL     1      -2.318  -1.734   2.450  1.00  0.00     0.150 C 
HETATM    3  C3  UNL     1      -1.943  -2.206   1.043  1.00  0.00     0.052 C 
HETATM    4  C4  UNL     1      -0.760  -1.336   0.524  1.00  0.00     0.009 C 
HETATM    5  C5  UNL     1      -0.875   0.206   0.672  1.00  0.00     0.001 C 
HETATM    6  C6  UNL     1      -1.273   0.533   2.136  1.00  0.00     0.008 C 
HETATM    7  C7  UNL     1       0.550   0.796   0.407  1.00  0.00     0.012 C 
HETATM    8  C8  UNL     1       1.163   0.411  -0.967  1.00  0.00     0.112 C 
HETATM    9  C9  UNL     1       0.471  -0.728  -1.718  1.00  0.00     0.161 C 
HETATM   10  C10 UNL     1      -0.212  -1.784  -0.849  1.00  0.00     0.034 C 
HETATM   11  O1  UNL     1      -0.443  -0.189  -2.645  1.00  0.00    -0.223 OA
HETATM   12  C11 UNL     1       1.361   1.672  -1.831  1.00  0.00     0.165 C 
HETATM   13  C12 UNL     1       2.515   2.354  -1.105  1.00  0.00     0.056 C 
HETATM   14  C13 UNL     1       2.017   2.939   0.228  1.00  0.00     0.007 C 
HETATM   15  C14 UNL     1       0.696   2.308   0.711  1.00  0.00     0.001 C 
HETATM   16  C15 UNL     1       3.382   1.152  -0.826  1.00  0.00     0.015 C 
HETATM   17  C16 UNL     1       2.631   0.031  -0.710  1.00  0.00     0.173 C 
HETATM   18  O2  UNL     1       3.026  -1.082  -0.452  1.00  0.00    -0.291 OA
HETATM   19  C17 UNL     1       4.714   1.174  -0.687  1.00  0.00    -0.002 C 
HETATM   20  O3  UNL     1       1.764   1.317  -3.133  1.00  0.00    -0.223 OA
HETATM   21  C18 UNL     1      -1.933   0.804  -0.282  1.00  0.00     0.000 C 
HETATM   22  C19 UNL     1      -1.513  -3.692   1.124  1.00  0.00     0.007 C 
HETATM   23  C20 UNL     1      -3.238  -2.153   0.205  1.00  0.00     0.007 C 
HETATM   24  O4  UNL     1      -2.526  -2.500   3.363  1.00  0.00    -0.296 OA
ENDROOT
TORSDOF 0
