REMARK  0 active torsions:
REMARK  status: ('A' for Active; 'I' for Inactive)
ROOT
HETATM    1  C1  UNL     1      -2.807   0.103   2.599  1.00  0.00     0.065 C 
HETATM    2  C2  UNL     1      -2.965  -1.381   2.336  1.00  0.00     0.150 C 
HETATM    3  C3  UNL     1      -2.304  -2.018   1.108  1.00  0.00     0.052 C 
HETATM    4  C4  UNL     1      -0.960  -1.302   0.793  1.00  0.00     0.009 C 
HETATM    5  C5  UNL     1      -0.920   0.259   0.821  1.00  0.00     0.001 C 
HETATM    6  C6  UNL     1      -1.431   0.672   2.228  1.00  0.00     0.008 C 
HETATM    7  C7  UNL     1       0.564   0.767   0.642  1.00  0.00     0.011 C 
HETATM    8  C8  UNL     1       1.382   0.086  -0.490  1.00  0.00     0.108 C 
HETATM    9  C9  UNL     1       1.251  -1.428  -0.342  1.00  0.00     0.161 C 
HETATM   10  C10 UNL     1      -0.203  -1.868  -0.428  1.00  0.00     0.034 C 
HETATM   11  O1  UNL     1       2.068  -2.112  -1.260  1.00  0.00    -0.223 OA
HETATM   12  C11 UNL     1       1.088   0.742  -1.844  1.00  0.00     0.161 C 
HETATM   13  C12 UNL     1       1.785   2.098  -1.706  1.00  0.00     0.038 C 
HETATM   14  C13 UNL     1       0.931   2.953  -0.754  1.00  0.00     0.003 C 
HETATM   15  C14 UNL     1       0.768   2.304   0.633  1.00  0.00     0.001 C 
HETATM   16  C15 UNL     1       3.154   1.774  -1.077  1.00  0.00     0.060 C 
HETATM   17  C16 UNL     1       2.872   0.434  -0.421  1.00  0.00     0.154 C 
HETATM   18  O2  UNL     1       3.713  -0.339  -0.027  1.00  0.00    -0.296 OA
HETATM   19  C17 UNL     1       4.311   1.719  -2.083  1.00  0.00     0.008 C 
HETATM   20  O3  UNL     1       1.670   0.032  -2.908  1.00  0.00    -0.223 OA
HETATM   21  C18 UNL     1      -1.857   0.896  -0.226  1.00  0.00     0.000 C 
HETATM   22  C19 UNL     1      -2.054  -3.511   1.456  1.00  0.00     0.007 C 
HETATM   23  C20 UNL     1      -3.327  -2.014  -0.046  1.00  0.00     0.007 C 
HETATM   24  O4  UNL     1      -3.678  -2.025   3.074  1.00  0.00    -0.296 OA
ENDROOT
TORSDOF 0
