REMARK  0 active torsions:
REMARK  status: ('A' for Active; 'I' for Inactive)
ROOT
HETATM    1  C1  UNL     1      -4.414  -1.724   0.492  1.00  0.00     0.156 A 
HETATM    2  C2  UNL     1      -3.960  -1.580   1.744  1.00  0.00     0.032 A 
HETATM    3  C3  UNL     1      -2.732  -1.099   1.961  1.00  0.00     0.027 A 
HETATM    4  C4  UNL     1      -1.927  -0.751   0.942  1.00  0.00     0.105 A 
HETATM    5  C5  UNL     1      -2.379  -0.896  -0.317  1.00  0.00     0.089 A 
HETATM    6  C6  UNL     1      -3.623  -1.382  -0.545  1.00  0.00     0.161 A 
HETATM    7  O1  UNL     1      -4.148  -1.553  -1.793  1.00  0.00    -0.188 OA
HETATM    8  C7  UNL     1      -1.554  -0.540  -1.345  1.00  0.00     0.203 A 
HETATM    9  C8  UNL     1      -0.303  -0.045  -1.100  1.00  0.00     0.087 A 
HETATM   10  C9  UNL     1       0.106   0.085   0.182  1.00  0.00     0.107 A 
HETATM   11  O2  UNL     1      -0.692  -0.268   1.230  1.00  0.00    -0.307 OA
HETATM   12  C10 UNL     1       1.337   0.574   0.457  1.00  0.00     0.045 A 
HETATM   13  C11 UNL     1       2.180   0.956  -0.519  1.00  0.00     0.098 A 
HETATM   14  C12 UNL     1       1.737   0.801  -1.775  1.00  0.00     0.052 A 
HETATM   15  C13 UNL     1       0.529   0.315  -2.106  1.00  0.00     0.138 A 
HETATM   16  O3  UNL     1       0.262   0.246  -3.445  1.00  0.00    -0.190 OA
HETATM   17  O4  UNL     1       3.436   1.473  -0.331  1.00  0.00    -0.331 OA
HETATM   18  C14 UNL     1       3.983   1.483   0.960  1.00  0.00     0.117 C 
HETATM   19  C15 UNL     1       2.970   1.155   2.023  1.00  0.00     0.001 C 
HETATM   20  C16 UNL     1       1.744   0.709   1.732  1.00  0.00     0.002 C 
HETATM   21  C17 UNL     1       4.549   2.884   1.217  1.00  0.00     0.035 C 
HETATM   22  C18 UNL     1       5.106   0.440   1.014  1.00  0.00     0.035 C 
HETATM   23  O5  UNL     1      -1.945  -0.670  -2.482  1.00  0.00    -0.286 OA
HETATM   24  O6  UNL     1      -5.665  -2.212   0.277  1.00  0.00    -0.188 OA
ENDROOT
TORSDOF 0
