REMARK  7 active torsions:
REMARK  status: ('A' for Active; 'I' for Inactive)
REMARK    1  A    between atoms: C4_4  and  C13_14 
REMARK    2  A    between atoms: C5_5  and  C9_9 
REMARK    3  A    between atoms: C9_9  and  C10_10 
REMARK    4  A    between atoms: C10_10  and  C11_11 
REMARK    5  A    between atoms: C13_14  and  O2_15 
REMARK    6  A    between atoms: O2_15  and  C14_16 
REMARK    7  A    between atoms: C15_18  and  C19_25 
ROOT
HETATM    1  C1  UNL     1      -4.579  -0.086  -1.574  1.00  0.00     0.069 C 
HETATM    2  C2  UNL     1      -4.296  -1.574  -1.593  1.00  0.00     0.172 C 
HETATM    3  C3  UNL     1      -3.130  -2.009  -1.058  1.00  0.00     0.031 C 
HETATM    4  C4  UNL     1      -2.210  -1.210  -0.486  1.00  0.00    -0.012 C 
HETATM    5  C5  UNL     1      -2.407   0.300  -0.396  1.00  0.00     0.021 C 
HETATM    6  C6  UNL     1      -3.929   0.625  -0.371  1.00  0.00     0.011 C 
HETATM    7  C7  UNL     1      -4.218   2.135  -0.512  1.00  0.00     0.001 C 
HETATM    8  C8  UNL     1      -4.618   0.124   0.921  1.00  0.00     0.001 C 
HETATM    9  O8  UNL     1      -5.083  -2.341  -2.101  1.00  0.00    -0.291 OA
ENDROOT
BRANCH   4  10
HETATM   10  C13 UNL     1      -0.885  -1.828  -0.069  1.00  0.00     0.167 C 
BRANCH  10  11
HETATM   11  O2  UNL     1       0.188  -1.190  -0.743  1.00  0.00    -0.324 OA
BRANCH  11  12
HETATM   12  C14 UNL     1       1.256  -2.039  -1.097  1.00  0.00     0.270 C 
HETATM   13  O3  UNL     1       1.917  -2.491   0.063  1.00  0.00    -0.326 OA
HETATM   14  C15 UNL     1       2.760  -1.580   0.718  1.00  0.00     0.184 C 
HETATM   15  C16 UNL     1       3.720  -0.860  -0.221  1.00  0.00     0.215 C 
HETATM   16  C17 UNL     1       3.046  -0.290  -1.455  1.00  0.00     0.220 C 
HETATM   17  O6  UNL     1       4.700  -1.780  -0.647  1.00  0.00    -0.218 OA
HETATM   18  C18 UNL     1       2.180  -1.360  -2.084  1.00  0.00     0.241 C 
HETATM   19  O5  UNL     1       2.266   0.832  -1.122  1.00  0.00    -0.218 OA
HETATM   20  O4  UNL     1       3.018  -2.329  -2.677  1.00  0.00    -0.215 OA
BRANCH  14  21
HETATM   21  C19 UNL     1       1.998  -0.672   1.671  1.00  0.00     0.214 C 
HETATM   22  O7  UNL     1       2.902  -0.029   2.548  1.00  0.00    -0.218 OA
ENDBRANCH  14  21
ENDBRANCH  11  12
ENDBRANCH  10  11
ENDBRANCH   4  10
BRANCH   5  23
HETATM   23  C9  UNL     1      -1.618   1.036   0.715  1.00  0.00     0.007 C 
BRANCH  23  24
HETATM   24  C10 UNL     1      -0.936   2.333   0.235  1.00  0.00     0.033 C 
BRANCH  24  25
HETATM   25  C11 UNL     1      -0.473   3.273   1.351  1.00  0.00     0.152 C 
HETATM   26  C12 UNL     1       0.602   2.685   2.259  1.00  0.00     0.036 C 
HETATM   27  O1  UNL     1      -1.578   3.658   2.135  1.00  0.00    -0.224 OA
ENDBRANCH  24  25
ENDBRANCH  23  24
ENDBRANCH   5  23
TORSDOF 7
