REMARK  1 active torsions:
REMARK  status: ('A' for Active; 'I' for Inactive)
REMARK    1  A    between atoms: C5_5  and  C9_11 
ROOT
HETATM    1  C1  UNL     1      -1.602  -1.562  -1.020  1.00  0.00     0.041 C 
HETATM    2  C2  UNL     1      -0.800  -2.327  -2.059  1.00  0.00     0.174 C 
HETATM    3  C3  UNL     1       0.590  -2.458  -1.520  1.00  0.00     0.004 C 
HETATM    4  C4  UNL     1       1.159  -1.470  -0.815  1.00  0.00     0.001 C 
HETATM    5  C5  UNL     1       0.530  -0.093  -0.583  1.00  0.00     0.147 C 
HETATM    6  C6  UNL     1      -1.001  -0.170  -0.755  1.00  0.00     0.045 C 
HETATM    7  C7  UNL     1      -1.317   0.804  -1.896  1.00  0.00     0.099 C 
HETATM    8  C8  UNL     1       0.026   1.220  -2.433  1.00  0.00     0.272 C 
HETATM    9  O1  UNL     1       0.997   0.709  -1.644  1.00  0.00    -0.300 OA
HETATM   10  O2  UNL     1       0.215   1.914  -3.407  1.00  0.00    -0.264 OA
HETATM   11  O6  UNL     1      -1.372  -3.606  -2.261  1.00  0.00    -0.219 OA
ENDROOT
BRANCH   5  12
HETATM   12  C9  UNL     1       1.051   0.586   0.733  1.00  0.00     0.150 C 
HETATM   13  C10 UNL     1       0.608   2.034   0.977  1.00  0.00     0.072 C 
HETATM   14  C11 UNL     1      -0.830   2.155   1.500  1.00  0.00     0.177 C 
HETATM   15  C12 UNL     1      -1.227   1.032   2.433  1.00  0.00     0.006 C 
HETATM   16  O5  UNL     1      -0.955   3.383   2.197  1.00  0.00    -0.218 OA
HETATM   17  C13 UNL     1      -0.449  -0.035   2.673  1.00  0.00    -0.004 C 
HETATM   18  C14 UNL     1       0.698  -0.172   1.995  1.00  0.00     0.010 C 
HETATM   19  C15 UNL     1       1.753  -0.889   2.396  1.00  0.00     0.066 C 
HETATM   20  C16 UNL     1       2.788  -0.474   1.627  1.00  0.00     0.296 C 
HETATM   21  O3  UNL     1       2.465   0.488   0.704  1.00  0.00    -0.296 OA
HETATM   22  O4  UNL     1       3.921  -0.875   1.787  1.00  0.00    -0.259 OA
ENDBRANCH   5  12
TORSDOF 1
