REMARK  9 active torsions:
REMARK  status: ('A' for Active; 'I' for Inactive)
REMARK    1  A    between atoms: C5_5  and  C7_7 
REMARK    2  A    between atoms: C7_7  and  C8_8 
REMARK    3  A    between atoms: C8_8  and  O1_9 
REMARK    4  A    between atoms: O1_9  and  C9_10 
REMARK    5  A    between atoms: C9_10  and  C10_11 
REMARK    6  A    between atoms: C14_15  and  O3_17 
REMARK    7  A    between atoms: O3_17  and  C15_18 
REMARK    8  A    between atoms: C15_18  and  C16_19 
REMARK    9  A    between atoms: C16_19  and  C17_20 
ROOT
HETATM    1  C10 UNL     1       2.618   1.109   0.539  1.00  0.00     0.181 C 
HETATM    2  C11 UNL     1       3.029   1.587   1.924  1.00  0.00     0.215 C 
HETATM    3  C12 UNL     1       2.140   2.691   2.461  1.00  0.00     0.220 C 
HETATM    4  C13 UNL     1       2.022   3.792   1.422  1.00  0.00     0.241 C 
HETATM    5  C14 UNL     1       1.653   3.256   0.053  1.00  0.00     0.276 C 
HETATM    6  O2  UNL     1       2.473   2.181  -0.358  1.00  0.00    -0.326 OA
HETATM    7  O6  UNL     1       3.263   4.455   1.326  1.00  0.00    -0.215 OA
HETATM    8  O7  UNL     1       0.859   2.192   2.760  1.00  0.00    -0.218 OA
HETATM    9  O8  UNL     1       4.354   2.071   1.867  1.00  0.00    -0.218 OA
ENDROOT
BRANCH   1  10
HETATM   10  C9  UNL     1       1.438   0.138   0.470  1.00  0.00     0.184 C 
BRANCH  10  11
HETATM   11  O1  UNL     1       1.729  -1.106   1.058  1.00  0.00    -0.299 OA
BRANCH  11  12
HETATM   12  C8  UNL     1       1.284  -1.322   2.328  1.00  0.00     0.276 C 
HETATM   13  O9  UNL     1       0.880  -0.468   3.084  1.00  0.00    -0.264 OA
BRANCH  12  14
HETATM   14  C7  UNL     1       1.269  -2.810   2.632  1.00  0.00     0.117 C 
BRANCH  14  15
HETATM   15  C5  UNL     1       0.107  -3.551   2.006  1.00  0.00    -0.038 C 
HETATM   16  C4  UNL     1       0.195  -5.057   2.066  1.00  0.00     0.025 C 
HETATM   17  C3  UNL     1      -1.135  -5.746   1.730  1.00  0.00     0.038 C 
HETATM   18  C2  UNL     1      -1.784  -5.116   0.503  1.00  0.00     0.157 C 
HETATM   19  C1  UNL     1      -2.085  -3.643   0.765  1.00  0.00     0.058 C 
HETATM   20  O10 UNL     1      -0.918  -5.233  -0.601  1.00  0.00    -0.223 OA
HETATM   21  C6  UNL     1      -0.931  -2.930   1.419  1.00  0.00    -0.032 C 
ENDBRANCH  14  15
ENDBRANCH  12  14
ENDBRANCH  11  12
ENDBRANCH  10  11
ENDBRANCH   1  10
BRANCH   5  22
HETATM   22  O3  UNL     1       0.306   2.856   0.021  1.00  0.00    -0.273 OA
BRANCH  22  23
HETATM   23  C15 UNL     1      -0.299   2.635  -1.178  1.00  0.00     0.278 C 
HETATM   24  O5  UNL     1       0.231   2.800  -2.253  1.00  0.00    -0.264 OA
BRANCH  23  25
HETATM   25  C16 UNL     1      -1.712   2.125  -0.930  1.00  0.00     0.118 C 
BRANCH  25  26
HETATM   26  C17 UNL     1      -2.450   1.588  -2.134  1.00  0.00    -0.038 C 
HETATM   27  C18 UNL     1      -3.125   0.246  -1.965  1.00  0.00     0.025 C 
HETATM   28  C19 UNL     1      -4.159  -0.038  -3.063  1.00  0.00     0.038 C 
HETATM   29  C20 UNL     1      -3.600   0.307  -4.438  1.00  0.00     0.157 C 
HETATM   30  C21 UNL     1      -3.256   1.792  -4.511  1.00  0.00     0.058 C 
HETATM   31  O4  UNL     1      -2.444  -0.461  -4.676  1.00  0.00    -0.223 OA
HETATM   32  C22 UNL     1      -2.534   2.279  -3.283  1.00  0.00    -0.032 C 
ENDBRANCH  25  26
ENDBRANCH  23  25
ENDBRANCH  22  23
ENDBRANCH   5  22
TORSDOF 9
