REMARK  2 active torsions:
REMARK  status: ('A' for Active; 'I' for Inactive)
REMARK    1  A    between atoms: C5_5  and  C8_8 
REMARK    2  A    between atoms: C8_8  and  C9_9 
ROOT
HETATM    1  C1  UNL     1       0.620  -0.211  -0.687  1.00  0.00    -0.024 A 
HETATM    2  C2  UNL     1       0.333  -0.758   0.499  1.00  0.00     0.028 A 
HETATM    3  C3  UNL     1      -0.879  -0.623   1.050  1.00  0.00     0.125 A 
HETATM    4  C4  UNL     1      -1.791   0.137   0.409  1.00  0.00    -0.001 A 
HETATM    5  C5  UNL     1      -1.494   0.730  -0.773  1.00  0.00    -0.026 A 
HETATM    6  C6  UNL     1      -0.279   0.542  -1.343  1.00  0.00    -0.030 A 
HETATM    7  C7  UNL     1       0.068   1.134  -2.696  1.00  0.00     0.030 C 
HETATM    8  C10 UNL     1      -3.159   0.291   1.052  1.00  0.00     0.033 C 
HETATM    9  O2  UNL     1      -1.168  -1.298   2.195  1.00  0.00    -0.191 OA
HETATM   10  C11 UNL     1       1.478  -1.566   1.056  1.00  0.00     0.173 C 
HETATM   11  C12 UNL     1       2.632  -1.065   0.176  1.00  0.00     0.160 C 
HETATM   12  C13 UNL     1       1.999  -0.609  -1.145  1.00  0.00     0.059 C 
HETATM   13  O3  UNL     1       3.135   0.107   0.768  1.00  0.00    -0.223 OA
HETATM   14  C14 UNL     1       3.787  -2.039  -0.022  1.00  0.00     0.036 C 
HETATM   15  O4  UNL     1       1.166  -2.912   0.787  1.00  0.00    -0.219 OA
HETATM   16  C15 UNL     1       1.759  -1.420   2.552  1.00  0.00     0.040 C 
ENDROOT
BRANCH   5  17
HETATM   17  C8  UNL     1      -2.547   1.566  -1.492  1.00  0.00     0.061 C 
BRANCH  17  18
HETATM   18  C9  UNL     1      -2.469   3.038  -1.094  1.00  0.00     0.187 C 
HETATM   19  O1  UNL     1      -3.480   3.760  -1.768  1.00  0.00    -0.220 OA
ENDBRANCH  17  18
ENDBRANCH   5  17
TORSDOF 2
