REMARK  2 active torsions:
REMARK  status: ('A' for Active; 'I' for Inactive)
REMARK    1  A    between atoms: C5_5  and  C8_8 
REMARK    2  A    between atoms: C8_8  and  C9_9 
ROOT
HETATM    1  C1  UNL     1       0.829  -0.349  -0.489  1.00  0.00    -0.022 A 
HETATM    2  C2  UNL     1       0.517  -0.944   0.672  1.00  0.00     0.019 A 
HETATM    3  C3  UNL     1      -0.721  -0.812   1.180  1.00  0.00     0.126 A 
HETATM    4  C4  UNL     1      -1.629  -0.075   0.503  1.00  0.00    -0.001 A 
HETATM    5  C5  UNL     1      -1.317   0.514  -0.676  1.00  0.00    -0.026 A 
HETATM    6  C6  UNL     1      -0.069   0.377  -1.180  1.00  0.00    -0.030 A 
HETATM    7  C7  UNL     1       0.329   1.024  -2.494  1.00  0.00     0.030 C 
HETATM    8  C10 UNL     1      -3.003   0.055   1.144  1.00  0.00     0.033 C 
HETATM    9  O2  UNL     1      -1.053  -1.343   2.388  1.00  0.00    -0.191 OA
HETATM   10  C11 UNL     1       1.591  -1.616   1.131  1.00  0.00     0.007 C 
HETATM   11  C12 UNL     1       2.818  -1.359   0.278  1.00  0.00     0.150 C 
HETATM   12  C13 UNL     1       2.244  -0.619  -0.932  1.00  0.00     0.061 C 
HETATM   13  O3  UNL     1       3.643  -0.472   1.000  1.00  0.00    -0.221 OA
HETATM   14  C14 UNL     1       3.629  -2.586  -0.128  1.00  0.00     0.038 C 
HETATM   15  C15 UNL     1       1.690  -2.417   2.204  1.00  0.00    -0.002 C 
ENDROOT
BRANCH   5  16
HETATM   16  C8  UNL     1      -2.351   1.346  -1.426  1.00  0.00     0.061 C 
BRANCH  16  17
HETATM   17  C9  UNL     1      -2.501   2.733  -0.805  1.00  0.00     0.187 C 
HETATM   18  O1  UNL     1      -3.420   3.494  -1.563  1.00  0.00    -0.220 OA
ENDBRANCH  16  17
ENDBRANCH   5  16
TORSDOF 2
