REMARK  10 active torsions:
REMARK  status: ('A' for Active; 'I' for Inactive)
REMARK    1  A    between atoms: C8_10  and  C9_11 
REMARK    2  A    between atoms: C9_11  and  C10_12 
REMARK    3  A    between atoms: C12_14  and  O5_21 
REMARK    4  A    between atoms: C14_16  and  O3_18 
REMARK    5  A    between atoms: C18_23  and  C26_38 
REMARK    6  A    between atoms: C21_27  and  C25_35 
REMARK    7  A    between atoms: C22_30  and  C24_33 
REMARK    8  A    between atoms: C26_38  and  C27_39 
REMARK    9  A    between atoms: C28_40  and  O15_48 
REMARK   10  A    between atoms: C31_43  and  O13_45 
ROOT
HETATM    1  C1  UNL     1      -2.532  -4.356   2.996  1.00  0.00     0.215 C 
HETATM    2  C2  UNL     1      -1.682  -5.617   3.051  1.00  0.00     0.220 C 
HETATM    3  C3  UNL     1      -0.786  -5.690   1.835  1.00  0.00     0.241 C 
HETATM    4  C4  UNL     1       0.082  -4.449   1.702  1.00  0.00     0.272 C 
HETATM    5  O1  UNL     1      -0.545  -3.280   2.204  1.00  0.00    -0.326 OA
HETATM    6  C5  UNL     1      -1.936  -3.303   2.059  1.00  0.00     0.181 C 
HETATM    7  C6  UNL     1      -2.515  -1.915   2.343  1.00  0.00     0.184 C 
HETATM    8  O2  UNL     1      -1.854  -0.837   1.726  1.00  0.00    -0.296 OA
HETATM    9  C7  UNL     1      -1.612  -0.828   0.379  1.00  0.00     0.296 C 
HETATM   10  C8  UNL     1      -1.000   0.215  -0.275  1.00  0.00     0.068 C 
HETATM   11  C18 UNL     1      -0.674   0.076  -1.587  1.00  0.00     0.068 C 
HETATM   12  C19 UNL     1      -0.127  -1.123  -1.988  1.00  0.00     0.296 C 
HETATM   13  O6  UNL     1       0.210  -2.107  -1.096  1.00  0.00    -0.293 OA
HETATM   14  C20 UNL     1       1.391  -2.843  -1.277  1.00  0.00     0.211 C 
HETATM   15  C21 UNL     1       1.584  -3.725  -0.042  1.00  0.00     0.249 C 
HETATM   16  O7  UNL     1       0.311  -4.206   0.331  1.00  0.00    -0.304 OA
HETATM   17  O8  UNL     1       2.103  -2.860   0.932  1.00  0.00    -0.328 OA
HETATM   18  C22 UNL     1       2.869  -1.857   0.317  1.00  0.00     0.184 C 
HETATM   19  C23 UNL     1       2.611  -1.938  -1.184  1.00  0.00     0.214 C 
HETATM   20  O9  UNL     1       2.409  -0.677  -1.769  1.00  0.00    -0.218 OA
HETATM   21  O12 UNL     1       0.300  -1.258  -3.117  1.00  0.00    -0.259 OA
HETATM   22  O16 UNL     1      -2.067  -1.727  -0.295  1.00  0.00    -0.259 OA
HETATM   23  O17 UNL     1       0.036  -6.826   1.953  1.00  0.00    -0.215 OA
HETATM   24  O18 UNL     1      -0.851  -5.605   4.188  1.00  0.00    -0.218 OA
HETATM   25  O19 UNL     1      -3.821  -4.692   2.531  1.00  0.00    -0.218 OA
ENDROOT
BRANCH  10  26
HETATM   26  C9  UNL     1      -0.783   1.335   0.459  1.00  0.00     0.006 C 
BRANCH  26  27
HETATM   27  C10 UNL     1      -0.015   2.429   0.239  1.00  0.00     0.004 A 
HETATM   28  C11 UNL     1      -0.156   3.509   1.032  1.00  0.00     0.026 A 
HETATM   29  C12 UNL     1       0.536   4.652   0.866  1.00  0.00     0.121 A 
HETATM   30  C13 UNL     1       1.451   4.687  -0.124  1.00  0.00     0.175 A 
HETATM   31  C14 UNL     1       1.677   3.623  -0.921  1.00  0.00     0.121 A 
HETATM   32  O4  UNL     1       2.185   5.820  -0.322  1.00  0.00    -0.186 OA
HETATM   33  C15 UNL     1       0.960   2.510  -0.683  1.00  0.00     0.026 A 
BRANCH  29  34
HETATM   34  O5  UNL     1       0.403   5.770   1.658  1.00  0.00    -0.326 OA
HETATM   35  C17 UNL     1      -0.344   5.682   2.850  1.00  0.00     0.181 C 
ENDBRANCH  29  34
BRANCH  31  36
HETATM   36  O3  UNL     1       2.668   3.729  -1.869  1.00  0.00    -0.326 OA
HETATM   37  C16 UNL     1       3.180   2.562  -2.470  1.00  0.00     0.181 C 
ENDBRANCH  31  36
ENDBRANCH  26  27
ENDBRANCH  10  26
BRANCH  11  38
HETATM   38  C26 UNL     1      -0.714   1.075  -2.505  1.00  0.00     0.007 C 
BRANCH  38  39
HETATM   39  C27 UNL     1      -1.342   2.277  -2.504  1.00  0.00     0.025 A 
HETATM   40  C28 UNL     1      -0.993   3.212  -3.425  1.00  0.00     0.096 A 
HETATM   41  C29 UNL     1      -1.664   4.380  -3.400  1.00  0.00     0.054 A 
HETATM   42  C30 UNL     1      -2.657   4.657  -2.543  1.00  0.00     0.155 A 
HETATM   43  C31 UNL     1      -2.992   3.742  -1.618  1.00  0.00     0.119 A 
HETATM   44  O14 UNL     1      -3.324   5.842  -2.592  1.00  0.00    -0.188 OA
HETATM   45  C32 UNL     1      -2.360   2.556  -1.667  1.00  0.00     0.028 A 
BRANCH  40  46
HETATM   46  O15 UNL     1       0.045   2.969  -4.299  1.00  0.00    -0.328 OA
HETATM   47  C34 UNL     1       0.597   4.033  -5.039  1.00  0.00     0.181 C 
ENDBRANCH  40  46
BRANCH  43  48
HETATM   48  O13 UNL     1      -4.057   3.970  -0.784  1.00  0.00    -0.326 OA
HETATM   49  C33 UNL     1      -3.698   4.569   0.441  1.00  0.00     0.181 C 
ENDBRANCH  43  48
ENDBRANCH  38  39
ENDBRANCH  11  38
BRANCH  15  50
HETATM   50  C25 UNL     1       2.484  -4.938  -0.235  1.00  0.00     0.241 C 
HETATM   51  O11 UNL     1       3.763  -4.586  -0.714  1.00  0.00    -0.215 OA
ENDBRANCH  15  50
BRANCH  18  52
HETATM   52  C24 UNL     1       2.532  -0.521   0.962  1.00  0.00     0.214 C 
HETATM   53  O10 UNL     1       2.869  -0.547   2.334  1.00  0.00    -0.218 OA
ENDBRANCH  18  52
TORSDOF 10
