REMARK  27 active torsions:
REMARK  status: ('A' for Active; 'I' for Inactive)
REMARK    1  A    between atoms: C4_4  and  O4_12 
REMARK    2  A    between atoms: C5_6  and  C6_7 
REMARK    3  A    between atoms: C6_7  and  O2_8 
REMARK    4  A    between atoms: O2_8  and  C7_9 
REMARK    5  A    between atoms: O4_12  and  C9_13 
REMARK    6  A    between atoms: C9_13  and  O23_67 
REMARK    7  A    between atoms: C10_14  and  O17_55 
REMARK    8  A    between atoms: C11_15  and  O8_24 
REMARK    9  A    between atoms: C12_17  and  C14_19 
REMARK   10  A    between atoms: C14_19  and  O6_20 
REMARK   11  A    between atoms: O6_20  and  C15_21 
REMARK   12  A    between atoms: O8_24  and  C17_25 
REMARK   13  A    between atoms: C17_25  and  C29_42 
REMARK   14  A    between atoms: C18_27  and  C28_40 
REMARK   15  A    between atoms: C20_29  and  O10_30 
REMARK   16  A    between atoms: O10_30  and  C21_31 
REMARK   17  A    between atoms: C21_31  and  C22_33 
REMARK   18  A    between atoms: C29_42  and  O14_43 
REMARK   19  A    between atoms: O14_43  and  C30_44 
REMARK   20  A    between atoms: C30_44  and  C31_45 
REMARK   21  A    between atoms: C32_46  and  C33_47 
REMARK   22  A    between atoms: O17_55  and  C39_56 
REMARK   23  A    between atoms: C40_58  and  C44_65 
REMARK   24  A    between atoms: O23_67  and  C45_68 
REMARK   25  A    between atoms: C45_68  and  C46_70 
REMARK   26  A    between atoms: C47_71  and  C48_72 
REMARK   27  A    between atoms: C52_76  and  O25_78 
ROOT
HETATM    1  C9  UNL     1       1.445   0.238  -0.370  1.00  0.00     0.230 C 
HETATM    2  C10 UNL     1      -0.362   0.616  -0.388  1.00  0.00     0.226 C 
HETATM    3  C11 UNL     1      -1.567  -0.719  -0.688  1.00  0.00     0.271 C 
HETATM    4  O5  UNL     1      -1.087  -2.058  -1.617  1.00  0.00    -0.329 OA
HETATM    5  C12 UNL     1       0.545  -2.689  -1.611  1.00  0.00     0.153 C 
HETATM    6  C13 UNL     1       1.945  -1.627  -0.741  1.00  0.00     0.092 C 
ENDROOT
BRANCH   3   7
HETATM    7  O8  UNL     1      -2.911  -0.260  -0.869  1.00  0.00    -0.304 OA
BRANCH   7   8
HETATM    8  C17 UNL     1      -3.819  -0.608   0.213  1.00  0.00     0.247 C 
HETATM    9  O9  UNL     1      -5.034   0.111   0.057  1.00  0.00    -0.328 OA
HETATM   10  C18 UNL     1      -5.962  -0.567   0.877  1.00  0.00     0.184 C 
HETATM   11  C19 UNL     1      -5.694  -2.043   0.646  1.00  0.00     0.214 C 
HETATM   12  C20 UNL     1      -4.313  -2.026   0.016  1.00  0.00     0.211 C 
HETATM   13  O12 UNL     1      -6.603  -2.612  -0.262  1.00  0.00    -0.218 OA
BRANCH  10  14
HETATM   14  C28 UNL     1      -7.387  -0.069   0.756  1.00  0.00     0.214 C 
HETATM   15  O13 UNL     1      -7.619   0.941   1.724  1.00  0.00    -0.218 OA
ENDBRANCH  10  14
BRANCH  12  16
HETATM   16  O10 UNL     1      -3.473  -3.017   0.495  1.00  0.00    -0.293 OA
BRANCH  16  17
HETATM   17  C21 UNL     1      -2.995  -4.107  -0.179  1.00  0.00     0.296 C 
HETATM   18  O11 UNL     1      -2.313  -4.801   0.548  1.00  0.00    -0.259 OA
BRANCH  17  19
HETATM   19  C22 UNL     1      -3.118  -4.570  -1.470  1.00  0.00     0.063 A 
HETATM   20  C23 UNL     1      -2.529  -5.747  -1.792  1.00  0.00     0.005 A 
HETATM   21  C24 UNL     1      -2.606  -6.297  -3.015  1.00  0.00     0.000 A 
HETATM   22  C25 UNL     1      -3.282  -5.685  -3.994  1.00  0.00     0.000 A 
HETATM   23  C26 UNL     1      -3.858  -4.510  -3.723  1.00  0.00     0.000 A 
HETATM   24  C27 UNL     1      -3.774  -3.981  -2.492  1.00  0.00     0.005 A 
ENDBRANCH  17  19
ENDBRANCH  16  17
ENDBRANCH  12  16
BRANCH   8  25
HETATM   25  C29 UNL     1      -3.293  -0.215   1.602  1.00  0.00     0.211 C 
BRANCH  25  26
HETATM   26  O14 UNL     1      -3.569  -1.052   2.703  1.00  0.00    -0.293 OA
BRANCH  26  27
HETATM   27  C30 UNL     1      -2.689  -0.846   3.734  1.00  0.00     0.296 C 
HETATM   28  O16 UNL     1      -1.501  -0.926   3.511  1.00  0.00    -0.259 OA
BRANCH  27  29
HETATM   29  C31 UNL     1      -3.098  -0.546   4.993  1.00  0.00     0.068 C 
HETATM   30  C32 UNL     1      -2.378  -0.100   6.046  1.00  0.00     0.005 C 
BRANCH  30  31
HETATM   31  C33 UNL     1      -1.139   0.425   6.159  1.00  0.00     0.000 A 
HETATM   32  C34 UNL     1      -0.418   0.925   5.135  1.00  0.00     0.002 A 
HETATM   33  C35 UNL     1       0.795   1.465   5.306  1.00  0.00     0.027 A 
HETATM   34  C36 UNL     1       1.353   1.570   6.520  1.00  0.00     0.131 A 
HETATM   35  C37 UNL     1       0.620   1.140   7.560  1.00  0.00     0.027 A 
HETATM   36  O15 UNL     1       2.579   2.134   6.686  1.00  0.00    -0.190 OA
HETATM   37  C38 UNL     1      -0.595   0.597   7.384  1.00  0.00     0.002 A 
ENDBRANCH  30  31
ENDBRANCH  27  29
ENDBRANCH  26  27
ENDBRANCH  25  26
ENDBRANCH   8  25
ENDBRANCH   7   8
ENDBRANCH   3   7
BRANCH   2  38
HETATM   38  O17 UNL     1      -0.567   1.327   0.805  1.00  0.00    -0.321 OA
BRANCH  38  39
HETATM   39  C39 UNL     1      -1.493   2.394   0.772  1.00  0.00     0.270 C 
HETATM   40  O18 UNL     1      -1.956   2.391   2.103  1.00  0.00    -0.326 OA
HETATM   41  C40 UNL     1      -3.025   3.268   2.311  1.00  0.00     0.184 C 
HETATM   42  C41 UNL     1      -2.507   4.686   2.125  1.00  0.00     0.215 C 
HETATM   43  C42 UNL     1      -1.801   4.852   0.783  1.00  0.00     0.220 C 
HETATM   44  O21 UNL     1      -1.621   4.984   3.178  1.00  0.00    -0.218 OA
HETATM   45  C43 UNL     1      -0.825   3.718   0.494  1.00  0.00     0.241 C 
HETATM   46  O20 UNL     1      -2.770   4.862  -0.241  1.00  0.00    -0.218 OA
HETATM   47  O19 UNL     1       0.317   3.837   1.312  1.00  0.00    -0.215 OA
BRANCH  41  48
HETATM   48  C44 UNL     1      -3.581   3.017   3.712  1.00  0.00     0.214 C 
HETATM   49  O22 UNL     1      -4.607   2.039   3.712  1.00  0.00    -0.218 OA
ENDBRANCH  41  48
ENDBRANCH  38  39
ENDBRANCH   2  38
BRANCH   1  50
HETATM   50  O4  UNL     1       2.004   1.411  -1.088  1.00  0.00    -0.305 OA
BRANCH  50  51
HETATM   51  C4  UNL     1       3.259   1.184  -1.682  1.00  0.00     0.272 C 
HETATM   52  C3  UNL     1       3.816   1.831  -3.527  1.00  0.00     0.241 C 
HETATM   53  C2  UNL     1       5.541   1.120  -3.947  1.00  0.00     0.220 C 
HETATM   54  O27 UNL     1       3.499   1.327  -4.867  1.00  0.00    -0.215 OA
HETATM   55  C1  UNL     1       6.324   0.275  -2.677  1.00  0.00     0.215 C 
HETATM   56  O28 UNL     1       6.346   2.098  -4.581  1.00  0.00    -0.218 OA
HETATM   57  C5  UNL     1       5.623  -0.033  -1.125  1.00  0.00     0.181 C 
HETATM   58  O29 UNL     1       6.847  -0.947  -3.149  1.00  0.00    -0.218 OA
HETATM   59  O1  UNL     1       4.359   0.688  -0.649  1.00  0.00    -0.326 OA
BRANCH  57  60
HETATM   60  C6  UNL     1       6.687   0.319  -0.039  1.00  0.00     0.184 C 
BRANCH  60  61
HETATM   61  O2  UNL     1       6.846  -0.652   0.967  1.00  0.00    -0.299 OA
BRANCH  61  62
HETATM   62  C7  UNL     1       7.648  -0.277   2.000  1.00  0.00     0.273 C 
HETATM   63  C8  UNL     1       7.974  -1.437   2.920  1.00  0.00     0.106 C 
HETATM   64  O3  UNL     1       8.110   0.829   2.167  1.00  0.00    -0.264 OA
ENDBRANCH  61  62
ENDBRANCH  60  61
ENDBRANCH  57  60
ENDBRANCH  50  51
ENDBRANCH   1  50
BRANCH   1  65
HETATM   65  O23 UNL     1       1.969   0.541   0.891  1.00  0.00    -0.275 OA
BRANCH  65  66
HETATM   66  C45 UNL     1       1.395  -0.371   1.648  1.00  0.00     0.298 C 
HETATM   67  O24 UNL     1       1.642  -0.419   2.838  1.00  0.00    -0.259 OA
BRANCH  66  68
HETATM   68  C46 UNL     1       0.555  -1.222   1.026  1.00  0.00     0.068 C 
HETATM   69  C47 UNL     1       0.239  -1.298  -0.323  1.00  0.00     0.005 C 
BRANCH  69  70
HETATM   70  C48 UNL     1       0.548  -0.717  -1.857  1.00  0.00     0.002 C 
HETATM   71  C49 UNL     1      -0.288  -0.185  -2.784  1.00  0.00     0.002 C 
HETATM   72  C50 UNL     1       0.137   0.676  -3.704  1.00  0.00     0.029 C 
HETATM   73  C51 UNL     1       1.429   1.044  -3.794  1.00  0.00     0.153 C 
HETATM   74  C52 UNL     1       2.403   0.200  -3.258  1.00  0.00     0.119 C 
HETATM   75  O26 UNL     1       1.465   2.263  -4.416  1.00  0.00    -0.188 OA
HETATM   76  C53 UNL     1       1.702  -0.820  -2.691  1.00  0.00     0.026 C 
BRANCH  74  77
HETATM   77  O25 UNL     1       4.104   0.279  -2.911  1.00  0.00    -0.326 OA
HETATM   78  C54 UNL     1       4.942   1.840  -2.176  1.00  0.00     0.181 C 
ENDBRANCH  74  77
ENDBRANCH  69  70
ENDBRANCH  66  68
ENDBRANCH  65  66
ENDBRANCH   1  65
BRANCH   5  79
HETATM   79  C14 UNL     1       0.649  -3.362  -3.007  1.00  0.00     0.181 C 
BRANCH  79  80
HETATM   80  O6  UNL     1       1.078  -4.700  -2.962  1.00  0.00    -0.299 OA
BRANCH  80  81
HETATM   81  C15 UNL     1       0.793  -5.525  -4.004  1.00  0.00     0.273 C 
HETATM   82  O7  UNL     1       1.051  -6.707  -3.955  1.00  0.00    -0.264 OA
HETATM   83  C16 UNL     1       0.162  -4.901  -5.244  1.00  0.00     0.106 C 
ENDBRANCH  80  81
ENDBRANCH  79  80
ENDBRANCH   5  79
TORSDOF 27
