REMARK  3 active torsions:
REMARK  status: ('A' for Active; 'I' for Inactive)
REMARK    1  A    between atoms: C3_3  and  O2_7 
REMARK    2  A    between atoms: O2_7  and  C6_8 
REMARK    3  A    between atoms: C7_10  and  C11_17 
ROOT
HETATM    1  O2  UNL     1       0.317  -0.256   0.088  1.00  0.00    -0.304 OA
ENDROOT
BRANCH   1   2
HETATM    2  C3  UNL     1       0.535   1.145   0.026  1.00  0.00     0.244 C 
HETATM    3  C2  UNL     1      -0.511   1.886   0.854  1.00  0.00     0.089 C 
HETATM    4  C1  UNL     1      -0.111   3.364   1.014  1.00  0.00     0.031 C 
HETATM    5  C12 UNL     1      -1.928   2.006   0.257  1.00  0.00     0.132 C 
HETATM    6  C5  UNL     1       1.363   3.532   1.200  1.00  0.00     0.000 C 
HETATM    7  C14 UNL     1      -0.643   4.042  -0.251  1.00  0.00     0.007 C 
HETATM    8  C4  UNL     1       2.217   2.521   1.002  1.00  0.00     0.114 C 
HETATM    9  O1  UNL     1       1.837   1.292   0.559  1.00  0.00    -0.304 OA
HETATM   10  C13 UNL     1      -2.007   3.370  -0.451  1.00  0.00     0.031 C 
HETATM   11  O8  UNL     1      -2.828   2.030   1.340  1.00  0.00    -0.226 OA
HETATM   12  C15 UNL     1      -2.386   0.876  -0.656  1.00  0.00     0.033 C 
ENDBRANCH   1   2
BRANCH   1  13
HETATM   13  C6  UNL     1       1.221  -1.024  -0.685  1.00  0.00     0.272 C 
HETATM   14  O3  UNL     1       0.504  -1.795  -1.628  1.00  0.00    -0.326 OA
HETATM   15  C7  UNL     1      -0.086  -2.985  -1.176  1.00  0.00     0.184 C 
HETATM   16  C8  UNL     1       0.860  -3.846  -0.352  1.00  0.00     0.215 C 
HETATM   17  C9  UNL     1       1.546  -3.076   0.756  1.00  0.00     0.220 C 
HETATM   18  O6  UNL     1       1.846  -4.401  -1.196  1.00  0.00    -0.218 OA
HETATM   19  C10 UNL     1       2.174  -1.825   0.177  1.00  0.00     0.241 C 
HETATM   20  O5  UNL     1       0.617  -2.730   1.755  1.00  0.00    -0.218 OA
HETATM   21  O4  UNL     1       3.280  -2.200  -0.614  1.00  0.00    -0.215 OA
BRANCH  15  22
HETATM   22  C11 UNL     1      -1.445  -2.766  -0.526  1.00  0.00     0.214 C 
HETATM   23  O7  UNL     1      -2.361  -2.266  -1.482  1.00  0.00    -0.218 OA
ENDBRANCH  15  22
ENDBRANCH   1  13
TORSDOF 3
