REMARK  1 active torsions:
REMARK  status: ('A' for Active; 'I' for Inactive)
REMARK    1  A    between atoms: C8_9  and  C10_12 
ROOT
HETATM    1  C1  UNL     1      -5.364  -0.726   0.707  1.00  0.00     0.135 A 
HETATM    2  C2  UNL     1      -4.902  -1.902   0.266  1.00  0.00     0.055 A 
HETATM    3  C3  UNL     1      -3.659  -2.072  -0.220  1.00  0.00     0.138 A 
HETATM    4  C4  UNL     1      -2.837  -0.996  -0.264  1.00  0.00     0.083 A 
HETATM    5  C5  UNL     1      -3.260   0.211   0.185  1.00  0.00     0.101 A 
HETATM    6  C6  UNL     1      -4.520   0.313   0.647  1.00  0.00     0.052 A 
HETATM    7  O1  UNL     1      -2.504   1.357   0.156  1.00  0.00    -0.330 OA
HETATM    8  C7  UNL     1      -1.523   1.391  -0.836  1.00  0.00     0.161 C 
HETATM    9  C8  UNL     1      -0.668   0.137  -0.743  1.00  0.00     0.116 C 
HETATM   10  C9  UNL     1      -1.560  -1.101  -0.729  1.00  0.00     0.183 C 
HETATM   11  O2  UNL     1      -1.056  -2.123  -1.136  1.00  0.00    -0.291 OA
HETATM   12  O5  UNL     1      -3.336  -3.331  -0.636  1.00  0.00    -0.190 OA
HETATM   13  O6  UNL     1      -6.630  -0.600   1.186  1.00  0.00    -0.190 OA
ENDROOT
BRANCH   9  14
HETATM   14  C10 UNL     1       0.298   0.174   0.438  1.00  0.00     0.010 A 
HETATM   15  C11 UNL     1      -0.141  -0.158   1.663  1.00  0.00     0.000 A 
HETATM   16  C12 UNL     1       0.678  -0.129   2.719  1.00  0.00     0.027 A 
HETATM   17  C13 UNL     1       1.966   0.221   2.586  1.00  0.00     0.133 A 
HETATM   18  C14 UNL     1       2.414   0.537   1.352  1.00  0.00     0.047 A 
HETATM   19  O4  UNL     1       2.766   0.212   3.689  1.00  0.00    -0.190 OA
HETATM   20  C15 UNL     1       1.588   0.552   0.278  1.00  0.00     0.093 A 
HETATM   21  C18 UNL     1       3.703   0.882   1.182  1.00  0.00     0.002 C 
HETATM   22  O3  UNL     1       2.015   0.906  -0.978  1.00  0.00    -0.332 OA
HETATM   23  C16 UNL     1       3.380   0.809  -1.267  1.00  0.00     0.117 C 
HETATM   24  C17 UNL     1       4.208   1.077  -0.042  1.00  0.00     0.001 C 
HETATM   25  C19 UNL     1       3.701   1.834  -2.359  1.00  0.00     0.035 C 
HETATM   26  C20 UNL     1       3.673  -0.609  -1.772  1.00  0.00     0.035 C 
ENDBRANCH   9  14
TORSDOF 1
