REMARK  2 active torsions:
REMARK  status: ('A' for Active; 'I' for Inactive)
REMARK    1  A    between atoms: C3_3  and  O5_25 
REMARK    2  A    between atoms: C8_9  and  C10_12 
ROOT
HETATM    1  C1  UNL     1      -5.336  -0.540  -0.629  1.00  0.00     0.135 A 
HETATM    2  C2  UNL     1      -4.821  -1.604  -1.258  1.00  0.00     0.052 A 
HETATM    3  C3  UNL     1      -3.551  -1.660  -1.701  1.00  0.00     0.101 A 
HETATM    4  C4  UNL     1      -2.790  -0.544  -1.572  1.00  0.00     0.080 A 
HETATM    5  C5  UNL     1      -3.265   0.552  -0.933  1.00  0.00     0.101 A 
HETATM    6  C6  UNL     1      -4.534   0.522  -0.486  1.00  0.00     0.052 A 
HETATM    7  O1  UNL     1      -2.561   1.718  -0.763  1.00  0.00    -0.330 OA
HETATM    8  C7  UNL     1      -1.570   1.957  -1.716  1.00  0.00     0.161 C 
HETATM    9  C8  UNL     1      -0.671   0.737  -1.841  1.00  0.00     0.116 C 
HETATM   10  C9  UNL     1      -1.509  -0.521  -2.043  1.00  0.00     0.183 C 
HETATM   11  O2  UNL     1      -0.952  -1.440  -2.602  1.00  0.00    -0.291 OA
HETATM   12  O6  UNL     1      -6.622  -0.537  -0.185  1.00  0.00    -0.190 OA
ENDROOT
BRANCH   9  13
HETATM   13  C10 UNL     1       0.300   0.573  -0.676  1.00  0.00     0.013 A 
HETATM   14  C11 UNL     1      -0.145   0.138   0.514  1.00  0.00     0.000 A 
HETATM   15  C12 UNL     1       0.695  -0.032   1.540  1.00  0.00     0.024 A 
HETATM   16  C13 UNL     1       2.012   0.209   1.424  1.00  0.00     0.096 A 
HETATM   17  C14 UNL     1       2.454   0.673   0.235  1.00  0.00     0.047 A 
HETATM   18  O4  UNL     1       2.806  -0.013   2.520  1.00  0.00    -0.332 OA
HETATM   19  C15 UNL     1       1.615   0.850  -0.813  1.00  0.00     0.129 A 
HETATM   20  C16 UNL     1       3.772   0.916   0.112  1.00  0.00     0.002 C 
HETATM   21  O3  UNL     1       2.074   1.308  -2.012  1.00  0.00    -0.190 OA
HETATM   22  C17 UNL     1       4.592   0.840   1.166  1.00  0.00     0.001 C 
HETATM   23  C18 UNL     1       4.060   0.607   2.555  1.00  0.00     0.117 C 
HETATM   24  C19 UNL     1       5.007  -0.302   3.344  1.00  0.00     0.035 C 
HETATM   25  C20 UNL     1       3.915   1.963   3.257  1.00  0.00     0.035 C 
ENDBRANCH   9  13
BRANCH   3  26
HETATM   26  O5  UNL     1      -3.158  -2.791  -2.377  1.00  0.00    -0.328 OA
HETATM   27  C21 UNL     1      -2.586  -3.780  -1.550  1.00  0.00     0.181 C 
ENDBRANCH   3  26
TORSDOF 2
