REMARK  3 active torsions:
REMARK  status: ('A' for Active; 'I' for Inactive)
REMARK    1  A    between atoms: C3_3  and  O4_24 
REMARK    2  A    between atoms: O4_24  and  C20_25 
REMARK    3  A    between atoms: C20_25  and  C21_26 
ROOT
HETATM    1  O4  UNL     1      -1.468  -1.607  -0.299  1.00  0.00    -0.324 OA
ENDROOT
BRANCH   1   2
HETATM    2  C3  UNL     1      -1.853  -2.941  -0.211  1.00  0.00     0.135 A 
HETATM    3  C2  UNL     1      -3.175  -3.245  -0.111  1.00  0.00     0.154 A 
HETATM    4  C1  UNL     1      -3.582  -4.505   0.080  1.00  0.00     0.030 A 
HETATM    5  O9  UNL     1      -4.179  -2.332  -0.219  1.00  0.00    -0.188 OA
HETATM    6  C6  UNL     1      -2.694  -5.485   0.214  1.00  0.00     0.007 A 
HETATM    7  C5  UNL     1      -1.383  -5.207   0.126  1.00  0.00     0.057 A 
HETATM    8  C4  UNL     1      -0.929  -3.956  -0.103  1.00  0.00     0.088 A 
HETATM    9  C7  UNL     1      -0.533  -6.260   0.239  1.00  0.00     0.200 A 
HETATM   10  N1  UNL     1       0.357  -3.896  -0.206  1.00  0.00    -0.324 N 
HETATM   11  C9  UNL     1       1.273  -4.792  -0.034  1.00  0.00     0.067 A 
HETATM   12  C10 UNL     1       0.837  -2.626  -0.828  1.00  0.00     0.131 C 
HETATM   13  C8  UNL     1       0.808  -6.053   0.157  1.00  0.00     0.080 A 
HETATM   14  C11 UNL     1       2.634  -4.630   0.039  1.00  0.00     0.038 C 
HETATM   15  C14 UNL     1       1.621  -7.129   0.253  1.00  0.00     0.137 C 
HETATM   16  C13 UNL     1       2.934  -6.913   0.141  1.00  0.00     0.052 C 
HETATM   17  O1  UNL     1       1.236  -8.434   0.378  1.00  0.00    -0.190 OA
HETATM   18  C12 UNL     1       3.473  -5.695   0.027  1.00  0.00     0.098 C 
HETATM   19  O2  UNL     1       4.847  -5.652   0.007  1.00  0.00    -0.332 OA
HETATM   20  C15 UNL     1       5.470  -4.560   0.603  1.00  0.00     0.117 C 
HETATM   21  C16 UNL     1       4.609  -3.349   0.428  1.00  0.00     0.001 C 
HETATM   22  C18 UNL     1       6.834  -4.362  -0.061  1.00  0.00     0.035 C 
HETATM   23  C19 UNL     1       5.639  -4.846   2.100  1.00  0.00     0.035 C 
HETATM   24  C17 UNL     1       3.292  -3.460   0.203  1.00  0.00     0.001 C 
HETATM   25  O3  UNL     1      -0.999  -7.361   0.430  1.00  0.00    -0.286 OA
ENDBRANCH   1   2
BRANCH   1  26
HETATM   26  C20 UNL     1      -2.200  -0.590   0.343  1.00  0.00     0.181 C 
BRANCH  26  27
HETATM   27  C21 UNL     1      -1.458   0.750   0.390  1.00  0.00     0.145 C 
HETATM   28  C22 UNL     1      -1.458   1.437  -0.944  1.00  0.00     0.003 C 
HETATM   29  C23 UNL     1      -1.606   2.766  -1.044  1.00  0.00     0.001 C 
HETATM   30  C24 UNL     1      -1.839   3.592   0.001  1.00  0.00     0.038 C 
HETATM   31  C25 UNL     1      -2.021   2.919   1.163  1.00  0.00     0.098 C 
HETATM   32  C29 UNL     1      -1.833   4.963  -0.026  1.00  0.00     0.067 A 
HETATM   33  C26 UNL     1      -1.981   3.617   2.302  1.00  0.00     0.052 C 
HETATM   34  O8  UNL     1      -2.143   1.557   1.298  1.00  0.00    -0.329 OA
HETATM   35  C27 UNL     1      -1.789   4.938   2.350  1.00  0.00     0.137 C 
HETATM   36  C28 UNL     1      -1.727   5.598   1.171  1.00  0.00     0.080 A 
HETATM   37  O7  UNL     1      -1.752   5.497   3.596  1.00  0.00    -0.190 OA
HETATM   38  C32 UNL     1      -1.562   6.949   1.211  1.00  0.00     0.200 A 
HETATM   39  C31 UNL     1      -1.517   7.654   0.052  1.00  0.00     0.057 A 
HETATM   40  O5  UNL     1      -1.433   7.551   2.252  1.00  0.00    -0.286 OA
HETATM   41  C30 UNL     1      -1.682   7.020  -1.129  1.00  0.00     0.089 A 
HETATM   42  C33 UNL     1      -1.333   8.986   0.138  1.00  0.00     0.005 A 
HETATM   43  N2  UNL     1      -1.858   5.747  -1.051  1.00  0.00    -0.324 N 
HETATM   44  C36 UNL     1      -1.631   7.800  -2.247  1.00  0.00     0.147 A 
HETATM   45  C37 UNL     1      -2.350   5.148  -2.331  1.00  0.00     0.131 C 
HETATM   46  C35 UNL     1      -1.430   9.126  -2.140  1.00  0.00     0.029 A 
HETATM   47  O6  UNL     1      -1.685   7.351  -3.535  1.00  0.00    -0.189 OA
HETATM   48  C34 UNL     1      -1.292   9.740  -0.964  1.00  0.00     0.002 A 
HETATM   49  C38 UNL     1      -0.011   0.637   0.878  1.00  0.00     0.037 C 
ENDBRANCH  26  27
ENDBRANCH   1  26
TORSDOF 3
