REMARK  4 active torsions:
REMARK  status: ('A' for Active; 'I' for Inactive)
REMARK    1  A    between atoms: C4_4  and  O2_8 
REMARK    2  A    between atoms: O2_8  and  C7_9 
REMARK    3  A    between atoms: C7_9  and  C8_10 
REMARK    4  A    between atoms: C7_9  and  C9_12 
ROOT
HETATM    1  C1  UNL     1      -2.419  -0.035   0.100  1.00  0.00     0.212 C 
HETATM    2  C2  UNL     1      -1.784  -1.383  -0.165  1.00  0.00     0.220 C 
HETATM    3  C3  UNL     1      -0.667  -1.623   0.825  1.00  0.00     0.241 C 
HETATM    4  C4  UNL     1       0.321  -0.480   0.845  1.00  0.00     0.270 C 
HETATM    5  O1  UNL     1      -0.323   0.761   1.046  1.00  0.00    -0.329 OA
HETATM    6  C5  UNL     1      -1.355   1.053   0.142  1.00  0.00     0.151 C 
HETATM    7  C6  UNL     1      -1.937   2.420   0.505  1.00  0.00     0.035 C 
HETATM    8  O5  UNL     1      -0.002  -2.810   0.459  1.00  0.00    -0.215 OA
HETATM    9  O6  UNL     1      -2.753  -2.389  -0.005  1.00  0.00    -0.218 OA
HETATM   10  O7  UNL     1      -3.113  -0.108   1.321  1.00  0.00    -0.218 OA
ENDROOT
BRANCH   4  11
HETATM   11  O2  UNL     1       1.003  -0.430  -0.387  1.00  0.00    -0.326 OA
BRANCH  11  12
HETATM   12  C7  UNL     1       2.328   0.026  -0.339  1.00  0.00     0.184 C 
BRANCH  12  13
HETATM   13  C8  UNL     1       2.924  -0.220  -1.722  1.00  0.00     0.214 C 
HETATM   14  O3  UNL     1       2.888  -1.603  -2.017  1.00  0.00    -0.218 OA
ENDBRANCH  12  13
BRANCH  12  15
HETATM   15  C9  UNL     1       2.424   1.510   0.003  1.00  0.00     0.214 C 
HETATM   16  O4  UNL     1       2.226   1.724   1.387  1.00  0.00    -0.218 OA
ENDBRANCH  12  15
ENDBRANCH  11  12
ENDBRANCH   4  11
TORSDOF 4
