REMARK  3 active torsions:
REMARK  status: ('A' for Active; 'I' for Inactive)
REMARK    1  A    between atoms: C1_1  and  C16_21 
REMARK    2  A    between atoms: C6_6  and  O1_7 
REMARK    3  A    between atoms: C16_21  and  C17_22 
ROOT
HETATM    1  C1  UNL     1       0.782  -0.132  -0.086  1.00  0.00     0.020 C 
HETATM    2  C2  UNL     1      -0.403  -0.610   0.407  1.00  0.00     0.059 C 
HETATM    3  C3  UNL     1      -0.320  -1.210   1.617  1.00  0.00     0.053 C 
HETATM    4  C4  UNL     1       0.841  -1.447   2.256  1.00  0.00     0.133 C 
HETATM    5  C5  UNL     1       1.974  -1.079   1.655  1.00  0.00     0.051 C 
HETATM    6  C6  UNL     1       1.980  -0.404   0.498  1.00  0.00     0.094 C 
HETATM    7  O2  UNL     1       0.905  -2.107   3.448  1.00  0.00    -0.190 OA
HETATM    8  C8  UNL     1      -1.539  -1.731   2.314  1.00  0.00     0.202 C 
HETATM    9  C9  UNL     1      -2.798  -1.379   1.601  1.00  0.00     0.030 A 
HETATM   10  C10 UNL     1      -2.759  -0.810   0.377  1.00  0.00     0.084 A 
HETATM   11  N1  UNL     1      -1.591  -0.537  -0.104  1.00  0.00    -0.324 N 
HETATM   12  C11 UNL     1      -1.623  -0.273  -1.580  1.00  0.00     0.131 C 
HETATM   13  C12 UNL     1      -3.980  -0.590  -0.193  1.00  0.00     0.146 A 
HETATM   14  C13 UNL     1      -5.113  -0.945   0.442  1.00  0.00     0.029 A 
HETATM   15  C14 UNL     1      -5.118  -1.537   1.638  1.00  0.00     0.002 A 
HETATM   16  C15 UNL     1      -3.935  -1.743   2.218  1.00  0.00     0.000 A 
HETATM   17  O3  UNL     1      -4.196   0.094  -1.353  1.00  0.00    -0.189 OA
HETATM   18  O4  UNL     1      -1.455  -3.152   2.341  1.00  0.00    -0.213 OA
ENDROOT
BRANCH   1  19
HETATM   19  C16 UNL     1       0.929   0.831  -1.272  1.00  0.00     0.055 C 
BRANCH  19  20
HETATM   20  C17 UNL     1       1.783   2.052  -0.994  1.00  0.00    -0.030 C 
HETATM   21  C18 UNL     1       2.515   2.740  -1.889  1.00  0.00    -0.048 C 
HETATM   22  C19 UNL     1       3.326   3.945  -1.471  1.00  0.00     0.026 C 
HETATM   23  C20 UNL     1       2.608   2.410  -3.360  1.00  0.00     0.026 C 
ENDBRANCH  19  20
ENDBRANCH   1  19
BRANCH   6  24
HETATM   24  O1  UNL     1       3.153   0.006  -0.101  1.00  0.00    -0.328 OA
HETATM   25  C7  UNL     1       4.389  -0.485   0.364  1.00  0.00     0.181 C 
ENDBRANCH   6  24
TORSDOF 3
