REMARK  12 active torsions:
REMARK  status: ('A' for Active; 'I' for Inactive)
REMARK    1  A    between atoms: C1_1  and  C2_2 
REMARK    2  A    between atoms: C2_2  and  O2_4 
REMARK    3  A    between atoms: O2_4  and  C3_5 
REMARK    4  A    between atoms: C3_5  and  C4_6 
REMARK    5  A    between atoms: C6_8  and  O4_11 
REMARK    6  A    between atoms: O4_11  and  C8_12 
REMARK    7  A    between atoms: C9_13  and  O9_22 
REMARK    8  A    between atoms: C10_15  and  C13_20 
REMARK    9  A    between atoms: O9_22  and  C14_23 
REMARK   10  A    between atoms: C15_24  and  O12_32 
REMARK   11  A    between atoms: C19_28  and  O10_29 
REMARK   12  A    between atoms: C23_37  and  O16_42 
ROOT
HETATM    1  C8  UNL     1       1.767   1.425  -1.703  1.00  0.00     0.207 C 
HETATM    2  C9  UNL     1       1.578   1.470  -0.188  1.00  0.00     0.271 C 
HETATM    3  O5  UNL     1       2.095   2.682   0.319  1.00  0.00    -0.326 OA
HETATM    4  C10 UNL     1       3.488   2.761   0.191  1.00  0.00     0.184 C 
HETATM    5  C11 UNL     1       3.843   2.725  -1.289  1.00  0.00     0.215 C 
HETATM    6  C12 UNL     1       3.271   1.485  -1.950  1.00  0.00     0.217 C 
HETATM    7  O6  UNL     1       3.582   1.552  -3.319  1.00  0.00    -0.218 OA
HETATM    8  O7  UNL     1       5.237   2.705  -1.471  1.00  0.00    -0.218 OA
ENDROOT
BRANCH   1   9
HETATM    9  O4  UNL     1       1.230   0.223  -2.187  1.00  0.00    -0.324 OA
BRANCH   9  10
HETATM   10  C6  UNL     1       0.736   0.278  -3.509  1.00  0.00     0.270 C 
HETATM   11  C5  UNL     1       0.299  -1.112  -3.935  1.00  0.00     0.241 C 
HETATM   12  C4  UNL     1      -1.206  -1.088  -3.724  1.00  0.00     0.214 C 
HETATM   13  O13 UNL     1       0.578  -1.274  -5.307  1.00  0.00    -0.215 OA
HETATM   14  C7  UNL     1      -1.479   0.368  -4.050  1.00  0.00     0.181 C 
HETATM   15  O14 UNL     1      -1.841  -1.930  -4.648  1.00  0.00    -0.218 OA
HETATM   16  O3  UNL     1      -0.419   1.091  -3.482  1.00  0.00    -0.326 OA
BRANCH  12  17
HETATM   17  C3  UNL     1      -1.633  -1.483  -2.313  1.00  0.00     0.188 C 
BRANCH  17  18
HETATM   18  O2  UNL     1      -1.681  -2.876  -2.252  1.00  0.00    -0.296 OA
BRANCH  18  19
HETATM   19  C2  UNL     1      -2.028  -3.632  -1.157  1.00  0.00     0.296 C 
HETATM   20  O1  UNL     1      -2.062  -4.824  -1.400  1.00  0.00    -0.259 OA
BRANCH  19  21
HETATM   21  C1  UNL     1      -2.325  -3.278   0.135  1.00  0.00     0.065 A 
HETATM   22  C22 UNL     1      -2.663  -4.238   1.024  1.00  0.00     0.032 A 
HETATM   23  C23 UNL     1      -2.935  -4.016   2.326  1.00  0.00     0.119 A 
HETATM   24  C24 UNL     1      -2.941  -2.742   2.765  1.00  0.00     0.153 A 
HETATM   25  C25 UNL     1      -2.619  -1.771   1.900  1.00  0.00     0.030 A 
HETATM   26  O15 UNL     1      -3.239  -2.429   4.056  1.00  0.00    -0.188 OA
HETATM   27  C26 UNL     1      -2.318  -2.023   0.619  1.00  0.00     0.008 A 
BRANCH  23  28
HETATM   28  O16 UNL     1      -3.321  -5.042   3.154  1.00  0.00    -0.326 OA
HETATM   29  C27 UNL     1      -2.253  -5.826   3.636  1.00  0.00     0.181 C 
ENDBRANCH  23  28
ENDBRANCH  19  21
ENDBRANCH  18  19
ENDBRANCH  17  18
ENDBRANCH  12  17
ENDBRANCH   9  10
ENDBRANCH   1   9
BRANCH   2  30
HETATM   30  O9  UNL     1       0.208   1.496   0.137  1.00  0.00    -0.300 OA
BRANCH  30  31
HETATM   31  C14 UNL     1      -0.303   1.519   1.420  1.00  0.00     0.141 A 
HETATM   32  C15 UNL     1      -1.635   1.779   1.548  1.00  0.00     0.120 A 
HETATM   33  C16 UNL     1      -2.178   1.821   2.780  1.00  0.00     0.054 A 
HETATM   34  C17 UNL     1      -1.490   1.623   3.908  1.00  0.00     0.135 A 
HETATM   35  C18 UNL     1      -0.184   1.392   3.755  1.00  0.00     0.054 A 
HETATM   36  O11 UNL     1      -2.071   1.680   5.136  1.00  0.00    -0.190 OA
HETATM   37  C19 UNL     1       0.421   1.306   2.555  1.00  0.00     0.120 A 
BRANCH  32  38
HETATM   38  O12 UNL     1      -2.549   2.018   0.540  1.00  0.00    -0.326 OA
HETATM   39  C21 UNL     1      -2.186   2.115  -0.813  1.00  0.00     0.181 C 
ENDBRANCH  32  38
BRANCH  37  40
HETATM   40  O10 UNL     1       1.773   1.072   2.563  1.00  0.00    -0.326 OA
HETATM   41  C20 UNL     1       2.163  -0.209   3.006  1.00  0.00     0.181 C 
ENDBRANCH  37  40
ENDBRANCH  30  31
ENDBRANCH   2  30
BRANCH   4  42
HETATM   42  C13 UNL     1       3.966   4.045   0.853  1.00  0.00     0.214 C 
HETATM   43  O8  UNL     1       3.728   3.986   2.245  1.00  0.00    -0.218 OA
ENDBRANCH   4  42
TORSDOF 12
