REMARK  15 active torsions:
REMARK  status: ('A' for Active; 'I' for Inactive)
REMARK    1  A    between atoms: C4_4  and  O3_9 
REMARK    2  A    between atoms: C5_6  and  C6_7 
REMARK    3  A    between atoms: O3_9  and  C7_10 
REMARK    4  A    between atoms: C10_13  and  C13_16 
REMARK    5  A    between atoms: C14_17  and  C55_74 
REMARK    6  A    between atoms: C18_22  and  C21_26 
REMARK    7  A    between atoms: C22_27  and  C43_56 
REMARK    8  A    between atoms: C27_33  and  C29_35 
REMARK    9  A    between atoms: C30_36  and  C31_37 
REMARK   10  A    between atoms: C34_40  and  O7_43 
REMARK   11  A    between atoms: O7_43  and  C37_44 
REMARK   12  A    between atoms: C38_46  and  C42_53 
REMARK   13  A    between atoms: C46_59  and  O14_62 
REMARK   14  A    between atoms: O14_62  and  C49_63 
REMARK   15  A    between atoms: C50_65  and  C54_72 
ROOT
HETATM    1  C21 UNL     1       2.027  -1.663   0.856  1.00  0.00     0.081 A 
HETATM    2  C22 UNL     1       2.308  -0.534   1.873  1.00  0.00     0.152 A 
HETATM    3  O6  UNL     1       2.182   0.698   1.153  1.00  0.00    -0.329 OA
HETATM    4  C23 UNL     1       2.038   0.496  -0.051  1.00  0.00     0.093 A 
HETATM    5  C24 UNL     1       1.960  -0.796  -0.372  1.00  0.00     0.032 A 
HETATM    6  C25 UNL     1       1.796  -1.193  -1.642  1.00  0.00     0.129 A 
HETATM    7  C26 UNL     1       1.709  -0.227  -2.576  1.00  0.00     0.027 A 
HETATM    8  C27 UNL     1       1.774   1.092  -2.292  1.00  0.00     0.004 A 
HETATM    9  C28 UNL     1       1.945   1.439  -0.997  1.00  0.00     0.024 A 
HETATM   10  O13 UNL     1       1.696  -2.509  -1.968  1.00  0.00    -0.190 OA
ENDROOT
BRANCH   1  11
HETATM   11  C18 UNL     1       0.690  -2.368   0.987  1.00  0.00    -0.012 A 
HETATM   12  C17 UNL     1      -0.467  -1.689   0.863  1.00  0.00     0.020 A 
HETATM   13  C16 UNL     1      -1.622  -2.365   0.839  1.00  0.00     0.092 A 
HETATM   14  C15 UNL     1      -1.640  -3.694   0.981  1.00  0.00     0.032 A 
HETATM   15  O4  UNL     1      -2.734  -1.874   0.652  1.00  0.00    -0.329 OA
HETATM   16  C14 UNL     1      -3.046  -4.222   0.886  1.00  0.00     0.081 C 
HETATM   17  C20 UNL     1      -0.513  -4.396   1.172  1.00  0.00     0.129 A 
HETATM   18  C13 UNL     1      -3.703  -2.901   0.429  1.00  0.00     0.152 C 
HETATM   19  C19 UNL     1       0.641  -3.704   1.153  1.00  0.00     0.023 A 
HETATM   20  O5  UNL     1      -0.524  -5.748   1.315  1.00  0.00    -0.190 OA
BRANCH  16  21
HETATM   21  C55 UNL     1      -3.167  -5.333  -0.135  1.00  0.00    -0.011 A 
HETATM   22  C56 UNL     1      -3.909  -6.424   0.120  1.00  0.00     0.024 A 
HETATM   23  C57 UNL     1      -4.027  -7.423  -0.770  1.00  0.00     0.133 A 
HETATM   24  C58 UNL     1      -3.380  -7.304  -1.941  1.00  0.00     0.055 A 
HETATM   25  O21 UNL     1      -4.776  -8.527  -0.502  1.00  0.00    -0.190 OA
HETATM   26  C59 UNL     1      -2.633  -6.229  -2.242  1.00  0.00     0.133 A 
HETATM   27  C60 UNL     1      -2.542  -5.255  -1.323  1.00  0.00     0.024 A 
HETATM   28  O20 UNL     1      -1.983  -6.122  -3.432  1.00  0.00    -0.190 OA
ENDBRANCH  16  21
BRANCH  18  29
HETATM   29  C10 UNL     1      -5.052  -2.598   1.036  1.00  0.00     0.006 A 
HETATM   30  C9  UNL     1      -6.170  -2.662   0.294  1.00  0.00     0.000 A 
HETATM   31  C8  UNL     1      -7.361  -2.337   0.817  1.00  0.00     0.024 A 
HETATM   32  C7  UNL     1      -7.513  -1.930   2.092  1.00  0.00     0.097 A 
HETATM   33  C12 UNL     1      -6.389  -1.923   2.837  1.00  0.00     0.024 A 
HETATM   34  C11 UNL     1      -5.187  -2.239   2.323  1.00  0.00     0.000 A 
BRANCH  32  35
HETATM   35  O3  UNL     1      -8.779  -1.602   2.513  1.00  0.00    -0.304 OA
BRANCH  35  36
HETATM   36  C4  UNL     1      -9.165  -1.689   3.866  1.00  0.00     0.274 C 
HETATM   37  C3  UNL     1     -10.212  -0.621   4.090  1.00  0.00     0.241 C 
HETATM   38  C2  UNL     1     -10.769  -0.756   5.486  1.00  0.00     0.220 C 
HETATM   39  O22 UNL     1      -9.622   0.646   3.946  1.00  0.00    -0.215 OA
HETATM   40  C1  UNL     1     -11.335  -2.154   5.620  1.00  0.00     0.215 C 
HETATM   41  O23 UNL     1     -11.788   0.191   5.684  1.00  0.00    -0.218 OA
HETATM   42  C5  UNL     1     -10.262  -3.191   5.301  1.00  0.00     0.184 C 
HETATM   43  O24 UNL     1     -11.809  -2.296   6.937  1.00  0.00    -0.218 OA
HETATM   44  O1  UNL     1      -9.739  -2.971   4.014  1.00  0.00    -0.326 OA
BRANCH  42  45
HETATM   45  C6  UNL     1     -10.830  -4.603   5.353  1.00  0.00     0.214 C 
HETATM   46  O2  UNL     1      -9.786  -5.547   5.231  1.00  0.00    -0.218 OA
ENDBRANCH  42  45
ENDBRANCH  35  36
ENDBRANCH  32  35
ENDBRANCH  18  29
ENDBRANCH   1  11
BRANCH   2  47
HETATM   47  C43 UNL     1       3.712  -0.597   2.451  1.00  0.00     0.006 A 
HETATM   48  C44 UNL     1       4.788  -0.540   1.649  1.00  0.00     0.000 A 
HETATM   49  C45 UNL     1       6.029  -0.566   2.153  1.00  0.00     0.024 A 
HETATM   50  C46 UNL     1       6.271  -0.660   3.474  1.00  0.00     0.097 A 
HETATM   51  C47 UNL     1       5.185  -0.703   4.270  1.00  0.00     0.024 A 
HETATM   52  C48 UNL     1       3.936  -0.682   3.774  1.00  0.00     0.000 A 
BRANCH  50  53
HETATM   53  O14 UNL     1       7.573  -0.630   3.908  1.00  0.00    -0.304 OA
BRANCH  53  54
HETATM   54  C49 UNL     1       7.869  -0.042   5.156  1.00  0.00     0.274 C 
HETATM   55  O15 UNL     1       7.909  -1.112   6.073  1.00  0.00    -0.326 OA
HETATM   56  C50 UNL     1       8.225  -0.690   7.371  1.00  0.00     0.184 C 
HETATM   57  C51 UNL     1       9.627  -0.091   7.393  1.00  0.00     0.215 C 
HETATM   58  C52 UNL     1       9.770   1.036   6.385  1.00  0.00     0.220 C 
HETATM   59  O18 UNL     1      10.574  -1.092   7.096  1.00  0.00    -0.218 OA
HETATM   60  C53 UNL     1       9.233   0.603   5.033  1.00  0.00     0.241 C 
HETATM   61  O17 UNL     1       9.029   2.149   6.829  1.00  0.00    -0.218 OA
HETATM   62  O16 UNL     1      10.100  -0.342   4.451  1.00  0.00    -0.215 OA
BRANCH  56  63
HETATM   63  C54 UNL     1       8.108  -1.877   8.317  1.00  0.00     0.214 C 
HETATM   64  O19 UNL     1       6.756  -2.273   8.427  1.00  0.00    -0.218 OA
ENDBRANCH  56  63
ENDBRANCH  53  54
ENDBRANCH  50  53
ENDBRANCH   2  47
BRANCH   8  65
HETATM   65  C29 UNL     1       1.657   2.080  -3.207  1.00  0.00     0.000 C 
HETATM   66  C30 UNL     1       1.478   1.971  -4.539  1.00  0.00     0.000 C 
BRANCH  66  67
HETATM   67  C31 UNL     1       1.315   2.975  -5.430  1.00  0.00     0.000 A 
HETATM   68  C32 UNL     1       1.153   2.680  -6.737  1.00  0.00     0.002 A 
HETATM   69  C33 UNL     1       0.969   3.634  -7.665  1.00  0.00     0.024 A 
HETATM   70  C34 UNL     1       0.954   4.941  -7.348  1.00  0.00     0.097 A 
HETATM   71  C35 UNL     1       1.077   5.231  -6.040  1.00  0.00     0.024 A 
HETATM   72  C36 UNL     1       1.270   4.282  -5.111  1.00  0.00     0.002 A 
BRANCH  70  73
HETATM   73  O7  UNL     1       0.723   5.909  -8.289  1.00  0.00    -0.304 OA
BRANCH  73  74
HETATM   74  C37 UNL     1       1.778   6.825  -8.495  1.00  0.00     0.274 C 
HETATM   75  O8  UNL     1       2.664   6.160  -9.368  1.00  0.00    -0.326 OA
HETATM   76  C38 UNL     1       3.771   6.939  -9.741  1.00  0.00     0.184 C 
HETATM   77  C39 UNL     1       3.300   8.208 -10.444  1.00  0.00     0.215 C 
HETATM   78  C40 UNL     1       2.286   8.981  -9.623  1.00  0.00     0.220 C 
HETATM   79  O11 UNL     1       4.370   9.076 -10.730  1.00  0.00    -0.218 OA
HETATM   80  C41 UNL     1       1.192   8.062  -9.132  1.00  0.00     0.241 C 
HETATM   81  O10 UNL     1       1.708   9.973 -10.437  1.00  0.00    -0.218 OA
HETATM   82  O9  UNL     1       0.400   7.682 -10.232  1.00  0.00    -0.215 OA
BRANCH  76  83
HETATM   83  C42 UNL     1       4.720   7.150  -8.566  1.00  0.00     0.214 C 
HETATM   84  O12 UNL     1       6.046   7.321  -9.031  1.00  0.00    -0.218 OA
ENDBRANCH  76  83
ENDBRANCH  73  74
ENDBRANCH  70  73
ENDBRANCH  66  67
ENDBRANCH   8  65
TORSDOF 15
