REMARK  6 active torsions:
REMARK  status: ('A' for Active; 'I' for Inactive)
REMARK    1  A    between atoms: C5_5  and  C7_7 
REMARK    2  A    between atoms: C8_8  and  C23_26 
REMARK    3  A    between atoms: C13_14  and  C15_16 
REMARK    4  A    between atoms: C16_17  and  C17_18 
REMARK    5  A    between atoms: C29_33  and  C37_44 
REMARK    6  A    between atoms: C30_34  and  C31_36 
ROOT
HETATM    1  C7  UNL     1      -1.617  -1.991   2.430  1.00  0.00     0.081 C 
HETATM    2  C8  UNL     1      -2.313  -0.628   2.200  1.00  0.00     0.153 C 
HETATM    3  O1  UNL     1      -1.315   0.371   2.418  1.00  0.00    -0.328 OA
HETATM    4  C9  UNL     1      -0.198  -0.135   2.486  1.00  0.00     0.093 A 
HETATM    5  C10 UNL     1      -0.206  -1.470   2.472  1.00  0.00     0.032 A 
HETATM    6  C11 UNL     1       0.938  -2.166   2.525  1.00  0.00     0.129 A 
HETATM    7  C12 UNL     1       2.081  -1.457   2.593  1.00  0.00     0.027 A 
HETATM    8  C13 UNL     1       2.128  -0.106   2.595  1.00  0.00     0.004 A 
HETATM    9  C14 UNL     1       0.951   0.550   2.549  1.00  0.00     0.024 A 
HETATM   10  O3  UNL     1       0.951  -3.525   2.512  1.00  0.00    -0.190 OA
ENDROOT
BRANCH   2  11
HETATM   11  C23 UNL     1      -2.984  -0.393   0.857  1.00  0.00     0.028 A 
HETATM   12  C24 UNL     1      -2.337   0.053  -0.236  1.00  0.00     0.091 A 
HETATM   13  C25 UNL     1      -2.989   0.315  -1.374  1.00  0.00     0.032 A 
HETATM   14  O5  UNL     1      -1.133   0.283  -0.333  1.00  0.00    -0.329 OA
HETATM   15  C26 UNL     1      -4.307   0.115  -1.513  1.00  0.00     0.129 A 
HETATM   16  C29 UNL     1      -2.058   0.879  -2.409  1.00  0.00     0.081 C 
HETATM   17  C27 UNL     1      -4.949  -0.370  -0.437  1.00  0.00     0.027 A 
HETATM   18  O4  UNL     1      -4.956   0.391  -2.674  1.00  0.00    -0.190 OA
HETATM   19  C28 UNL     1      -4.305  -0.612   0.717  1.00  0.00     0.002 A 
HETATM   20  C30 UNL     1      -0.733   0.523  -1.692  1.00  0.00     0.154 C 
BRANCH  16  21
HETATM   21  C37 UNL     1      -2.262   2.377  -2.550  1.00  0.00    -0.011 A 
HETATM   22  C38 UNL     1      -2.478   2.927  -3.757  1.00  0.00     0.024 A 
HETATM   23  C39 UNL     1      -2.650   4.250  -3.918  1.00  0.00     0.133 A 
HETATM   24  C40 UNL     1      -2.598   5.028  -2.825  1.00  0.00     0.055 A 
HETATM   25  O9  UNL     1      -2.866   4.793  -5.146  1.00  0.00    -0.190 OA
HETATM   26  C41 UNL     1      -2.382   4.525  -1.599  1.00  0.00     0.133 A 
HETATM   27  C42 UNL     1      -2.215   3.197  -1.486  1.00  0.00     0.024 A 
HETATM   28  O8  UNL     1      -2.325   5.327  -0.502  1.00  0.00    -0.190 OA
ENDBRANCH  16  21
BRANCH  20  29
HETATM   29  C31 UNL     1       0.065  -0.674  -2.219  1.00  0.00     0.031 A 
HETATM   30  C32 UNL     1       1.005  -1.252  -1.439  1.00  0.00     0.131 A 
HETATM   31  C33 UNL     1       1.646  -2.352  -1.870  1.00  0.00     0.054 A 
HETATM   32  O7  UNL     1       1.275  -0.796  -0.188  1.00  0.00    -0.190 OA
HETATM   33  C34 UNL     1       1.446  -2.883  -3.085  1.00  0.00     0.133 A 
HETATM   34  C35 UNL     1       0.561  -2.264  -3.880  1.00  0.00     0.027 A 
HETATM   35  O6  UNL     1       2.094  -4.005  -3.493  1.00  0.00    -0.190 OA
HETATM   36  C36 UNL     1      -0.108  -1.183  -3.454  1.00  0.00     0.002 A 
ENDBRANCH  20  29
ENDBRANCH   2  11
BRANCH   1  37
HETATM   37  C5  UNL     1      -1.879  -3.105   1.445  1.00  0.00    -0.011 A 
HETATM   38  C4  UNL     1      -2.527  -4.227   1.805  1.00  0.00     0.024 A 
HETATM   39  C3  UNL     1      -2.741  -5.233   0.939  1.00  0.00     0.133 A 
HETATM   40  C2  UNL     1      -2.295  -5.093  -0.321  1.00  0.00     0.055 A 
HETATM   41  O10 UNL     1      -3.379  -6.367   1.337  1.00  0.00    -0.190 OA
HETATM   42  C1  UNL     1      -1.652  -3.987  -0.730  1.00  0.00     0.133 A 
HETATM   43  C6  UNL     1      -1.448  -3.024   0.179  1.00  0.00     0.024 A 
HETATM   44  O11 UNL     1      -1.185  -3.842  -1.999  1.00  0.00    -0.190 OA
ENDBRANCH   1  37
BRANCH   8  45
HETATM   45  C15 UNL     1       3.330   0.512   2.620  1.00  0.00     0.000 C 
HETATM   46  C16 UNL     1       3.566   1.838   2.604  1.00  0.00     0.000 C 
BRANCH  46  47
HETATM   47  C17 UNL     1       4.757   2.476   2.591  1.00  0.00     0.000 A 
HETATM   48  C18 UNL     1       4.771   3.825   2.568  1.00  0.00     0.002 A 
HETATM   49  C19 UNL     1       5.915   4.524   2.539  1.00  0.00     0.027 A 
HETATM   50  C20 UNL     1       7.108   3.908   2.534  1.00  0.00     0.131 A 
HETATM   51  C21 UNL     1       7.103   2.566   2.561  1.00  0.00     0.027 A 
HETATM   52  O2  UNL     1       8.273   4.609   2.499  1.00  0.00    -0.190 OA
HETATM   53  C22 UNL     1       5.958   1.865   2.590  1.00  0.00     0.002 A 
ENDBRANCH  46  47
ENDBRANCH   8  45
TORSDOF 6
