REMARK  5 active torsions:
REMARK  status: ('A' for Active; 'I' for Inactive)
REMARK    1  A    between atoms: C4_4  and  C8_9 
REMARK    2  A    between atoms: C6_6  and  O1_7 
REMARK    3  A    between atoms: C9_10  and  C10_11 
REMARK    4  A    between atoms: C18_22  and  O8_37 
REMARK    5  A    between atoms: C23_27  and  C24_28 
ROOT
HETATM    1  C8  UNL     1       2.058  -0.330  -0.293  1.00  0.00     0.100 A 
HETATM    2  C9  UNL     1       1.150  -1.336  -0.250  1.00  0.00     0.025 A 
HETATM    3  C16 UNL     1      -0.016  -0.701  -0.029  1.00  0.00     0.027 A 
HETATM    4  C17 UNL     1       0.287   0.605  -0.029  1.00  0.00     0.124 A 
HETATM    5  O4  UNL     1       1.488   0.766  -0.223  1.00  0.00    -0.305 OA
HETATM    6  C18 UNL     1      -0.596   1.610   0.155  1.00  0.00     0.139 A 
HETATM    7  C19 UNL     1      -1.861   1.182   0.348  1.00  0.00     0.124 A 
HETATM    8  C20 UNL     1      -2.182  -0.117   0.299  1.00  0.00     0.027 A 
HETATM    9  C21 UNL     1      -1.292  -1.094   0.095  1.00  0.00     0.004 A 
HETATM   10  C22 UNL     1      -3.505  -0.157   0.482  1.00  0.00     0.027 A 
HETATM   11  C23 UNL     1      -3.866   1.129   0.638  1.00  0.00     0.100 A 
HETATM   12  O7  UNL     1      -2.870   1.859   0.548  1.00  0.00    -0.305 OA
ENDROOT
BRANCH   1  13
HETATM   13  C4  UNL     1       3.413  -0.351  -0.302  1.00  0.00     0.025 A 
HETATM   14  C3  UNL     1       4.150  -1.440  -0.012  1.00  0.00     0.004 A 
HETATM   15  C2  UNL     1       5.489  -1.406   0.017  1.00  0.00     0.029 A 
HETATM   16  C1  UNL     1       6.164  -0.280  -0.255  1.00  0.00     0.153 A 
HETATM   17  C6  UNL     1       5.468   0.827  -0.574  1.00  0.00     0.119 A 
HETATM   18  O9  UNL     1       7.523  -0.240  -0.203  1.00  0.00    -0.188 OA
HETATM   19  C5  UNL     1       4.122   0.776  -0.526  1.00  0.00     0.028 A 
BRANCH  17  20
HETATM   20  O1  UNL     1       6.133   2.007  -0.795  1.00  0.00    -0.326 OA
HETATM   21  C7  UNL     1       6.345   2.280  -2.162  1.00  0.00     0.181 C 
ENDBRANCH  17  20
ENDBRANCH   1  13
BRANCH   2  22
HETATM   22  C10 UNL     1       1.305  -2.661  -0.456  1.00  0.00     0.006 A 
HETATM   23  C11 UNL     1       2.194  -3.107  -1.366  1.00  0.00     0.028 A 
HETATM   24  C12 UNL     1       2.378  -4.410  -1.634  1.00  0.00     0.133 A 
HETATM   25  C13 UNL     1       1.620  -5.298  -0.973  1.00  0.00     0.055 A 
HETATM   26  O3  UNL     1       3.288  -4.823  -2.558  1.00  0.00    -0.190 OA
HETATM   27  C14 UNL     1       0.703  -4.913  -0.073  1.00  0.00     0.133 A 
HETATM   28  C15 UNL     1       0.562  -3.597   0.163  1.00  0.00     0.028 A 
HETATM   29  O2  UNL     1      -0.056  -5.824   0.594  1.00  0.00    -0.190 OA
ENDBRANCH   2  22
BRANCH   6  30
HETATM   30  O8  UNL     1      -0.146   2.909   0.171  1.00  0.00    -0.324 OA
HETATM   31  C30 UNL     1      -1.024   3.945   0.541  1.00  0.00     0.182 C 
ENDBRANCH   6  30
BRANCH  11  32
HETATM   32  C24 UNL     1      -5.108   1.611   0.861  1.00  0.00     0.027 A 
HETATM   33  C25 UNL     1      -6.188   0.812   0.958  1.00  0.00     0.029 A 
HETATM   34  C26 UNL     1      -7.424   1.288   1.187  1.00  0.00     0.133 A 
HETATM   35  C27 UNL     1      -7.572   2.615   1.325  1.00  0.00     0.055 A 
HETATM   36  O6  UNL     1      -8.498   0.459   1.283  1.00  0.00    -0.190 OA
HETATM   37  C28 UNL     1      -6.531   3.457   1.237  1.00  0.00     0.133 A 
HETATM   38  C29 UNL     1      -5.315   2.935   1.004  1.00  0.00     0.029 A 
HETATM   39  O5  UNL     1      -6.697   4.800   1.381  1.00  0.00    -0.190 OA
ENDBRANCH  11  32
TORSDOF 5
