REMARK  6 active torsions:
REMARK  status: ('A' for Active; 'I' for Inactive)
REMARK    1  A    between atoms: C2_2  and  O7_36 
REMARK    2  A    between atoms: C4_4  and  C7_7 
REMARK    3  A    between atoms: C8_8  and  C9_9 
REMARK    4  A    between atoms: C17_20  and  O6_34 
REMARK    5  A    between atoms: C19_22  and  C21_24 
REMARK    6  A    between atoms: C22_25  and  C23_26 
ROOT
HETATM    1  C7  UNL     1       0.319   1.845  -1.271  1.00  0.00     0.100 A 
HETATM    2  C8  UNL     1       0.344   0.862  -0.334  1.00  0.00     0.025 A 
HETATM    3  C15 UNL     1      -0.870   0.946   0.248  1.00  0.00     0.027 A 
HETATM    4  C16 UNL     1      -1.474   1.974  -0.347  1.00  0.00     0.122 A 
HETATM    5  O3  UNL     1      -0.745   2.474  -1.195  1.00  0.00    -0.305 OA
HETATM    6  C17 UNL     1      -2.706   2.406  -0.028  1.00  0.00     0.117 A 
HETATM    7  C18 UNL     1      -3.302   1.723   0.972  1.00  0.00     0.026 A 
HETATM    8  C19 UNL     1      -2.737   0.680   1.623  1.00  0.00     0.002 A 
HETATM    9  C20 UNL     1      -1.481   0.337   1.272  1.00  0.00     0.002 A 
ENDROOT
BRANCH   8  10
HETATM   10  C21 UNL     1      -3.393   0.119   2.663  1.00  0.00     0.000 C 
HETATM   11  C22 UNL     1      -3.152  -0.992   3.386  1.00  0.00     0.000 C 
BRANCH  11  12
HETATM   12  C23 UNL     1      -2.479  -2.127   3.099  1.00  0.00     0.004 A 
HETATM   13  C24 UNL     1      -2.174  -2.988   4.090  1.00  0.00     0.028 A 
HETATM   14  C25 UNL     1      -1.506  -4.135   3.878  1.00  0.00     0.133 A 
HETATM   15  C26 UNL     1      -1.161  -4.438   2.618  1.00  0.00     0.055 A 
HETATM   16  O5  UNL     1      -1.179  -4.966   4.905  1.00  0.00    -0.190 OA
HETATM   17  C27 UNL     1      -1.490  -3.645   1.587  1.00  0.00     0.133 A 
HETATM   18  C28 UNL     1      -2.158  -2.510   1.849  1.00  0.00     0.028 A 
HETATM   19  O4  UNL     1      -1.152  -3.973   0.312  1.00  0.00    -0.190 OA
ENDBRANCH  11  12
ENDBRANCH   8  10
BRANCH   6  20
HETATM   20  O6  UNL     1      -3.240   3.475  -0.710  1.00  0.00    -0.326 OA
HETATM   21  C29 UNL     1      -4.517   3.946  -0.350  1.00  0.00     0.181 C 
ENDBRANCH   6  20
BRANCH   2  22
HETATM   22  C9  UNL     1       1.321   0.017   0.056  1.00  0.00     0.006 A 
HETATM   23  C10 UNL     1       2.611   0.401   0.095  1.00  0.00     0.028 A 
HETATM   24  C11 UNL     1       3.600  -0.409   0.510  1.00  0.00     0.133 A 
HETATM   25  C12 UNL     1       3.274  -1.642   0.926  1.00  0.00     0.055 A 
HETATM   26  O2  UNL     1       4.894   0.013   0.542  1.00  0.00    -0.190 OA
HETATM   27  C13 UNL     1       2.004  -2.075   0.930  1.00  0.00     0.133 A 
HETATM   28  C14 UNL     1       1.058  -1.232   0.486  1.00  0.00     0.028 A 
HETATM   29  O1  UNL     1       1.684  -3.329   1.353  1.00  0.00    -0.190 OA
ENDBRANCH   2  22
BRANCH   1  30
HETATM   30  C4  UNL     1       1.177   2.177  -2.267  1.00  0.00     0.025 A 
HETATM   31  C3  UNL     1       2.214   1.421  -2.679  1.00  0.00     0.028 A 
HETATM   32  C2  UNL     1       3.071   1.751  -3.670  1.00  0.00     0.119 A 
HETATM   33  C1  UNL     1       2.863   2.921  -4.308  1.00  0.00     0.153 A 
HETATM   34  C6  UNL     1       1.813   3.678  -3.957  1.00  0.00     0.029 A 
HETATM   35  O8  UNL     1       3.683   3.328  -5.316  1.00  0.00    -0.188 OA
HETATM   36  C5  UNL     1       0.982   3.310  -2.974  1.00  0.00     0.004 A 
BRANCH  32  37
HETATM   37  O7  UNL     1       4.135   0.983  -4.085  1.00  0.00    -0.326 OA
HETATM   38  C30 UNL     1       4.435  -0.213  -3.404  1.00  0.00     0.181 C 
ENDBRANCH  32  37
ENDBRANCH   1  30
TORSDOF 6
