REMARK  5 active torsions:
REMARK  status: ('A' for Active; 'I' for Inactive)
REMARK    1  A    between atoms: C4_4  and  C8_9 
REMARK    2  A    between atoms: C6_6  and  O1_7 
REMARK    3  A    between atoms: C9_10  and  C24_29 
REMARK    4  A    between atoms: C12_14  and  C16_19 
REMARK    5  A    between atoms: C17_20  and  C18_21 
ROOT
HETATM    1  C8  UNL     1      -0.981  -1.023  -0.231  1.00  0.00     0.152 C 
HETATM    2  C9  UNL     1      -0.182  -2.332  -0.387  1.00  0.00     0.079 C 
HETATM    3  C10 UNL     1       1.159  -1.688  -0.583  1.00  0.00     0.007 A 
HETATM    4  C11 UNL     1       1.121  -0.356  -0.447  1.00  0.00     0.093 A 
HETATM    5  O2  UNL     1      -0.019   0.034  -0.191  1.00  0.00    -0.329 OA
HETATM    6  C12 UNL     1       2.227   0.411  -0.572  1.00  0.00     0.047 A 
HETATM    7  C13 UNL     1       3.397  -0.241  -0.801  1.00  0.00     0.133 A 
HETATM    8  C14 UNL     1       3.413  -1.582  -0.934  1.00  0.00     0.027 A 
HETATM    9  C15 UNL     1       2.306  -2.326  -0.828  1.00  0.00     0.000 A 
HETATM   10  O3  UNL     1       4.591   0.401  -0.957  1.00  0.00    -0.190 OA
ENDROOT
BRANCH   6  11
HETATM   11  C16 UNL     1       2.243   1.763  -0.477  1.00  0.00     0.004 C 
HETATM   12  C17 UNL     1       1.227   2.643  -0.385  1.00  0.00     0.000 C 
BRANCH  12  13
HETATM   13  C18 UNL     1       1.300   3.992  -0.306  1.00  0.00     0.004 A 
HETATM   14  C19 UNL     1       0.153   4.702  -0.270  1.00  0.00     0.028 A 
HETATM   15  C20 UNL     1       0.122   6.043  -0.204  1.00  0.00     0.133 A 
HETATM   16  C21 UNL     1       1.294   6.696  -0.167  1.00  0.00     0.055 A 
HETATM   17  O5  UNL     1      -1.053   6.728  -0.177  1.00  0.00    -0.190 OA
HETATM   18  C22 UNL     1       2.466   6.045  -0.193  1.00  0.00     0.133 A 
HETATM   19  C23 UNL     1       2.444   4.703  -0.263  1.00  0.00     0.028 A 
HETATM   20  O4  UNL     1       3.646   6.722  -0.152  1.00  0.00    -0.190 OA
ENDBRANCH  12  13
ENDBRANCH   6  11
BRANCH   2  21
HETATM   21  C24 UNL     1      -0.525  -3.275  -1.524  1.00  0.00    -0.011 A 
HETATM   22  C25 UNL     1      -0.302  -4.593  -1.373  1.00  0.00     0.024 A 
HETATM   23  C26 UNL     1      -0.560  -5.486  -2.342  1.00  0.00     0.133 A 
HETATM   24  C27 UNL     1      -1.069  -5.025  -3.496  1.00  0.00     0.055 A 
HETATM   25  O7  UNL     1      -0.316  -6.813  -2.170  1.00  0.00    -0.190 OA
HETATM   26  C28 UNL     1      -1.306  -3.719  -3.700  1.00  0.00     0.133 A 
HETATM   27  C29 UNL     1      -1.011  -2.862  -2.708  1.00  0.00     0.024 A 
HETATM   28  O6  UNL     1      -1.817  -3.271  -4.878  1.00  0.00    -0.190 OA
ENDBRANCH   2  21
BRANCH   1  29
HETATM   29  C4  UNL     1      -1.873  -1.031   0.993  1.00  0.00     0.008 A 
HETATM   30  C3  UNL     1      -3.205  -1.157   0.878  1.00  0.00     0.000 A 
HETATM   31  C2  UNL     1      -3.975  -1.199   1.974  1.00  0.00     0.029 A 
HETATM   32  C1  UNL     1      -3.445  -1.105   3.204  1.00  0.00     0.153 A 
HETATM   33  C6  UNL     1      -2.114  -0.934   3.340  1.00  0.00     0.119 A 
HETATM   34  O8  UNL     1      -4.233  -1.167   4.312  1.00  0.00    -0.188 OA
HETATM   35  C5  UNL     1      -1.353  -0.939   2.229  1.00  0.00     0.024 A 
BRANCH  33  36
HETATM   36  O1  UNL     1      -1.555  -0.883   4.591  1.00  0.00    -0.326 OA
HETATM   37  C7  UNL     1      -1.111   0.399   4.970  1.00  0.00     0.181 C 
ENDBRANCH  33  36
ENDBRANCH   1  29
TORSDOF 5
