REMARK  2 active torsions:
REMARK  status: ('A' for Active; 'I' for Inactive)
REMARK    1  A    between atoms: C4_4  and  C7_7 
REMARK    2  A    between atoms: C7_7  and  C8_9 
ROOT
HETATM    1  C8  UNL     1      -0.574   0.131  -1.663  1.00  0.00     0.177 C 
HETATM    2  O2  UNL     1      -0.561   1.437  -1.161  1.00  0.00    -0.353 OA
HETATM    3  C9  UNL     1       0.739   1.938  -1.320  1.00  0.00     0.128 C 
HETATM    4  C10 UNL     1       1.425   1.087  -2.375  1.00  0.00     0.063 C 
HETATM    5  C11 UNL     1       0.887  -0.246  -1.877  1.00  0.00     0.157 C 
HETATM    6  O3  UNL     1       1.514  -0.633  -0.692  1.00  0.00    -0.301 OA
HETATM    7  C12 UNL     1       1.848   0.271   0.272  1.00  0.00     0.274 C 
HETATM    8  C13 UNL     1       1.505   1.723  -0.018  1.00  0.00     0.125 C 
HETATM    9  O4  UNL     1       2.397  -0.055   1.304  1.00  0.00    -0.264 OA
ENDROOT
BRANCH   1  10
HETATM   10  C7  UNL     1      -1.454  -0.808  -0.842  1.00  0.00     0.204 C 
HETATM   11  O1  UNL     1      -2.811  -0.428  -1.006  1.00  0.00    -0.216 OA
BRANCH  10  12
HETATM   12  C4  UNL     1      -1.126  -0.904   0.636  1.00  0.00     0.010 A 
HETATM   13  C3  UNL     1      -1.426   0.099   1.481  1.00  0.00    -0.002 A 
HETATM   14  C2  UNL     1      -1.127   0.021   2.787  1.00  0.00    -0.000 A 
HETATM   15  C1  UNL     1      -0.528  -1.076   3.275  1.00  0.00    -0.000 A 
HETATM   16  C6  UNL     1      -0.240  -2.093   2.449  1.00  0.00    -0.000 A 
HETATM   17  C5  UNL     1      -0.540  -2.005   1.144  1.00  0.00    -0.002 A 
ENDBRANCH  10  12
ENDBRANCH   1  10
TORSDOF 2
