REMARK  5 active torsions:
REMARK  status: ('A' for Active; 'I' for Inactive)
REMARK    1  A    between atoms: C4_4  and  C7_7 
REMARK    2  A    between atoms: C7_7  and  C8_8 
REMARK    3  A    between atoms: C8_8  and  O1_9 
REMARK    4  A    between atoms: C8_8  and  C11_13 
REMARK    5  A    between atoms: O1_9  and  C9_10 
ROOT
HETATM    1  C8  UNL     1       0.448   0.513   0.322  1.00  0.00     0.187 C 
ENDROOT
BRANCH   1   2
HETATM    2  C7  UNL     1      -0.799   1.343  -0.001  1.00  0.00     0.204 C 
HETATM    3  O5  UNL     1      -0.924   2.357   0.983  1.00  0.00    -0.216 OA
BRANCH   2   4
HETATM    4  C4  UNL     1      -2.083   0.537  -0.065  1.00  0.00     0.010 A 
HETATM    5  C3  UNL     1      -2.519   0.025  -1.229  1.00  0.00    -0.002 A 
HETATM    6  C2  UNL     1      -3.654  -0.689  -1.293  1.00  0.00    -0.000 A 
HETATM    7  C1  UNL     1      -4.378  -0.899  -0.184  1.00  0.00    -0.000 A 
HETATM    8  C6  UNL     1      -3.959  -0.393   0.985  1.00  0.00    -0.000 A 
HETATM    9  C5  UNL     1      -2.821   0.317   1.040  1.00  0.00    -0.002 A 
ENDBRANCH   2   4
ENDBRANCH   1   2
BRANCH   1  10
HETATM   10  O1  UNL     1       0.151  -0.311   1.418  1.00  0.00    -0.299 OA
BRANCH  10  11
HETATM   11  C9  UNL     1       0.856  -0.347   2.585  1.00  0.00     0.273 C 
HETATM   12  O2  UNL     1       0.527  -1.068   3.504  1.00  0.00    -0.264 OA
HETATM   13  C10 UNL     1       2.081   0.543   2.690  1.00  0.00     0.106 C 
ENDBRANCH  10  11
ENDBRANCH   1  10
BRANCH   1  14
HETATM   14  C11 UNL     1       0.949  -0.358  -0.840  1.00  0.00     0.159 C 
HETATM   15  O3  UNL     1       2.024  -1.127  -0.372  1.00  0.00    -0.298 OA
HETATM   16  C12 UNL     1       2.974  -1.582  -1.240  1.00  0.00     0.296 C 
HETATM   17  C13 UNL     1       3.053  -1.212  -2.542  1.00  0.00     0.064 C 
HETATM   18  O4  UNL     1       3.805  -2.373  -0.841  1.00  0.00    -0.259 OA
HETATM   19  C14 UNL     1       2.230  -0.270  -3.012  1.00  0.00    -0.018 C 
HETATM   20  C15 UNL     1       1.288   0.450  -2.095  1.00  0.00     0.059 C 
ENDBRANCH   1  14
TORSDOF 5
