REMARK  5 active torsions:
REMARK  status: ('A' for Active; 'I' for Inactive)
REMARK    1  A    between atoms: C2_2  and  C16_19 
REMARK    2  A    between atoms: C9_10  and  C10_12 
REMARK    3  A    between atoms: C16_19  and  C17_20 
REMARK    4  A    between atoms: C16_19  and  C23_26 
REMARK    5  A    between atoms: C23_26  and  C24_28 
ROOT
HETATM    1  C1  UNL     1      -2.410   0.864  -0.344  1.00  0.00     0.131 A 
HETATM    2  C2  UNL     1      -1.182   0.328  -0.161  1.00  0.00     0.032 A 
HETATM    3  C3  UNL     1      -0.140   1.161   0.103  1.00  0.00     0.097 A 
HETATM    4  C4  UNL     1      -0.324   2.504   0.088  1.00  0.00     0.082 A 
HETATM    5  C5  UNL     1      -1.537   3.041  -0.155  1.00  0.00     0.138 A 
HETATM    6  C6  UNL     1      -2.555   2.195  -0.341  1.00  0.00     0.055 A 
HETATM    7  O1  UNL     1      -1.796   4.379  -0.180  1.00  0.00    -0.190 OA
HETATM    8  C7  UNL     1       0.727   3.344   0.314  1.00  0.00     0.180 C 
HETATM    9  C8  UNL     1       2.092   2.745   0.579  1.00  0.00     0.104 C 
HETATM   10  C9  UNL     1       1.990   1.350   1.165  1.00  0.00     0.151 C 
HETATM   11  O2  UNL     1       1.068   0.605   0.421  1.00  0.00    -0.329 OA
HETATM   12  O3  UNL     1       0.666   4.554   0.309  1.00  0.00    -0.291 OA
HETATM   13  O7  UNL     1      -3.539   0.119  -0.513  1.00  0.00    -0.190 OA
ENDROOT
BRANCH   2  14
HETATM   14  C16 UNL     1      -1.054  -1.214  -0.185  1.00  0.00     0.081 C 
BRANCH  14  15
HETATM   15  C17 UNL     1      -2.025  -1.894  -1.153  1.00  0.00    -0.016 A 
HETATM   16  C18 UNL     1      -2.784  -2.931  -0.750  1.00  0.00    -0.004 A 
HETATM   17  C19 UNL     1      -3.633  -3.546  -1.588  1.00  0.00    -0.000 A 
HETATM   18  C20 UNL     1      -3.741  -3.130  -2.859  1.00  0.00    -0.000 A 
HETATM   19  C21 UNL     1      -2.995  -2.098  -3.279  1.00  0.00    -0.000 A 
HETATM   20  C22 UNL     1      -2.149  -1.492  -2.433  1.00  0.00    -0.004 A 
ENDBRANCH  14  15
BRANCH  14  21
HETATM   21  C23 UNL     1       0.298  -1.953  -0.355  1.00  0.00     0.188 C 
HETATM   22  O4  UNL     1       0.089  -3.298   0.035  1.00  0.00    -0.220 OA
BRANCH  21  23
HETATM   23  C24 UNL     1       0.953  -2.027  -1.744  1.00  0.00     0.160 C 
HETATM   24  C25 UNL     1       1.261  -0.696  -2.429  1.00  0.00     0.059 C 
HETATM   25  C26 UNL     1       2.603  -0.143  -2.062  1.00  0.00    -0.018 C 
HETATM   26  C27 UNL     1       3.576  -0.952  -1.633  1.00  0.00     0.064 C 
HETATM   27  C28 UNL     1       3.320  -2.274  -1.468  1.00  0.00     0.296 C 
HETATM   28  O5  UNL     1       2.088  -2.843  -1.613  1.00  0.00    -0.298 OA
HETATM   29  O6  UNL     1       4.258  -2.980  -1.156  1.00  0.00    -0.259 OA
ENDBRANCH  21  23
ENDBRANCH  14  21
ENDBRANCH   2  14
BRANCH  10  30
HETATM   30  C10 UNL     1       1.716   1.293   2.664  1.00  0.00     0.005 A 
HETATM   31  C11 UNL     1       2.558   0.626   3.478  1.00  0.00    -0.002 A 
HETATM   32  C12 UNL     1       2.354   0.563   4.804  1.00  0.00    -0.000 A 
HETATM   33  C13 UNL     1       1.289   1.170   5.348  1.00  0.00    -0.000 A 
HETATM   34  C14 UNL     1       0.438   1.836   4.556  1.00  0.00    -0.000 A 
HETATM   35  C15 UNL     1       0.654   1.894   3.232  1.00  0.00    -0.002 A 
ENDBRANCH  10  30
TORSDOF 5
