REMARK  6 active torsions:
REMARK  status: ('A' for Active; 'I' for Inactive)
REMARK    1  A    between atoms: C6_8  and  C21_27 
REMARK    2  A    between atoms: C7_9  and  O3_10 
REMARK    3  A    between atoms: O3_10  and  C8_11 
REMARK    4  A    between atoms: C8_11  and  C9_12 
REMARK    5  A    between atoms: C8_11  and  C15_18 
REMARK    6  A    between atoms: C15_18  and  C16_20 
ROOT
HETATM    1  O3  UNL     1       0.482   0.001   0.809  1.00  0.00    -0.347 OA
ENDROOT
BRANCH   1   2
HETATM    2  C7  UNL     1      -0.913   0.155   0.785  1.00  0.00     0.177 C 
HETATM    3  C3  UNL     1      -1.414   0.463   2.195  1.00  0.00     0.185 C 
HETATM    4  O1  UNL     1      -2.606  -0.227   2.447  1.00  0.00    -0.295 OA
HETATM    5  C4  UNL     1      -1.566   1.970   2.168  1.00  0.00     0.168 C 
HETATM    6  C2  UNL     1      -3.572   0.368   3.208  1.00  0.00     0.296 C 
HETATM    7  C1  UNL     1      -3.532   1.663   3.613  1.00  0.00     0.066 C 
HETATM    8  O7  UNL     1      -4.527  -0.291   3.567  1.00  0.00    -0.259 OA
HETATM    9  C5  UNL     1      -2.555   2.465   3.178  1.00  0.00     0.011 C 
HETATM   10  O2  UNL     1      -2.011   2.251   0.866  1.00  0.00    -0.345 OA
HETATM   11  C6  UNL     1      -1.282   1.417  -0.004  1.00  0.00     0.168 C 
BRANCH  11  12
HETATM   12  C21 UNL     1      -2.074   1.120  -1.263  1.00  0.00     0.007 A 
HETATM   13  C22 UNL     1      -1.609   1.473  -2.476  1.00  0.00    -0.002 A 
HETATM   14  C23 UNL     1      -2.302   1.195  -3.591  1.00  0.00    -0.000 A 
HETATM   15  C24 UNL     1      -3.482   0.563  -3.509  1.00  0.00    -0.000 A 
HETATM   16  C25 UNL     1      -3.963   0.214  -2.307  1.00  0.00    -0.000 A 
HETATM   17  C26 UNL     1      -3.263   0.493  -1.196  1.00  0.00    -0.002 A 
ENDBRANCH  11  12
ENDBRANCH   1   2
BRANCH   1  18
HETATM   18  C8  UNL     1       0.942  -1.262   0.393  1.00  0.00     0.170 C 
BRANCH  18  19
HETATM   19  C9  UNL     1       0.653  -1.527  -1.077  1.00  0.00     0.007 A 
HETATM   20  C10 UNL     1       0.090  -2.687  -1.465  1.00  0.00    -0.002 A 
HETATM   21  C11 UNL     1      -0.195  -2.928  -2.754  1.00  0.00    -0.000 A 
HETATM   22  C12 UNL     1       0.085  -2.006  -3.687  1.00  0.00    -0.000 A 
HETATM   23  C13 UNL     1       0.650  -0.847  -3.319  1.00  0.00    -0.000 A 
HETATM   24  C14 UNL     1       0.925  -0.614  -2.027  1.00  0.00    -0.002 A 
ENDBRANCH  18  19
BRANCH  18  25
HETATM   25  C15 UNL     1       2.418  -1.424   0.765  1.00  0.00     0.211 C 
HETATM   26  O4  UNL     1       2.773  -2.759   0.469  1.00  0.00    -0.218 OA
BRANCH  25  27
HETATM   27  C16 UNL     1       3.479  -0.519   0.126  1.00  0.00     0.162 C 
HETATM   28  C17 UNL     1       3.333   0.974   0.413  1.00  0.00     0.059 C 
HETATM   29  C18 UNL     1       3.723   1.282   1.827  1.00  0.00    -0.018 C 
HETATM   30  C19 UNL     1       4.683   0.559   2.415  1.00  0.00     0.064 C 
HETATM   31  C20 UNL     1       5.208  -0.508   1.759  1.00  0.00     0.296 C 
HETATM   32  O5  UNL     1       4.727  -0.987   0.570  1.00  0.00    -0.298 OA
HETATM   33  O6  UNL     1       6.144  -1.076   2.283  1.00  0.00    -0.259 OA
ENDBRANCH  25  27
ENDBRANCH  18  25
ENDBRANCH   1  18
TORSDOF 6
