REMARK  2 active torsions:
REMARK  status: ('A' for Active; 'I' for Inactive)
REMARK    1  A    between atoms: C4_4  and  C7_7 
REMARK    2  A    between atoms: C8_8  and  C9_10 
ROOT
HETATM    1  C7  UNL     1      -1.213   0.196   0.139  1.00  0.00     0.167 A 
HETATM    2  C8  UNL     1       0.076   0.743   0.085  1.00  0.00     0.175 A 
HETATM    3  O1  UNL     1      -1.108   1.731   0.076  1.00  0.00    -0.347 OA
ENDROOT
BRANCH   2   4
HETATM    4  C9  UNL     1       0.857   0.898   1.393  1.00  0.00     0.159 C 
HETATM    5  O2  UNL     1       1.503   2.152   1.427  1.00  0.00    -0.298 OA
HETATM    6  C10 UNL     1       2.582   2.316   2.248  1.00  0.00     0.296 C 
HETATM    7  C11 UNL     1       3.203   1.300   2.899  1.00  0.00     0.064 C 
HETATM    8  O3  UNL     1       3.023   3.434   2.430  1.00  0.00    -0.259 OA
HETATM    9  C12 UNL     1       2.836   0.035   2.662  1.00  0.00    -0.018 C 
HETATM   10  C13 UNL     1       1.814  -0.274   1.609  1.00  0.00     0.059 C 
ENDBRANCH   2   4
BRANCH   1  11
HETATM   11  C4  UNL     1      -1.641  -0.412  -1.121  1.00  0.00     0.007 A 
HETATM   12  C3  UNL     1      -2.238  -1.619  -1.069  1.00  0.00    -0.002 A 
HETATM   13  C2  UNL     1      -2.666  -2.240  -2.179  1.00  0.00    -0.000 A 
HETATM   14  C1  UNL     1      -2.507  -1.659  -3.376  1.00  0.00    -0.000 A 
HETATM   15  C6  UNL     1      -1.925  -0.453  -3.449  1.00  0.00    -0.000 A 
HETATM   16  C5  UNL     1      -1.501   0.162  -2.333  1.00  0.00    -0.002 A 
ENDBRANCH   1  11
TORSDOF 2
