REMARK  1 active torsions:
REMARK  status: ('A' for Active; 'I' for Inactive)
REMARK    1  A    between atoms: C10_10  and  C11_11 
ROOT
HETATM    1  C1  UNL     1      -1.471   0.841  -2.432  1.00  0.00     0.004 C 
HETATM    2  C2  UNL     1      -2.349   0.011  -1.490  1.00  0.00     0.022 C 
HETATM    3  C3  UNL     1      -1.566  -0.535  -0.317  1.00  0.00    -0.044 C 
HETATM    4  C4  UNL     1      -0.115  -0.091  -0.226  1.00  0.00     0.022 C 
HETATM    5  C5  UNL     1      -0.094   1.459  -0.309  1.00  0.00     0.004 C 
HETATM    6  C6  UNL     1      -0.694   1.927  -1.668  1.00  0.00     0.001 C 
HETATM    7  C7  UNL     1       1.362   1.973  -0.208  1.00  0.00     0.000 C 
HETATM    8  C8  UNL     1       2.112   1.442   1.019  1.00  0.00     0.000 C 
HETATM    9  C9  UNL     1       2.128  -0.090   0.996  1.00  0.00     0.004 C 
HETATM   10  C10 UNL     1       0.702  -0.671   0.951  1.00  0.00     0.022 C 
HETATM   11  C14 UNL     1      -0.934   2.083   0.833  1.00  0.00     0.000 C 
HETATM   12  C15 UNL     1      -2.194  -1.306   0.585  1.00  0.00    -0.009 C 
ENDROOT
BRANCH  10  13
HETATM   13  C11 UNL     1       0.820  -2.191   0.945  1.00  0.00    -0.044 C 
HETATM   14  C12 UNL     1       0.726  -2.892   2.088  1.00  0.00    -0.009 C 
HETATM   15  C13 UNL     1       1.106  -2.895  -0.361  1.00  0.00     0.026 C 
ENDBRANCH  10  13
TORSDOF 1
