REMARK  9 active torsions:
REMARK  status: ('A' for Active; 'I' for Inactive)
REMARK    1  A    between atoms: C5_5  and  C7_7 
REMARK    2  A    between atoms: C8_8  and  C9_9 
REMARK       I    between atoms: C9_9  and  N1_10 
REMARK    3  A    between atoms: N1_10  and  C10_11 
REMARK    4  A    between atoms: C10_11  and  C11_12 
REMARK    5  A    between atoms: C11_12  and  C12_13 
REMARK    6  A    between atoms: C12_13  and  C13_14 
REMARK    7  A    between atoms: C13_14  and  N2_15 
REMARK       I    between atoms: N2_15  and  C14_16 
REMARK    8  A    between atoms: C14_16  and  C15_17 
REMARK    9  A    between atoms: C15_17  and  C17_19 
ROOT
HETATM    1  C10 UNL     1      -3.255  -2.918  -0.000  1.00  0.00     0.129 C 
ENDROOT
BRANCH   1   2
HETATM    2  N1  UNL     1      -3.505  -1.567   0.519  1.00  0.00    -0.234 NA
HETATM    3  C9  UNL     1      -2.605  -0.931   1.339  1.00  0.00     0.275 C 
HETATM    4  O3  UNL     1      -1.719  -1.551   1.870  1.00  0.00    -0.266 OA
BRANCH   3   5
HETATM    5  C8  UNL     1      -2.742   0.419   1.272  1.00  0.00     0.062 C 
HETATM    6  C7  UNL     1      -1.891   1.416   1.592  1.00  0.00     0.005 C 
BRANCH   6   7
HETATM    7  C5  UNL     1      -0.659   1.524   2.139  1.00  0.00     0.000 A 
HETATM    8  C4  UNL     1       0.026   0.572   2.800  1.00  0.00     0.000 A 
HETATM    9  C3  UNL     1       1.263   0.773   3.284  1.00  0.00     0.000 A 
HETATM   10  C2  UNL     1       1.868   1.957   3.125  1.00  0.00     0.000 A 
HETATM   11  C1  UNL     1       1.204   2.937   2.499  1.00  0.00     0.000 A 
HETATM   12  C6  UNL     1      -0.035   2.719   2.033  1.00  0.00     0.000 A 
ENDBRANCH   6   7
ENDBRANCH   3   5
ENDBRANCH   1   2
BRANCH   1  13
HETATM   13  C11 UNL     1      -2.441  -2.835  -1.312  1.00  0.00     0.029 C 
BRANCH  13  14
HETATM   14  C12 UNL     1      -1.158  -2.008  -1.143  1.00  0.00     0.029 C 
BRANCH  14  15
HETATM   15  C13 UNL     1      -0.269  -1.843  -2.381  1.00  0.00     0.129 C 
BRANCH  15  16
HETATM   16  N2  UNL     1       0.730  -0.837  -1.999  1.00  0.00    -0.234 NA
HETATM   17  C14 UNL     1       2.033  -0.861  -2.401  1.00  0.00     0.273 C 
HETATM   18  O2  UNL     1       2.429  -1.682  -3.195  1.00  0.00    -0.266 OA
BRANCH  17  19
HETATM   19  C15 UNL     1       2.825   0.100  -1.845  1.00  0.00     0.065 C 
HETATM   20  C16 UNL     1       4.111   0.160  -2.241  1.00  0.00     0.003 C 
BRANCH  19  21
HETATM   21  C17 UNL     1       2.341   1.113  -0.811  1.00  0.00     0.179 C 
HETATM   22  O1  UNL     1       1.586   0.499   0.219  1.00  0.00    -0.218 OA
HETATM   23  C18 UNL     1       1.522   2.237  -1.440  1.00  0.00     0.041 C 
ENDBRANCH  19  21
ENDBRANCH  17  19
ENDBRANCH  15  16
ENDBRANCH  14  15
ENDBRANCH  13  14
ENDBRANCH   1  13
TORSDOF 9
