REMARK  14 active torsions:
REMARK  status: ('A' for Active; 'I' for Inactive)
REMARK    1  A    between atoms: C3_4  and  C26_34 
REMARK    2  A    between atoms: C4_5  and  C20_28 
REMARK    3  A    between atoms: C5_6  and  C10_14 
REMARK    4  A    between atoms: C7_9  and  O3_10 
REMARK    5  A    between atoms: O3_10  and  C8_11 
REMARK       I    between atoms: C10_14  and  N1_15 
REMARK    6  A    between atoms: N1_15  and  C11_16 
REMARK    7  A    between atoms: C11_16  and  C12_17 
REMARK    8  A    between atoms: C12_17  and  C13_18 
REMARK    9  A    between atoms: C13_18  and  C14_19 
REMARK   10  A    between atoms: C14_19  and  N2_20 
REMARK       I    between atoms: N2_20  and  C15_21 
REMARK   11  A    between atoms: C15_21  and  C16_22 
REMARK   12  A    between atoms: C29_37  and  O7_40 
REMARK   13  A    between atoms: C34_43  and  O9_48 
REMARK   14  A    between atoms: C36_45  and  O8_46 
ROOT
HETATM    1  C1  UNL     1      -1.017   2.018   1.757  1.00  0.00     0.053 A 
HETATM    2  C2  UNL     1      -1.445   0.762   1.519  1.00  0.00     0.097 A 
HETATM    3  O1  UNL     1      -0.601  -0.263   1.185  1.00  0.00    -0.329 OA
HETATM    4  C3  UNL     1       0.764   0.022   1.026  1.00  0.00     0.146 C 
HETATM    5  C4  UNL     1       0.942   0.862  -0.258  1.00  0.00     0.044 C 
HETATM    6  C5  UNL     1       0.787   2.379   0.127  1.00  0.00     0.118 C 
HETATM    7  C6  UNL     1       0.489   2.250   1.636  1.00  0.00     0.185 C 
HETATM    8  O2  UNL     1       0.927   3.364   2.377  1.00  0.00    -0.218 OA
HETATM    9  C7  UNL     1       1.175   0.983   2.141  1.00  0.00     0.185 C 
HETATM   10  C33 UNL     1      -2.763   0.509   1.584  1.00  0.00     0.048 A 
HETATM   11  C34 UNL     1      -3.681   1.448   1.864  1.00  0.00     0.098 A 
HETATM   12  C35 UNL     1      -3.198   2.690   2.047  1.00  0.00     0.048 A 
HETATM   13  C36 UNL     1      -1.891   3.016   2.020  1.00  0.00     0.096 A 
ENDROOT
BRANCH   6  14
HETATM   14  C10 UNL     1       2.036   3.217  -0.245  1.00  0.00     0.254 C 
HETATM   15  N1  UNL     1       2.035   4.029  -1.365  1.00  0.00    -0.238 NA
HETATM   16  O6  UNL     1       3.068   3.115   0.374  1.00  0.00    -0.271 OA
BRANCH  15  17
HETATM   17  C11 UNL     1       0.932   4.376  -2.285  1.00  0.00     0.133 C 
BRANCH  17  18
HETATM   18  C12 UNL     1       0.725   3.373  -3.464  1.00  0.00     0.054 C 
BRANCH  18  19
HETATM   19  C13 UNL     1       0.576   2.005  -2.790  1.00  0.00    -0.003 C 
BRANCH  19  20
HETATM   20  C14 UNL     1      -0.136   0.667  -3.360  1.00  0.00     0.098 C 
BRANCH  20  21
HETATM   21  N2  UNL     1      -0.599  -1.100  -2.379  1.00  0.00    -0.207 NA
HETATM   22  C15 UNL     1      -0.860  -2.511  -2.753  1.00  0.00     0.275 C 
HETATM   23  O5  UNL     1      -0.633  -3.055  -3.816  1.00  0.00    -0.266 OA
BRANCH  22  24
HETATM   24  C16 UNL     1      -1.441  -3.296  -1.789  1.00  0.00     0.032 C 
HETATM   25  C17 UNL     1      -1.697  -4.596  -2.056  1.00  0.00    -0.025 C 
HETATM   26  C18 UNL     1      -2.320  -5.600  -1.116  1.00  0.00     0.030 C 
HETATM   27  C19 UNL     1      -1.836  -2.718  -0.448  1.00  0.00     0.036 C 
ENDBRANCH  22  24
ENDBRANCH  20  21
ENDBRANCH  19  20
ENDBRANCH  18  19
ENDBRANCH  17  18
ENDBRANCH  15  17
ENDBRANCH   6  14
BRANCH   5  28
HETATM   28  C20 UNL     1       0.247   0.285  -1.505  1.00  0.00     0.003 A 
HETATM   29  C21 UNL     1       1.073  -0.510  -2.502  1.00  0.00     0.000 A 
HETATM   30  C22 UNL     1       0.472  -1.022  -3.796  1.00  0.00     0.000 A 
HETATM   31  C23 UNL     1      -1.036  -0.759  -4.084  1.00  0.00     0.000 A 
HETATM   32  C24 UNL     1      -1.885  -0.053  -3.034  1.00  0.00     0.000 A 
HETATM   33  C25 UNL     1      -1.237   0.519  -1.803  1.00  0.00     0.000 A 
ENDBRANCH   5  28
BRANCH   4  34
HETATM   34  C26 UNL     1       1.564  -1.286   1.107  1.00  0.00     0.005 A 
HETATM   35  C27 UNL     1       2.747  -1.483   0.497  1.00  0.00     0.000 A 
HETATM   36  C28 UNL     1       3.423  -2.635   0.611  1.00  0.00     0.024 A 
HETATM   37  C29 UNL     1       2.977  -3.670   1.346  1.00  0.00     0.094 A 
HETATM   38  C30 UNL     1       1.810  -3.459   1.985  1.00  0.00     0.024 A 
HETATM   39  C31 UNL     1       1.134  -2.305   1.875  1.00  0.00     0.000 A 
BRANCH  37  40
HETATM   40  O7  UNL     1       3.736  -4.812   1.419  1.00  0.00    -0.328 OA
HETATM   41  C32 UNL     1       3.317  -5.844   2.281  1.00  0.00     0.181 C 
ENDBRANCH  37  40
ENDBRANCH   4  34
BRANCH   9  42
HETATM   42  O3  UNL     1       2.564   1.153   2.184  1.00  0.00    -0.299 OA
BRANCH  42  43
HETATM   43  C8  UNL     1       3.277   0.462   3.112  1.00  0.00     0.273 C 
HETATM   44  C9  UNL     1       4.750   0.792   2.983  1.00  0.00     0.106 C 
HETATM   45  O4  UNL     1       2.813  -0.316   3.914  1.00  0.00    -0.264 OA
ENDBRANCH  42  43
ENDBRANCH   9  42
BRANCH  13  46
HETATM   46  O8  UNL     1      -1.432   4.302   2.166  1.00  0.00    -0.328 OA
HETATM   47  C37 UNL     1      -2.326   5.379   2.009  1.00  0.00     0.181 C 
ENDBRANCH  13  46
BRANCH  11  48
HETATM   48  O9  UNL     1      -5.040   1.244   1.912  1.00  0.00    -0.328 OA
HETATM   49  C38 UNL     1      -5.551  -0.009   1.518  1.00  0.00     0.181 C 
ENDBRANCH  11  48
TORSDOF 14
