REMARK  0 active torsions:
REMARK  status: ('A' for Active; 'I' for Inactive)
ROOT
HETATM    1  C1  UNL     1      -0.093   0.016   1.641  1.00  0.00     0.061 C 
HETATM    2  C2  UNL     1      -0.234  -1.486   1.339  1.00  0.00     0.159 C 
HETATM    3  C3  UNL     1      -0.252  -1.843  -0.139  1.00  0.00     0.180 C 
HETATM    4  C4  UNL     1       0.841  -1.237  -1.022  1.00  0.00     0.038 C 
HETATM    5  C5  UNL     1       0.709   0.266  -1.352  1.00  0.00     0.035 C 
HETATM    6  C6  UNL     1       1.361   1.155  -0.247  1.00  0.00     0.031 C 
HETATM    7  C7  UNL     1       1.175   0.810   1.265  1.00  0.00     0.129 C 
HETATM    8  C8  UNL     1       2.478   0.212   1.833  1.00  0.00     0.033 C 
HETATM    9  O1  UNL     1       1.054   2.023   1.973  1.00  0.00    -0.226 OA
HETATM   10  C9  UNL     1       1.266   2.656  -0.637  1.00  0.00     0.003 C 
HETATM   11  C10 UNL     1      -0.053   3.055  -1.313  1.00  0.00     0.005 C 
HETATM   12  C11 UNL     1      -0.516   2.041  -2.372  1.00  0.00     0.059 C 
HETATM   13  C12 UNL     1      -0.730   0.711  -1.659  1.00  0.00     0.155 C 
HETATM   14  O2  UNL     1      -1.385  -0.196  -2.520  1.00  0.00    -0.223 OA
HETATM   15  C13 UNL     1       0.528   1.660  -3.430  1.00  0.00     0.129 C 
HETATM   16  C14 UNL     1       1.398   0.608  -2.719  1.00  0.00     0.033 C 
HETATM   17  C15 UNL     1       1.276   2.823  -4.074  1.00  0.00     0.033 C 
HETATM   18  O3  UNL     1      -0.155   1.026  -4.486  1.00  0.00    -0.226 OA
HETATM   19  O4  UNL     1      -0.138  -3.246  -0.226  1.00  0.00    -0.221 OA
HETATM   20  C16 UNL     1      -1.491  -1.938   2.159  1.00  0.00     0.057 C 
HETATM   21  C17 UNL     1      -1.678  -0.836   3.226  1.00  0.00     0.155 C 
HETATM   22  C18 UNL     1      -0.449   0.057   3.143  1.00  0.00     0.038 C 
HETATM   23  O5  UNL     1      -1.842  -1.327   4.534  1.00  0.00    -0.223 OA
HETATM   24  C19 UNL     1      -1.330  -3.335   2.804  1.00  0.00     0.005 C 
HETATM   25  C20 UNL     1      -2.793  -1.990   1.322  1.00  0.00     0.005 C 
HETATM   26  O6  UNL     1       0.882  -2.161   1.856  1.00  0.00    -0.223 OA
ENDROOT
TORSDOF 0
