REMARK  1 active torsions:
REMARK  status: ('A' for Active; 'I' for Inactive)
REMARK    1  A    between atoms: C16_18  and  C17_19 
ROOT
HETATM    1  C1  UNL     1      -6.023  -1.297   2.847  1.00  0.00     0.055 A 
HETATM    2  C2  UNL     1      -6.066  -2.596   2.522  1.00  0.00     0.135 A 
HETATM    3  C3  UNL     1      -4.903  -3.175   2.197  1.00  0.00     0.052 A 
HETATM    4  C4  UNL     1      -3.737  -2.505   2.177  1.00  0.00     0.107 A 
HETATM    5  C5  UNL     1      -3.730  -1.197   2.502  1.00  0.00     0.087 A 
HETATM    6  C6  UNL     1      -4.884  -0.582   2.851  1.00  0.00     0.138 A 
HETATM    7  O1  UNL     1      -4.974   0.738   3.184  1.00  0.00    -0.190 OA
HETATM    8  C7  UNL     1      -2.550  -0.511   2.452  1.00  0.00     0.201 A 
HETATM    9  C8  UNL     1      -1.422  -1.137   2.002  1.00  0.00     0.060 A 
HETATM   10  C9  UNL     1      -1.474  -2.452   1.702  1.00  0.00     0.130 A 
HETATM   11  O2  UNL     1      -2.611  -3.187   1.841  1.00  0.00    -0.305 OA
HETATM   12  C10 UNL     1      -0.374  -3.098   1.262  1.00  0.00     0.178 A 
HETATM   13  C11 UNL     1       0.788  -2.450   1.088  1.00  0.00     0.154 A 
HETATM   14  C12 UNL     1       0.817  -1.138   1.357  1.00  0.00     0.006 A 
HETATM   15  C13 UNL     1      -0.258  -0.479   1.818  1.00  0.00    -0.015 A 
HETATM   16  C14 UNL     1       0.062   0.994   2.009  1.00  0.00     0.044 C 
HETATM   17  C15 UNL     1       1.590   1.112   1.734  1.00  0.00     0.017 C 
HETATM   18  C16 UNL     1       2.026  -0.259   1.157  1.00  0.00     0.047 C 
HETATM   19  C30 UNL     1       2.100   2.469   1.169  1.00  0.00     0.005 C 
HETATM   20  C31 UNL     1       1.096   3.569   1.593  1.00  0.00     0.022 C 
HETATM   21  C32 UNL     1      -0.249   3.223   1.004  1.00  0.00    -0.048 C 
HETATM   22  C33 UNL     1      -0.701   1.969   1.150  1.00  0.00    -0.030 C 
HETATM   23  C34 UNL     1      -1.000   4.287   0.252  1.00  0.00     0.026 C 
HETATM   24  C35 UNL     1       3.489   2.796   1.763  1.00  0.00     0.000 C 
HETATM   25  C36 UNL     1       2.242   2.567  -0.365  1.00  0.00     0.000 C 
HETATM   26  O9  UNL     1       1.879  -3.113   0.621  1.00  0.00    -0.188 OA
HETATM   27  O10 UNL     1      -0.422  -4.428   0.975  1.00  0.00    -0.186 OA
HETATM   28  O11 UNL     1      -2.517   0.649   2.793  1.00  0.00    -0.286 OA
HETATM   29  O12 UNL     1      -7.230  -3.300   2.520  1.00  0.00    -0.190 OA
ENDROOT
BRANCH  18  30
HETATM   30  C17 UNL     1       2.708  -0.415  -0.207  1.00  0.00    -0.011 A 
HETATM   31  C18 UNL     1       4.039  -0.620  -0.137  1.00  0.00     0.026 A 
HETATM   32  C19 UNL     1       4.815  -0.826  -1.206  1.00  0.00     0.158 A 
HETATM   33  C20 UNL     1       4.239  -0.823  -2.415  1.00  0.00     0.179 A 
HETATM   34  O8  UNL     1       6.152  -1.034  -1.081  1.00  0.00    -0.188 OA
HETATM   35  C21 UNL     1       2.914  -0.614  -2.539  1.00  0.00     0.130 A 
HETATM   36  O7  UNL     1       5.020  -1.032  -3.510  1.00  0.00    -0.186 OA
HETATM   37  C22 UNL     1       2.146  -0.413  -1.445  1.00  0.00     0.060 A 
HETATM   38  O3  UNL     1       2.419  -0.625  -3.810  1.00  0.00    -0.305 OA
HETATM   39  C23 UNL     1       0.813  -0.202  -1.654  1.00  0.00     0.201 A 
HETATM   40  C24 UNL     1       0.279  -0.165  -2.908  1.00  0.00     0.087 A 
HETATM   41  O6  UNL     1       0.074  -0.007  -0.723  1.00  0.00    -0.286 OA
HETATM   42  C25 UNL     1       1.093  -0.370  -3.958  1.00  0.00     0.107 A 
HETATM   43  C29 UNL     1      -1.039   0.080  -3.103  1.00  0.00     0.138 A 
HETATM   44  C26 UNL     1       0.577  -0.318  -5.199  1.00  0.00     0.052 A 
HETATM   45  C27 UNL     1      -0.719  -0.070  -5.433  1.00  0.00     0.135 A 
HETATM   46  C28 UNL     1      -1.502   0.122  -4.364  1.00  0.00     0.055 A 
HETATM   47  O5  UNL     1      -1.212  -0.017  -6.699  1.00  0.00    -0.190 OA
HETATM   48  O4  UNL     1      -1.935   0.298  -2.096  1.00  0.00    -0.190 OA
ENDBRANCH  18  30
TORSDOF 1
