REMARK  3 active torsions:
REMARK  status: ('A' for Active; 'I' for Inactive)
REMARK    1  A    between atoms: C2_2  and  O6_28 
REMARK    2  A    between atoms: N1_9  and  O1_10 
REMARK    3  A    between atoms: C15_19  and  C19_24 
ROOT
HETATM    1  C1  UNL     1      -3.176  -1.478  -0.272  1.00  0.00     0.024 A 
HETATM    2  C2  UNL     1      -3.091  -2.823  -0.358  1.00  0.00     0.096 A 
HETATM    3  C3  UNL     1      -1.855  -3.357  -0.267  1.00  0.00     0.044 A 
HETATM    4  C4  UNL     1      -0.777  -2.579  -0.081  1.00  0.00     0.089 A 
HETATM    5  C5  UNL     1      -0.899  -1.249   0.015  1.00  0.00     0.006 A 
HETATM    6  C6  UNL     1      -2.109  -0.686  -0.088  1.00  0.00    -0.000 A 
HETATM    7  C7  UNL     1       0.439  -0.579   0.210  1.00  0.00     0.123 A 
HETATM    8  C8  UNL     1       1.219  -1.901   0.148  1.00  0.00     0.266 A 
HETATM    9  N1  UNL     1       0.449  -2.907   0.022  1.00  0.00    -0.185 N 
HETATM   10  O2  UNL     1       2.425  -1.957   0.205  1.00  0.00    -0.269 OA
HETATM   11  C10 UNL     1       0.663   0.050   1.619  1.00  0.00     0.158 C 
HETATM   12  C11 UNL     1       1.758   1.083   1.453  1.00  0.00     0.182 C 
HETATM   13  C12 UNL     1       0.973   2.125   0.691  1.00  0.00     0.059 A 
HETATM   14  C13 UNL     1       0.499   1.770  -0.692  1.00  0.00     0.107 C 
HETATM   15  C14 UNL     1       0.851   0.315  -1.000  1.00  0.00     0.040 C 
HETATM   16  N2  UNL     1       1.034   2.959  -1.381  1.00  0.00    -0.274 NA
HETATM   17  C15 UNL     1       1.304   3.879  -0.543  1.00  0.00     0.088 C 
HETATM   18  C16 UNL     1       1.244   3.555   0.920  1.00  0.00     0.050 A 
HETATM   19  C17 UNL     1      -0.076   2.948   1.397  1.00  0.00     0.040 A 
HETATM   20  C18 UNL     1      -0.417   2.000   2.549  1.00  0.00     0.143 C 
HETATM   21  O3  UNL     1      -0.526   0.647   2.105  1.00  0.00    -0.353 OA
HETATM   22  O5  UNL     1       2.329   1.464   2.690  1.00  0.00    -0.221 OA
ENDROOT
BRANCH   9  23
HETATM   23  O1  UNL     1       0.836  -4.148   0.250  1.00  0.00    -0.248 OA
HETATM   24  C9  UNL     1       1.480  -4.751  -0.851  1.00  0.00     0.209 C 
ENDBRANCH   9  23
BRANCH   2  25
HETATM   25  O6  UNL     1      -4.249  -3.536  -0.564  1.00  0.00    -0.328 OA
HETATM   26  C21 UNL     1      -4.160  -4.920  -0.807  1.00  0.00     0.181 C 
ENDBRANCH   2  25
BRANCH  17  27
HETATM   27  C19 UNL     1       1.711   5.110  -0.953  1.00  0.00     0.186 C 
HETATM   28  O4  UNL     1       1.978   5.979  -0.154  1.00  0.00    -0.290 OA
HETATM   29  C20 UNL     1       1.801   5.389  -2.445  1.00  0.00     0.079 C 
ENDBRANCH  17  27
TORSDOF 3
