REMARK  3 active torsions:
REMARK  status: ('A' for Active; 'I' for Inactive)
REMARK    1  A    between atoms: C1_1  and  O4_23 
REMARK    2  A    between atoms: C10_10  and  C11_11 
REMARK    3  A    between atoms: C15_15  and  O1_17 
ROOT
HETATM    1  C1  UNL     1      -3.225   1.087  -1.054  1.00  0.00     0.119 A 
HETATM    2  C2  UNL     1      -3.212  -0.256  -0.925  1.00  0.00     0.153 A 
HETATM    3  C3  UNL     1      -2.042  -0.914  -0.930  1.00  0.00     0.025 A 
HETATM    4  C4  UNL     1      -0.859  -0.293  -1.065  1.00  0.00    -0.020 A 
HETATM    5  C5  UNL     1      -0.855   1.045  -1.190  1.00  0.00    -0.024 A 
HETATM    6  C6  UNL     1      -2.031   1.698  -1.181  1.00  0.00     0.022 A 
HETATM    7  C7  UNL     1       0.424   1.835  -1.359  1.00  0.00     0.026 C 
HETATM    8  C8  UNL     1       1.721   1.064  -1.060  1.00  0.00     0.005 C 
HETATM    9  C9  UNL     1       1.617  -0.349  -1.661  1.00  0.00     0.008 C 
HETATM   10  C10 UNL     1       0.416  -1.110  -1.058  1.00  0.00     0.044 C 
HETATM   11  C18 UNL     1       2.919  -1.160  -1.542  1.00  0.00     0.001 C 
HETATM   12  C19 UNL     1       2.929   1.867  -1.572  1.00  0.00     0.000 C 
HETATM   13  O3  UNL     1      -4.374  -0.955  -0.791  1.00  0.00    -0.188 OA
ENDROOT
BRANCH  10  14
HETATM   14  C11 UNL     1       0.673  -1.668   0.336  1.00  0.00    -0.016 A 
HETATM   15  C12 UNL     1       1.059  -2.944   0.501  1.00  0.00    -0.002 A 
HETATM   16  C13 UNL     1       1.306  -3.424   1.727  1.00  0.00     0.029 A 
HETATM   17  C14 UNL     1       1.173  -2.654   2.818  1.00  0.00     0.153 A 
HETATM   18  C15 UNL     1       0.766  -1.374   2.690  1.00  0.00     0.119 A 
HETATM   19  O2  UNL     1       1.441  -3.157   4.055  1.00  0.00    -0.188 OA
HETATM   20  C16 UNL     1       0.535  -0.916   1.443  1.00  0.00     0.022 A 
BRANCH  18  21
HETATM   21  O1  UNL     1       0.670  -0.614   3.832  1.00  0.00    -0.326 OA
HETATM   22  C17 UNL     1       0.637   0.790   3.713  1.00  0.00     0.181 C 
ENDBRANCH  18  21
ENDBRANCH  10  14
BRANCH   1  23
HETATM   23  O4  UNL     1      -4.442   1.728  -1.043  1.00  0.00    -0.326 OA
HETATM   24  C20 UNL     1      -4.475   3.133  -1.138  1.00  0.00     0.181 C 
ENDBRANCH   1  23
TORSDOF 3
