REMARK  1 active torsions:
REMARK  status: ('A' for Active; 'I' for Inactive)
REMARK    1  A    between atoms: C9_9  and  C11_11 
ROOT
HETATM    1  C1  UNL     1      -3.191  -0.942  -0.961  1.00  0.00     0.026 C 
HETATM    2  C2  UNL     1      -2.140  -1.743  -0.162  1.00  0.00     0.008 C 
HETATM    3  C3  UNL     1      -0.782  -1.093  -0.548  1.00  0.00     0.025 C 
HETATM    4  C4  UNL     1      -1.187   0.323  -0.883  1.00  0.00    -0.021 C 
HETATM    5  C5  UNL     1      -2.508   0.388  -1.103  1.00  0.00    -0.032 C 
HETATM    6  C6  UNL     1      -0.245   1.503  -0.934  1.00  0.00     0.142 C 
HETATM    7  C7  UNL     1       1.123   1.218  -1.567  1.00  0.00     0.039 C 
HETATM    8  C8  UNL     1       1.829  -0.124  -1.315  1.00  0.00     0.025 C 
HETATM    9  C9  UNL     1       1.748  -0.803   0.066  1.00  0.00    -0.048 C 
HETATM   10  C10 UNL     1       0.322  -1.212   0.507  1.00  0.00     0.026 C 
HETATM   11  C14 UNL     1      -0.118   2.142   0.453  1.00  0.00     0.037 C 
HETATM   12  O1  UNL     1      -0.840   2.503  -1.744  1.00  0.00    -0.222 OA
HETATM   13  C15 UNL     1      -2.466  -1.677   1.342  1.00  0.00     0.001 C 
ENDROOT
BRANCH   9  14
HETATM   14  C11 UNL     1       2.560  -0.192   1.201  1.00  0.00    -0.030 C 
HETATM   15  C12 UNL     1       2.542  -0.738   2.429  1.00  0.00    -0.005 C 
HETATM   16  C13 UNL     1       3.449   0.999   0.933  1.00  0.00     0.030 C 
ENDBRANCH   9  14
TORSDOF 1
