REMARK  7 active torsions:
REMARK  status: ('A' for Active; 'I' for Inactive)
REMARK    1  A    between atoms: C4_4  and  C7_7 
REMARK    2  A    between atoms: C11_11  and  C20_23 
REMARK    3  A    between atoms: C12_12  and  C13_13 
REMARK    4  A    between atoms: C13_13  and  C14_15 
REMARK    5  A    between atoms: C22_25  and  C26_31 
REMARK    6  A    between atoms: C27_32  and  C28_33 
REMARK    7  A    between atoms: C28_33  and  C29_35 
ROOT
HETATM    1  C7  UNL     1      -3.083  -1.479   0.186  1.00  0.00     0.050 C 
HETATM    2  C8  UNL     1      -3.079  -3.019   0.136  1.00  0.00     0.030 C 
HETATM    3  C9  UNL     1      -1.778  -3.677  -0.238  1.00  0.00    -0.047 C 
HETATM    4  C10 UNL     1      -0.607  -3.027  -0.291  1.00  0.00    -0.026 C 
HETATM    5  C11 UNL     1      -0.418  -1.555  -0.042  1.00  0.00     0.067 C 
HETATM    6  C12 UNL     1      -1.707  -0.776   0.284  1.00  0.00     0.007 C 
HETATM    7  C35 UNL     1      -1.855  -5.165  -0.486  1.00  0.00     0.026 C 
ENDROOT
BRANCH   5   8
HETATM    8  C20 UNL     1       0.325  -0.926  -1.223  1.00  0.00     0.011 A 
HETATM    9  C21 UNL     1       1.307  -0.030  -1.010  1.00  0.00     0.001 A 
HETATM   10  C22 UNL     1       1.995   0.593  -1.993  1.00  0.00     0.025 A 
HETATM   11  C23 UNL     1       1.679   0.265  -3.266  1.00  0.00     0.133 A 
HETATM   12  C24 UNL     1       0.689  -0.618  -3.474  1.00  0.00     0.054 A 
HETATM   13  O5  UNL     1       2.289   0.772  -4.371  1.00  0.00    -0.190 OA
HETATM   14  C25 UNL     1      -0.003  -1.218  -2.496  1.00  0.00     0.130 A 
HETATM   15  O4  UNL     1      -1.022  -2.057  -2.819  1.00  0.00    -0.190 OA
BRANCH  10  16
HETATM   16  C26 UNL     1       2.937   1.492  -1.619  1.00  0.00     0.005 C 
HETATM   17  C27 UNL     1       3.680   2.325  -2.370  1.00  0.00     0.042 C 
BRANCH  17  18
HETATM   18  C28 UNL     1       4.624   3.230  -1.980  1.00  0.00     0.198 C 
HETATM   19  O6  UNL     1       4.859   4.089  -2.808  1.00  0.00    -0.286 OA
BRANCH  18  20
HETATM   20  C29 UNL     1       5.306   3.283  -0.793  1.00  0.00     0.064 A 
HETATM   21  C30 UNL     1       5.514   2.244   0.051  1.00  0.00     0.136 A 
HETATM   22  C31 UNL     1       6.232   2.452   1.172  1.00  0.00     0.055 A 
HETATM   23  O8  UNL     1       5.179   0.951  -0.216  1.00  0.00    -0.190 OA
HETATM   24  C32 UNL     1       6.735   3.643   1.529  1.00  0.00     0.133 A 
HETATM   25  C33 UNL     1       6.551   4.654   0.671  1.00  0.00     0.028 A 
HETATM   26  O7  UNL     1       7.450   3.810   2.673  1.00  0.00    -0.190 OA
HETATM   27  C34 UNL     1       5.865   4.468  -0.465  1.00  0.00     0.007 A 
ENDBRANCH  18  20
ENDBRANCH  17  18
ENDBRANCH  10  16
ENDBRANCH   5   8
BRANCH   6  28
HETATM   28  C13 UNL     1      -1.623   0.194   1.477  1.00  0.00     0.191 C 
HETATM   29  O1  UNL     1      -1.702   1.359   1.145  1.00  0.00    -0.287 OA
BRANCH  28  30
HETATM   30  C14 UNL     1      -1.553  -0.122   2.806  1.00  0.00     0.064 A 
HETATM   31  C15 UNL     1      -1.570   0.903   3.686  1.00  0.00     0.007 A 
HETATM   32  C16 UNL     1      -1.529   0.716   5.013  1.00  0.00     0.028 A 
HETATM   33  C17 UNL     1      -1.466  -0.519   5.528  1.00  0.00     0.133 A 
HETATM   34  C18 UNL     1      -1.439  -1.533   4.652  1.00  0.00     0.055 A 
HETATM   35  O3  UNL     1      -1.432  -0.742   6.870  1.00  0.00    -0.190 OA
HETATM   36  C19 UNL     1      -1.475  -1.373   3.316  1.00  0.00     0.136 A 
HETATM   37  O2  UNL     1      -1.445  -2.507   2.572  1.00  0.00    -0.190 OA
ENDBRANCH  28  30
ENDBRANCH   6  28
BRANCH   1  38
HETATM   38  C4  UNL     1      -3.915  -0.813  -0.916  1.00  0.00     0.007 A 
HETATM   39  C3  UNL     1      -4.569   0.346  -0.682  1.00  0.00     0.129 A 
HETATM   40  C2  UNL     1      -5.258   0.919  -1.685  1.00  0.00     0.054 A 
HETATM   41  O9  UNL     1      -4.504   0.981   0.522  1.00  0.00    -0.190 OA
HETATM   42  C1  UNL     1      -5.345   0.388  -2.915  1.00  0.00     0.133 A 
HETATM   43  C6  UNL     1      -4.694  -0.765  -3.129  1.00  0.00     0.027 A 
HETATM   44  O10 UNL     1      -6.045   0.998  -3.909  1.00  0.00    -0.190 OA
HETATM   45  C5  UNL     1      -3.995  -1.351  -2.147  1.00  0.00     0.000 A 
ENDBRANCH   1  38
TORSDOF 7
