REMARK  6 active torsions:
REMARK  status: ('A' for Active; 'I' for Inactive)
REMARK    1  A    between atoms: C4_4  and  C7_7 
REMARK    2  A    between atoms: C11_11  and  C20_23 
REMARK    3  A    between atoms: C12_12  and  C13_13 
REMARK    4  A    between atoms: C13_13  and  C14_15 
REMARK    5  A    between atoms: C22_25  and  C26_30 
REMARK    6  A    between atoms: C27_31  and  C28_32 
ROOT
HETATM    1  C7  UNL     1      -2.364  -1.249  -0.496  1.00  0.00     0.050 C 
HETATM    2  C8  UNL     1      -2.309  -2.784  -0.591  1.00  0.00     0.030 C 
HETATM    3  C9  UNL     1      -1.005  -3.353  -1.079  1.00  0.00    -0.047 C 
HETATM    4  C10 UNL     1       0.149  -2.669  -1.062  1.00  0.00    -0.026 C 
HETATM    5  C11 UNL     1       0.312  -1.248  -0.593  1.00  0.00     0.067 C 
HETATM    6  C12 UNL     1      -1.011  -0.524  -0.269  1.00  0.00     0.007 C 
HETATM    7  C34 UNL     1      -1.053  -4.799  -1.511  1.00  0.00     0.026 C 
ENDROOT
BRANCH   5   8
HETATM    8  C20 UNL     1       1.138  -0.474  -1.622  1.00  0.00     0.011 A 
HETATM    9  C21 UNL     1       2.226   0.223  -1.239  1.00  0.00    -0.002 A 
HETATM   10  C22 UNL     1       2.972   0.956  -2.087  1.00  0.00    -0.000 A 
HETATM   11  C23 UNL     1       2.627   0.895  -3.388  1.00  0.00     0.002 A 
HETATM   12  C24 UNL     1       1.554   0.204  -3.792  1.00  0.00     0.027 A 
HETATM   13  C25 UNL     1       0.791  -0.481  -2.926  1.00  0.00     0.128 A 
HETATM   14  O4  UNL     1      -0.303  -1.145  -3.384  1.00  0.00    -0.191 OA
BRANCH  10  15
HETATM   15  C26 UNL     1       4.074   1.663  -1.756  1.00  0.00    -0.000 C 
HETATM   16  C27 UNL     1       4.614   2.061  -0.588  1.00  0.00     0.000 C 
BRANCH  16  17
HETATM   17  C28 UNL     1       4.122   2.241   0.656  1.00  0.00     0.004 A 
HETATM   18  C29 UNL     1       4.992   2.477   1.660  1.00  0.00     0.028 A 
HETATM   19  C30 UNL     1       4.607   2.688   2.929  1.00  0.00     0.133 A 
HETATM   20  C31 UNL     1       3.292   2.683   3.190  1.00  0.00     0.055 A 
HETATM   21  O6  UNL     1       5.512   2.905   3.921  1.00  0.00    -0.190 OA
HETATM   22  C32 UNL     1       2.379   2.497   2.224  1.00  0.00     0.133 A 
HETATM   23  C33 UNL     1       2.814   2.297   0.969  1.00  0.00     0.028 A 
HETATM   24  O5  UNL     1       1.052   2.525   2.514  1.00  0.00    -0.190 OA
ENDBRANCH  16  17
ENDBRANCH  10  15
ENDBRANCH   5   8
BRANCH   6  25
HETATM   25  C13 UNL     1      -1.027   0.353   0.995  1.00  0.00     0.191 C 
HETATM   26  O1  UNL     1      -1.091   1.541   0.751  1.00  0.00    -0.287 OA
BRANCH  25  27
HETATM   27  C14 UNL     1      -1.047  -0.062   2.298  1.00  0.00     0.064 A 
HETATM   28  C15 UNL     1      -1.241   0.885   3.241  1.00  0.00     0.007 A 
HETATM   29  C16 UNL     1      -1.284   0.603   4.551  1.00  0.00     0.028 A 
HETATM   30  C17 UNL     1      -1.141  -0.656   4.982  1.00  0.00     0.133 A 
HETATM   31  C18 UNL     1      -0.960  -1.595   4.043  1.00  0.00     0.055 A 
HETATM   32  O3  UNL     1      -1.185  -0.974   6.304  1.00  0.00    -0.190 OA
HETATM   33  C19 UNL     1      -0.910  -1.339   2.722  1.00  0.00     0.136 A 
HETATM   34  O2  UNL     1      -0.717  -2.407   1.908  1.00  0.00    -0.190 OA
ENDBRANCH  25  27
ENDBRANCH   6  25
BRANCH   1  35
HETATM   35  C4  UNL     1      -3.131  -0.579  -1.644  1.00  0.00     0.007 A 
HETATM   36  C3  UNL     1      -3.780   0.591  -1.449  1.00  0.00     0.129 A 
HETATM   37  C2  UNL     1      -4.404   1.172  -2.489  1.00  0.00     0.054 A 
HETATM   38  O7  UNL     1      -3.772   1.231  -0.246  1.00  0.00    -0.190 OA
HETATM   39  C1  UNL     1      -4.437   0.637  -3.720  1.00  0.00     0.133 A 
HETATM   40  C6  UNL     1      -3.804  -0.532  -3.893  1.00  0.00     0.027 A 
HETATM   41  O8  UNL     1      -5.069   1.257  -4.752  1.00  0.00    -0.190 OA
HETATM   42  C5  UNL     1      -3.169  -1.126  -2.873  1.00  0.00     0.000 A 
ENDBRANCH   1  35
TORSDOF 6
