REMARK  7 active torsions:
REMARK  status: ('A' for Active; 'I' for Inactive)
REMARK    1  A    between atoms: C1_1  and  O6_31 
REMARK    2  A    between atoms: C9_9  and  C10_10 
REMARK    3  A    between atoms: C14_15  and  O3_25 
REMARK    4  A    between atoms: C19_20  and  O1_21 
REMARK    5  A    between atoms: O1_21  and  C20_22 
REMARK    6  A    between atoms: O3_25  and  C22_26 
REMARK    7  A    between atoms: O6_31  and  C25_32 
ROOT
HETATM    1  C1  UNL     1      -1.912  -0.537   2.648  1.00  0.00     0.124 C 
HETATM    2  C2  UNL     1      -1.980  -1.983   2.106  1.00  0.00     0.032 C 
HETATM    3  C3  UNL     1      -0.640  -2.635   1.664  1.00  0.00     0.036 C 
HETATM    4  C4  UNL     1       0.451  -1.572   1.489  1.00  0.00     0.035 C 
HETATM    5  C5  UNL     1      -0.309  -0.430   0.791  1.00  0.00     0.039 C 
HETATM    6  C6  UNL     1      -1.135   0.423   1.728  1.00  0.00     0.032 C 
HETATM    7  C7  UNL     1       0.891  -0.117  -0.055  1.00  0.00     0.033 A 
HETATM    8  C8  UNL     1       1.522   0.839  -0.758  1.00  0.00     0.057 A 
HETATM    9  C9  UNL     1       2.449  -0.534  -0.027  1.00  0.00     0.039 A 
HETATM   10  C10 UNL     1       1.359  -1.918   0.266  1.00  0.00     0.220 C 
HETATM   11  N1  UNL     1       0.049  -2.090  -0.555  1.00  0.00     0.136 N 
HETATM   12  C11 UNL     1      -0.648  -3.134   0.199  1.00  0.00     0.250 C 
HETATM   13  C12 UNL     1      -0.833  -0.816  -0.522  1.00  0.00     0.249 C 
HETATM   14  C13 UNL     1      -0.262   0.434  -1.323  1.00  0.00     0.184 C 
HETATM   15  C14 UNL     1      -0.597   1.726  -1.966  1.00  0.00     0.160 C 
HETATM   16  C15 UNL     1       0.828   1.352  -2.584  1.00  0.00     0.074 C 
HETATM   17  C16 UNL     1       1.789   2.425  -2.053  1.00  0.00    -0.040 C 
HETATM   18  C17 UNL     1       2.029   2.246  -0.573  1.00  0.00     0.027 C 
HETATM   19  C18 UNL     1       2.337   3.396  -2.794  1.00  0.00    -0.009 C 
HETATM   20  C19 UNL     1       1.357  -0.273  -1.922  1.00  0.00     0.110 A 
HETATM   21  O5  UNL     1      -0.756  -0.280  -2.532  1.00  0.00    -0.221 OA
HETATM   22  C24 UNL     1      -0.195  -3.726   2.648  1.00  0.00     0.002 C 
ENDROOT
BRANCH   1  23
HETATM   23  O6  UNL     1      -3.236  -0.113   2.811  1.00  0.00    -0.304 OA
BRANCH  23  24
HETATM   24  C25 UNL     1      -3.607   1.031   3.451  1.00  0.00     0.272 C 
HETATM   25  O7  UNL     1      -4.756   1.421   3.443  1.00  0.00    -0.264 OA
HETATM   26  C26 UNL     1      -2.539   1.763   4.241  1.00  0.00     0.106 C 
ENDBRANCH  23  24
ENDBRANCH   1  23
BRANCH  20  27
HETATM   27  O1  UNL     1       2.694  -0.197  -2.444  1.00  0.00    -0.306 OA
BRANCH  27  28
HETATM   28  C20 UNL     1       3.345  -1.317  -2.877  1.00  0.00     0.272 C 
HETATM   29  C21 UNL     1       4.702  -0.941  -3.437  1.00  0.00     0.106 C 
HETATM   30  O2  UNL     1       2.913  -2.446  -2.831  1.00  0.00    -0.264 OA
ENDBRANCH  27  28
ENDBRANCH  20  27
BRANCH  15  31
HETATM   31  O3  UNL     1      -0.644   2.777  -1.063  1.00  0.00    -0.301 OA
BRANCH  31  32
HETATM   32  C22 UNL     1      -1.825   3.197  -0.528  1.00  0.00     0.272 C 
HETATM   33  O4  UNL     1      -1.878   4.101   0.279  1.00  0.00    -0.264 OA
HETATM   34  C23 UNL     1      -3.070   2.450  -0.974  1.00  0.00     0.106 C 
ENDBRANCH  31  32
ENDBRANCH  15  31
TORSDOF 7
