REMARK  3 active torsions:
REMARK  status: ('A' for Active; 'I' for Inactive)
REMARK    1  A    between atoms: C5_5  and  O1_7 
REMARK    2  A    between atoms: C32_38  and  O6_42 
REMARK    3  A    between atoms: C33_39  and  O5_40 
ROOT
HETATM    1  C1  UNL     1       2.701   1.116  -1.960  1.00  0.00     0.046 C 
HETATM    2  C2  UNL     1       2.970   0.432  -0.839  1.00  0.00    -0.005 C 
HETATM    3  C3  UNL     1       1.838   0.205  -0.149  1.00  0.00     0.021 C 
HETATM    4  C4  UNL     1       0.679   0.852  -0.398  1.00  0.00     0.121 C 
HETATM    5  C5  UNL     1       0.661   1.883  -1.290  1.00  0.00     0.113 C 
HETATM    6  C6  UNL     1       1.726   2.024  -2.122  1.00  0.00     0.004 C 
HETATM    7  O2  UNL     1      -0.378   0.536   0.415  1.00  0.00    -0.303 OA
HETATM    8  C8  UNL     1      -1.617   0.241  -0.078  1.00  0.00     0.122 C 
HETATM    9  C9  UNL     1      -2.735   0.362   0.654  1.00  0.00     0.020 C 
HETATM   10  C10 UNL     1      -2.931   0.818   1.922  1.00  0.00     0.056 C 
HETATM   11  C11 UNL     1      -1.793   1.210   2.856  1.00  0.00     0.071 C 
HETATM   12  C12 UNL     1      -0.806   0.069   3.047  1.00  0.00    -0.016 A 
HETATM   13  C13 UNL     1       0.505   0.308   3.226  1.00  0.00    -0.002 A 
HETATM   14  C14 UNL     1       1.397  -0.695   3.245  1.00  0.00     0.024 A 
HETATM   15  C15 UNL     1       1.033  -1.982   3.078  1.00  0.00     0.100 A 
HETATM   16  O3  UNL     1       1.956  -2.997   2.982  1.00  0.00    -0.305 OA
HETATM   17  C16 UNL     1       2.335  -3.196   1.673  1.00  0.00     0.125 A 
HETATM   18  C17 UNL     1       1.738  -4.125   0.896  1.00  0.00     0.154 A 
HETATM   19  C18 UNL     1       2.103  -4.233  -0.393  1.00  0.00     0.029 A 
HETATM   20  C19 UNL     1       3.028  -3.430  -0.936  1.00  0.00    -0.002 A 
HETATM   21  C20 UNL     1       3.644  -2.504  -0.185  1.00  0.00    -0.018 A 
HETATM   22  C21 UNL     1       4.636  -1.529  -0.801  1.00  0.00     0.067 C 
HETATM   23  C22 UNL     1       4.326  -0.069  -0.440  1.00  0.00     0.280 C 
HETATM   24  N1  UNL     1       5.260   0.899  -0.997  1.00  0.00     0.341 N 
HETATM   25  C23 UNL     1       4.746   2.259  -0.767  1.00  0.00     0.291 C 
HETATM   26  C24 UNL     1       3.177   2.349  -0.797  1.00  0.00     0.047 C 
HETATM   27  C25 UNL     1       3.302  -2.442   1.115  1.00  0.00     0.023 A 
HETATM   28  O4  UNL     1       0.764  -4.939   1.385  1.00  0.00    -0.188 OA
HETATM   29  C26 UNL     1      -0.290  -2.214   2.997  1.00  0.00     0.024 A 
HETATM   30  C27 UNL     1      -1.191  -1.219   2.991  1.00  0.00    -0.002 A 
HETATM   31  N2  UNL     1      -4.070   0.863   2.505  1.00  0.00    -0.275 NA
HETATM   32  C28 UNL     1      -5.368   0.609   1.757  1.00  0.00     0.126 C 
HETATM   33  C29 UNL     1      -5.318  -0.407   0.579  1.00  0.00     0.035 C 
HETATM   34  C30 UNL     1      -3.823  -0.398   0.504  1.00  0.00     0.051 C 
HETATM   35  C31 UNL     1      -3.983   0.608  -0.490  1.00  0.00     0.004 C 
HETATM   36  C32 UNL     1      -3.202   0.367  -1.593  1.00  0.00     0.114 C 
HETATM   37  C33 UNL     1      -1.921  -0.029  -1.363  1.00  0.00     0.138 C 
ENDROOT
BRANCH   5  38
HETATM   38  O1  UNL     1      -0.487   2.598  -1.521  1.00  0.00    -0.326 OA
HETATM   39  C7  UNL     1      -0.599   3.745  -0.710  1.00  0.00     0.181 C 
ENDBRANCH   5  38
BRANCH  37  40
HETATM   40  O5  UNL     1      -0.937  -0.305  -2.280  1.00  0.00    -0.324 OA
HETATM   41  C34 UNL     1      -1.248  -0.507  -3.637  1.00  0.00     0.182 C 
ENDBRANCH  37  40
BRANCH  36  42
HETATM   42  O6  UNL     1      -3.551   0.709  -2.880  1.00  0.00    -0.326 OA
HETATM   43  C35 UNL     1      -4.649   1.554  -3.128  1.00  0.00     0.181 C 
ENDBRANCH  36  42
TORSDOF 3
