REMARK  12 active torsions:
REMARK  status: ('A' for Active; 'I' for Inactive)
REMARK    1  A    between atoms: C4_4  and  C7_8 
REMARK    2  A    between atoms: C7_8  and  C8_9 
REMARK    3  A    between atoms: C10_11  and  C30_33 
REMARK    4  A    between atoms: C12_13  and  C24_26 
REMARK    5  A    between atoms: C15_17  and  C17_19 
REMARK    6  A    between atoms: C17_19  and  C18_20 
REMARK    7  A    between atoms: C24_26  and  C25_27 
REMARK    8  A    between atoms: C25_27  and  C26_28 
REMARK    9  A    between atoms: C30_33  and  C31_34 
REMARK   10  A    between atoms: C32_35  and  C34_37 
REMARK   11  A    between atoms: C34_37  and  C35_38 
REMARK   12  A    between atoms: C35_38  and  C36_39 
ROOT
HETATM    1  C8  UNL     1      -2.270  -0.560   0.175  1.00  0.00     0.096 C 
HETATM    2  C9  UNL     1      -1.142  -0.941  -0.465  1.00  0.00     0.120 C 
HETATM    3  C10 UNL     1       0.218  -0.280  -0.249  1.00  0.00     0.099 C 
HETATM    4  C11 UNL     1      -0.083   1.183  -0.005  1.00  0.00     0.162 C 
HETATM    5  C12 UNL     1      -1.006   1.391   1.192  1.00  0.00     0.107 C 
HETATM    6  C13 UNL     1      -2.247   0.500   1.038  1.00  0.00     0.183 C 
HETATM    7  O2  UNL     1      -3.212   0.788   1.714  1.00  0.00    -0.291 OA
HETATM    8  C14 UNL     1      -0.198   0.976   2.471  1.00  0.00     0.013 C 
HETATM    9  C15 UNL     1       0.309  -0.502   2.378  1.00  0.00     0.006 C 
HETATM   10  C16 UNL     1       0.939  -0.820   1.000  1.00  0.00     0.014 C 
HETATM   11  C22 UNL     1       1.047   1.895   2.623  1.00  0.00     0.001 C 
HETATM   12  C23 UNL     1      -1.004   1.179   3.778  1.00  0.00     0.001 C 
HETATM   13  O3  UNL     1       0.339   2.070  -0.712  1.00  0.00    -0.295 OA
HETATM   14  O4  UNL     1      -1.175  -1.863  -1.472  1.00  0.00    -0.194 OA
ENDROOT
BRANCH   1  15
HETATM   15  C7  UNL     1      -3.446  -1.237  -0.029  1.00  0.00     0.200 C 
HETATM   16  O5  UNL     1      -4.484  -0.613   0.043  1.00  0.00    -0.286 OA
BRANCH  15  17
HETATM   17  C4  UNL     1      -3.537  -2.596  -0.181  1.00  0.00     0.041 A 
HETATM   18  C3  UNL     1      -2.534  -3.456   0.083  1.00  0.00     0.005 A 
HETATM   19  C2  UNL     1      -2.684  -4.777  -0.095  1.00  0.00     0.030 A 
HETATM   20  C1  UNL     1      -3.841  -5.297  -0.531  1.00  0.00     0.156 A 
HETATM   21  C6  UNL     1      -4.876  -4.466  -0.745  1.00  0.00     0.156 A 
HETATM   22  O6  UNL     1      -3.996  -6.638  -0.697  1.00  0.00    -0.188 OA
HETATM   23  C5  UNL     1      -4.708  -3.144  -0.567  1.00  0.00     0.033 A 
HETATM   24  O1  UNL     1      -6.063  -4.972  -1.179  1.00  0.00    -0.188 OA
ENDBRANCH  15  17
ENDBRANCH   1  15
BRANCH   3  25
HETATM   25  C30 UNL     1       1.110  -0.483  -1.503  1.00  0.00     0.038 C 
BRANCH  25  26
HETATM   26  C31 UNL     1       2.514   0.077  -1.477  1.00  0.00    -0.034 C 
HETATM   27  C32 UNL     1       3.544  -0.367  -2.224  1.00  0.00    -0.048 C 
HETATM   28  C33 UNL     1       3.441  -1.509  -3.212  1.00  0.00     0.026 C 
BRANCH  27  29
HETATM   29  C34 UNL     1       4.921   0.266  -2.127  1.00  0.00     0.026 C 
BRANCH  29  30
HETATM   30  C35 UNL     1       5.374   0.940  -3.434  1.00  0.00     0.030 C 
BRANCH  30  31
HETATM   31  C36 UNL     1       6.778   1.485  -3.312  1.00  0.00    -0.034 C 
HETATM   32  C37 UNL     1       7.840   1.216  -4.095  1.00  0.00    -0.048 C 
HETATM   33  C38 UNL     1       9.190   1.839  -3.813  1.00  0.00     0.026 C 
HETATM   34  C39 UNL     1       7.836   0.302  -5.298  1.00  0.00     0.026 C 
ENDBRANCH  30  31
ENDBRANCH  29  30
ENDBRANCH  27  29
ENDBRANCH  25  26
ENDBRANCH   3  25
BRANCH   5  35
HETATM   35  C24 UNL     1      -1.490   2.871   1.174  1.00  0.00     0.019 C 
BRANCH  35  36
HETATM   36  C25 UNL     1      -2.412   3.250  -0.006  1.00  0.00     0.026 C 
BRANCH  36  37
HETATM   37  C26 UNL     1      -2.786   4.713  -0.020  1.00  0.00    -0.035 C 
HETATM   38  C27 UNL     1      -3.662   5.280  -0.870  1.00  0.00    -0.048 C 
HETATM   39  C28 UNL     1      -3.975   6.757  -0.811  1.00  0.00     0.026 C 
HETATM   40  C29 UNL     1      -4.402   4.522  -1.946  1.00  0.00     0.026 C 
ENDBRANCH  36  37
ENDBRANCH  35  36
ENDBRANCH   5  35
BRANCH   9  41
HETATM   41  C17 UNL     1      -0.649  -1.630   2.837  1.00  0.00     0.025 C 
BRANCH  41  42
HETATM   42  C18 UNL     1      -0.753  -1.858   4.327  1.00  0.00    -0.035 C 
HETATM   43  C19 UNL     1      -1.688  -2.609   4.937  1.00  0.00    -0.048 C 
HETATM   44  C20 UNL     1      -1.695  -2.783   6.438  1.00  0.00     0.026 C 
HETATM   45  C21 UNL     1      -2.785  -3.351   4.212  1.00  0.00     0.026 C 
ENDBRANCH  41  42
ENDBRANCH   9  41
TORSDOF 12
