REMARK  26 active torsions:
REMARK  status: ('A' for Active; 'I' for Inactive)
REMARK    1  A    between atoms: C4_4  and  O3_9 
REMARK    2  A    between atoms: C5_6  and  C6_7 
REMARK    3  A    between atoms: O3_9  and  C7_10 
REMARK    4  A    between atoms: C10_13  and  C13_16 
REMARK    5  A    between atoms: C13_16  and  O4_17 
REMARK    6  A    between atoms: O4_17  and  C14_18 
REMARK    7  A    between atoms: C14_18  and  C15_20 
REMARK    8  A    between atoms: C15_20  and  O6_21 
REMARK    9  A    between atoms: C15_20  and  C33_46 
REMARK   10  A    between atoms: C15_20  and  C48_69 
REMARK   11  A    between atoms: O6_21  and  C16_22 
REMARK   12  A    between atoms: C17_24  and  C30_41 
REMARK   13  A    between atoms: C18_25  and  O10_30 
REMARK   14  A    between atoms: O10_30  and  C21_31 
REMARK   15  A    between atoms: C21_31  and  C22_32 
REMARK   16  A    between atoms: C23_33  and  C24_34 
REMARK   17  A    between atoms: C30_41  and  O12_42 
REMARK   18  A    between atoms: O12_42  and  C31_43 
REMARK   19  A    between atoms: C33_46  and  C34_47 
REMARK   20  A    between atoms: C34_47  and  O15_49 
REMARK   21  A    between atoms: O15_49  and  C35_50 
REMARK   22  A    between atoms: C35_50  and  C36_51 
REMARK   23  A    between atoms: C39_54  and  O16_57 
REMARK   24  A    between atoms: O16_57  and  C42_58 
REMARK   25  A    between atoms: C43_60  and  C47_67 
REMARK   26  A    between atoms: C48_69  and  C49_70 
ROOT
HETATM    1  C15 UNL     1      -0.352   3.006  -1.136  1.00  0.00     0.182 C 
ENDROOT
BRANCH   1   2
HETATM    2  C14 UNL     1      -1.764   3.052  -1.801  1.00  0.00     0.297 C 
HETATM    3  O5  UNL     1      -2.091   4.065  -2.387  1.00  0.00    -0.262 OA
BRANCH   2   4
HETATM    4  O4  UNL     1      -2.639   1.998  -1.741  1.00  0.00    -0.295 OA
BRANCH   4   5
HETATM    5  C13 UNL     1      -2.371   0.734  -1.183  1.00  0.00     0.178 C 
BRANCH   5   6
HETATM    6  C10 UNL     1      -3.445  -0.297  -1.463  1.00  0.00     0.008 A 
HETATM    7  C9  UNL     1      -3.716  -1.252  -0.558  1.00  0.00     0.000 A 
HETATM    8  C8  UNL     1      -4.639  -2.192  -0.806  1.00  0.00     0.024 A 
HETATM    9  C7  UNL     1      -5.335  -2.239  -1.958  1.00  0.00     0.097 A 
HETATM   10  C12 UNL     1      -5.052  -1.271  -2.855  1.00  0.00     0.024 A 
HETATM   11  C11 UNL     1      -4.130  -0.324  -2.617  1.00  0.00     0.000 A 
BRANCH   9  12
HETATM   12  O3  UNL     1      -6.252  -3.248  -2.118  1.00  0.00    -0.304 OA
BRANCH  12  13
HETATM   13  C4  UNL     1      -7.025  -3.323  -3.292  1.00  0.00     0.274 C 
HETATM   14  C3  UNL     1      -7.788  -4.627  -3.258  1.00  0.00     0.241 C 
HETATM   15  C2  UNL     1      -8.727  -4.680  -4.442  1.00  0.00     0.220 C 
HETATM   16  O22 UNL     1      -6.886  -5.701  -3.335  1.00  0.00    -0.215 OA
HETATM   17  C1  UNL     1      -9.620  -3.457  -4.402  1.00  0.00     0.215 C 
HETATM   18  O23 UNL     1      -9.514  -5.841  -4.373  1.00  0.00    -0.218 OA
HETATM   19  C5  UNL     1      -8.774  -2.190  -4.351  1.00  0.00     0.184 C 
HETATM   20  O24 UNL     1     -10.431  -3.479  -5.551  1.00  0.00    -0.218 OA
HETATM   21  O1  UNL     1      -7.926  -2.239  -3.234  1.00  0.00    -0.326 OA
BRANCH  19  22
HETATM   22  C6  UNL     1      -9.632  -0.938  -4.245  1.00  0.00     0.214 C 
HETATM   23  O2  UNL     1      -8.807   0.209  -4.308  1.00  0.00    -0.218 OA
ENDBRANCH  19  22
ENDBRANCH  12  13
ENDBRANCH   9  12
ENDBRANCH   5   6
ENDBRANCH   4   5
ENDBRANCH   2   4
ENDBRANCH   1   2
BRANCH   1  24
HETATM   24  O6  UNL     1      -0.183   1.852  -0.359  1.00  0.00    -0.324 OA
BRANCH  24  25
HETATM   25  C16 UNL     1       0.956   1.712   0.455  1.00  0.00     0.270 C 
HETATM   26  O7  UNL     1       0.465   1.936   1.757  1.00  0.00    -0.326 OA
HETATM   27  C17 UNL     1       1.464   1.848   2.733  1.00  0.00     0.178 C 
HETATM   28  C18 UNL     1       2.059   0.438   2.773  1.00  0.00     0.187 C 
HETATM   29  C19 UNL     1       2.514   0.018   1.381  1.00  0.00     0.217 C 
HETATM   30  C20 UNL     1       1.461   0.294   0.326  1.00  0.00     0.241 C 
HETATM   31  O9  UNL     1       3.644   0.786   1.052  1.00  0.00    -0.218 OA
HETATM   32  O8  UNL     1       0.383  -0.601   0.466  1.00  0.00    -0.215 OA
BRANCH  27  33
HETATM   33  C30 UNL     1       0.874   2.290   4.070  1.00  0.00     0.184 C 
BRANCH  33  34
HETATM   34  O12 UNL     1       0.539   3.650   3.980  1.00  0.00    -0.299 OA
BRANCH  34  35
HETATM   35  C31 UNL     1      -0.032   4.222   5.071  1.00  0.00     0.273 C 
HETATM   36  C32 UNL     1      -0.329   5.681   4.793  1.00  0.00     0.106 C 
HETATM   37  O13 UNL     1      -0.269   3.649   6.110  1.00  0.00    -0.264 OA
ENDBRANCH  34  35
ENDBRANCH  33  34
ENDBRANCH  27  33
BRANCH  28  38
HETATM   38  O10 UNL     1       1.117  -0.471   3.263  1.00  0.00    -0.296 OA
BRANCH  38  39
HETATM   39  C21 UNL     1       1.531  -1.541   4.009  1.00  0.00     0.296 C 
HETATM   40  O11 UNL     1       2.710  -1.730   4.222  1.00  0.00    -0.259 OA
BRANCH  39  41
HETATM   41  C22 UNL     1       0.597  -2.397   4.511  1.00  0.00     0.068 C 
HETATM   42  C23 UNL     1       0.860  -3.449   5.306  1.00  0.00     0.005 C 
BRANCH  42  43
HETATM   43  C24 UNL     1      -0.037  -4.324   5.812  1.00  0.00     0.000 A 
HETATM   44  C25 UNL     1       0.390  -5.276   6.668  1.00  0.00     0.000 A 
HETATM   45  C26 UNL     1      -0.450  -6.177   7.202  1.00  0.00     0.000 A 
HETATM   46  C27 UNL     1      -1.750  -6.157   6.878  1.00  0.00     0.000 A 
HETATM   47  C28 UNL     1      -2.198  -5.224   6.027  1.00  0.00     0.000 A 
HETATM   48  C29 UNL     1      -1.351  -4.320   5.509  1.00  0.00     0.000 A 
ENDBRANCH  42  43
ENDBRANCH  39  41
ENDBRANCH  38  39
ENDBRANCH  28  38
ENDBRANCH  24  25
ENDBRANCH   1  24
BRANCH   1  49
HETATM   49  C33 UNL     1      -0.284   4.291  -0.260  1.00  0.00     0.133 C 
BRANCH  49  50
HETATM   50  C34 UNL     1       1.057   4.814   0.246  1.00  0.00     0.275 C 
HETATM   51  O14 UNL     1       1.422   4.758   1.399  1.00  0.00    -0.264 OA
BRANCH  50  52
HETATM   52  O15 UNL     1       1.796   5.361  -0.755  1.00  0.00    -0.297 OA
BRANCH  52  53
HETATM   53  C35 UNL     1       3.126   5.725  -0.446  1.00  0.00     0.178 C 
BRANCH  53  54
HETATM   54  C36 UNL     1       4.040   4.516  -0.384  1.00  0.00     0.008 A 
HETATM   55  C37 UNL     1       4.581   4.091   0.770  1.00  0.00     0.000 A 
HETATM   56  C38 UNL     1       5.407   3.034   0.797  1.00  0.00     0.024 A 
HETATM   57  C39 UNL     1       5.724   2.341  -0.314  1.00  0.00     0.097 A 
HETATM   58  C40 UNL     1       5.182   2.784  -1.465  1.00  0.00     0.024 A 
HETATM   59  C41 UNL     1       4.359   3.843  -1.502  1.00  0.00     0.000 A 
BRANCH  57  60
HETATM   60  O16 UNL     1       6.580   1.273  -0.248  1.00  0.00    -0.304 OA
BRANCH  60  61
HETATM   61  C42 UNL     1       6.180   0.050  -0.831  1.00  0.00     0.274 C 
HETATM   62  O17 UNL     1       5.688  -0.775   0.205  1.00  0.00    -0.326 OA
HETATM   63  C43 UNL     1       6.626  -1.148   1.175  1.00  0.00     0.184 C 
HETATM   64  C44 UNL     1       7.787  -1.887   0.531  1.00  0.00     0.215 C 
HETATM   65  C45 UNL     1       8.410  -1.047  -0.572  1.00  0.00     0.220 C 
HETATM   66  O20 UNL     1       7.332  -3.106  -0.012  1.00  0.00    -0.218 OA
HETATM   67  C46 UNL     1       7.342  -0.597  -1.552  1.00  0.00     0.241 C 
HETATM   68  O19 UNL     1       9.030   0.092  -0.016  1.00  0.00    -0.218 OA
HETATM   69  O18 UNL     1       6.867  -1.714  -2.266  1.00  0.00    -0.215 OA
BRANCH  63  70
HETATM   70  C47 UNL     1       5.897  -1.954   2.242  1.00  0.00     0.214 C 
HETATM   71  O21 UNL     1       4.975  -1.105   2.897  1.00  0.00    -0.218 OA
ENDBRANCH  63  70
ENDBRANCH  60  61
ENDBRANCH  57  60
ENDBRANCH  53  54
ENDBRANCH  52  53
ENDBRANCH  50  52
ENDBRANCH  49  50
ENDBRANCH   1  49
BRANCH   1  72
HETATM   72  C48 UNL     1       0.678   3.019  -2.285  1.00  0.00     0.038 C 
BRANCH  72  73
HETATM   73  C49 UNL     1       0.689   1.832  -3.276  1.00  0.00     0.003 C 
HETATM   74  C50 UNL     1      -0.303   2.005  -4.439  1.00  0.00     0.000 C 
HETATM   75  C51 UNL     1       2.106   1.647  -3.859  1.00  0.00     0.000 C 
ENDBRANCH  72  73
ENDBRANCH   1  72
TORSDOF 26
