REMARK  11 active torsions:
REMARK  status: ('A' for Active; 'I' for Inactive)
REMARK    1  A    between atoms: C1_1  and  C2_2 
REMARK    2  A    between atoms: C1_1  and  C16_18 
REMARK    3  A    between atoms: C3_3  and  C4_4 
REMARK    4  A    between atoms: C5_5  and  C6_6 
REMARK    5  A    between atoms: C6_6  and  C7_8 
REMARK    6  A    between atoms: C8_9  and  C9_10 
REMARK    7  A    between atoms: C9_10  and  C10_11 
REMARK    8  A    between atoms: C10_11  and  C11_12 
REMARK    9  A    between atoms: C11_12  and  C12_13 
REMARK   10  A    between atoms: C12_13  and  C13_14 
REMARK   11  A    between atoms: C13_14  and  C14_15 
ROOT
HETATM    1  C6  UNL     1      -0.774   0.864   0.653  1.00  0.00     0.238 C 
HETATM    2  O1  UNL     1      -0.118   1.677   1.621  1.00  0.00    -0.204 OA
ENDROOT
BRANCH   1   3
HETATM    3  C5  UNL     1      -2.210   1.193   0.571  1.00  0.00    -0.041 C 
HETATM    4  C4  UNL     1      -3.388   1.474   0.520  1.00  0.00    -0.011 C 
BRANCH   4   5
HETATM    5  C3  UNL     1      -4.566   1.757   0.477  1.00  0.00    -0.011 C 
HETATM    6  C2  UNL     1      -5.744   2.042   0.443  1.00  0.00    -0.043 C 
BRANCH   6   7
HETATM    7  C1  UNL     1      -7.179   2.380   0.437  1.00  0.00     0.246 C 
HETATM    8  O2  UNL     1      -7.859   1.511   1.328  1.00  0.00    -0.206 OA
BRANCH   7   9
HETATM    9  C16 UNL     1      -7.850   2.330  -0.929  1.00  0.00     0.195 C 
HETATM   10  O3  UNL     1      -7.295   3.332  -1.750  1.00  0.00    -0.220 OA
HETATM   11  C17 UNL     1      -7.712   0.982  -1.631  1.00  0.00     0.039 C 
ENDBRANCH   7   9
ENDBRANCH   6   7
ENDBRANCH   4   5
ENDBRANCH   1   3
BRANCH   1  12
HETATM   12  C7  UNL     1      -0.071   1.031  -0.668  1.00  0.00     0.015 C 
HETATM   13  C8  UNL     1       1.064   0.403  -1.015  1.00  0.00    -0.027 C 
BRANCH  13  14
HETATM   14  C9  UNL     1       1.820  -0.580  -0.155  1.00  0.00     0.026 C 
BRANCH  14  15
HETATM   15  C10 UNL     1       3.325  -0.596  -0.473  1.00  0.00     0.005 C 
BRANCH  15  16
HETATM   16  C11 UNL     1       4.100  -1.514   0.487  1.00  0.00     0.001 C 
BRANCH  16  17
HETATM   17  C12 UNL     1       5.590  -1.614   0.122  1.00  0.00     0.005 C 
BRANCH  17  18
HETATM   18  C13 UNL     1       6.376  -2.427   1.163  1.00  0.00     0.026 C 
BRANCH  18  19
HETATM   19  C14 UNL     1       7.829  -2.566   0.780  1.00  0.00    -0.026 C 
HETATM   20  C15 UNL     1       8.473  -3.739   0.711  1.00  0.00    -0.005 C 
ENDBRANCH  18  19
ENDBRANCH  17  18
ENDBRANCH  16  17
ENDBRANCH  15  16
ENDBRANCH  14  15
ENDBRANCH  13  14
ENDBRANCH   1  12
TORSDOF 11
