REMARK  14 active torsions:
REMARK  status: ('A' for Active; 'I' for Inactive)
REMARK    1  A    between atoms: C1_1  and  C2_2 
REMARK    2  A    between atoms: C1_1  and  C16_17 
REMARK    3  A    between atoms: C2_2  and  C3_3 
REMARK    4  A    between atoms: C3_3  and  C4_4 
REMARK    5  A    between atoms: C4_4  and  C5_5 
REMARK    6  A    between atoms: C5_5  and  C6_6 
REMARK    7  A    between atoms: C6_6  and  C7_8 
REMARK    8  A    between atoms: C8_9  and  C9_10 
REMARK    9  A    between atoms: C9_10  and  C10_11 
REMARK   10  A    between atoms: C10_11  and  C11_12 
REMARK   11  A    between atoms: C11_12  and  C12_13 
REMARK   12  A    between atoms: C12_13  and  C13_14 
REMARK   13  A    between atoms: C13_14  and  C14_15 
REMARK   14  A    between atoms: C16_17  and  C17_18 
ROOT
HETATM    1  C6  UNL     1      -1.295   0.552   0.318  1.00  0.00     0.238 C 
HETATM    2  O1  UNL     1      -0.952   1.609   1.210  1.00  0.00    -0.204 OA
ENDROOT
BRANCH   1   3
HETATM    3  C5  UNL     1      -2.757   0.395   0.218  1.00  0.00    -0.041 C 
BRANCH   3   4
HETATM    4  C4  UNL     1      -3.960   0.279   0.116  1.00  0.00    -0.011 C 
BRANCH   4   5
HETATM    5  C3  UNL     1      -5.162   0.168   0.008  1.00  0.00    -0.009 C 
BRANCH   5   6
HETATM    6  C2  UNL     1      -6.364   0.062  -0.104  1.00  0.00    -0.051 C 
BRANCH   6   7
HETATM    7  C1  UNL     1      -7.669  -0.045  -0.231  1.00  0.00     0.048 C 
BRANCH   7   8
HETATM    8  C16 UNL     1      -8.364  -0.981   0.431  1.00  0.00     0.018 C 
BRANCH   8   9
HETATM    9  C17 UNL     1      -9.857  -1.145   0.322  1.00  0.00     0.209 C 
HETATM   10  O2  UNL     1     -10.183  -2.436  -0.176  1.00  0.00    -0.215 OA
ENDBRANCH   8   9
ENDBRANCH   7   8
ENDBRANCH   6   7
ENDBRANCH   5   6
ENDBRANCH   4   5
ENDBRANCH   3   4
ENDBRANCH   1   3
BRANCH   1  11
HETATM   11  C7  UNL     1      -0.668   0.839  -1.020  1.00  0.00     0.015 C 
HETATM   12  C8  UNL     1       0.610   0.587  -1.343  1.00  0.00    -0.027 C 
BRANCH  12  13
HETATM   13  C9  UNL     1       1.643  -0.040  -0.440  1.00  0.00     0.026 C 
BRANCH  13  14
HETATM   14  C10 UNL     1       3.051   0.522  -0.701  1.00  0.00     0.005 C 
BRANCH  14  15
HETATM   15  C11 UNL     1       4.093  -0.083   0.254  1.00  0.00     0.001 C 
BRANCH  15  16
HETATM   16  C12 UNL     1       5.519   0.396  -0.064  1.00  0.00     0.005 C 
BRANCH  16  17
HETATM   17  C13 UNL     1       6.548  -0.183   0.919  1.00  0.00     0.026 C 
BRANCH  17  18
HETATM   18  C14 UNL     1       7.949   0.245   0.559  1.00  0.00    -0.026 C 
HETATM   19  C15 UNL     1       8.930  -0.607   0.229  1.00  0.00    -0.005 C 
ENDBRANCH  17  18
ENDBRANCH  16  17
ENDBRANCH  15  16
ENDBRANCH  14  15
ENDBRANCH  13  14
ENDBRANCH  12  13
ENDBRANCH   1  11
TORSDOF 14
