REMARK  7 active torsions:
REMARK  status: ('A' for Active; 'I' for Inactive)
REMARK    1  A    between atoms: C2_2  and  O4_34 
REMARK    2  A    between atoms: C15_16  and  C18_19 
REMARK    3  A    between atoms: C21_22  and  C22_24 
REMARK    4  A    between atoms: O4_34  and  C31_35 
REMARK    5  A    between atoms: C35_40  and  O6_41 
REMARK    6  A    between atoms: O6_41  and  C36_42 
REMARK    7  A    between atoms: C37_44  and  C41_51 
ROOT
HETATM    1  C1  UNL     1      -2.652   0.597  -3.340  1.00  0.00     0.030 C 
HETATM    2  C2  UNL     1      -3.497  -0.316  -2.455  1.00  0.00     0.118 C 
HETATM    3  C3  UNL     1      -2.740  -1.665  -2.340  1.00  0.00     0.025 C 
HETATM    4  C4  UNL     1      -1.176  -1.499  -2.211  1.00  0.00     0.002 C 
HETATM    5  C5  UNL     1      -0.639  -0.093  -1.795  1.00  0.00     0.000 C 
HETATM    6  C6  UNL     1      -1.377   1.026  -2.598  1.00  0.00     0.003 C 
HETATM    7  C7  UNL     1       0.900   0.064  -2.080  1.00  0.00     0.003 C 
HETATM    8  C8  UNL     1       1.776  -1.229  -1.987  1.00  0.00     0.000 C 
HETATM    9  C9  UNL     1       1.176  -2.256  -2.986  1.00  0.00     0.000 C 
HETATM   10  C10 UNL     1      -0.305  -2.026  -3.372  1.00  0.00     0.000 C 
HETATM   11  C11 UNL     1       3.269  -0.850  -2.343  1.00  0.00     0.002 C 
HETATM   12  C12 UNL     1       3.708   0.253  -1.336  1.00  0.00     0.033 C 
HETATM   13  C13 UNL     1       2.998   1.557  -1.669  1.00  0.00     0.152 C 
HETATM   14  C14 UNL     1       1.506   1.326  -1.413  1.00  0.00     0.033 C 
HETATM   15  O1  UNL     1       3.426   2.611  -0.846  1.00  0.00    -0.224 OA
HETATM   16  C15 UNL     1       5.222   0.121  -1.100  1.00  0.00     0.028 C 
HETATM   17  C16 UNL     1       5.332  -1.426  -1.090  1.00  0.00     0.002 C 
HETATM   18  C17 UNL     1       4.345  -1.950  -2.145  1.00  0.00     0.000 C 
HETATM   19  C26 UNL     1       3.470  -0.371  -3.812  1.00  0.00     0.000 C 
HETATM   20  C27 UNL     1       1.720  -1.890  -0.577  1.00  0.00     0.000 C 
HETATM   21  C28 UNL     1      -0.863   0.100  -0.269  1.00  0.00     0.000 C 
HETATM   22  C29 UNL     1      -3.146  -2.511  -3.580  1.00  0.00     0.002 C 
HETATM   23  C30 UNL     1      -3.281  -2.502  -1.148  1.00  0.00     0.002 C 
ENDROOT
BRANCH   2  24
HETATM   24  O4  UNL     1      -3.634   0.371  -1.244  1.00  0.00    -0.332 OA
BRANCH  24  25
HETATM   25  C31 UNL     1      -4.855   0.291  -0.550  1.00  0.00     0.267 C 
HETATM   26  O5  UNL     1      -5.813   1.081  -1.218  1.00  0.00    -0.326 OA
HETATM   27  C32 UNL     1      -5.546   2.460  -1.218  1.00  0.00     0.181 C 
HETATM   28  C33 UNL     1      -5.430   3.018   0.187  1.00  0.00     0.214 C 
HETATM   29  C34 UNL     1      -4.397   2.254   0.990  1.00  0.00     0.217 C 
HETATM   30  O13 UNL     1      -6.678   2.963   0.835  1.00  0.00    -0.218 OA
HETATM   31  C35 UNL     1      -4.601   0.747   0.882  1.00  0.00     0.207 C 
HETATM   32  O12 UNL     1      -3.115   2.605   0.521  1.00  0.00    -0.218 OA
BRANCH  31  33
HETATM   33  O6  UNL     1      -5.645   0.380   1.742  1.00  0.00    -0.324 OA
BRANCH  33  34
HETATM   34  C36 UNL     1      -5.531  -0.908   2.304  1.00  0.00     0.270 C 
HETATM   35  O7  UNL     1      -6.841  -1.334   2.618  1.00  0.00    -0.326 OA
HETATM   36  C37 UNL     1      -7.476  -0.648   3.667  1.00  0.00     0.184 C 
HETATM   37  C38 UNL     1      -6.646  -0.643   4.943  1.00  0.00     0.215 C 
HETATM   38  C39 UNL     1      -5.217  -0.204   4.696  1.00  0.00     0.220 C 
HETATM   39  O10 UNL     1      -6.601  -1.943   5.485  1.00  0.00    -0.218 OA
HETATM   40  C40 UNL     1      -4.630  -0.950   3.517  1.00  0.00     0.241 C 
HETATM   41  O9  UNL     1      -4.448  -0.497   5.841  1.00  0.00    -0.218 OA
HETATM   42  O8  UNL     1      -4.450  -2.296   3.894  1.00  0.00    -0.215 OA
BRANCH  36  43
HETATM   43  C41 UNL     1      -7.968   0.734   3.254  1.00  0.00     0.214 C 
HETATM   44  O11 UNL     1      -8.940   1.188   4.175  1.00  0.00    -0.218 OA
ENDBRANCH  36  43
ENDBRANCH  33  34
ENDBRANCH  31  33
ENDBRANCH  24  25
ENDBRANCH   2  24
BRANCH  16  45
HETATM   45  C18 UNL     1       5.846   0.754   0.176  1.00  0.00     0.093 C 
HETATM   46  C19 UNL     1       6.269   2.221  -0.002  1.00  0.00     0.030 C 
HETATM   47  C20 UNL     1       7.575   2.303   0.789  1.00  0.00     0.035 C 
HETATM   48  C21 UNL     1       8.122   0.913   0.508  1.00  0.00     0.143 C 
HETATM   49  O2  UNL     1       7.022   0.052   0.477  1.00  0.00    -0.359 OA
HETATM   50  C25 UNL     1       4.955   0.640   1.427  1.00  0.00     0.030 C 
BRANCH  48  51
HETATM   51  C22 UNL     1       9.188   0.388   1.470  1.00  0.00     0.152 C 
HETATM   52  C23 UNL     1       9.739  -0.951   0.968  1.00  0.00     0.035 C 
HETATM   53  C24 UNL     1       8.698   0.231   2.914  1.00  0.00     0.035 C 
HETATM   54  O3  UNL     1      10.247   1.309   1.479  1.00  0.00    -0.224 OA
ENDBRANCH  48  51
ENDBRANCH  16  45
TORSDOF 7
