REMARK  2 active torsions:
REMARK  status: ('A' for Active; 'I' for Inactive)
REMARK    1  A    between atoms: C1_1  and  C9_12 
REMARK    2  A    between atoms: C5_5  and  C7_8 
ROOT
HETATM    1  C1  UNL     1       1.004   0.584  -0.264  1.00  0.00     0.086 A 
HETATM    2  C2  UNL     1       1.569  -0.640   0.138  1.00  0.00    -0.012 A 
HETATM    3  C3  UNL     1       0.708  -1.686   0.490  1.00  0.00     0.024 A 
HETATM    4  C4  UNL     1      -0.679  -1.568   0.461  1.00  0.00     0.136 A 
HETATM    5  C5  UNL     1      -1.221  -0.325   0.082  1.00  0.00     0.093 A 
HETATM    6  C6  UNL     1      -0.396   0.759  -0.276  1.00  0.00     0.142 A 
HETATM    7  O1  UNL     1      -0.958   1.915  -0.724  1.00  0.00    -0.190 OA
HETATM    8  O3  UNL     1      -1.442  -2.631   0.837  1.00  0.00    -0.190 OA
HETATM    9  C8  UNL     1       3.059  -0.875   0.257  1.00  0.00     0.031 C 
ENDROOT
BRANCH   1  10
HETATM   10  C9  UNL     1       1.900   1.732  -0.613  1.00  0.00     0.213 C 
HETATM   11  O4  UNL     1       1.517   3.022  -0.528  1.00  0.00    -0.644 OA
HETATM   12  O5  UNL     1       3.041   1.556  -1.020  1.00  0.00    -0.644 OA
ENDBRANCH   1  10
BRANCH   5  13
HETATM   13  C7  UNL     1      -2.701  -0.168   0.039  1.00  0.00     0.238 C 
HETATM   14  O2  UNL     1      -3.305   0.881  -0.132  1.00  0.00    -0.283 OA
ENDBRANCH   5  13
TORSDOF 2
