REMARK  19 active torsions:
REMARK  status: ('A' for Active; 'I' for Inactive)
REMARK       I    between atoms: N1_5  and  C6_7 
REMARK    1  A    between atoms: C6_7  and  C7_8 
REMARK    2  A    between atoms: C8_9  and  C9_10 
REMARK    3  A    between atoms: C10_11  and  C11_12 
REMARK    4  A    between atoms: C11_12  and  C12_13 
REMARK    5  A    between atoms: C12_13  and  C13_14 
REMARK    6  A    between atoms: C13_14  and  C14_15 
REMARK    7  A    between atoms: C14_15  and  C15_16 
REMARK    8  A    between atoms: C15_16  and  C16_17 
REMARK    9  A    between atoms: C16_17  and  C17_18 
REMARK   10  A    between atoms: C17_18  and  C18_19 
REMARK   11  A    between atoms: C18_19  and  C19_20 
REMARK   12  A    between atoms: C19_20  and  C20_21 
REMARK   13  A    between atoms: C20_21  and  C21_22 
REMARK   14  A    between atoms: C21_22  and  C22_23 
REMARK   15  A    between atoms: C22_23  and  C23_24 
REMARK   16  A    between atoms: C23_24  and  C24_25 
REMARK   17  A    between atoms: C24_25  and  C25_26 
REMARK   18  A    between atoms: C25_26  and  C26_27 
REMARK   19  A    between atoms: C26_27  and  C27_28 
ROOT
HETATM    1  C13 UNL     1       1.345   1.864  -2.369  1.00  0.00     0.000 C 
ENDROOT
BRANCH   1   2
HETATM    2  C12 UNL     1       1.132   0.419  -1.885  1.00  0.00     0.005 C 
BRANCH   2   3
HETATM    3  C11 UNL     1       2.124   0.017  -0.781  1.00  0.00     0.026 C 
BRANCH   3   4
HETATM    4  C10 UNL     1       1.699  -1.248  -0.079  1.00  0.00    -0.026 C 
HETATM    5  C9  UNL     1       2.486  -2.086   0.625  1.00  0.00    -0.004 C 
BRANCH   5   6
HETATM    6  C8  UNL     1       3.936  -1.961   0.794  1.00  0.00     0.005 C 
HETATM    7  C7  UNL     1       4.657  -2.784   1.584  1.00  0.00     0.060 C 
BRANCH   7   8
HETATM    8  C6  UNL     1       4.036  -3.886   2.403  1.00  0.00     0.257 C 
HETATM    9  N1  UNL     1       3.512  -4.990   1.774  1.00  0.00    -0.317 N 
HETATM   10  C4  UNL     1       2.809  -6.038   2.512  1.00  0.00     0.104 C 
HETATM   11  C5  UNL     1       3.671  -5.282   0.349  1.00  0.00     0.104 C 
HETATM   12  C3  UNL     1       1.421  -6.275   1.901  1.00  0.00     0.024 C 
HETATM   13  C2  UNL     1       1.555  -6.671   0.425  1.00  0.00     0.004 C 
HETATM   14  C1  UNL     1       2.327  -5.584  -0.333  1.00  0.00     0.024 C 
HETATM   15  O2  UNL     1       4.017  -3.754   3.615  1.00  0.00    -0.267 OA
ENDBRANCH   7   8
ENDBRANCH   5   6
ENDBRANCH   3   4
ENDBRANCH   2   3
ENDBRANCH   1   2
BRANCH   1  16
HETATM   16  C14 UNL     1       0.280   2.285  -3.397  1.00  0.00     0.000 C 
BRANCH  16  17
HETATM   17  C15 UNL     1       0.233   3.809  -3.599  1.00  0.00     0.000 C 
BRANCH  17  18
HETATM   18  C16 UNL     1      -0.964   4.253  -4.460  1.00  0.00     0.000 C 
BRANCH  18  19
HETATM   19  C17 UNL     1      -1.353   5.730  -4.267  1.00  0.00     0.000 C 
BRANCH  19  20
HETATM   20  C18 UNL     1      -2.397   6.020  -3.166  1.00  0.00     0.000 C 
BRANCH  20  21
HETATM   21  C19 UNL     1      -1.942   5.785  -1.714  1.00  0.00     0.000 C 
BRANCH  21  22
HETATM   22  C20 UNL     1      -2.241   4.368  -1.190  1.00  0.00     0.000 C 
BRANCH  22  23
HETATM   23  C21 UNL     1      -1.411   4.021   0.057  1.00  0.00     0.000 C 
BRANCH  23  24
HETATM   24  C22 UNL     1      -1.635   2.571   0.518  1.00  0.00     0.000 C 
BRANCH  24  25
HETATM   25  C23 UNL     1      -0.636   2.155   1.611  1.00  0.00     0.000 C 
BRANCH  25  26
HETATM   26  C24 UNL     1      -0.816   0.689   2.038  1.00  0.00     0.000 C 
BRANCH  26  27
HETATM   27  C25 UNL     1       0.317   0.222   2.967  1.00  0.00     0.003 C 
BRANCH  27  28
HETATM   28  C26 UNL     1       0.218  -1.273   3.312  1.00  0.00     0.036 C 
BRANCH  28  29
HETATM   29  C27 UNL     1       1.469  -1.761   4.039  1.00  0.00     0.182 C 
HETATM   30  O1  UNL     1       1.453  -3.173   4.129  1.00  0.00    -0.221 OA
ENDBRANCH  28  29
ENDBRANCH  27  28
ENDBRANCH  26  27
ENDBRANCH  25  26
ENDBRANCH  24  25
ENDBRANCH  23  24
ENDBRANCH  22  23
ENDBRANCH  21  22
ENDBRANCH  20  21
ENDBRANCH  19  20
ENDBRANCH  18  19
ENDBRANCH  17  18
ENDBRANCH  16  17
ENDBRANCH   1  16
TORSDOF 19
