REMARK  7 active torsions:
REMARK  status: ('A' for Active; 'I' for Inactive)
REMARK    1  A    between atoms: C6_6  and  C7_7 
REMARK    2  A    between atoms: C7_7  and  C8_8 
REMARK    3  A    between atoms: C8_8  and  C9_10 
REMARK    4  A    between atoms: C20_25  and  C30_38 
REMARK    5  A    between atoms: C23_28  and  O6_29 
REMARK    6  A    between atoms: C30_38  and  C31_39 
REMARK    7  A    between atoms: C32_40  and  C33_41 
ROOT
HETATM    1  C1  UNL     1       4.216  -0.802  -0.141  1.00  0.00     0.100 A 
HETATM    2  C2  UNL     1       4.316  -2.205  -0.243  1.00  0.00     0.083 A 
HETATM    3  C3  UNL     1       5.535  -2.859  -0.465  1.00  0.00     0.137 A 
HETATM    4  C4  UNL     1       6.690  -2.068  -0.533  1.00  0.00     0.048 A 
HETATM    5  C5  UNL     1       6.643  -0.669  -0.441  1.00  0.00     0.098 A 
HETATM    6  C6  UNL     1       5.397  -0.041  -0.225  1.00  0.00     0.043 A 
HETATM    7  O3  UNL     1       7.798   0.074  -0.463  1.00  0.00    -0.332 OA
HETATM    8  C12 UNL     1       8.965  -0.544   0.008  1.00  0.00     0.117 C 
HETATM    9  C13 UNL     1       9.097  -1.941  -0.545  1.00  0.00     0.001 C 
HETATM   10  C14 UNL     1       8.001  -2.683  -0.773  1.00  0.00     0.002 C 
HETATM   11  C15 UNL     1      10.150   0.318  -0.441  1.00  0.00     0.035 C 
HETATM   12  C16 UNL     1       8.916  -0.604   1.540  1.00  0.00     0.035 C 
HETATM   13  O4  UNL     1       5.623  -4.212  -0.575  1.00  0.00    -0.190 OA
HETATM   14  C17 UNL     1       3.070  -3.010  -0.162  1.00  0.00     0.181 C 
HETATM   15  C18 UNL     1       1.778  -2.210  -0.104  1.00  0.00     0.118 C 
HETATM   16  C19 UNL     1       1.997  -0.924   0.696  1.00  0.00     0.139 C 
HETATM   17  O5  UNL     1       3.027  -0.184   0.127  1.00  0.00    -0.332 OA
HETATM   18  C20 UNL     1       0.735  -0.054   0.799  1.00  0.00     0.171 C 
HETATM   19  C21 UNL     1      -0.385  -0.954   1.341  1.00  0.00     0.179 C 
HETATM   20  C22 UNL     1       0.095  -2.351   1.707  1.00  0.00     0.088 C 
HETATM   21  C23 UNL     1       0.554  -3.005   0.397  1.00  0.00     0.132 C 
HETATM   22  C25 UNL     1       1.312  -2.267   2.646  1.00  0.00     0.015 C 
HETATM   23  C26 UNL     1       2.207  -1.090   2.211  1.00  0.00     0.054 C 
HETATM   24  C27 UNL     1       1.792   0.295   2.768  1.00  0.00     0.096 C 
HETATM   25  O7  UNL     1       1.069   0.920   1.750  1.00  0.00    -0.354 OA
HETATM   26  C28 UNL     1       3.020   1.163   3.081  1.00  0.00     0.030 C 
HETATM   27  C29 UNL     1       0.934   0.289   4.042  1.00  0.00     0.030 C 
HETATM   28  O8  UNL     1      -1.544  -0.617   1.441  1.00  0.00    -0.293 OA
HETATM   29  O11 UNL     1       3.042  -4.235  -0.163  1.00  0.00    -0.291 OA
ENDROOT
BRANCH   6  30
HETATM   30  C7  UNL     1       5.406   1.476  -0.045  1.00  0.00     0.013 C 
BRANCH  30  31
HETATM   31  C8  UNL     1       4.274   2.374  -0.562  1.00  0.00     0.202 C 
HETATM   32  O1  UNL     1       4.442   3.632   0.062  1.00  0.00    -0.216 OA
BRANCH  31  33
HETATM   33  C9  UNL     1       4.189   2.567  -2.081  1.00  0.00     0.159 C 
HETATM   34  C10 UNL     1       4.023   1.248  -2.839  1.00  0.00     0.036 C 
HETATM   35  C11 UNL     1       3.034   3.505  -2.457  1.00  0.00     0.036 C 
HETATM   36  O2  UNL     1       5.377   3.163  -2.535  1.00  0.00    -0.223 OA
ENDBRANCH  31  33
ENDBRANCH  30  31
ENDBRANCH   6  30
BRANCH  18  37
HETATM   37  C30 UNL     1       0.304   0.613  -0.513  1.00  0.00     0.063 C 
BRANCH  37  38
HETATM   38  C31 UNL     1      -0.772   1.660  -0.388  1.00  0.00    -0.021 C 
HETATM   39  C32 UNL     1      -1.362   2.391  -1.360  1.00  0.00     0.038 C 
HETATM   40  C34 UNL     1      -2.430   3.403  -1.002  1.00  0.00     0.037 C 
BRANCH  39  41
HETATM   41  C33 UNL     1      -1.018   2.273  -2.808  1.00  0.00     0.206 C 
HETATM   42  O9  UNL     1      -1.617   3.000  -3.596  1.00  0.00    -0.644 OA
HETATM   43  O10 UNL     1      -0.077   1.434  -3.292  1.00  0.00    -0.644 OA
ENDBRANCH  39  41
ENDBRANCH  37  38
ENDBRANCH  18  37
BRANCH  21  44
HETATM   44  O6  UNL     1      -0.443  -2.953  -0.591  1.00  0.00    -0.353 OA
HETATM   45  C24 UNL     1      -1.488  -3.882  -0.403  1.00  0.00     0.174 C 
ENDBRANCH  21  44
TORSDOF 7
