REMARK  9 active torsions:
REMARK  status: ('A' for Active; 'I' for Inactive)
REMARK    1  A    between atoms: C1_1  and  C2_2 
REMARK    2  A    between atoms: C2_2  and  C3_3 
REMARK    3  A    between atoms: C6_7  and  O6_27 
REMARK    4  A    between atoms: C7_8  and  C9_10 
REMARK    5  A    between atoms: C7_8  and  O5_25 
REMARK    6  A    between atoms: C10_11  and  C11_12 
REMARK    7  A    between atoms: C13_14  and  O4_22 
REMARK    8  A    between atoms: C14_15  and  O3_20 
REMARK    9  A    between atoms: C15_16  and  O2_18 
ROOT
HETATM    1  C9  UNL     1       2.389   0.049  -0.853  1.00  0.00    -0.010 C 
HETATM    2  C10 UNL     1       1.262  -0.658  -0.621  1.00  0.00    -0.005 C 
HETATM    3  C20 UNL     1       3.122   0.804   0.235  1.00  0.00     0.029 C 
ENDROOT
BRANCH   1   4
HETATM    4  C7  UNL     1       3.082   0.013  -2.221  1.00  0.00     0.165 A 
HETATM    5  C6  UNL     1       3.955  -1.244  -2.188  1.00  0.00     0.107 A 
HETATM    6  C5  UNL     1       5.300  -1.157  -2.207  1.00  0.00     0.064 A 
HETATM    7  C4  UNL     1       6.038   0.124  -2.285  1.00  0.00     0.194 A 
HETATM    8  C3  UNL     1       5.241   1.367  -2.408  1.00  0.00     0.020 A 
HETATM    9  O1  UNL     1       7.265   0.138  -2.271  1.00  0.00    -0.287 OA
HETATM   10  C8  UNL     1       3.898   1.277  -2.409  1.00  0.00     0.009 A 
BRANCH   5  11
HETATM   11  O6  UNL     1       3.239  -2.416  -2.129  1.00  0.00    -0.329 OA
HETATM   12  C22 UNL     1       3.935  -3.639  -2.083  1.00  0.00     0.181 C 
ENDBRANCH   5  11
BRANCH   8  13
HETATM   13  C2  UNL     1       5.968   2.685  -2.564  1.00  0.00     0.055 C 
BRANCH  13  14
HETATM   14  C1  UNL     1       5.221   3.865  -1.996  1.00  0.00    -0.021 C 
HETATM   15  C23 UNL     1       4.936   4.973  -2.695  1.00  0.00    -0.005 C 
ENDBRANCH  13  14
ENDBRANCH   8  13
BRANCH   4  16
HETATM   16  O5  UNL     1       2.174  -0.152  -3.314  1.00  0.00    -0.343 OA
HETATM   17  C21 UNL     1       1.242   0.893  -3.495  1.00  0.00     0.175 C 
ENDBRANCH   4  16
ENDBRANCH   1   4
BRANCH   2  18
HETATM   18  C11 UNL     1       0.489  -0.734   0.637  1.00  0.00     0.004 C 
HETATM   19  C12 UNL     1      -0.163  -1.926   0.965  1.00  0.00     0.026 C 
HETATM   20  C13 UNL     1      -0.943  -2.078   2.116  1.00  0.00     0.118 C 
HETATM   21  C14 UNL     1      -1.060  -0.970   2.985  1.00  0.00     0.138 C 
HETATM   22  C15 UNL     1      -0.548   0.290   2.605  1.00  0.00     0.118 C 
HETATM   23  C16 UNL     1       0.233   0.374   1.445  1.00  0.00     0.026 C 
BRANCH  20  24
HETATM   24  O4  UNL     1      -1.537  -3.304   2.309  1.00  0.00    -0.326 OA
HETATM   25  C19 UNL     1      -2.864  -3.350   2.782  1.00  0.00     0.181 C 
ENDBRANCH  20  24
BRANCH  21  26
HETATM   26  O3  UNL     1      -1.842  -1.034   4.110  1.00  0.00    -0.324 OA
HETATM   27  C18 UNL     1      -1.132  -1.398   5.272  1.00  0.00     0.182 C 
ENDBRANCH  21  26
BRANCH  22  28
HETATM   28  O2  UNL     1      -0.757   1.352   3.453  1.00  0.00    -0.326 OA
HETATM   29  C17 UNL     1       0.091   2.473   3.346  1.00  0.00     0.181 C 
ENDBRANCH  22  28
ENDBRANCH   2  18
TORSDOF 9
