REMARK  4 active torsions:
REMARK  status: ('A' for Active; 'I' for Inactive)
REMARK    1  A    between atoms: C1_1  and  O9_41 
REMARK    2  A    between atoms: C14_16  and  O5_29 
REMARK    3  A    between atoms: O5_29  and  C25_30 
REMARK    4  A    between atoms: O9_41  and  C33_42 
ROOT
HETATM    1  C1  UNL     1       1.846   0.225   1.684  1.00  0.00     0.130 C 
HETATM    2  C2  UNL     1       1.052   1.409   1.106  1.00  0.00     0.061 C 
HETATM    3  C3  UNL     1      -0.209   1.136   0.264  1.00  0.00     0.130 C 
HETATM    4  C4  UNL     1      -1.054  -0.093   0.631  1.00  0.00     0.039 C 
HETATM    5  C5  UNL     1      -0.537  -1.543   0.394  1.00  0.00     0.049 C 
HETATM    6  C6  UNL     1       0.822  -1.933   0.986  1.00  0.00     0.131 C 
HETATM    7  C7  UNL     1       1.944  -0.944   0.681  1.00  0.00     0.065 C 
HETATM    8  C8  UNL     1       3.150  -1.833   0.289  1.00  0.00     0.086 C 
HETATM    9  C9  UNL     1       2.560  -3.236   0.282  1.00  0.00     0.271 C 
HETATM   10  O1  UNL     1       1.232  -3.187   0.537  1.00  0.00    -0.304 OA
HETATM   11  O2  UNL     1       3.162  -4.256   0.030  1.00  0.00    -0.264 OA
HETATM   12  C10 UNL     1       4.456  -1.728   1.107  1.00  0.00     0.016 C 
HETATM   13  C11 UNL     1       5.471  -1.010   0.158  1.00  0.00     0.047 C 
HETATM   14  C12 UNL     1       6.578  -0.209   0.843  1.00  0.00     0.133 C 
HETATM   15  C13 UNL     1       7.755   0.271  -0.032  1.00  0.00     0.061 C 
HETATM   16  C14 UNL     1       7.546   0.825  -1.455  1.00  0.00     0.133 C 
HETATM   17  C15 UNL     1       6.183   1.494  -1.667  1.00  0.00     0.083 C 
HETATM   18  C16 UNL     1       5.136   0.420  -2.037  1.00  0.00     0.132 C 
HETATM   19  C17 UNL     1       4.518  -0.262  -0.820  1.00  0.00     0.038 C 
HETATM   20  C18 UNL     1       3.693  -1.535  -1.147  1.00  0.00     0.030 C 
HETATM   21  C19 UNL     1       4.840  -2.480  -1.472  1.00  0.00    -0.031 C 
HETATM   22  C20 UNL     1       5.908  -2.134  -0.747  1.00  0.00    -0.029 C 
HETATM   23  C21 UNL     1       2.702  -1.501  -2.315  1.00  0.00     0.005 C 
HETATM   24  O3  UNL     1       4.141   1.001  -2.844  1.00  0.00    -0.301 OA
HETATM   25  C22 UNL     1       4.633   2.170  -3.318  1.00  0.00     0.292 C 
HETATM   26  C23 UNL     1       5.941   2.522  -2.742  1.00  0.00     0.045 C 
HETATM   27  C24 UNL     1       6.620   3.634  -3.074  1.00  0.00     0.001 C 
HETATM   28  O4  UNL     1       4.016   2.880  -4.107  1.00  0.00    -0.260 OA
HETATM   29  O7  UNL     1       5.966   0.925   1.401  1.00  0.00    -0.226 OA
HETATM   30  C27 UNL     1       7.179  -0.998   2.020  1.00  0.00     0.033 C 
HETATM   31  C28 UNL     1      -1.613  -2.304   1.143  1.00  0.00    -0.046 C 
HETATM   32  C29 UNL     1      -2.224  -1.530   2.050  1.00  0.00    -0.034 C 
HETATM   33  C30 UNL     1      -1.732  -0.107   2.016  1.00  0.00     0.028 C 
HETATM   34  C31 UNL     1      -1.873  -3.765   0.925  1.00  0.00     0.026 C 
HETATM   35  O8  UNL     1       0.172   0.986  -1.084  1.00  0.00    -0.226 OA
HETATM   36  C32 UNL     1      -1.074   2.410   0.290  1.00  0.00     0.033 C 
ENDROOT
BRANCH   1  37
HETATM   37  O9  UNL     1       3.050   0.734   2.196  1.00  0.00    -0.304 OA
BRANCH  37  38
HETATM   38  C33 UNL     1       3.285   0.578   3.537  1.00  0.00     0.272 C 
HETATM   39  C34 UNL     1       4.452   1.423   4.008  1.00  0.00     0.106 C 
HETATM   40  O10 UNL     1       2.631  -0.113   4.287  1.00  0.00    -0.264 OA
ENDBRANCH  37  38
ENDBRANCH   1  37
BRANCH  16  41
HETATM   41  O5  UNL     1       8.610   1.695  -1.728  1.00  0.00    -0.304 OA
BRANCH  41  42
HETATM   42  C25 UNL     1       9.084   1.752  -3.004  1.00  0.00     0.272 C 
HETATM   43  C26 UNL     1      10.270   2.692  -3.083  1.00  0.00     0.106 C 
HETATM   44  O6  UNL     1       8.626   1.143  -3.945  1.00  0.00    -0.264 OA
ENDBRANCH  41  42
ENDBRANCH  16  41
TORSDOF 4
