REMARK  9 active torsions:
REMARK  status: ('A' for Active; 'I' for Inactive)
REMARK    1  A    between atoms: C2_2  and  O4_18 
REMARK    2  A    between atoms: C3_3  and  O3_16 
REMARK    3  A    between atoms: C7_7  and  O2_14 
REMARK    4  A    between atoms: O4_18  and  C14_19 
REMARK    5  A    between atoms: C14_19  and  C15_20 
REMARK    6  A    between atoms: C16_21  and  C17_22 
REMARK    7  A    between atoms: C17_22  and  C18_23 
REMARK    8  A    between atoms: C18_23  and  C19_24 
REMARK    9  A    between atoms: C19_24  and  C20_26 
ROOT
HETATM    1  C1  UNL     1       4.631   4.150  -0.396  1.00  0.00     0.026 A 
HETATM    2  C2  UNL     1       4.497   2.745  -0.162  1.00  0.00     0.118 A 
HETATM    3  C3  UNL     1       3.237   2.239   0.148  1.00  0.00     0.134 A 
HETATM    4  C4  UNL     1       2.123   3.169   0.220  1.00  0.00     0.110 A 
HETATM    5  C5  UNL     1       2.288   4.561  -0.008  1.00  0.00     0.042 A 
HETATM    6  C6  UNL     1       3.594   5.036  -0.333  1.00  0.00     0.006 A 
HETATM    7  C7  UNL     1       1.216   5.496   0.100  1.00  0.00     0.099 C 
HETATM    8  C8  UNL     1      -0.017   4.898   0.297  1.00  0.00     0.066 A 
HETATM    9  C9  UNL     1      -0.160   3.512   0.544  1.00  0.00     0.184 A 
HETATM   10  N1  UNL     1       0.881   2.694   0.538  1.00  0.00    -0.220 NA
HETATM   11  O1  UNL     1      -1.483   3.231   0.746  1.00  0.00    -0.287 OA
HETATM   12  C10 UNL     1      -2.173   4.417   0.609  1.00  0.00     0.125 A 
HETATM   13  C11 UNL     1      -1.353   5.459   0.335  1.00  0.00     0.032 A 
ENDROOT
BRANCH   2  14
HETATM   14  O4  UNL     1       5.675   2.043  -0.308  1.00  0.00    -0.324 OA
BRANCH  14  15
HETATM   15  C14 UNL     1       5.732   0.633  -0.293  1.00  0.00     0.174 C 
BRANCH  15  16
HETATM   16  C15 UNL     1       7.148   0.164  -0.540  1.00  0.00    -0.002 C 
HETATM   17  C16 UNL     1       7.639  -1.055  -0.251  1.00  0.00    -0.046 C 
HETATM   18  C23 UNL     1       9.095  -1.372  -0.510  1.00  0.00     0.026 C 
BRANCH  17  19
HETATM   19  C17 UNL     1       6.813  -2.163   0.373  1.00  0.00     0.025 C 
BRANCH  19  20
HETATM   20  C18 UNL     1       6.927  -3.513  -0.360  1.00  0.00     0.040 C 
BRANCH  20  21
HETATM   21  C19 UNL     1       6.001  -4.581   0.232  1.00  0.00     0.180 C 
HETATM   22  O5  UNL     1       4.669  -4.265  -0.103  1.00  0.00    -0.221 OA
BRANCH  21  23
HETATM   23  C20 UNL     1       6.311  -6.018  -0.201  1.00  0.00     0.155 C 
HETATM   24  C21 UNL     1       5.322  -7.004   0.432  1.00  0.00     0.036 C 
HETATM   25  O6  UNL     1       7.585  -6.353   0.287  1.00  0.00    -0.223 OA
HETATM   26  C22 UNL     1       6.333  -6.200  -1.720  1.00  0.00     0.036 C 
ENDBRANCH  21  23
ENDBRANCH  20  21
ENDBRANCH  19  20
ENDBRANCH  17  19
ENDBRANCH  15  16
ENDBRANCH  14  15
ENDBRANCH   2  14
BRANCH   3  27
HETATM   27  O3  UNL     1       3.107   0.877   0.297  1.00  0.00    -0.325 OA
HETATM   28  C13 UNL     1       1.909   0.202  -0.000  1.00  0.00     0.182 C 
ENDBRANCH   3  27
BRANCH   7  29
HETATM   29  O2  UNL     1       1.320   6.822  -0.225  1.00  0.00    -0.328 OA
HETATM   30  C12 UNL     1       1.476   7.664   0.893  1.00  0.00     0.181 C 
ENDBRANCH   7  29
TORSDOF 9
