REMARK  0 active torsions:
REMARK  status: ('A' for Active; 'I' for Inactive)
ROOT
HETATM    1  C1  UNL     1      -2.381  -0.104  -0.623  1.00  0.00     0.065 C 
HETATM    2  C2  UNL     1      -1.996  -1.481  -1.141  1.00  0.00     0.150 C 
HETATM    3  C3  UNL     1      -1.011  -2.295  -0.296  1.00  0.00     0.052 C 
HETATM    4  C4  UNL     1      -0.141  -1.295   0.507  1.00  0.00     0.007 C 
HETATM    5  C5  UNL     1       0.175   0.044  -0.233  1.00  0.00     0.004 C 
HETATM    6  C6  UNL     1      -1.174   0.807  -0.322  1.00  0.00     0.008 C 
HETATM    7  C7  UNL     1       1.241   0.798   0.613  1.00  0.00     0.021 C 
HETATM    8  C8  UNL     1       2.538  -0.005   0.643  1.00  0.00    -0.045 C 
HETATM    9  C9  UNL     1       2.410  -1.502   0.804  1.00  0.00     0.022 C 
HETATM   10  C10 UNL     1       1.027  -1.902   1.319  1.00  0.00     0.005 C 
HETATM   11  C11 UNL     1       3.760   0.555   0.525  1.00  0.00    -0.011 C 
HETATM   12  C12 UNL     1       3.835   1.978   0.227  1.00  0.00     0.006 A 
HETATM   13  C13 UNL     1       2.668   2.656  -0.434  1.00  0.00     0.147 A 
HETATM   14  C14 UNL     1       1.418   2.318   0.364  1.00  0.00     0.039 C 
HETATM   15  O1  UNL     1       2.969   4.039  -0.457  1.00  0.00    -0.297 OA
HETATM   16  C15 UNL     1       4.245   4.144   0.022  1.00  0.00     0.292 A 
HETATM   17  C16 UNL     1       4.825   2.860   0.462  1.00  0.00     0.040 A 
HETATM   18  C17 UNL     1       6.154   2.638   1.111  1.00  0.00     0.036 C 
HETATM   19  O2  UNL     1       4.842   5.211   0.109  1.00  0.00    -0.260 OA
HETATM   20  C18 UNL     1       0.709  -0.095  -1.676  1.00  0.00     0.000 C 
HETATM   21  C19 UNL     1      -0.198  -3.250  -1.196  1.00  0.00     0.007 C 
HETATM   22  C20 UNL     1      -1.873  -3.170   0.644  1.00  0.00     0.007 C 
HETATM   23  O3  UNL     1      -2.494  -1.923  -2.152  1.00  0.00    -0.296 OA
ENDROOT
TORSDOF 0
