REMARK  4 active torsions:
REMARK  status: ('A' for Active; 'I' for Inactive)
REMARK    1  A    between atoms: O1_2  and  C2_3 
REMARK    2  A    between atoms: C3_4  and  O2_5 
REMARK    3  A    between atoms: C10_13  and  C16_19 
REMARK    4  A    between atoms: C11_14  and  C13_16 
ROOT
HETATM    1  C2  UNL     1       4.751   0.744  -0.234  1.00  0.00     0.158 A 
HETATM    2  C3  UNL     1       4.721  -0.610  -0.320  1.00  0.00     0.158 A 
HETATM    3  C5  UNL     1       3.421  -1.319  -0.124  1.00  0.00     0.215 A 
HETATM    4  C6  UNL     1       2.196  -0.538   0.196  1.00  0.00     0.018 A 
HETATM    5  C7  UNL     1       2.246   0.806   0.312  1.00  0.00     0.018 A 
HETATM    6  C8  UNL     1       3.539   1.518   0.157  1.00  0.00     0.215 A 
HETATM    7  O3  UNL     1       3.594   2.735   0.296  1.00  0.00    -0.285 OA
HETATM    8  C9  UNL     1       1.018   1.641   0.609  1.00  0.00     0.034 C 
HETATM    9  C10 UNL     1      -0.309   0.924   0.254  1.00  0.00     0.026 C 
HETATM   10  C11 UNL     1      -0.238  -0.459   0.941  1.00  0.00     0.027 C 
HETATM   11  C12 UNL     1       0.902  -1.310   0.362  1.00  0.00     0.034 C 
HETATM   12  C18 UNL     1      -0.384   0.867  -1.289  1.00  0.00     0.005 C 
HETATM   13  O4  UNL     1       3.315  -2.535  -0.228  1.00  0.00    -0.285 OA
ENDROOT
BRANCH   9  14
HETATM   14  C16 UNL     1      -1.457   1.714   0.863  1.00  0.00    -0.026 C 
HETATM   15  C17 UNL     1      -2.608   2.043   0.258  1.00  0.00    -0.005 C 
ENDBRANCH   9  14
BRANCH  10  16
HETATM   16  C13 UNL     1      -1.547  -1.228   1.065  1.00  0.00    -0.044 C 
HETATM   17  C14 UNL     1      -2.072  -1.499   2.273  1.00  0.00    -0.009 C 
HETATM   18  C15 UNL     1      -2.268  -1.694  -0.177  1.00  0.00     0.026 C 
ENDBRANCH  10  16
BRANCH   1  19
HETATM   19  O1  UNL     1       5.934   1.438  -0.295  1.00  0.00    -0.323 OA
HETATM   20  C1  UNL     1       6.190   2.012  -1.557  1.00  0.00     0.182 C 
ENDBRANCH   1  19
BRANCH   2  21
HETATM   21  O2  UNL     1       5.909  -1.256  -0.579  1.00  0.00    -0.323 OA
HETATM   22  C4  UNL     1       5.967  -2.660  -0.635  1.00  0.00     0.182 C 
ENDBRANCH   2  21
TORSDOF 4
