REMARK  0 active torsions:
REMARK  status: ('A' for Active; 'I' for Inactive)
ROOT
HETATM    1  C1  UNL     1       1.118   0.968   0.455  1.00  0.00     0.004 A 
HETATM    2  C2  UNL     1       1.333  -0.413   0.622  1.00  0.00     0.090 A 
HETATM    3  O1  UNL     1       2.558  -0.956   0.877  1.00  0.00    -0.334 OA
HETATM    4  C3  UNL     1       3.306  -1.427  -0.204  1.00  0.00     0.127 C 
HETATM    5  C4  UNL     1       4.599  -0.605  -0.241  1.00  0.00     0.180 C 
HETATM    6  C5  UNL     1       4.427   0.903  -0.435  1.00  0.00     0.069 C 
HETATM    7  C6  UNL     1       3.676   1.649   0.678  1.00  0.00     0.159 C 
HETATM    8  C7  UNL     1       2.213   2.032   0.381  1.00  0.00     0.055 C 
HETATM    9  C8  UNL     1       2.095   2.831  -0.936  1.00  0.00     0.007 C 
HETATM   10  O2  UNL     1       4.383   2.845   0.944  1.00  0.00    -0.223 OA
HETATM   11  O3  UNL     1       5.436  -1.083  -1.271  1.00  0.00    -0.221 OA
HETATM   12  C9  UNL     1       3.642  -2.898   0.108  1.00  0.00     0.033 C 
HETATM   13  C10 UNL     1       2.547  -1.386  -1.539  1.00  0.00     0.033 C 
HETATM   14  C11 UNL     1       0.202  -1.226   0.785  1.00  0.00     0.022 A 
HETATM   15  C12 UNL     1      -1.114  -0.782   0.645  1.00  0.00     0.005 A 
HETATM   16  C13 UNL     1      -1.332   0.577   0.396  1.00  0.00     0.127 A 
HETATM   17  C14 UNL     1      -0.210   1.408   0.339  1.00  0.00     0.025 A 
HETATM   18  O4  UNL     1      -2.580   1.103   0.279  1.00  0.00    -0.191 OA
HETATM   19  C15 UNL     1      -2.240  -1.778   0.789  1.00  0.00     0.033 C 
ENDROOT
TORSDOF 0
