REMARK  4 active torsions:
REMARK  status: ('A' for Active; 'I' for Inactive)
REMARK    1  A    between atoms: C4_4  and  O6_29 
REMARK    2  A    between atoms: C15_15  and  C18_19 
REMARK    3  A    between atoms: O6_29  and  C24_30 
REMARK    4  A    between atoms: C25_32  and  C29_39 
ROOT
HETATM    1  C1  UNL     1      -1.603   0.002  -0.657  1.00  0.00     0.028 C 
HETATM    2  C2  UNL     1      -1.621  -1.448  -0.284  1.00  0.00    -0.028 C 
HETATM    3  C3  UNL     1      -0.646  -1.985   0.461  1.00  0.00    -0.002 C 
HETATM    4  C4  UNL     1       0.636  -1.267   0.902  1.00  0.00     0.139 C 
HETATM    5  C5  UNL     1       0.537   0.282   0.739  1.00  0.00     0.153 C 
HETATM    6  C6  UNL     1      -0.916   0.730   0.499  1.00  0.00     0.038 C 
HETATM    7  C7  UNL     1       1.521   0.817  -0.342  1.00  0.00     0.033 C 
HETATM    8  C8  UNL     1       2.957   0.320  -0.083  1.00  0.00     0.031 C 
HETATM    9  C9  UNL     1       3.019  -1.206  -0.248  1.00  0.00     0.005 C 
HETATM   10  C10 UNL     1       1.668  -1.909  -0.049  1.00  0.00     0.034 C 
HETATM   11  C11 UNL     1       4.135   1.162  -0.643  1.00  0.00     0.130 C 
HETATM   12  C12 UNL     1       3.795   2.122  -1.811  1.00  0.00     0.032 C 
HETATM   13  C13 UNL     1       2.367   2.717  -1.752  1.00  0.00     0.003 C 
HETATM   14  C14 UNL     1       1.583   2.346  -0.488  1.00  0.00     0.003 C 
HETATM   15  C15 UNL     1       3.988   1.201  -3.049  1.00  0.00     0.057 C 
HETATM   16  C16 UNL     1       5.044   0.150  -2.684  1.00  0.00     0.159 C 
HETATM   17  C17 UNL     1       5.312   0.340  -1.192  1.00  0.00     0.064 C 
HETATM   18  O1  UNL     1       6.235   0.295  -3.414  1.00  0.00    -0.223 OA
HETATM   19  C23 UNL     1       4.776   3.321  -1.845  1.00  0.00     0.003 C 
HETATM   20  O4  UNL     1       4.639   1.918   0.436  1.00  0.00    -0.226 OA
HETATM   21  O5  UNL     1       0.874   0.907   1.956  1.00  0.00    -0.223 OA
ENDROOT
BRANCH   4  22
HETATM   22  O6  UNL     1       0.777  -1.662   2.255  1.00  0.00    -0.327 OA
BRANCH  22  23
HETATM   23  C24 UNL     1       2.047  -1.576   2.861  1.00  0.00     0.270 C 
HETATM   24  O7  UNL     1       2.684  -2.821   2.678  1.00  0.00    -0.326 OA
HETATM   25  C25 UNL     1       3.988  -2.827   3.202  1.00  0.00     0.184 C 
HETATM   26  C26 UNL     1       3.933  -2.598   4.708  1.00  0.00     0.215 C 
HETATM   27  C27 UNL     1       3.221  -1.294   5.003  1.00  0.00     0.220 C 
HETATM   28  O10 UNL     1       5.227  -2.509   5.253  1.00  0.00    -0.218 OA
HETATM   29  C28 UNL     1       1.862  -1.311   4.338  1.00  0.00     0.241 C 
HETATM   30  O9  UNL     1       3.069  -1.137   6.390  1.00  0.00    -0.218 OA
HETATM   31  O8  UNL     1       1.259  -0.053   4.521  1.00  0.00    -0.215 OA
BRANCH  25  32
HETATM   32  C29 UNL     1       4.647  -4.150   2.844  1.00  0.00     0.214 C 
HETATM   33  O11 UNL     1       4.799  -4.243   1.441  1.00  0.00    -0.218 OA
ENDBRANCH  25  32
ENDBRANCH  22  23
ENDBRANCH   4  22
BRANCH  15  34
HETATM   34  C18 UNL     1       4.118   1.884  -4.402  1.00  0.00     0.005 A 
HETATM   35  C19 UNL     1       2.971   1.890  -5.309  1.00  0.00     0.003 A 
HETATM   36  C20 UNL     1       3.049   2.545  -6.487  1.00  0.00     0.068 A 
HETATM   37  C21 UNL     1       4.316   3.225  -6.825  1.00  0.00     0.300 A 
HETATM   38  O2  UNL     1       5.394   3.174  -5.997  1.00  0.00    -0.271 OA
HETATM   39  O3  UNL     1       4.380   3.838  -7.888  1.00  0.00    -0.259 OA
HETATM   40  C22 UNL     1       5.239   2.530  -4.804  1.00  0.00     0.122 A 
ENDBRANCH  15  34
TORSDOF 4
