REMARK  9 active torsions:
REMARK  status: ('A' for Active; 'I' for Inactive)
REMARK    1  A    between atoms: C5_5  and  C7_7 
REMARK    2  A    between atoms: C7_7  and  C8_8 
REMARK    3  A    between atoms: C8_8  and  C9_9 
REMARK    4  A    between atoms: C8_8  and  C19_22 
REMARK    5  A    between atoms: C9_9  and  C10_10 
REMARK    6  A    between atoms: C9_9  and  C18_20 
REMARK    7  A    between atoms: C10_10  and  C11_11 
REMARK    8  A    between atoms: C19_22  and  O4_23 
REMARK    9  A    between atoms: O4_23  and  C20_24 
ROOT
HETATM    1  C8  UNL     1       3.356   0.279   0.219  1.00  0.00     0.038 C 
ENDROOT
BRANCH   1   2
HETATM    2  C7  UNL     1       3.160  -1.105   0.883  1.00  0.00     0.029 C 
BRANCH   2   3
HETATM    3  C5  UNL     1       1.832  -1.778   0.600  1.00  0.00    -0.020 A 
HETATM    4  C4  UNL     1       1.783  -3.066   0.037  1.00  0.00    -0.002 A 
HETATM    5  C3  UNL     1       0.574  -3.711  -0.254  1.00  0.00     0.026 A 
HETATM    6  C2  UNL     1      -0.600  -3.029   0.048  1.00  0.00     0.119 A 
HETATM    7  C1  UNL     1      -0.570  -1.768   0.631  1.00  0.00     0.119 A 
HETATM    8  O6  UNL     1      -1.914  -3.416  -0.131  1.00  0.00    -0.300 OA
HETATM    9  C6  UNL     1       0.630  -1.129   0.927  1.00  0.00     0.022 A 
HETATM   10  O7  UNL     1      -1.866  -1.334   0.835  1.00  0.00    -0.300 OA
HETATM   11  C22 UNL     1      -2.748  -2.356   0.354  1.00  0.00     0.304 A 
ENDBRANCH   2   3
ENDBRANCH   1   2
BRANCH   1  12
HETATM   12  C9  UNL     1       3.668   0.250  -1.303  1.00  0.00     0.040 C 
BRANCH  12  13
HETATM   13  C10 UNL     1       5.090  -0.224  -1.680  1.00  0.00     0.029 C 
BRANCH  13  14
HETATM   14  C11 UNL     1       6.252   0.729  -1.468  1.00  0.00    -0.020 A 
HETATM   15  C12 UNL     1       7.485   0.219  -1.026  1.00  0.00     0.022 A 
HETATM   16  C13 UNL     1       8.566   1.090  -0.916  1.00  0.00     0.119 A 
HETATM   17  C14 UNL     1       8.446   2.442  -1.216  1.00  0.00     0.119 A 
HETATM   18  O2  UNL     1       9.870   0.826  -0.546  1.00  0.00    -0.300 OA
HETATM   19  C15 UNL     1       7.239   2.976  -1.654  1.00  0.00     0.026 A 
HETATM   20  O1  UNL     1       9.667   3.060  -1.034  1.00  0.00    -0.300 OA
HETATM   21  C16 UNL     1       6.161   2.094  -1.792  1.00  0.00    -0.002 A 
HETATM   22  C17 UNL     1      10.605   2.053  -0.632  1.00  0.00     0.304 A 
ENDBRANCH  13  14
ENDBRANCH  12  13
BRANCH  12  23
HETATM   23  C18 UNL     1       2.625  -0.559  -2.085  1.00  0.00     0.183 C 
HETATM   24  O3  UNL     1       2.709  -0.271  -3.468  1.00  0.00    -0.221 OA
ENDBRANCH  12  23
ENDBRANCH   1  12
BRANCH   1  25
HETATM   25  C19 UNL     1       4.388   1.109   0.998  1.00  0.00     0.152 C 
BRANCH  25  26
HETATM   26  O4  UNL     1       3.895   1.391   2.283  1.00  0.00    -0.302 OA
BRANCH  26  27
HETATM   27  C20 UNL     1       4.705   2.112   3.103  1.00  0.00     0.272 C 
HETATM   28  C21 UNL     1       4.032   2.324   4.445  1.00  0.00     0.106 C 
HETATM   29  O5  UNL     1       5.805   2.521   2.805  1.00  0.00    -0.264 OA
ENDBRANCH  26  27
ENDBRANCH  25  26
ENDBRANCH   1  25
TORSDOF 9
