REMARK  6 active torsions:
REMARK  status: ('A' for Active; 'I' for Inactive)
REMARK    1  A    between atoms: C3_3  and  O7_33 
REMARK    2  A    between atoms: C11_13  and  O3_15 
REMARK    3  A    between atoms: N2_19  and  C23_31 
REMARK    4  A    between atoms: C16_21  and  C21_28 
REMARK    5  A    between atoms: C19_24  and  O4_25 
REMARK    6  A    between atoms: C21_28  and  O6_29 
ROOT
HETATM    1  C1  UNL     1       0.728   0.205   0.703  1.00  0.00     0.046 C 
HETATM    2  C2  UNL     1       0.632  -1.350   0.629  1.00  0.00     0.038 C 
HETATM    3  C3  UNL     1       1.323  -1.711  -0.725  1.00  0.00     0.119 C 
HETATM    4  C4  UNL     1       1.461  -0.362  -1.470  1.00  0.00     0.082 C 
HETATM    5  C5  UNL     1       2.880   0.256  -1.354  1.00  0.00     0.278 C 
HETATM    6  C6  UNL     1       3.309   0.167   0.123  1.00  0.00     0.068 C 
HETATM    7  C7  UNL     1       2.174   0.716   0.991  1.00  0.00     0.011 C 
HETATM    8  C8  UNL     1       2.436   2.241   0.888  1.00  0.00     0.036 C 
HETATM    9  C9  UNL     1       3.829   2.423   0.243  1.00  0.00     0.179 C 
HETATM   10  C10 UNL     1       4.475   1.075   0.489  1.00  0.00     0.184 C 
HETATM   11  O1  UNL     1       5.613   0.814  -0.289  1.00  0.00    -0.221 OA
HETATM   12  O2  UNL     1       4.513   3.426   0.935  1.00  0.00    -0.221 OA
HETATM   13  C11 UNL     1       3.745   2.747  -1.248  1.00  0.00     0.148 C 
HETATM   14  C12 UNL     1       2.900   1.682  -1.968  1.00  0.00     0.069 C 
HETATM   15  N1  UNL     1       3.837  -0.562  -2.135  1.00  0.00     0.614 N 
HETATM   16  C14 UNL     1       0.321   0.427  -0.769  1.00  0.00     0.083 C 
HETATM   17  N2  UNL     1      -0.903  -0.241  -1.233  1.00  0.00    -0.370 N 
HETATM   18  C15 UNL     1      -1.706  -0.912  -0.227  1.00  0.00     0.102 C 
HETATM   19  C16 UNL     1      -0.875  -1.710   0.819  1.00  0.00     0.078 C 
HETATM   20  C17 UNL     1      -1.292  -1.326   2.267  1.00  0.00     0.159 C 
HETATM   21  C18 UNL     1      -0.548  -0.131   2.848  1.00  0.00     0.063 C 
HETATM   22  C19 UNL     1      -0.144   0.888   1.790  1.00  0.00     0.120 C 
HETATM   23  O5  UNL     1      -2.682  -1.106   2.377  1.00  0.00    -0.223 OA
ENDROOT
BRANCH  19  24
HETATM   24  C21 UNL     1      -1.201  -3.223   0.716  1.00  0.00     0.147 C 
BRANCH  24  25
HETATM   25  O6  UNL     1      -0.248  -3.977   1.428  1.00  0.00    -0.351 OA
HETATM   26  C22 UNL     1      -0.577  -5.348   1.488  1.00  0.00     0.174 C 
ENDBRANCH  24  25
ENDBRANCH  19  24
BRANCH   3  27
HETATM   27  O7  UNL     1       0.598  -2.603  -1.527  1.00  0.00    -0.354 OA
HETATM   28  C25 UNL     1       1.230  -3.854  -1.699  1.00  0.00     0.174 C 
ENDBRANCH   3  27
BRANCH  17  29
HETATM   29  C23 UNL     1      -1.671   0.540  -2.195  1.00  0.00     0.097 C 
HETATM   30  C24 UNL     1      -2.390   1.789  -1.659  1.00  0.00     0.026 C 
ENDBRANCH  17  29
BRANCH  22  31
HETATM   31  O4  UNL     1      -1.205   1.600   1.224  1.00  0.00    -0.354 OA
HETATM   32  C20 UNL     1      -1.893   2.457   2.110  1.00  0.00     0.174 C 
ENDBRANCH  22  31
BRANCH  13  33
HETATM   33  O3  UNL     1       4.986   2.816  -1.907  1.00  0.00    -0.351 OA
HETATM   34  C13 UNL     1       5.745   3.985  -1.673  1.00  0.00     0.174 C 
ENDBRANCH  13  33
TORSDOF 6
