REMARK  7 active torsions:
REMARK  status: ('A' for Active; 'I' for Inactive)
REMARK    1  A    between atoms: C15_17  and  C18_21 
REMARK    2  A    between atoms: C18_21  and  C19_22 
REMARK    3  A    between atoms: C19_22  and  C20_23 
REMARK    4  A    between atoms: C20_23  and  C21_24 
REMARK    5  A    between atoms: C21_24  and  C22_25 
REMARK    6  A    between atoms: C22_25  and  O4_28 
REMARK    7  A    between atoms: O4_28  and  C25_29 
ROOT
HETATM    1  C1  UNL     1      -1.874  -1.736  -0.771  1.00  0.00     0.183 C 
HETATM    2  C2  UNL     1      -2.016  -3.124  -0.185  1.00  0.00     0.186 C 
HETATM    3  C3  UNL     1      -0.870  -4.058  -0.596  1.00  0.00     0.046 C 
HETATM    4  C4  UNL     1       0.491  -3.369  -0.464  1.00  0.00    -0.044 C 
HETATM    5  C5  UNL     1       0.660  -1.853  -0.502  1.00  0.00     0.027 C 
HETATM    6  C6  UNL     1      -0.640  -1.089  -0.163  1.00  0.00     0.040 C 
HETATM    7  C7  UNL     1       1.914  -1.375   0.323  1.00  0.00     0.058 C 
HETATM    8  C8  UNL     1       3.150  -2.331   0.189  1.00  0.00     0.042 C 
HETATM    9  C9  UNL     1       2.930  -3.430  -0.848  1.00  0.00     0.174 C 
HETATM   10  C10 UNL     1       1.606  -4.097  -0.636  1.00  0.00    -0.002 C 
HETATM   11  O1  UNL     1       3.959  -4.401  -0.786  1.00  0.00    -0.219 OA
HETATM   12  C11 UNL     1       4.529  -1.623   0.031  1.00  0.00     0.006 C 
HETATM   13  C12 UNL     1       4.561  -0.394   0.968  1.00  0.00     0.013 C 
HETATM   14  C13 UNL     1       3.605   0.675   0.450  1.00  0.00     0.065 C 
HETATM   15  C14 UNL     1       2.325   0.049  -0.096  1.00  0.00     0.150 C 
HETATM   16  O2  UNL     1       1.660   0.713  -0.859  1.00  0.00    -0.296 OA
HETATM   17  C15 UNL     1       6.049  -0.077   1.215  1.00  0.00     0.066 C 
HETATM   18  C16 UNL     1       6.538  -1.511   1.478  1.00  0.00     0.155 C 
HETATM   19  C17 UNL     1       5.739  -2.438   0.557  1.00  0.00     0.033 C 
HETATM   20  O3  UNL     1       7.920  -1.624   1.243  1.00  0.00    -0.223 OA
HETATM   21  C28 UNL     1       4.802  -1.234  -1.443  1.00  0.00     0.000 C 
HETATM   22  C29 UNL     1       1.494  -1.295   1.817  1.00  0.00     0.008 C 
HETATM   23  C30 UNL     1      -0.945  -5.308   0.313  1.00  0.00     0.007 C 
HETATM   24  C31 UNL     1      -1.027  -4.512  -2.067  1.00  0.00     0.007 C 
HETATM   25  O8  UNL     1      -3.271  -3.625  -0.578  1.00  0.00    -0.220 OA
HETATM   26  O9  UNL     1      -3.022  -1.002  -0.416  1.00  0.00    -0.221 OA
ENDROOT
BRANCH  17  27
HETATM   27  C18 UNL     1       6.437   0.907   2.334  1.00  0.00     0.180 C 
HETATM   28  O7  UNL     1       7.664   0.463   2.890  1.00  0.00    -0.218 OA
HETATM   29  C27 UNL     1       5.444   0.994   3.494  1.00  0.00     0.041 C 
BRANCH  27  30
HETATM   30  C19 UNL     1       6.769   2.333   1.881  1.00  0.00     0.178 C 
HETATM   31  O6  UNL     1       7.566   2.902   2.595  1.00  0.00    -0.293 OA
BRANCH  30  32
HETATM   32  C20 UNL     1       6.178   3.015   0.660  1.00  0.00     0.070 C 
BRANCH  32  33
HETATM   33  C21 UNL     1       6.976   4.263   0.238  1.00  0.00     0.036 C 
BRANCH  33  34
HETATM   34  C22 UNL     1       6.447   5.011  -1.004  1.00  0.00     0.102 C 
HETATM   35  C23 UNL     1       7.397   6.188  -1.285  1.00  0.00     0.030 C 
HETATM   36  C24 UNL     1       6.394   4.078  -2.220  1.00  0.00     0.030 C 
BRANCH  34  37
HETATM   37  O4  UNL     1       5.178   5.479  -0.667  1.00  0.00    -0.307 OA
BRANCH  37  38
HETATM   38  C25 UNL     1       4.432   6.198  -1.546  1.00  0.00     0.272 C 
HETATM   39  C26 UNL     1       3.126   6.609  -0.897  1.00  0.00     0.106 C 
HETATM   40  O5  UNL     1       4.742   6.489  -2.679  1.00  0.00    -0.264 OA
ENDBRANCH  37  38
ENDBRANCH  34  37
ENDBRANCH  33  34
ENDBRANCH  32  33
ENDBRANCH  30  32
ENDBRANCH  27  30
ENDBRANCH  17  27
TORSDOF 7
