REMARK  3 active torsions:
REMARK  status: ('A' for Active; 'I' for Inactive)
REMARK    1  A    between atoms: C5_5  and  C18_22 
REMARK    2  A    between atoms: C18_22  and  O5_23 
REMARK    3  A    between atoms: O5_23  and  C19_24 
ROOT
HETATM    1  C1  UNL     1       5.013  -1.434  -1.252  1.00  0.00     0.033 C 
HETATM    2  C2  UNL     1       5.904  -0.389  -0.581  1.00  0.00     0.003 C 
HETATM    3  C3  UNL     1       5.171   0.943  -0.304  1.00  0.00     0.000 C 
HETATM    4  C4  UNL     1       3.805   0.637   0.386  1.00  0.00     0.007 C 
HETATM    5  C5  UNL     1       2.837  -0.445  -0.225  1.00  0.00     0.057 C 
HETATM    6  C6  UNL     1       3.742  -1.695  -0.442  1.00  0.00     0.154 C 
HETATM    7  O1  UNL     1       3.081  -2.761  -1.080  1.00  0.00    -0.223 OA
HETATM    8  C7  UNL     1       1.707  -0.722   0.853  1.00  0.00     0.017 C 
HETATM    9  C8  UNL     1       1.062   0.507   1.573  1.00  0.00     0.112 C 
HETATM   10  C9  UNL     1       2.113   1.536   1.996  1.00  0.00     0.161 C 
HETATM   11  C10 UNL     1       3.043   1.895   0.844  1.00  0.00     0.034 C 
HETATM   12  O2  UNL     1       1.552   2.715   2.528  1.00  0.00    -0.223 OA
HETATM   13  C11 UNL     1      -0.146   1.043   0.781  1.00  0.00     0.165 C 
HETATM   14  C12 UNL     1      -1.206  -0.039   0.971  1.00  0.00     0.056 C 
HETATM   15  C13 UNL     1      -0.790  -1.268   0.160  1.00  0.00     0.007 C 
HETATM   16  C14 UNL     1       0.611  -1.784   0.546  1.00  0.00     0.001 C 
HETATM   17  C15 UNL     1      -1.051  -0.308   2.441  1.00  0.00     0.015 C 
HETATM   18  C16 UNL     1       0.346  -0.026   2.827  1.00  0.00     0.173 C 
HETATM   19  O3  UNL     1       0.842  -0.196   3.932  1.00  0.00    -0.291 OA
HETATM   20  C17 UNL     1      -1.995  -0.745   3.291  1.00  0.00    -0.002 C 
HETATM   21  O4  UNL     1      -0.646   2.228   1.353  1.00  0.00    -0.223 OA
HETATM   22  C21 UNL     1       6.102   1.743   0.652  1.00  0.00     0.000 C 
HETATM   23  C22 UNL     1       5.081   1.789  -1.592  1.00  0.00     0.000 C 
ENDROOT
BRANCH   5  24
HETATM   24  C18 UNL     1       2.258   0.039  -1.571  1.00  0.00     0.154 C 
BRANCH  24  25
HETATM   25  O5  UNL     1       1.379  -0.890  -2.142  1.00  0.00    -0.302 OA
BRANCH  25  26
HETATM   26  C19 UNL     1       0.711  -0.509  -3.263  1.00  0.00     0.272 C 
HETATM   27  C20 UNL     1      -0.200  -1.619  -3.749  1.00  0.00     0.106 C 
HETATM   28  O6  UNL     1       0.813   0.572  -3.798  1.00  0.00    -0.264 OA
ENDBRANCH  25  26
ENDBRANCH  24  25
ENDBRANCH   5  24
TORSDOF 3
