REMARK  9 active torsions:
REMARK  status: ('A' for Active; 'I' for Inactive)
REMARK    1  A    between atoms: C1_1  and  C2_2 
REMARK    2  A    between atoms: C3_3  and  C4_4 
REMARK    3  A    between atoms: C4_4  and  C5_5 
REMARK    4  A    between atoms: C5_5  and  C6_6 
REMARK    5  A    between atoms: C6_6  and  C7_7 
REMARK    6  A    between atoms: C7_7  and  C8_8 
REMARK    7  A    between atoms: C10_10  and  C11_11 
REMARK    8  A    between atoms: C12_12  and  C13_13 
REMARK    9  A    between atoms: C14_14  and  C15_15 
ROOT
HETATM    1  C1  UNL     1       8.207  -0.284   0.356  1.00  0.00     0.008 C 
HETATM    2  C10 UNL     1       7.261  -1.158  -0.039  1.00  0.00     0.050 C 
ENDROOT
BRANCH   1   3
HETATM    3  C2  UNL     1       9.621  -0.673   0.439  1.00  0.00    -0.004 C 
HETATM    4  C3  UNL     1      10.586   0.174   0.848  1.00  0.00    -0.026 C 
BRANCH   4   5
HETATM    5  C4  UNL     1      12.039  -0.218   0.972  1.00  0.00     0.026 C 
BRANCH   5   6
HETATM    6  C5  UNL     1      12.936   0.594   0.025  1.00  0.00     0.005 C 
BRANCH   6   7
HETATM    7  C6  UNL     1      14.405   0.149   0.122  1.00  0.00     0.005 C 
BRANCH   7   8
HETATM    8  C7  UNL     1      15.326   0.957  -0.804  1.00  0.00     0.026 C 
BRANCH   8   9
HETATM    9  C8  UNL     1      16.747   0.460  -0.714  1.00  0.00    -0.026 C 
HETATM   10  C9  UNL     1      17.766   1.179  -0.221  1.00  0.00    -0.005 C 
ENDBRANCH   8   9
ENDBRANCH   7   8
ENDBRANCH   6   7
ENDBRANCH   5   6
ENDBRANCH   4   5
ENDBRANCH   1   3
BRANCH   2  11
HETATM   11  C11 UNL     1       5.835  -0.779  -0.097  1.00  0.00    -0.050 C 
HETATM   12  C12 UNL     1       4.656  -0.502  -0.135  1.00  0.00    -0.009 C 
BRANCH  12  13
HETATM   13  C13 UNL     1       3.237  -0.203  -0.171  1.00  0.00    -0.009 C 
HETATM   14  C14 UNL     1       2.046   0.025  -0.194  1.00  0.00    -0.051 C 
BRANCH  14  15
HETATM   15  C15 UNL     1       0.592   0.277  -0.214  1.00  0.00     0.045 C 
HETATM   16  C16 UNL     1      -0.273  -0.747  -0.181  1.00  0.00    -0.017 C 
HETATM   17  C17 UNL     1      -1.770  -0.588  -0.195  1.00  0.00     0.031 C 
ENDBRANCH  14  15
ENDBRANCH  12  13
ENDBRANCH   2  11
TORSDOF 9
