REMARK  2 active torsions:
REMARK  status: ('A' for Active; 'I' for Inactive)
REMARK    1  A    between atoms: C1_1  and  C15_16 
REMARK    2  A    between atoms: C5_5  and  C7_7 
ROOT
HETATM    1  C1  UNL     1       2.091  -0.590  -1.803  1.00  0.00     0.010 A 
HETATM    2  C2  UNL     1       1.477  -0.613  -3.053  1.00  0.00     0.000 A 
HETATM    3  C3  UNL     1       0.086  -0.632  -3.123  1.00  0.00     0.027 A 
HETATM    4  C4  UNL     1      -0.725  -0.650  -1.983  1.00  0.00     0.127 A 
HETATM    5  C5  UNL     1      -0.132  -0.634  -0.703  1.00  0.00     0.002 A 
HETATM    6  C6  UNL     1       1.273  -0.603  -0.671  1.00  0.00    -0.004 A 
HETATM    7  O1  UNL     1      -2.069  -0.599  -2.176  1.00  0.00    -0.191 OA
ENDROOT
BRANCH   5   8
HETATM    8  C7  UNL     1      -0.945  -0.633   0.614  1.00  0.00     0.021 C 
HETATM    9  C8  UNL     1      -1.302   0.824   1.049  1.00  0.00     0.004 C 
HETATM   10  C9  UNL     1       0.003   1.313   1.716  1.00  0.00     0.000 C 
HETATM   11  C12 UNL     1      -2.444   0.877   2.090  1.00  0.00     0.000 C 
HETATM   12  C13 UNL     1      -1.682   1.782  -0.097  1.00  0.00     0.000 C 
HETATM   13  C10 UNL     1       0.546   0.106   2.490  1.00  0.00     0.000 C 
HETATM   14  C11 UNL     1      -0.098  -1.124   1.826  1.00  0.00     0.004 C 
HETATM   15  C14 UNL     1      -2.159  -1.589   0.522  1.00  0.00     0.004 C 
ENDBRANCH   5   8
BRANCH   1  16
HETATM   16  C15 UNL     1       3.593  -0.529  -1.667  1.00  0.00     0.209 C 
HETATM   17  O2  UNL     1       3.986   0.531  -0.804  1.00  0.00    -0.215 OA
ENDBRANCH   1  16
TORSDOF 2
