REMARK  8 active torsions:
REMARK  status: ('A' for Active; 'I' for Inactive)
REMARK    1  A    between atoms: C1_1  and  O7_36 
REMARK    2  A    between atoms: C2_2  and  O6_34 
REMARK    3  A    between atoms: C14_15  and  O5_31 
REMARK    4  A    between atoms: C15_16  and  O1_18 
REMARK    5  A    between atoms: O1_18  and  C17_19 
REMARK    6  A    between atoms: C19_21  and  O4_29 
REMARK    7  A    between atoms: C20_22  and  O3_27 
REMARK    8  A    between atoms: C22_24  and  C23_25 
ROOT
HETATM    1  C1  UNL     1      -0.750   4.797  -0.861  1.00  0.00     0.116 C 
HETATM    2  C2  UNL     1      -0.812   3.392  -0.778  1.00  0.00     0.116 C 
HETATM    3  C3  UNL     1       0.365   2.634  -0.965  1.00  0.00     0.022 C 
HETATM    4  C4  UNL     1       1.625   3.253  -0.997  1.00  0.00     0.007 C 
HETATM    5  C5  UNL     1       1.696   4.638  -0.848  1.00  0.00    -0.020 C 
HETATM    6  C6  UNL     1       0.520   5.388  -0.826  1.00  0.00     0.022 C 
HETATM    7  C7  UNL     1       3.030   5.308  -0.668  1.00  0.00     0.061 C 
HETATM    8  C8  UNL     1       4.038   4.292  -0.118  1.00  0.00     0.255 C 
HETATM    9  N1  UNL     1       4.112   3.167  -1.031  1.00  0.00     0.142 N 
HETATM   10  C9  UNL     1       2.873   2.389  -1.083  1.00  0.00     0.246 C 
HETATM   11  C10 UNL     1       2.693   1.282  -0.026  1.00  0.00     0.064 C 
HETATM   12  C11 UNL     1       1.467   0.483  -0.415  1.00  0.00    -0.018 C 
HETATM   13  C12 UNL     1       0.362   1.150  -0.962  1.00  0.00    -0.000 C 
HETATM   14  C13 UNL     1      -0.669   0.368  -1.496  1.00  0.00     0.026 C 
HETATM   15  C14 UNL     1      -0.756  -1.012  -1.292  1.00  0.00     0.117 C 
HETATM   16  C15 UNL     1       0.346  -1.681  -0.727  1.00  0.00     0.122 C 
HETATM   17  C16 UNL     1       1.447  -0.913  -0.325  1.00  0.00     0.022 C 
HETATM   18  C27 UNL     1       5.289   2.356  -0.764  1.00  0.00     0.286 C 
ENDROOT
BRANCH  16  19
HETATM   19  O1  UNL     1       0.280  -3.045  -0.609  1.00  0.00    -0.305 OA
BRANCH  19  20
HETATM   20  C17 UNL     1       1.121  -3.674   0.267  1.00  0.00     0.105 C 
HETATM   21  C18 UNL     1       1.998  -4.656  -0.200  1.00  0.00     0.051 C 
HETATM   22  C19 UNL     1       2.855  -5.431   0.600  1.00  0.00     0.118 C 
HETATM   23  C20 UNL     1       2.977  -5.086   1.962  1.00  0.00     0.117 C 
HETATM   24  C21 UNL     1       2.064  -4.137   2.450  1.00  0.00     0.032 C 
HETATM   25  C22 UNL     1       1.132  -3.461   1.657  1.00  0.00     0.067 C 
BRANCH  22  26
HETATM   26  O4  UNL     1       3.655  -6.356  -0.018  1.00  0.00    -0.326 OA
HETATM   27  C25 UNL     1       2.969  -7.513  -0.444  1.00  0.00     0.181 C 
ENDBRANCH  22  26
BRANCH  23  28
HETATM   28  O3  UNL     1       3.816  -5.649   2.897  1.00  0.00    -0.326 OA
HETATM   29  C24 UNL     1       4.584  -6.790   2.604  1.00  0.00     0.181 C 
ENDBRANCH  23  28
BRANCH  25  30
HETATM   30  C23 UNL     1       0.189  -2.513   2.300  1.00  0.00     0.236 C 
HETATM   31  O2  UNL     1       0.236  -2.207   3.484  1.00  0.00    -0.283 OA
ENDBRANCH  25  30
ENDBRANCH  19  20
ENDBRANCH  16  19
BRANCH  15  32
HETATM   32  O5  UNL     1      -1.789  -1.725  -1.843  1.00  0.00    -0.326 OA
HETATM   33  C26 UNL     1      -2.907  -1.834  -0.992  1.00  0.00     0.181 C 
ENDBRANCH  15  32
BRANCH   2  34
HETATM   34  O6  UNL     1      -2.050   2.802  -0.719  1.00  0.00    -0.326 OA
HETATM   35  C28 UNL     1      -2.487   2.538   0.595  1.00  0.00     0.181 C 
ENDBRANCH   2  34
BRANCH   1  36
HETATM   36  O7  UNL     1      -1.927   5.504  -0.794  1.00  0.00    -0.326 OA
HETATM   37  C29 UNL     1      -1.878   6.882  -0.505  1.00  0.00     0.181 C 
ENDBRANCH   1  36
TORSDOF 8
