REMARK  3 active torsions:
REMARK  status: ('A' for Active; 'I' for Inactive)
REMARK    1  A    between atoms: C12_12  and  O3_18 
REMARK    2  A    between atoms: C13_13  and  O2_16 
REMARK    3  A    between atoms: C17_20  and  O6_27 
ROOT
HETATM    1  C1  UNL     1       4.093   1.535  -0.015  1.00  0.00     0.175 C 
HETATM    2  C2  UNL     1       2.756   2.202  -0.152  1.00  0.00     0.008 A 
HETATM    3  C3  UNL     1       1.712   1.279  -0.202  1.00  0.00     0.006 A 
HETATM    4  C4  UNL     1       2.249  -0.123  -0.052  1.00  0.00     0.068 C 
HETATM    5  C5  UNL     1       2.127  -0.536   1.381  1.00  0.00     0.016 C 
HETATM    6  C6  UNL     1       3.446  -0.614   2.087  1.00  0.00     0.001 C 
HETATM    7  C7  UNL     1       4.422  -0.811   0.915  1.00  0.00     0.003 C 
HETATM    8  C8  UNL     1       3.800   0.023  -0.242  1.00  0.00     0.041 C 
HETATM    9  C9  UNL     1       4.346  -0.417  -1.612  1.00  0.00     0.004 C 
HETATM   10  C10 UNL     1       4.572  -2.314   0.616  1.00  0.00     0.000 C 
HETATM   11  C11 UNL     1       0.885  -1.208   1.867  1.00  0.00     0.054 C 
HETATM   12  C12 UNL     1       0.056  -2.014   0.921  1.00  0.00     0.096 C 
HETATM   13  C13 UNL     1       0.413  -2.040  -0.398  1.00  0.00     0.134 C 
HETATM   14  C14 UNL     1       1.508  -1.119  -0.933  1.00  0.00     0.135 C 
HETATM   15  O1  UNL     1       1.735  -1.120  -2.232  1.00  0.00    -0.192 OA
HETATM   16  C17 UNL     1       0.365   1.665  -0.324  1.00  0.00     0.114 A 
HETATM   17  C18 UNL     1       0.167   3.049  -0.267  1.00  0.00     0.141 A 
HETATM   18  C19 UNL     1       1.206   3.976  -0.213  1.00  0.00     0.121 A 
HETATM   19  C20 UNL     1       2.539   3.582  -0.167  1.00  0.00     0.024 A 
HETATM   20  O4  UNL     1       0.681   5.253  -0.186  1.00  0.00    -0.299 OA
HETATM   21  C21 UNL     1      -0.746   5.137  -0.217  1.00  0.00     0.304 A 
HETATM   22  O5  UNL     1      -1.034   3.736  -0.281  1.00  0.00    -0.298 OA
HETATM   23  O7  UNL     1       5.027   2.076  -0.928  1.00  0.00    -0.219 OA
ENDROOT
BRANCH  12  24
HETATM   24  O3  UNL     1      -0.930  -2.795   1.463  1.00  0.00    -0.330 OA
HETATM   25  C16 UNL     1      -2.059  -2.065   1.890  1.00  0.00     0.181 C 
ENDBRANCH  12  24
BRANCH  13  26
HETATM   26  O2  UNL     1      -0.146  -2.777  -1.417  1.00  0.00    -0.325 OA
HETATM   27  C15 UNL     1      -1.203  -3.673  -1.182  1.00  0.00     0.182 C 
ENDBRANCH  13  26
BRANCH  16  28
HETATM   28  O6  UNL     1      -0.678   0.784  -0.272  1.00  0.00    -0.326 OA
HETATM   29  C22 UNL     1      -1.364   0.626  -1.492  1.00  0.00     0.181 C 
ENDBRANCH  16  28
TORSDOF 3
