REMARK  5 active torsions:
REMARK  status: ('A' for Active; 'I' for Inactive)
REMARK    1  A    between atoms: C1_1  and  O7_29 
REMARK    2  A    between atoms: C12_12  and  O3_18 
REMARK    3  A    between atoms: C13_13  and  O2_16 
REMARK    4  A    between atoms: O7_29  and  C23_30 
REMARK    5  A    between atoms: C23_30  and  C24_32 
ROOT
HETATM    1  C1  UNL     1       1.946   1.692   0.874  1.00  0.00     0.146 C 
HETATM    2  C2  UNL     1       0.631   1.854   0.136  1.00  0.00     0.006 A 
HETATM    3  C3  UNL     1      -0.229   0.768  -0.105  1.00  0.00     0.008 A 
HETATM    4  C4  UNL     1       0.002  -0.711   0.100  1.00  0.00     0.093 C 
HETATM    5  C5  UNL     1       0.690  -1.103   1.378  1.00  0.00     0.018 C 
HETATM    6  C6  UNL     1       0.277  -0.535   2.712  1.00  0.00     0.001 C 
HETATM    7  C7  UNL     1       0.387   0.989   2.882  1.00  0.00     0.003 C 
HETATM    8  C8  UNL     1       1.722   1.621   2.407  1.00  0.00     0.032 C 
HETATM    9  C9  UNL     1       2.956   1.067   3.142  1.00  0.00     0.003 C 
HETATM   10  C10 UNL     1       0.069   1.353   4.350  1.00  0.00     0.000 C 
HETATM   11  C11 UNL     1       1.485  -2.383   1.351  1.00  0.00     0.054 C 
HETATM   12  C12 UNL     1       1.410  -3.291   0.166  1.00  0.00     0.096 C 
HETATM   13  C13 UNL     1       1.266  -2.693  -1.048  1.00  0.00     0.134 C 
HETATM   14  C14 UNL     1       0.795  -1.252  -1.091  1.00  0.00     0.138 C 
HETATM   15  O1  UNL     1       0.969  -0.501  -2.158  1.00  0.00    -0.192 OA
HETATM   16  C17 UNL     1      -1.448  -1.247  -0.034  1.00  0.00     0.159 C 
HETATM   17  O4  UNL     1      -2.182  -0.257  -0.755  1.00  0.00    -0.328 OA
HETATM   18  C18 UNL     1      -1.500   0.939  -0.653  1.00  0.00     0.114 A 
HETATM   19  C19 UNL     1      -1.939   2.219  -0.980  1.00  0.00     0.141 A 
HETATM   20  C20 UNL     1      -1.095   3.298  -0.755  1.00  0.00     0.121 A 
HETATM   21  C21 UNL     1       0.173   3.142  -0.191  1.00  0.00     0.024 A 
HETATM   22  O5  UNL     1      -1.749   4.457  -1.124  1.00  0.00    -0.299 OA
HETATM   23  C22 UNL     1      -3.052   4.093  -1.600  1.00  0.00     0.304 A 
HETATM   24  O6  UNL     1      -3.140   2.666  -1.501  1.00  0.00    -0.298 OA
ENDROOT
BRANCH   1  25
HETATM   25  O7  UNL     1       2.714   0.611   0.413  1.00  0.00    -0.297 OA
BRANCH  25  26
HETATM   26  C23 UNL     1       3.501   0.650  -0.711  1.00  0.00     0.292 C 
HETATM   27  O8  UNL     1       4.129  -0.377  -0.962  1.00  0.00    -0.260 OA
BRANCH  26  28
HETATM   28  C24 UNL     1       3.778   1.814  -1.623  1.00  0.00     0.037 C 
HETATM   29  C25 UNL     1       4.010   3.210  -1.091  1.00  0.00     0.036 C 
HETATM   30  C26 UNL     1       3.947   1.613  -2.949  1.00  0.00    -0.025 C 
HETATM   31  C27 UNL     1       3.837   0.330  -3.728  1.00  0.00     0.030 C 
ENDBRANCH  26  28
ENDBRANCH  25  26
ENDBRANCH   1  25
BRANCH  13  32
HETATM   32  O2  UNL     1       1.227  -3.407  -2.215  1.00  0.00    -0.325 OA
HETATM   33  C15 UNL     1       2.490  -3.632  -2.797  1.00  0.00     0.182 C 
ENDBRANCH  13  32
BRANCH  12  34
HETATM   34  O3  UNL     1       1.804  -4.597   0.275  1.00  0.00    -0.330 OA
HETATM   35  C16 UNL     1       0.722  -5.490   0.412  1.00  0.00     0.181 C 
ENDBRANCH  12  34
TORSDOF 5
