REMARK  0 active torsions:
REMARK  status: ('A' for Active; 'I' for Inactive)
ROOT
HETATM    1  C1  UNL     1       0.600   0.795   0.742  1.00  0.00     0.034 C 
HETATM    2  C2  UNL     1      -0.532  -0.240   0.489  1.00  0.00     0.041 C 
HETATM    3  C3  UNL     1      -0.064  -1.668   0.807  1.00  0.00     0.036 C 
HETATM    4  C4  UNL     1       0.737  -1.866  -0.469  1.00  0.00     0.219 C 
HETATM    5  C5  UNL     1       1.969  -0.955  -0.519  1.00  0.00     0.034 C 
HETATM    6  C6  UNL     1       1.561   0.513  -0.457  1.00  0.00     0.012 C 
HETATM    7  C7  UNL     1       2.815   1.402  -0.559  1.00  0.00     0.022 C 
HETATM    8  C8  UNL     1       2.404   2.845  -0.612  1.00  0.00    -0.040 C 
HETATM    9  C9  UNL     1       0.933   3.002  -0.321  1.00  0.00     0.079 C 
HETATM   10  C10 UNL     1       0.751   2.294   1.056  1.00  0.00     0.158 C 
HETATM   11  O1  UNL     1      -0.313   2.858   1.801  1.00  0.00    -0.223 OA
HETATM   12  C11 UNL     1       0.253   2.284  -1.530  1.00  0.00     0.160 C 
HETATM   13  C12 UNL     1       0.548   0.753  -1.585  1.00  0.00     0.063 C 
HETATM   14  C13 UNL     1      -0.534  -0.258  -1.082  1.00  0.00     0.222 C 
HETATM   15  N1  UNL     1      -0.297  -1.645  -1.533  1.00  0.00     0.133 N 
HETATM   16  C14 UNL     1      -1.037  -2.816  -1.006  1.00  0.00     0.251 C 
HETATM   17  C15 UNL     1      -1.095  -2.777   0.544  1.00  0.00     0.040 C 
HETATM   18  C16 UNL     1      -2.483  -2.436   1.106  1.00  0.00     0.067 C 
HETATM   19  C17 UNL     1      -2.913  -1.026   0.771  1.00  0.00     0.151 C 
HETATM   20  C18 UNL     1      -1.904   0.041   1.138  1.00  0.00     0.067 C 
HETATM   21  O2  UNL     1      -3.999  -0.775   0.301  1.00  0.00    -0.296 OA
HETATM   22  C19 UNL     1      -0.660  -4.129   1.148  1.00  0.00     0.003 C 
HETATM   23  O3  UNL     1      -1.130   2.544  -1.531  1.00  0.00    -0.223 OA
HETATM   24  C20 UNL     1       3.243   3.854  -0.881  1.00  0.00    -0.009 C 
ENDROOT
TORSDOF 0
