REMARK  13 active torsions:
REMARK  status: ('A' for Active; 'I' for Inactive)
REMARK    1  A    between atoms: C2_2  and  C3_3 
REMARK    2  A    between atoms: C4_4  and  C5_5 
REMARK    3  A    between atoms: C5_5  and  C6_6 
REMARK    4  A    between atoms: C6_6  and  C7_7 
REMARK    5  A    between atoms: C7_7  and  C8_8 
REMARK    6  A    between atoms: C8_8  and  C9_9 
REMARK    7  A    between atoms: C9_9  and  C10_10 
REMARK    8  A    between atoms: C10_10  and  C11_11 
REMARK    9  A    between atoms: C11_11  and  C12_12 
REMARK   10  A    between atoms: C12_12  and  C13_13 
REMARK   11  A    between atoms: C13_13  and  C14_14 
REMARK   12  A    between atoms: C14_14  and  C15_15 
REMARK   13  A    between atoms: C15_15  and  C16_16 
ROOT
HETATM    1  C9  UNL     1       1.501   2.135   1.349  1.00  0.00     0.000 C 
ENDROOT
BRANCH   1   2
HETATM    2  C8  UNL     1       1.698   0.629   1.107  1.00  0.00     0.000 C 
BRANCH   2   3
HETATM    3  C7  UNL     1       0.455  -0.176   1.521  1.00  0.00     0.000 C 
BRANCH   3   4
HETATM    4  C6  UNL     1       0.592  -1.675   1.210  1.00  0.00     0.004 C 
BRANCH   4   5
HETATM    5  C5  UNL     1      -0.689  -2.443   1.573  1.00  0.00     0.026 C 
BRANCH   5   6
HETATM    6  C4  UNL     1      -0.547  -3.921   1.308  1.00  0.00    -0.030 C 
HETATM    7  C3  UNL     1      -1.320  -4.608   0.453  1.00  0.00    -0.030 C 
BRANCH   7   8
HETATM    8  C2  UNL     1      -1.192  -6.090   0.203  1.00  0.00     0.026 C 
HETATM    9  C1  UNL     1      -2.507  -6.817   0.515  1.00  0.00     0.005 C 
ENDBRANCH   7   8
ENDBRANCH   5   6
ENDBRANCH   4   5
ENDBRANCH   3   4
ENDBRANCH   2   3
ENDBRANCH   1   2
BRANCH   1  10
HETATM   10  C10 UNL     1       2.626   2.989   0.737  1.00  0.00     0.000 C 
BRANCH  10  11
HETATM   11  C11 UNL     1       2.246   4.471   0.558  1.00  0.00     0.000 C 
BRANCH  11  12
HETATM   12  C12 UNL     1       1.596   4.851  -0.790  1.00  0.00     0.000 C 
BRANCH  12  13
HETATM   13  C13 UNL     1       0.194   4.273  -1.057  1.00  0.00     0.000 C 
BRANCH  13  14
HETATM   14  C14 UNL     1       0.209   2.910  -1.771  1.00  0.00     0.000 C 
BRANCH  14  15
HETATM   15  C15 UNL     1      -1.128   2.162  -1.638  1.00  0.00     0.000 C 
BRANCH  15  16
HETATM   16  C16 UNL     1      -1.050   0.740  -2.217  1.00  0.00     0.000 C 
HETATM   17  C17 UNL     1      -2.349  -0.043  -1.990  1.00  0.00     0.000 C 
ENDBRANCH  15  16
ENDBRANCH  14  15
ENDBRANCH  13  14
ENDBRANCH  12  13
ENDBRANCH  11  12
ENDBRANCH  10  11
ENDBRANCH   1  10
TORSDOF 13
