REMARK  11 active torsions:
REMARK  status: ('A' for Active; 'I' for Inactive)
REMARK    1  A    between atoms: C3_3  and  C7_8 
REMARK    2  A    between atoms: C7_8  and  C8_9 
REMARK    3  A    between atoms: C8_9  and  C9_10 
REMARK    4  A    between atoms: C9_10  and  O2_11 
REMARK    5  A    between atoms: O2_11  and  C10_12 
REMARK    6  A    between atoms: C25_27  and  C37_41 
REMARK    7  A    between atoms: C28_30  and  C36_38 
REMARK    8  A    between atoms: C37_41  and  O5_42 
REMARK    9  A    between atoms: O5_42  and  C38_43 
REMARK   10  A    between atoms: C38_43  and  C39_44 
REMARK   11  A    between atoms: C40_45  and  C41_46 
ROOT
HETATM    1  C10 UNL     1       2.096   3.996  -0.479  1.00  0.00     0.118 C 
HETATM    2  C11 UNL     1       1.879   3.420   0.921  1.00  0.00     0.030 C 
HETATM    3  C12 UNL     1       0.384   3.245   1.188  1.00  0.00     0.003 C 
HETATM    4  C13 UNL     1      -0.344   2.283   0.208  1.00  0.00     0.001 C 
HETATM    5  C14 UNL     1       0.051   2.629  -1.260  1.00  0.00     0.002 C 
HETATM    6  C15 UNL     1       1.522   3.071  -1.581  1.00  0.00     0.025 C 
HETATM    7  C16 UNL     1       2.537   1.921  -1.772  1.00  0.00     0.002 C 
HETATM    8  C17 UNL     1       1.558   3.832  -2.938  1.00  0.00     0.002 C 
HETATM    9  C18 UNL     1      -0.585   1.597  -2.220  1.00  0.00     0.000 C 
HETATM   10  C19 UNL     1      -0.299   0.119  -1.919  1.00  0.00     0.000 C 
HETATM   11  C20 UNL     1      -0.483  -0.341  -0.450  1.00  0.00     0.006 C 
HETATM   12  C21 UNL     1      -0.016   0.784   0.526  1.00  0.00     0.005 C 
HETATM   13  C22 UNL     1      -0.297   0.345   1.975  1.00  0.00     0.025 C 
HETATM   14  C23 UNL     1      -0.155  -1.132   2.230  1.00  0.00    -0.035 C 
HETATM   15  C24 UNL     1       0.084  -2.076   1.302  1.00  0.00    -0.046 C 
HETATM   16  C25 UNL     1       0.347  -1.675  -0.150  1.00  0.00     0.043 C 
HETATM   17  C26 UNL     1      -0.092  -2.808  -1.115  1.00  0.00     0.007 C 
HETATM   18  C27 UNL     1       0.143  -4.252  -0.643  1.00  0.00     0.011 C 
HETATM   19  C28 UNL     1      -0.422  -4.530   0.768  1.00  0.00     0.082 C 
HETATM   20  C29 UNL     1       0.189  -3.522   1.764  1.00  0.00     0.028 C 
HETATM   21  C30 UNL     1       1.598  -3.938   2.215  1.00  0.00     0.004 C 
HETATM   22  C31 UNL     1       1.620  -5.288   2.970  1.00  0.00     0.000 C 
HETATM   23  C32 UNL     1       0.359  -6.120   2.640  1.00  0.00     0.001 C 
HETATM   24  C33 UNL     1      -0.066  -5.985   1.171  1.00  0.00     0.011 C 
HETATM   25  C34 UNL     1       1.671  -5.037   4.492  1.00  0.00     0.000 C 
HETATM   26  C35 UNL     1       2.895  -6.071   2.578  1.00  0.00     0.000 C 
HETATM   27  C47 UNL     1      -2.000  -0.630  -0.245  1.00  0.00     0.000 C 
HETATM   28  C48 UNL     1      -1.844   2.651   0.419  1.00  0.00     0.000 C 
ENDROOT
BRANCH  16  29
HETATM   29  C37 UNL     1       1.882  -1.439  -0.259  1.00  0.00     0.156 C 
BRANCH  29  30
HETATM   30  O5  UNL     1       2.593  -2.598  -0.587  1.00  0.00    -0.298 OA
BRANCH  30  31
HETATM   31  C38 UNL     1       3.947  -2.598  -0.414  1.00  0.00     0.296 C 
HETATM   32  O8  UNL     1       4.557  -1.549  -0.223  1.00  0.00    -0.259 OA
BRANCH  31  33
HETATM   33  C39 UNL     1       4.660  -3.890  -0.278  1.00  0.00     0.068 C 
HETATM   34  C40 UNL     1       5.984  -3.987  -0.004  1.00  0.00     0.005 C 
BRANCH  34  35
HETATM   35  C41 UNL     1       6.722  -5.245   0.176  1.00  0.00     0.002 A 
HETATM   36  C42 UNL     1       8.114  -5.189   0.357  1.00  0.00     0.002 A 
HETATM   37  C43 UNL     1       8.851  -6.353   0.563  1.00  0.00     0.029 A 
HETATM   38  C44 UNL     1       8.230  -7.606   0.601  1.00  0.00     0.156 A 
HETATM   39  C45 UNL     1       6.844  -7.679   0.431  1.00  0.00     0.156 A 
HETATM   40  O7  UNL     1       8.935  -8.748   0.807  1.00  0.00    -0.188 OA
HETATM   41  C46 UNL     1       6.112  -6.507   0.225  1.00  0.00     0.029 A 
HETATM   42  O6  UNL     1       6.225  -8.888   0.477  1.00  0.00    -0.188 OA
ENDBRANCH  34  35
ENDBRANCH  31  33
ENDBRANCH  30  31
ENDBRANCH  29  30
ENDBRANCH  16  29
BRANCH  19  43
HETATM   43  C36 UNL     1      -1.950  -4.429   0.688  1.00  0.00     0.184 C 
HETATM   44  O3  UNL     1      -2.636  -4.791  -0.240  1.00  0.00    -0.647 OA
HETATM   45  O4  UNL     1      -2.526  -3.922   1.792  1.00  0.00    -0.647 OA
ENDBRANCH  19  43
BRANCH   1  46
HETATM   46  O2  UNL     1       1.514   5.271  -0.528  1.00  0.00    -0.332 OA
BRANCH  46  47
HETATM   47  C9  UNL     1       2.216   6.312  -1.057  1.00  0.00     0.270 C 
HETATM   48  O9  UNL     1       3.495   6.223  -1.369  1.00  0.00    -0.190 OA
BRANCH  47  49
HETATM   49  C8  UNL     1       1.508   7.594  -1.478  1.00  0.00     0.069 C 
BRANCH  49  50
HETATM   50  C7  UNL     1       1.988   8.929  -0.971  1.00  0.00     0.027 C 
BRANCH  50  51
HETATM   51  C3  UNL     1       1.490  10.209  -1.584  1.00  0.00    -0.048 C 
HETATM   52  C2  UNL     1       2.422  11.079  -2.237  1.00  0.00     0.024 C 
HETATM   53  C1  UNL     1       2.005  12.458  -2.672  1.00  0.00     0.038 C 
HETATM   54  C6  UNL     1       0.531  12.743  -2.842  1.00  0.00     0.157 C 
HETATM   55  C5  UNL     1      -0.401  11.697  -2.274  1.00  0.00     0.058 C 
HETATM   56  O1  UNL     1       0.113  14.031  -2.950  1.00  0.00    -0.223 OA
HETATM   57  C4  UNL     1       0.159  10.515  -1.542  1.00  0.00    -0.032 C 
ENDBRANCH  50  51
ENDBRANCH  49  50
ENDBRANCH  47  49
ENDBRANCH  46  47
ENDBRANCH   1  46
TORSDOF 11
