REMARK  1 active torsions:
REMARK  status: ('A' for Active; 'I' for Inactive)
REMARK    1  A    between atoms: C12_12  and  C15_16 
ROOT
HETATM    1  C1  UNL     1       0.069   3.049  -0.193  1.00  0.00     0.000 C 
HETATM    2  C2  UNL     1      -1.253   2.280  -0.330  1.00  0.00     0.000 C 
HETATM    3  C3  UNL     1      -1.276   0.979   0.525  1.00  0.00     0.000 C 
HETATM    4  C4  UNL     1       0.047   0.171   0.312  1.00  0.00     0.004 C 
HETATM    5  C5  UNL     1       1.405   0.931   0.349  1.00  0.00     0.019 C 
HETATM    6  C6  UNL     1       1.275   2.177  -0.554  1.00  0.00     0.004 C 
HETATM    7  C7  UNL     1       2.522  -0.004  -0.137  1.00  0.00    -0.025 A 
HETATM    8  C8  UNL     1       2.423  -1.397  -0.003  1.00  0.00    -0.026 A 
HETATM    9  C9  UNL     1       1.183  -2.071   0.529  1.00  0.00     0.026 C 
HETATM   10  C10 UNL     1       0.163  -1.113   1.152  1.00  0.00     0.005 C 
HETATM   11  C11 UNL     1       3.496  -2.207  -0.391  1.00  0.00    -0.007 A 
HETATM   12  C12 UNL     1       4.683  -1.698  -0.926  1.00  0.00     0.003 A 
HETATM   13  C13 UNL     1       4.788  -0.308  -1.073  1.00  0.00     0.127 A 
HETATM   14  C14 UNL     1       3.721   0.496  -0.659  1.00  0.00     0.022 A 
HETATM   15  O1  UNL     1       5.906   0.278  -1.582  1.00  0.00    -0.191 OA
HETATM   16  C18 UNL     1       1.882   1.369   1.754  1.00  0.00     0.004 C 
HETATM   17  C19 UNL     1      -2.470   0.118   0.019  1.00  0.00     0.000 C 
HETATM   18  C20 UNL     1      -1.567   1.281   2.011  1.00  0.00     0.000 C 
HETATM   19  C21 UNL     1      -2.413   3.264  -0.077  1.00  0.00     0.000 C 
ENDROOT
BRANCH  12  20
HETATM   20  C15 UNL     1       5.846  -2.593  -1.330  1.00  0.00     0.024 C 
HETATM   21  C16 UNL     1       6.960  -2.514  -0.271  1.00  0.00     0.005 C 
HETATM   22  C17 UNL     1       5.479  -4.065  -1.587  1.00  0.00     0.005 C 
ENDBRANCH  12  20
TORSDOF 1
