REMARK  11 active torsions:
REMARK  status: ('A' for Active; 'I' for Inactive)
REMARK    1  A    between atoms: C5_5  and  C7_7 
REMARK    2  A    between atoms: C7_7  and  C8_8 
REMARK    3  A    between atoms: C8_8  and  C9_9 
REMARK    4  A    between atoms: C9_9  and  C10_10 
REMARK    5  A    between atoms: C10_10  and  C11_11 
REMARK    6  A    between atoms: C11_11  and  C12_12 
REMARK    7  A    between atoms: C11_11  and  O3_22 
REMARK    8  A    between atoms: C12_12  and  C13_13 
REMARK    9  A    between atoms: C13_13  and  C14_14 
REMARK   10  A    between atoms: O3_22  and  C20_23 
REMARK   11  A    between atoms: C21_25  and  C25_32 
ROOT
HETATM    1  C11 UNL     1       2.297   1.593  -0.130  1.00  0.00     0.126 C 
ENDROOT
BRANCH   1   2
HETATM    2  C10 UNL     1       3.837   1.587  -0.082  1.00  0.00     0.094 C 
BRANCH   2   3
HETATM    3  C9  UNL     1       4.514   0.246  -0.336  1.00  0.00     0.153 C 
HETATM    4  O9  UNL     1       3.891  -0.769  -0.549  1.00  0.00    -0.296 OA
BRANCH   3   5
HETATM    5  C8  UNL     1       6.038   0.232  -0.311  1.00  0.00     0.069 C 
BRANCH   5   6
HETATM    6  C7  UNL     1       6.636  -1.179  -0.442  1.00  0.00     0.034 C 
BRANCH   6   7
HETATM    7  C5  UNL     1       8.140  -1.294  -0.315  1.00  0.00    -0.020 A 
HETATM    8  C4  UNL     1       8.707  -2.526   0.027  1.00  0.00    -0.002 A 
HETATM    9  C3  UNL     1      10.089  -2.670   0.148  1.00  0.00     0.029 A 
HETATM   10  C2  UNL     1      10.953  -1.593  -0.067  1.00  0.00     0.156 A 
HETATM   11  C1  UNL     1      10.404  -0.350  -0.412  1.00  0.00     0.156 A 
HETATM   12  O10 UNL     1      12.297  -1.759   0.053  1.00  0.00    -0.188 OA
HETATM   13  C6  UNL     1       9.015  -0.224  -0.530  1.00  0.00     0.025 A 
HETATM   14  O11 UNL     1      11.205   0.725  -0.636  1.00  0.00    -0.188 OA
ENDBRANCH   6   7
ENDBRANCH   5   6
ENDBRANCH   3   5
ENDBRANCH   2   3
ENDBRANCH   1   2
BRANCH   1  15
HETATM   15  C12 UNL     1       1.702   0.653   0.935  1.00  0.00     0.035 C 
BRANCH  15  16
HETATM   16  C13 UNL     1       0.340   1.075   1.517  1.00  0.00     0.029 C 
BRANCH  16  17
HETATM   17  C14 UNL     1      -0.029   0.383   2.813  1.00  0.00    -0.020 A 
HETATM   18  C15 UNL     1      -0.636   1.101   3.849  1.00  0.00    -0.002 A 
HETATM   19  C16 UNL     1      -0.975   0.476   5.049  1.00  0.00     0.029 A 
HETATM   20  C17 UNL     1      -0.717  -0.882   5.251  1.00  0.00     0.156 A 
HETATM   21  C18 UNL     1      -0.117  -1.616   4.222  1.00  0.00     0.156 A 
HETATM   22  O2  UNL     1      -1.036  -1.507   6.414  1.00  0.00    -0.188 OA
HETATM   23  C19 UNL     1       0.210  -0.979   3.022  1.00  0.00     0.025 A 
HETATM   24  O1  UNL     1       0.139  -2.938   4.399  1.00  0.00    -0.188 OA
ENDBRANCH  16  17
ENDBRANCH  15  16
ENDBRANCH   1  15
BRANCH   1  25
HETATM   25  O3  UNL     1       1.942   1.292  -1.454  1.00  0.00    -0.331 OA
BRANCH  25  26
HETATM   26  C20 UNL     1       0.564   1.329  -1.750  1.00  0.00     0.270 C 
HETATM   27  O4  UNL     1       0.118  -0.000  -1.591  1.00  0.00    -0.326 OA
HETATM   28  C21 UNL     1      -1.249  -0.156  -1.861  1.00  0.00     0.184 C 
HETATM   29  C22 UNL     1      -1.533   0.232  -3.307  1.00  0.00     0.215 C 
HETATM   30  C23 UNL     1      -1.068   1.651  -3.564  1.00  0.00     0.220 C 
HETATM   31  O7  UNL     1      -2.911   0.171  -3.583  1.00  0.00    -0.218 OA
HETATM   32  C24 UNL     1       0.395   1.748  -3.193  1.00  0.00     0.241 C 
HETATM   33  O6  UNL     1      -1.238   1.963  -4.922  1.00  0.00    -0.218 OA
HETATM   34  O5  UNL     1       0.819   3.078  -3.350  1.00  0.00    -0.215 OA
BRANCH  28  35
HETATM   35  C25 UNL     1      -1.623  -1.603  -1.574  1.00  0.00     0.214 C 
HETATM   36  O8  UNL     1      -1.424  -1.884  -0.202  1.00  0.00    -0.218 OA
ENDBRANCH  28  35
ENDBRANCH  25  26
ENDBRANCH   1  25
TORSDOF 11
