REMARK  2 active torsions:
REMARK  status: ('A' for Active; 'I' for Inactive)
REMARK    1  A    between atoms: C4_6  and  C7_9 
REMARK    2  A    between atoms: C8_10  and  C9_11 
ROOT
HETATM    1  C7  UNL     1       0.471  -0.034  -0.456  1.00  0.00     0.002 C 
HETATM    2  C8  UNL     1      -0.141  -0.252   0.726  1.00  0.00     0.025 C 
ENDROOT
BRANCH   1   3
HETATM    3  C4  UNL     1       1.370   1.150  -0.676  1.00  0.00     0.002 A 
HETATM    4  C3  UNL     1       2.756   0.995  -0.615  1.00  0.00     0.029 A 
HETATM    5  C2  UNL     1       3.628   2.062  -0.855  1.00  0.00     0.156 A 
HETATM    6  C1  UNL     1       3.095   3.322  -1.160  1.00  0.00     0.156 A 
HETATM    7  O2  UNL     1       4.973   1.866  -0.803  1.00  0.00    -0.188 OA
HETATM    8  O1  UNL     1       3.911   4.374  -1.437  1.00  0.00    -0.188 OA
HETATM    9  C6  UNL     1       1.706   3.488  -1.166  1.00  0.00     0.029 A 
HETATM   10  C5  UNL     1       0.843   2.421  -0.912  1.00  0.00     0.002 A 
ENDBRANCH   1   3
BRANCH   2  11
HETATM   11  C9  UNL     1      -1.018  -1.375   1.096  1.00  0.00     0.105 A 
HETATM   12  O3  UNL     1      -1.439  -1.433   2.398  1.00  0.00    -0.273 OA
HETATM   13  C10 UNL     1      -2.252  -2.466   2.753  1.00  0.00     0.302 A 
HETATM   14  C11 UNL     1      -2.684  -3.498   1.788  1.00  0.00     0.096 A 
HETATM   15  O5  UNL     1      -2.653  -2.563   3.913  1.00  0.00    -0.259 OA
HETATM   16  C12 UNL     1      -2.262  -3.421   0.504  1.00  0.00     0.138 A 
HETATM   17  C13 UNL     1      -1.394  -2.299   0.169  1.00  0.00     0.052 A 
HETATM   18  O4  UNL     1      -2.627  -4.339  -0.428  1.00  0.00    -0.190 OA
ENDBRANCH   2  11
TORSDOF 2
