REMARK  1 active torsions:
REMARK  status: ('A' for Active; 'I' for Inactive)
REMARK    1  A    between atoms: C15_15  and  C18_18 
ROOT
HETATM    1  C1  UNL     1      -2.418  -1.608   0.074  1.00  0.00     0.065 C 
HETATM    2  C2  UNL     1      -2.394  -2.985  -0.558  1.00  0.00     0.150 C 
HETATM    3  C3  UNL     1      -1.141  -3.853  -0.393  1.00  0.00     0.052 C 
HETATM    4  C4  UNL     1      -0.537  -3.691   1.036  1.00  0.00     0.011 C 
HETATM    5  C5  UNL     1      -0.509  -2.270   1.673  1.00  0.00     0.004 C 
HETATM    6  C6  UNL     1      -1.917  -1.651   1.519  1.00  0.00     0.008 C 
HETATM    7  C7  UNL     1       0.603  -1.403   1.027  1.00  0.00     0.018 C 
HETATM    8  C8  UNL     1       1.921  -2.140   0.886  1.00  0.00    -0.049 C 
HETATM    9  C9  UNL     1       1.999  -3.477   0.979  1.00  0.00    -0.035 C 
HETATM   10  C10 UNL     1       0.827  -4.382   1.227  1.00  0.00     0.026 C 
HETATM   11  C11 UNL     1       3.165  -1.290   0.696  1.00  0.00     0.015 C 
HETATM   12  C12 UNL     1       2.820   0.039  -0.047  1.00  0.00     0.003 C 
HETATM   13  C13 UNL     1       1.903   0.847   0.903  1.00  0.00     0.001 C 
HETATM   14  C14 UNL     1       0.828  -0.001   1.629  1.00  0.00     0.004 C 
HETATM   15  C15 UNL     1       4.240   0.616  -0.328  1.00  0.00     0.003 C 
HETATM   16  C16 UNL     1       5.071  -0.650  -0.662  1.00  0.00     0.000 C 
HETATM   17  C17 UNL     1       4.264  -1.879  -0.207  1.00  0.00     0.004 C 
HETATM   18  C26 UNL     1       2.087  -0.208  -1.395  1.00  0.00     0.000 C 
HETATM   19  C27 UNL     1       3.808  -1.141   2.102  1.00  0.00     0.004 C 
HETATM   20  C28 UNL     1      -0.242  -2.385   3.197  1.00  0.00     0.000 C 
HETATM   21  C29 UNL     1      -1.574  -5.327  -0.617  1.00  0.00     0.007 C 
HETATM   22  C30 UNL     1      -0.197  -3.493  -1.558  1.00  0.00     0.007 C 
HETATM   23  O4  UNL     1      -3.334  -3.342  -1.232  1.00  0.00    -0.296 OA
ENDROOT
BRANCH  15  24
HETATM   24  C18 UNL     1       4.505   1.741  -1.364  1.00  0.00     0.032 C 
HETATM   25  C19 UNL     1       6.002   2.123  -1.378  1.00  0.00     0.038 C 
HETATM   26  C20 UNL     1       6.354   3.485  -1.978  1.00  0.00     0.185 C 
HETATM   27  C21 UNL     1       6.134   4.667  -1.035  1.00  0.00     0.207 C 
HETATM   28  O3  UNL     1       5.713   3.680  -3.214  1.00  0.00    -0.221 OA
HETATM   29  C22 UNL     1       4.724   4.949  -0.487  1.00  0.00     0.123 C 
HETATM   30  O2  UNL     1       7.054   4.510   0.025  1.00  0.00    -0.218 OA
HETATM   31  O1  UNL     1       4.027   3.784  -0.142  1.00  0.00    -0.356 OA
HETATM   32  C24 UNL     1       3.914   5.853  -1.438  1.00  0.00     0.032 C 
HETATM   33  C25 UNL     1       4.819   5.747   0.834  1.00  0.00     0.032 C 
HETATM   34  C23 UNL     1       3.612   2.967  -1.206  1.00  0.00     0.142 C 
ENDBRANCH  15  24
TORSDOF 1
