REMARK  5 active torsions:
REMARK  status: ('A' for Active; 'I' for Inactive)
REMARK    1  A    between atoms: C1_1  and  C2_2 
REMARK    2  A    between atoms: C1_1  and  C3_5 
REMARK    3  A    between atoms: C3_5  and  C4_6 
REMARK    4  A    between atoms: C4_6  and  C5_7 
REMARK    5  A    between atoms: C5_7  and  S1_8 
ROOT
HETATM    1  C1  UNL     1      -2.078   1.570   0.794  1.00  0.00     0.387 C 
HETATM    2  N1  UNL     1      -3.012   1.237  -0.293  1.00  0.00     0.628 N 
ENDROOT
BRANCH   1   3
HETATM    3  C2  UNL     1      -1.908   3.078   0.850  1.00  0.00     0.224 C 
HETATM    4  O1  UNL     1      -3.102   3.700   0.870  1.00  0.00    -0.646 OA
HETATM    5  O2  UNL     1      -0.875   3.703   0.886  1.00  0.00    -0.646 OA
ENDBRANCH   1   3
BRANCH   1   6
HETATM    6  C3  UNL     1      -0.736   0.830   0.644  1.00  0.00     0.051 C 
BRANCH   6   7
HETATM    7  C4  UNL     1      -0.793  -0.701   0.807  1.00  0.00     0.014 C 
BRANCH   7   8
HETATM    8  C5  UNL     1      -1.275  -1.460  -0.440  1.00  0.00     0.058 C 
BRANCH   8   9
HETATM    9  S1  UNL     1      -1.147  -3.253  -0.125  1.00  0.00    -0.139 SA
HETATM   10  C6  UNL     1      -1.809  -3.844  -1.708  1.00  0.00     0.069 C 
ENDBRANCH   8   9
ENDBRANCH   7   8
ENDBRANCH   6   7
ENDBRANCH   1   6
TORSDOF 5
