REMARK  3 active torsions:
REMARK  status: ('A' for Active; 'I' for Inactive)
REMARK    1  A    between atoms: C1_1  and  C2_2 
REMARK    2  A    between atoms: C2_2  and  C3_3 
REMARK    3  A    between atoms: C4_4  and  O1_5 
ROOT
HETATM    1  C3  UNL     1       1.036  -0.619  -0.364  1.00  0.00     0.060 A 
HETATM    2  C4  UNL     1       2.035  -1.599  -0.280  1.00  0.00     0.099 A 
HETATM    3  C6  UNL     1       3.211  -1.349  -1.002  1.00  0.00     0.049 A 
HETATM    4  C7  UNL     1       3.481  -0.154  -1.681  1.00  0.00     0.105 A 
HETATM    5  C8  UNL     1       2.470   0.822  -1.681  1.00  0.00     0.023 A 
HETATM    6  C9  UNL     1       1.246   0.579  -1.042  1.00  0.00     0.007 A 
HETATM    7  C10 UNL     1       2.701   2.087  -2.373  1.00  0.00     0.007 A 
HETATM    8  C11 UNL     1       3.884   2.277  -2.994  1.00  0.00     0.069 A 
HETATM    9  C12 UNL     1       4.896   1.196  -2.956  1.00  0.00     0.300 A 
HETATM   10  O2  UNL     1       4.681   0.009  -2.318  1.00  0.00    -0.273 OA
HETATM   11  O3  UNL     1       5.964   1.397  -3.531  1.00  0.00    -0.259 OA
ENDROOT
BRANCH   1  12
HETATM   12  C2  UNL     1      -0.305  -0.851   0.309  1.00  0.00     0.204 C 
HETATM   13  O4  UNL     1      -1.107  -1.636  -0.170  1.00  0.00    -0.289 OA
BRANCH  12  14
HETATM   14  C1  UNL     1      -0.567  -0.218   1.607  1.00  0.00     0.201 A 
HETATM   15  C13 UNL     1      -1.827   0.472   1.692  1.00  0.00     0.126 A 
HETATM   16  O5  UNL     1      -0.396   1.177   1.573  1.00  0.00    -0.348 OA
HETATM   17  C14 UNL     1      -2.452   0.656   3.065  1.00  0.00     0.033 C 
HETATM   18  C15 UNL     1      -2.695   0.820   0.493  1.00  0.00     0.033 C 
ENDBRANCH  12  14
ENDBRANCH   1  12
BRANCH   2  19
HETATM   19  O1  UNL     1       1.809  -2.807   0.324  1.00  0.00    -0.328 OA
HETATM   20  C5  UNL     1       2.554  -3.013   1.503  1.00  0.00     0.181 C 
ENDBRANCH   2  19
TORSDOF 3
