REMARK  3 active torsions:
REMARK  status: ('A' for Active; 'I' for Inactive)
REMARK    1  A    between atoms: C3_3  and  C30_33 
REMARK    2  A    between atoms: C21_21  and  C23_24 
REMARK    3  A    between atoms: C23_24  and  C24_25 
ROOT
HETATM    1  C1  UNL     1      -1.607  -1.108  -3.757  1.00  0.00     0.033 C 
HETATM    2  C2  UNL     1      -2.528  -2.033  -2.971  1.00  0.00     0.154 C 
HETATM    3  C3  UNL     1      -1.778  -2.826  -1.876  1.00  0.00     0.059 C 
HETATM    4  C4  UNL     1      -0.427  -2.133  -1.501  1.00  0.00     0.005 C 
HETATM    5  C5  UNL     1      -0.402  -0.575  -1.482  1.00  0.00     0.000 C 
HETATM    6  C6  UNL     1      -0.877  -0.075  -2.883  1.00  0.00     0.003 C 
HETATM    7  C7  UNL     1       1.072  -0.082  -1.230  1.00  0.00     0.000 C 
HETATM    8  C8  UNL     1       1.882  -0.698  -0.038  1.00  0.00     0.000 C 
HETATM    9  C9  UNL     1       1.714  -2.237  -0.121  1.00  0.00     0.000 C 
HETATM   10  C10 UNL     1       0.261  -2.721  -0.255  1.00  0.00     0.000 C 
HETATM   11  C11 UNL     1       3.413  -0.269  -0.137  1.00  0.00     0.002 C 
HETATM   12  C12 UNL     1       3.498   1.288  -0.153  1.00  0.00     0.031 C 
HETATM   13  C13 UNL     1       2.735   1.871  -1.354  1.00  0.00     0.003 C 
HETATM   14  C14 UNL     1       1.258   1.450  -1.308  1.00  0.00     0.000 C 
HETATM   15  C15 UNL     1       4.926   1.829   0.011  1.00  0.00     0.154 C 
HETATM   16  C16 UNL     1       5.593   1.413   1.349  1.00  0.00     0.056 C 
HETATM   17  C17 UNL     1       4.742   0.305   2.025  1.00  0.00     0.005 C 
HETATM   18  C18 UNL     1       4.286  -0.786   1.048  1.00  0.00     0.000 C 
HETATM   19  C19 UNL     1       7.017   0.865   1.094  1.00  0.00     0.007 C 
HETATM   20  C20 UNL     1       7.991   2.009   0.801  1.00  0.00     0.030 C 
HETATM   21  C21 UNL     1       7.974   3.037   1.933  1.00  0.00     0.118 C 
HETATM   22  O1  UNL     1       6.670   3.535   2.065  1.00  0.00    -0.357 OA
HETATM   23  C22 UNL     1       5.704   2.559   2.378  1.00  0.00     0.144 C 
HETATM   24  O3  UNL     1       4.910   3.231  -0.124  1.00  0.00    -0.223 OA
HETATM   25  C26 UNL     1       4.107  -0.856  -1.405  1.00  0.00     0.000 C 
HETATM   26  C27 UNL     1       1.319  -0.254   1.339  1.00  0.00     0.000 C 
HETATM   27  C28 UNL     1      -1.365   0.027  -0.432  1.00  0.00     0.000 C 
HETATM   28  C29 UNL     1      -2.688  -3.065  -0.645  1.00  0.00     0.005 C 
HETATM   29  O5  UNL     1      -3.603  -1.281  -2.457  1.00  0.00    -0.223 OA
ENDROOT
BRANCH  21  30
HETATM   30  C23 UNL     1       8.587   2.599   3.282  1.00  0.00     0.060 C 
HETATM   31  C25 UNL     1       8.473   3.727   4.329  1.00  0.00     0.005 C 
BRANCH  30  32
HETATM   32  C24 UNL     1      10.053   2.175   3.131  1.00  0.00     0.185 C 
HETATM   33  O2  UNL     1      10.582   1.764   4.377  1.00  0.00    -0.221 OA
ENDBRANCH  30  32
ENDBRANCH  21  30
BRANCH   3  34
HETATM   34  C30 UNL     1      -1.514  -4.252  -2.432  1.00  0.00     0.185 C 
HETATM   35  O4  UNL     1      -0.778  -4.227  -3.639  1.00  0.00    -0.221 OA
ENDBRANCH   3  34
TORSDOF 3
