REMARK  0 active torsions:
REMARK  status: ('A' for Active; 'I' for Inactive)
ROOT
HETATM    1  C1  UNL     1       0.056   0.794  -1.325  1.00  0.00     0.035 C 
HETATM    2  C2  UNL     1       0.273  -0.527  -1.456  1.00  0.00    -0.016 C 
HETATM    3  C3  UNL     1       1.756  -0.806  -1.348  1.00  0.00     0.143 C 
HETATM    4  O1  UNL     1       2.407   0.452  -1.378  1.00  0.00    -0.297 OA
HETATM    5  C4  UNL     1       1.413   1.378  -1.295  1.00  0.00     0.291 C 
HETATM    6  O2  UNL     1       1.629   2.583  -1.232  1.00  0.00    -0.260 OA
HETATM    7  C5  UNL     1       2.111  -1.528  -0.041  1.00  0.00     0.036 C 
HETATM    8  C6  UNL     1       1.818  -0.737   1.251  1.00  0.00     0.027 C 
HETATM    9  C7  UNL     1       0.502  -1.012   2.003  1.00  0.00     0.104 C 
HETATM   10  N1  UNL     1      -0.761  -0.924   1.266  1.00  0.00    -0.320 N 
HETATM   11  C8  UNL     1      -1.254  -2.188   0.723  1.00  0.00     0.104 C 
HETATM   12  C9  UNL     1      -1.770  -2.008  -0.715  1.00  0.00     0.029 C 
HETATM   13  C10 UNL     1      -0.687  -1.651  -1.741  1.00  0.00     0.026 C 
HETATM   14  C11 UNL     1      -1.602   0.169   1.311  1.00  0.00     0.234 C 
HETATM   15  O3  UNL     1      -2.801   0.063   1.199  1.00  0.00    -0.272 OA
HETATM   16  C12 UNL     1      -0.959   1.547   1.327  1.00  0.00     0.088 C 
HETATM   17  C13 UNL     1      -1.337   2.368   0.067  1.00  0.00     0.014 C 
HETATM   18  C14 UNL     1      -1.225   1.567  -1.253  1.00  0.00     0.032 C 
HETATM   19  C15 UNL     1      -2.734   3.007   0.176  1.00  0.00     0.001 C 
ENDROOT
TORSDOF 0
