REMARK  8 active torsions:
REMARK  status: ('A' for Active; 'I' for Inactive)
REMARK    1  A    between atoms: C16_16  and  C30_36 
REMARK    2  A    between atoms: C19_21  and  O5_32 
REMARK    3  A    between atoms: C20_22  and  O3_27 
REMARK    4  A    between atoms: O3_27  and  C25_28 
REMARK    5  A    between atoms: C25_28  and  C26_29 
REMARK    6  A    between atoms: O5_32  and  C28_33 
REMARK    7  A    between atoms: C37_46  and  C47_64 
REMARK    8  A    between atoms: C42_53  and  C46_60 
ROOT
HETATM    1  C1  UNL     1       0.154   0.025  -3.018  1.00  0.00     0.030 C 
HETATM    2  C2  UNL     1       0.333  -1.501  -3.092  1.00  0.00     0.118 C 
HETATM    3  C3  UNL     1       1.680  -1.833  -2.369  1.00  0.00     0.028 C 
HETATM    4  C4  UNL     1       1.433  -1.364  -0.558  1.00  0.00     0.033 C 
HETATM    5  C5  UNL     1       1.605   0.360  -0.779  1.00  0.00     0.003 C 
HETATM    6  C6  UNL     1       1.261   0.823  -2.266  1.00  0.00     0.003 C 
HETATM    7  C7  UNL     1       3.129   0.906  -0.251  1.00  0.00     0.005 C 
HETATM    8  C8  UNL     1       4.144   0.267   0.967  1.00  0.00     0.006 C 
HETATM    9  C9  UNL     1       3.827  -1.276   1.664  1.00  0.00     0.005 C 
HETATM   10  C10 UNL     1       2.356  -2.302   1.097  1.00  0.00     0.059 A 
HETATM   11  C11 UNL     1       5.655   0.648   0.413  1.00  0.00     0.045 C 
HETATM   12  C12 UNL     1       5.745   2.202   0.399  1.00  0.00    -0.047 C 
HETATM   13  C13 UNL     1       4.655   2.935   0.082  1.00  0.00    -0.035 C 
HETATM   14  C14 UNL     1       3.253   2.442  -0.205  1.00  0.00     0.025 C 
HETATM   15  C15 UNL     1       7.125   2.874   0.478  1.00  0.00     0.025 C 
HETATM   16  C16 UNL     1       8.024   2.315   1.610  1.00  0.00     0.093 C 
HETATM   17  C17 UNL     1       8.140   0.790   1.356  1.00  0.00     0.188 C 
HETATM   18  C18 UNL     1       6.813   0.026   1.264  1.00  0.00     0.186 C 
HETATM   19  O1  UNL     1       7.173  -1.267   0.824  1.00  0.00    -0.220 OA
HETATM   20  O2  UNL     1       8.874   0.487   0.190  1.00  0.00    -0.221 OA
HETATM   21  C19 UNL     1       9.423   3.018   1.608  1.00  0.00     0.157 C 
HETATM   22  C20 UNL     1       9.357   4.552   1.587  1.00  0.00     0.152 C 
HETATM   23  C21 UNL     1       8.506   5.110   0.427  1.00  0.00     0.028 C 
HETATM   24  C22 UNL     1       7.126   4.420   0.407  1.00  0.00     0.007 C 
HETATM   25  C23 UNL     1       8.300   6.639   0.598  1.00  0.00     0.003 C 
HETATM   26  C24 UNL     1       9.198   4.943  -0.949  1.00  0.00     0.003 C 
HETATM   27  C31 UNL     1       5.981   0.405  -1.103  1.00  0.00     0.007 C 
HETATM   28  C32 UNL     1       4.142   1.130   2.321  1.00  0.00     0.000 C 
HETATM   29  C33 UNL     1       0.310   1.210  -0.267  1.00  0.00     0.000 C 
HETATM   30  C34 UNL     1       2.833  -1.137  -3.249  1.00  0.00     0.003 C 
HETATM   31  C35 UNL     1       2.039  -3.277  -3.011  1.00  0.00     0.003 C 
HETATM   32  O8  UNL     1      -0.831  -2.197  -2.651  1.00  0.00    -0.332 OA
HETATM   33  C36 UNL     1      -0.874  -3.616  -2.887  1.00  0.00     0.267 C 
HETATM   34  O9  UNL     1      -2.101  -3.726  -3.589  1.00  0.00    -0.318 OA
HETATM   35  C37 UNL     1      -2.287  -5.022  -4.118  1.00  0.00     0.237 C 
HETATM   36  C38 UNL     1      -2.454  -6.002  -2.972  1.00  0.00     0.223 C 
HETATM   37  C39 UNL     1      -1.218  -5.979  -2.096  1.00  0.00     0.217 C 
HETATM   38  C40 UNL     1      -0.893  -4.561  -1.647  1.00  0.00     0.207 C 
HETATM   39  O10 UNL     1       0.274  -4.680  -0.802  1.00  0.00    -0.324 OA
HETATM   40  C41 UNL     1       0.762  -3.455  -0.297  1.00  0.00     0.270 C 
HETATM   41  O11 UNL     1       2.232  -3.191  -0.616  1.00  0.00    -0.331 OA
HETATM   42  C42 UNL     1       3.029  -1.709  -0.221  1.00  0.00     0.133 A 
HETATM   43  C43 UNL     1       1.842  -0.712   1.147  1.00  0.00     0.182 A 
HETATM   44  C44 UNL     1       0.312  -1.436   1.480  1.00  0.00     0.217 C 
HETATM   45  C45 UNL     1       0.064  -2.938   1.005  1.00  0.00     0.241 C 
HETATM   46  O12 UNL     1      -1.339  -3.052   0.899  1.00  0.00    -0.215 OA
HETATM   47  O13 UNL     1       0.024  -1.390   2.868  1.00  0.00    -0.218 OA
HETATM   48  O14 UNL     1       1.779   0.669   1.512  1.00  0.00    -0.221 OA
HETATM   49  O16 UNL     1      -1.444  -6.781  -0.961  1.00  0.00    -0.218 OA
HETATM   50  O17 UNL     1      -2.632  -7.306  -3.470  1.00  0.00    -0.217 OA
ENDROOT
BRANCH  22  51
HETATM   51  O3  UNL     1       8.897   5.067   2.807  1.00  0.00    -0.302 OA
BRANCH  51  52
HETATM   52  C25 UNL     1       9.761   5.135   3.845  1.00  0.00     0.272 C 
HETATM   53  O4  UNL     1      10.896   4.717   3.842  1.00  0.00    -0.264 OA
BRANCH  52  54
HETATM   54  C26 UNL     1       9.155   5.899   5.012  1.00  0.00     0.096 C 
HETATM   55  C27 UNL     1       7.716   5.503   5.364  1.00  0.00     0.011 C 
ENDBRANCH  52  54
ENDBRANCH  51  52
ENDBRANCH  22  51
BRANCH  21  56
HETATM   56  O5  UNL     1      10.220   2.636   0.520  1.00  0.00    -0.302 OA
BRANCH  56  57
HETATM   57  C28 UNL     1      11.378   1.937   0.606  1.00  0.00     0.272 C 
HETATM   58  O6  UNL     1      11.925   1.536  -0.396  1.00  0.00    -0.264 OA
HETATM   59  C29 UNL     1      11.963   1.677   1.982  1.00  0.00     0.106 C 
ENDBRANCH  56  57
ENDBRANCH  21  56
BRANCH  16  60
HETATM   60  C30 UNL     1       7.436   2.463   3.040  1.00  0.00     0.188 C 
HETATM   61  O7  UNL     1       6.398   3.413   3.128  1.00  0.00    -0.221 OA
ENDBRANCH  16  60
BRANCH  42  62
HETATM   62  C46 UNL     1       4.452  -2.459  -0.242  1.00  0.00     0.210 C 
HETATM   63  O15 UNL     1       4.782  -2.968  -1.521  1.00  0.00    -0.218 OA
ENDBRANCH  42  62
BRANCH  35  64
HETATM   64  C47 UNL     1      -3.485  -5.041  -5.055  1.00  0.00     0.217 C 
HETATM   65  O18 UNL     1      -3.158  -5.517  -6.264  1.00  0.00    -0.646 OA
HETATM   66  O19 UNL     1      -4.608  -4.700  -4.771  1.00  0.00    -0.646 OA
ENDBRANCH  35  64
TORSDOF 8
