REMARK  19 active torsions:
REMARK  status: ('A' for Active; 'I' for Inactive)
REMARK    1  A    between atoms: C5_5  and  C7_7 
REMARK    2  A    between atoms: C7_7  and  C8_8 
REMARK    3  A    between atoms: C8_8  and  C9_9 
REMARK    4  A    between atoms: C9_9  and  O1_10 
REMARK    5  A    between atoms: O1_10  and  C10_11 
REMARK    6  A    between atoms: C10_11  and  C11_12 
REMARK    7  A    between atoms: C13_14  and  O12_42 
REMARK    8  A    between atoms: C14_15  and  O3_17 
REMARK    9  A    between atoms: C14_15  and  C21_29 
REMARK   10  A    between atoms: O3_17  and  C15_18 
REMARK   11  A    between atoms: C16_20  and  C20_27 
REMARK   12  A    between atoms: C21_29  and  O9_30 
REMARK   13  A    between atoms: O9_30  and  C22_31 
REMARK   14  A    between atoms: C22_31  and  C23_32 
REMARK   15  A    between atoms: C24_33  and  C25_34 
REMARK   16  A    between atoms: O12_42  and  C31_43 
REMARK   17  A    between atoms: C31_43  and  C32_44 
REMARK   18  A    between atoms: C32_44  and  C33_45 
REMARK   19  A    between atoms: C33_45  and  C34_46 
ROOT
HETATM    1  C11 UNL     1       4.689   0.625   1.080  1.00  0.00     0.180 C 
HETATM    2  C12 UNL     1       4.329   0.576   2.551  1.00  0.00     0.214 C 
HETATM    3  C13 UNL     1       2.812   0.692   2.535  1.00  0.00     0.204 C 
HETATM    4  C14 UNL     1       2.540   1.448   1.227  1.00  0.00     0.246 C 
HETATM    5  O2  UNL     1       3.731   1.444   0.481  1.00  0.00    -0.328 OA
HETATM    6  O15 UNL     1       4.872   1.701   3.202  1.00  0.00    -0.218 OA
ENDROOT
BRANCH   4   7
HETATM    7  O3  UNL     1       1.499   0.809   0.524  1.00  0.00    -0.304 OA
BRANCH   7   8
HETATM    8  C15 UNL     1       1.457   0.950  -0.881  1.00  0.00     0.272 C 
HETATM    9  O4  UNL     1       1.941  -0.271  -1.413  1.00  0.00    -0.326 OA
HETATM   10  C16 UNL     1       1.112  -1.384  -1.188  1.00  0.00     0.184 C 
HETATM   11  C17 UNL     1      -0.282  -1.139  -1.748  1.00  0.00     0.215 C 
HETATM   12  C18 UNL     1      -0.869   0.098  -1.103  1.00  0.00     0.220 C 
HETATM   13  O7  UNL     1      -1.143  -2.211  -1.451  1.00  0.00    -0.218 OA
HETATM   14  C19 UNL     1       0.060   1.255  -1.379  1.00  0.00     0.241 C 
HETATM   15  O6  UNL     1      -2.133   0.359  -1.657  1.00  0.00    -0.218 OA
HETATM   16  O5  UNL     1      -0.459   2.409  -0.764  1.00  0.00    -0.215 OA
BRANCH  10  17
HETATM   17  C20 UNL     1       1.780  -2.615  -1.791  1.00  0.00     0.214 C 
HETATM   18  O8  UNL     1       2.766  -3.105  -0.902  1.00  0.00    -0.218 OA
ENDBRANCH  10  17
ENDBRANCH   7   8
ENDBRANCH   4   7
BRANCH   4  19
HETATM   19  C21 UNL     1       2.139   2.891   1.530  1.00  0.00     0.211 C 
BRANCH  19  20
HETATM   20  O9  UNL     1       1.965   3.605   0.337  1.00  0.00    -0.293 OA
BRANCH  20  21
HETATM   21  C22 UNL     1       1.616   4.920   0.406  1.00  0.00     0.296 C 
HETATM   22  O11 UNL     1       1.521   5.493   1.489  1.00  0.00    -0.259 OA
BRANCH  21  23
HETATM   23  C23 UNL     1       1.284   5.641  -0.845  1.00  0.00     0.068 C 
HETATM   24  C24 UNL     1       0.952   6.955  -0.881  1.00  0.00     0.005 C 
BRANCH  24  25
HETATM   25  C25 UNL     1       0.641   7.721  -2.097  1.00  0.00     0.000 A 
HETATM   26  C26 UNL     1       0.252   9.066  -1.968  1.00  0.00     0.002 A 
HETATM   27  C27 UNL     1      -0.034   9.845  -3.088  1.00  0.00     0.027 A 
HETATM   28  C28 UNL     1       0.058   9.322  -4.383  1.00  0.00     0.131 A 
HETATM   29  C29 UNL     1       0.452   7.987  -4.511  1.00  0.00     0.027 A 
HETATM   30  O10 UNL     1      -0.214  10.078  -5.479  1.00  0.00    -0.190 OA
HETATM   31  C30 UNL     1       0.739   7.198  -3.395  1.00  0.00     0.002 A 
ENDBRANCH  24  25
ENDBRANCH  21  23
ENDBRANCH  20  21
ENDBRANCH  19  20
ENDBRANCH   4  19
BRANCH   3  32
HETATM   32  O12 UNL     1       2.278  -0.604   2.566  1.00  0.00    -0.324 OA
BRANCH  32  33
HETATM   33  C31 UNL     1       0.946  -0.740   2.822  1.00  0.00     0.270 C 
HETATM   34  O14 UNL     1       0.204   0.289   3.180  1.00  0.00    -0.190 OA
BRANCH  33  35
HETATM   35  C32 UNL     1       0.240  -2.074   2.613  1.00  0.00     0.069 C 
BRANCH  35  36
HETATM   36  C33 UNL     1       0.466  -3.205   3.582  1.00  0.00     0.027 C 
BRANCH  36  37
HETATM   37  C34 UNL     1       0.065  -4.609   3.228  1.00  0.00    -0.048 C 
HETATM   38  C35 UNL     1      -0.707  -5.388   4.179  1.00  0.00     0.024 C 
HETATM   39  C36 UNL     1      -1.306  -6.704   3.760  1.00  0.00     0.038 C 
HETATM   40  C37 UNL     1      -0.652  -7.449   2.621  1.00  0.00     0.157 C 
HETATM   41  C38 UNL     1       0.317  -6.637   1.794  1.00  0.00     0.058 C 
HETATM   42  O13 UNL     1      -0.515  -8.799   2.685  1.00  0.00    -0.223 OA
HETATM   43  C39 UNL     1       0.524  -5.182   2.086  1.00  0.00    -0.032 C 
ENDBRANCH  36  37
ENDBRANCH  35  36
ENDBRANCH  33  35
ENDBRANCH  32  33
ENDBRANCH   3  32
BRANCH   1  44
HETATM   44  C10 UNL     1       4.729  -0.729   0.381  1.00  0.00     0.177 C 
BRANCH  44  45
HETATM   45  O1  UNL     1       5.910  -1.406   0.720  1.00  0.00    -0.326 OA
BRANCH  45  46
HETATM   46  C9  UNL     1       6.240  -2.490  -0.038  1.00  0.00     0.270 C 
HETATM   47  O16 UNL     1       5.425  -2.973  -0.957  1.00  0.00    -0.190 OA
BRANCH  46  48
HETATM   48  C8  UNL     1       7.621  -3.129   0.067  1.00  0.00     0.069 C 
BRANCH  48  49
HETATM   49  C7  UNL     1       8.527  -3.162  -1.138  1.00  0.00     0.027 C 
BRANCH  49  50
HETATM   50  C5  UNL     1      10.021  -3.190  -0.975  1.00  0.00    -0.048 C 
HETATM   51  C4  UNL     1      10.788  -4.241  -1.616  1.00  0.00     0.024 C 
HETATM   52  C3  UNL     1      12.266  -4.353  -1.358  1.00  0.00     0.038 C 
HETATM   53  C2  UNL     1      13.003  -3.100  -0.956  1.00  0.00     0.157 C 
HETATM   54  C1  UNL     1      12.143  -2.028  -0.325  1.00  0.00     0.058 C 
HETATM   55  O17 UNL     1      14.342  -3.139  -0.736  1.00  0.00    -0.223 OA
HETATM   56  C6  UNL     1      10.650  -2.166  -0.342  1.00  0.00    -0.032 C 
ENDBRANCH  49  50
ENDBRANCH  48  49
ENDBRANCH  46  48
ENDBRANCH  45  46
ENDBRANCH  44  45
ENDBRANCH   1  44
TORSDOF 19
