REMARK  2 active torsions:
REMARK  status: ('A' for Active; 'I' for Inactive)
REMARK    1  A    between atoms: C9_10  and  C11_13 
REMARK    2  A    between atoms: C11_13  and  C12_14 
ROOT
HETATM    1  C1  UNL     1       7.276   0.972   0.147  1.00  0.00     0.030 A 
HETATM    2  C2  UNL     1       7.173  -0.406   0.020  1.00  0.00     0.030 A 
HETATM    3  C3  UNL     1       5.933  -1.058  -0.049  1.00  0.00     0.134 A 
HETATM    4  C4  UNL     1       4.775  -0.260   0.012  1.00  0.00     0.070 A 
HETATM    5  C5  UNL     1       4.884   1.141   0.135  1.00  0.00     0.071 A 
HETATM    6  C6  UNL     1       6.133   1.777   0.206  1.00  0.00     0.134 A 
HETATM    7  O1  UNL     1       6.283   3.123   0.330  1.00  0.00    -0.190 OA
HETATM    8  C7  UNL     1       3.656   1.971   0.191  1.00  0.00     0.223 A 
HETATM    9  C8  UNL     1       2.322   1.320   0.123  1.00  0.00     0.173 A 
HETATM   10  C9  UNL     1       2.198  -0.022   0.013  1.00  0.00     0.068 A 
HETATM   11  C10 UNL     1       3.422  -0.878  -0.051  1.00  0.00     0.200 A 
HETATM   12  O2  UNL     1       3.280  -2.092  -0.154  1.00  0.00    -0.286 OA
HETATM   13  O3  UNL     1       1.296   2.210   0.180  1.00  0.00    -0.187 OA
HETATM   14  O4  UNL     1       3.659   3.195   0.286  1.00  0.00    -0.284 OA
HETATM   15  O5  UNL     1       5.943  -2.414  -0.176  1.00  0.00    -0.190 OA
ENDROOT
BRANCH  10  16
HETATM   16  C11 UNL     1       0.894  -0.808  -0.061  1.00  0.00     0.005 C 
BRANCH  16  17
HETATM   17  C12 UNL     1      -0.468  -0.165   0.008  1.00  0.00    -0.008 C 
HETATM   18  C13 UNL     1      -1.636  -0.824  -0.111  1.00  0.00    -0.044 C 
HETATM   19  C14 UNL     1      -2.961  -0.100  -0.027  1.00  0.00     0.026 C 
HETATM   20  C15 UNL     1      -1.753  -2.315  -0.326  1.00  0.00     0.026 C 
ENDBRANCH  16  17
ENDBRANCH  10  16
TORSDOF 2
