REMARK  18 active torsions:
REMARK  status: ('A' for Active; 'I' for Inactive)
REMARK    1  A    between atoms: C1_1  and  C27_41 
REMARK    2  A    between atoms: C3_3  and  O10_28 
REMARK    3  A    between atoms: C4_4  and  O5_15 
REMARK    4  A    between atoms: C5_5  and  O2_7 
REMARK    5  A    between atoms: O2_7  and  C6_8 
REMARK    6  A    between atoms: C6_8  and  C7_9 
REMARK    7  A    between atoms: C7_9  and  C8_10 
REMARK    8  A    between atoms: C9_12  and  C10_13 
REMARK    9  A    between atoms: O5_15  and  C11_16 
REMARK   10  A    between atoms: C11_16  and  C12_17 
REMARK   11  A    between atoms: C12_17  and  C13_18 
REMARK   12  A    between atoms: O10_28  and  C19_29 
REMARK   13  A    between atoms: C19_29  and  C20_31 
REMARK   14  A    between atoms: C20_31  and  C21_32 
REMARK   15  A    between atoms: C27_41  and  O15_42 
REMARK   16  A    between atoms: O15_42  and  C28_43 
REMARK   17  A    between atoms: C28_43  and  C29_45 
REMARK   18  A    between atoms: C29_45  and  C30_46 
ROOT
HETATM    1  C1  UNL     1       5.526   0.721   0.815  1.00  0.00     0.183 C 
HETATM    2  C2  UNL     1       5.239  -0.635   0.185  1.00  0.00     0.238 C 
HETATM    3  C3  UNL     1       3.797  -1.069   0.283  1.00  0.00     0.286 C 
HETATM    4  C4  UNL     1       2.943   0.059  -0.264  1.00  0.00     0.237 C 
HETATM    5  C5  UNL     1       3.293   1.369   0.426  1.00  0.00     0.270 C 
HETATM    6  O1  UNL     1       4.659   1.675   0.256  1.00  0.00    -0.326 OA
HETATM    7  O9  UNL     1       3.614  -2.172  -0.563  1.00  0.00    -0.189 OA
HETATM    8  O14 UNL     1       6.027  -1.658   0.731  1.00  0.00    -0.215 OA
ENDROOT
BRANCH   1   9
HETATM    9  C27 UNL     1       6.954   1.208   0.536  1.00  0.00     0.184 C 
BRANCH   9  10
HETATM   10  O15 UNL     1       7.904   0.469   1.261  1.00  0.00    -0.299 OA
BRANCH  10  11
HETATM   11  C28 UNL     1       8.991  -0.158   0.718  1.00  0.00     0.276 C 
HETATM   12  O16 UNL     1       9.772  -0.781   1.408  1.00  0.00    -0.264 OA
BRANCH  11  13
HETATM   13  C29 UNL     1       9.234  -0.043  -0.787  1.00  0.00     0.123 C 
BRANCH  13  14
HETATM   14  C30 UNL     1       8.270  -0.856  -1.636  1.00  0.00    -0.002 C 
HETATM   15  C31 UNL     1       8.019  -2.208  -1.175  1.00  0.00     0.027 C 
HETATM   16  C32 UNL     1       7.003  -3.054  -1.724  1.00  0.00     0.163 C 
HETATM   17  C33 UNL     1       6.265  -2.498  -2.785  1.00  0.00     0.191 C 
HETATM   18  O18 UNL     1       6.687  -4.257  -1.190  1.00  0.00    -0.187 OA
HETATM   19  C34 UNL     1       7.030  -1.362  -2.705  1.00  0.00    -0.072 C 
HETATM   20  O17 UNL     1       5.164  -2.961  -3.420  1.00  0.00    -0.180 OA
HETATM   21  C35 UNL     1       7.714  -0.124  -2.753  1.00  0.00     0.040 C 
ENDBRANCH  13  14
ENDBRANCH  11  13
ENDBRANCH  10  11
ENDBRANCH   9  10
ENDBRANCH   1   9
BRANCH   3  22
HETATM   22  O10 UNL     1       3.419  -1.310   1.612  1.00  0.00    -0.272 OA
BRANCH  22  23
HETATM   23  C19 UNL     1       3.646  -2.425   2.370  1.00  0.00     0.278 C 
HETATM   24  O11 UNL     1       3.621  -2.368   3.583  1.00  0.00    -0.264 OA
BRANCH  23  25
HETATM   25  C20 UNL     1       3.701  -3.783   1.681  1.00  0.00     0.122 C 
BRANCH  25  26
HETATM   26  C21 UNL     1       2.487  -4.084   0.831  1.00  0.00    -0.010 A 
HETATM   27  C22 UNL     1       1.218  -3.622   1.189  1.00  0.00    -0.002 A 
HETATM   28  C23 UNL     1       0.131  -3.803   0.334  1.00  0.00     0.029 A 
HETATM   29  C24 UNL     1       0.286  -4.421  -0.908  1.00  0.00     0.156 A 
HETATM   30  C25 UNL     1       1.548  -4.901  -1.274  1.00  0.00     0.156 A 
HETATM   31  O13 UNL     1      -0.770  -4.576  -1.749  1.00  0.00    -0.188 OA
HETATM   32  C26 UNL     1       2.624  -4.741  -0.398  1.00  0.00     0.026 A 
HETATM   33  O12 UNL     1       1.699  -5.501  -2.484  1.00  0.00    -0.188 OA
ENDBRANCH  25  26
ENDBRANCH  23  25
ENDBRANCH  22  23
ENDBRANCH   3  22
BRANCH   5  34
HETATM   34  O2  UNL     1       2.594   2.378  -0.267  1.00  0.00    -0.324 OA
BRANCH  34  35
HETATM   35  C6  UNL     1       2.614   3.656   0.331  1.00  0.00     0.170 C 
BRANCH  35  36
HETATM   36  C7  UNL     1       1.737   4.636  -0.429  1.00  0.00     0.016 C 
HETATM   37  C9  UNL     1       1.119   4.305  -1.577  1.00  0.00     0.005 C 
BRANCH  36  38
HETATM   38  C8  UNL     1       1.600   5.994   0.215  1.00  0.00     0.207 C 
HETATM   39  O3  UNL     1       0.533   5.981   1.151  1.00  0.00    -0.216 OA
ENDBRANCH  36  38
BRANCH  37  40
HETATM   40  C10 UNL     1       0.192   5.174  -2.386  1.00  0.00     0.208 C 
HETATM   41  O4  UNL     1       0.871   5.708  -3.515  1.00  0.00    -0.215 OA
ENDBRANCH  37  40
ENDBRANCH  35  36
ENDBRANCH  34  35
ENDBRANCH   5  34
BRANCH   4  42
HETATM   42  O5  UNL     1       1.599  -0.264  -0.042  1.00  0.00    -0.293 OA
BRANCH  42  43
HETATM   43  C11 UNL     1       0.659   0.082  -0.963  1.00  0.00     0.277 C 
HETATM   44  O8  UNL     1       0.889   0.488  -2.080  1.00  0.00    -0.264 OA
BRANCH  43  45
HETATM   45  C12 UNL     1      -0.732  -0.041  -0.361  1.00  0.00     0.122 C 
BRANCH  45  46
HETATM   46  C13 UNL     1      -0.771   0.493   1.052  1.00  0.00    -0.010 A 
HETATM   47  C14 UNL     1      -1.030  -0.340   2.143  1.00  0.00    -0.002 A 
HETATM   48  C15 UNL     1      -1.005   0.169   3.442  1.00  0.00     0.029 A 
HETATM   49  C16 UNL     1      -0.715   1.514   3.684  1.00  0.00     0.156 A 
HETATM   50  C17 UNL     1      -0.451   2.358   2.599  1.00  0.00     0.156 A 
HETATM   51  O7  UNL     1      -0.674   2.023   4.943  1.00  0.00    -0.188 OA
HETATM   52  C18 UNL     1      -0.489   1.840   1.303  1.00  0.00     0.026 A 
HETATM   53  O6  UNL     1      -0.149   3.664   2.821  1.00  0.00    -0.188 OA
ENDBRANCH  45  46
ENDBRANCH  43  45
ENDBRANCH  42  43
ENDBRANCH   4  42
TORSDOF 18
