REMARK  7 active torsions:
REMARK  status: ('A' for Active; 'I' for Inactive)
REMARK    1  A    between atoms: C1_1  and  C20_30 
REMARK    2  A    between atoms: C4_4  and  O5_16 
REMARK    3  A    between atoms: C5_5  and  O2_7 
REMARK    4  A    between atoms: O2_7  and  C6_8 
REMARK    5  A    between atoms: O5_16  and  C12_17 
REMARK    6  A    between atoms: C12_17  and  C13_18 
REMARK    7  A    between atoms: C13_18  and  C14_19 
ROOT
HETATM    1  C1  UNL     1       9.075  -0.665   1.139  1.00  0.00     0.184 C 
HETATM    2  C2  UNL     1       8.401  -2.017   1.285  1.00  0.00     0.215 C 
HETATM    3  C3  UNL     1       6.930  -1.855   1.622  1.00  0.00     0.217 C 
HETATM    4  C4  UNL     1       6.259  -0.953   0.593  1.00  0.00     0.213 C 
HETATM    5  C5  UNL     1       7.087   0.312   0.395  1.00  0.00     0.267 C 
HETATM    6  O1  UNL     1       8.438   0.026   0.103  1.00  0.00    -0.326 OA
HETATM    7  O9  UNL     1       6.394  -3.157   1.635  1.00  0.00    -0.218 OA
HETATM    8  O10 UNL     1       8.994  -2.775   2.311  1.00  0.00    -0.218 OA
ENDROOT
BRANCH   4   9
HETATM    9  O5  UNL     1       4.993  -0.518   1.009  1.00  0.00    -0.296 OA
BRANCH   9  10
HETATM   10  C12 UNL     1       3.948  -1.382   1.018  1.00  0.00     0.277 C 
HETATM   11  O8  UNL     1       4.033  -2.568   0.798  1.00  0.00    -0.264 OA
BRANCH  10  12
HETATM   12  C13 UNL     1       2.648  -0.646   1.305  1.00  0.00     0.122 C 
BRANCH  12  13
HETATM   13  C14 UNL     1       1.500  -1.136   0.454  1.00  0.00    -0.010 A 
HETATM   14  C15 UNL     1       0.221  -1.303   0.996  1.00  0.00     0.026 A 
HETATM   15  C16 UNL     1      -0.855  -1.760   0.230  1.00  0.00     0.156 A 
HETATM   16  C17 UNL     1      -0.654  -2.072  -1.119  1.00  0.00     0.156 A 
HETATM   17  O7  UNL     1      -2.096  -1.916   0.764  1.00  0.00    -0.188 OA
HETATM   18  C18 UNL     1       0.617  -1.900  -1.672  1.00  0.00     0.029 A 
HETATM   19  O6  UNL     1      -1.688  -2.531  -1.870  1.00  0.00    -0.188 OA
HETATM   20  C19 UNL     1       1.680  -1.427  -0.902  1.00  0.00    -0.002 A 
ENDBRANCH  12  13
ENDBRANCH  10  12
ENDBRANCH   9  10
ENDBRANCH   4   9
BRANCH   5  21
HETATM   21  O2  UNL     1       6.635   0.979  -0.767  1.00  0.00    -0.331 OA
BRANCH  21  22
HETATM   22  C6  UNL     1       6.957   2.342  -0.810  1.00  0.00     0.130 C 
HETATM   23  C7  UNL     1       7.016   2.784  -2.265  1.00  0.00     0.126 C 
HETATM   24  C8  UNL     1       5.686   2.783  -2.996  1.00  0.00     0.274 C 
HETATM   25  O3  UNL     1       4.558   2.912  -2.249  1.00  0.00    -0.304 OA
HETATM   26  O4  UNL     1       5.648   2.720  -4.207  1.00  0.00    -0.264 OA
HETATM   27  C9  UNL     1       4.520   2.934  -0.850  1.00  0.00     0.127 C 
HETATM   28  C10 UNL     1       5.863   3.187  -0.173  1.00  0.00     0.060 C 
HETATM   29  C11 UNL     1       3.479   3.966  -0.407  1.00  0.00     0.033 C 
ENDBRANCH  21  22
ENDBRANCH   5  21
BRANCH   1  30
HETATM   30  C20 UNL     1      10.552  -0.791   0.794  1.00  0.00     0.214 C 
HETATM   31  O11 UNL     1      11.149   0.490   0.791  1.00  0.00    -0.218 OA
ENDBRANCH   1  30
TORSDOF 7
