REMARK  10 active torsions:
REMARK  status: ('A' for Active; 'I' for Inactive)
REMARK    1  A    between atoms: C1_1  and  C11_18 
REMARK    2  A    between atoms: C5_5  and  O2_7 
REMARK    3  A    between atoms: O2_7  and  C6_8 
REMARK    4  A    between atoms: C6_8  and  C7_9 
REMARK    5  A    between atoms: C7_9  and  C10_13 
REMARK    6  A    between atoms: C8_10  and  C9_11 
REMARK    7  A    between atoms: C11_18  and  O8_19 
REMARK    8  A    between atoms: O8_19  and  C12_20 
REMARK    9  A    between atoms: C12_20  and  C13_21 
REMARK   10  A    between atoms: C13_21  and  C14_22 
ROOT
HETATM    1  C1  UNL     1       3.476  -0.926   0.651  1.00  0.00     0.181 C 
HETATM    2  C2  UNL     1       3.082  -2.369   0.951  1.00  0.00     0.215 C 
HETATM    3  C3  UNL     1       1.738  -2.403   1.653  1.00  0.00     0.220 C 
HETATM    4  C4  UNL     1       0.726  -1.661   0.809  1.00  0.00     0.241 C 
HETATM    5  C5  UNL     1       1.233  -0.262   0.551  1.00  0.00     0.270 C 
HETATM    6  O1  UNL     1       2.472  -0.322  -0.122  1.00  0.00    -0.326 OA
HETATM    7  O5  UNL     1      -0.493  -1.599   1.506  1.00  0.00    -0.215 OA
HETATM    8  O6  UNL     1       1.330  -3.736   1.823  1.00  0.00    -0.218 OA
HETATM    9  O7  UNL     1       4.016  -2.992   1.797  1.00  0.00    -0.218 OA
ENDROOT
BRANCH   1  10
HETATM   10  C11 UNL     1       4.793  -0.796  -0.111  1.00  0.00     0.184 C 
BRANCH  10  11
HETATM   11  O8  UNL     1       5.864  -1.135   0.730  1.00  0.00    -0.299 OA
BRANCH  11  12
HETATM   12  C12 UNL     1       7.105  -0.720   0.360  1.00  0.00     0.276 C 
HETATM   13  O11 UNL     1       7.357  -0.110  -0.655  1.00  0.00    -0.264 OA
BRANCH  12  14
HETATM   14  C13 UNL     1       8.127  -1.131   1.409  1.00  0.00     0.122 C 
BRANCH  14  15
HETATM   15  C14 UNL     1       9.551  -0.957   0.935  1.00  0.00    -0.010 A 
HETATM   16  C15 UNL     1      10.435  -0.080   1.572  1.00  0.00     0.026 A 
HETATM   17  C16 UNL     1      11.756   0.081   1.142  1.00  0.00     0.156 A 
HETATM   18  C17 UNL     1      12.212  -0.649   0.039  1.00  0.00     0.156 A 
HETATM   19  O10 UNL     1      12.611   0.933   1.768  1.00  0.00    -0.188 OA
HETATM   20  C18 UNL     1      11.335  -1.526  -0.605  1.00  0.00     0.029 A 
HETATM   21  O9  UNL     1      13.490  -0.496  -0.392  1.00  0.00    -0.188 OA
HETATM   22  C19 UNL     1      10.023  -1.686  -0.161  1.00  0.00    -0.002 A 
ENDBRANCH  14  15
ENDBRANCH  12  14
ENDBRANCH  11  12
ENDBRANCH  10  11
ENDBRANCH   1  10
BRANCH   5  23
HETATM   23  O2  UNL     1       0.337   0.378  -0.332  1.00  0.00    -0.324 OA
BRANCH  23  24
HETATM   24  C6  UNL     1       0.588   1.764  -0.474  1.00  0.00     0.170 C 
BRANCH  24  25
HETATM   25  C7  UNL     1      -0.384   2.392  -1.455  1.00  0.00     0.016 C 
HETATM   26  C8  UNL     1      -1.017   3.536  -1.136  1.00  0.00     0.005 C 
BRANCH  26  27
HETATM   27  C9  UNL     1      -2.005   4.291  -1.983  1.00  0.00     0.208 C 
HETATM   28  O3  UNL     1      -2.604   5.353  -1.250  1.00  0.00    -0.215 OA
ENDBRANCH  26  27
BRANCH  25  29
HETATM   29  C10 UNL     1      -0.528   1.629  -2.753  1.00  0.00     0.207 C 
HETATM   30  O4  UNL     1      -1.121   2.360  -3.816  1.00  0.00    -0.216 OA
ENDBRANCH  25  29
ENDBRANCH  24  25
ENDBRANCH  23  24
ENDBRANCH   5  23
TORSDOF 10
