REMARK  10 active torsions:
REMARK  status: ('A' for Active; 'I' for Inactive)
REMARK    1  A    between atoms: C1_1  and  C20_30 
REMARK    2  A    between atoms: C3_3  and  O6_16 
REMARK    3  A    between atoms: C5_5  and  O2_7 
REMARK    4  A    between atoms: O2_7  and  C6_8 
REMARK    5  A    between atoms: C6_8  and  C7_9 
REMARK    6  A    between atoms: C7_9  and  C10_13 
REMARK    7  A    between atoms: C8_10  and  C9_11 
REMARK    8  A    between atoms: O6_16  and  C11_17 
REMARK    9  A    between atoms: C11_17  and  C12_18 
REMARK   10  A    between atoms: C13_19  and  C14_20 
ROOT
HETATM    1  C1  UNL     1       3.661   1.533  -0.198  1.00  0.00     0.184 C 
HETATM    2  C2  UNL     1       3.219   0.090   0.023  1.00  0.00     0.212 C 
HETATM    3  C3  UNL     1       1.810   0.023   0.599  1.00  0.00     0.193 C 
HETATM    4  C4  UNL     1       0.906   0.830  -0.319  1.00  0.00     0.238 C 
HETATM    5  C5  UNL     1       1.453   2.230  -0.485  1.00  0.00     0.270 C 
HETATM    6  O1  UNL     1       2.746   2.178  -1.042  1.00  0.00    -0.326 OA
HETATM    7  O5  UNL     1      -0.388   0.918   0.227  1.00  0.00    -0.215 OA
HETATM    8  O10 UNL     1       4.098  -0.560   0.909  1.00  0.00    -0.218 OA
ENDROOT
BRANCH   3   9
HETATM    9  O6  UNL     1       1.406  -1.317   0.629  1.00  0.00    -0.295 OA
BRANCH   9  10
HETATM   10  C11 UNL     1       0.800  -1.833   1.739  1.00  0.00     0.296 C 
HETATM   11  O9  UNL     1       0.731  -1.196   2.786  1.00  0.00    -0.259 OA
BRANCH  10  12
HETATM   12  C12 UNL     1       0.177  -3.179   1.675  1.00  0.00     0.068 C 
HETATM   13  C13 UNL     1      -0.406  -3.780   2.741  1.00  0.00     0.005 C 
BRANCH  13  14
HETATM   14  C14 UNL     1      -1.020  -5.116   2.741  1.00  0.00     0.002 A 
HETATM   15  C15 UNL     1      -1.494  -5.641   3.955  1.00  0.00     0.002 A 
HETATM   16  C16 UNL     1      -2.078  -6.905   4.008  1.00  0.00     0.029 A 
HETATM   17  C17 UNL     1      -2.218  -7.685   2.856  1.00  0.00     0.156 A 
HETATM   18  C18 UNL     1      -1.762  -7.176   1.635  1.00  0.00     0.156 A 
HETATM   19  O8  UNL     1      -2.787  -8.916   2.907  1.00  0.00    -0.188 OA
HETATM   20  C19 UNL     1      -1.176  -5.907   1.592  1.00  0.00     0.029 A 
HETATM   21  O7  UNL     1      -1.905  -7.933   0.515  1.00  0.00    -0.188 OA
ENDBRANCH  13  14
ENDBRANCH  10  12
ENDBRANCH   9  10
ENDBRANCH   3   9
BRANCH   1  22
HETATM   22  C20 UNL     1       5.049   1.632  -0.827  1.00  0.00     0.214 C 
HETATM   23  O11 UNL     1       5.985   2.088   0.131  1.00  0.00    -0.218 OA
ENDBRANCH   1  22
BRANCH   5  24
HETATM   24  O2  UNL     1       0.646   2.897  -1.431  1.00  0.00    -0.324 OA
BRANCH  24  25
HETATM   25  C6  UNL     1       0.906   4.284  -1.524  1.00  0.00     0.170 C 
BRANCH  25  26
HETATM   26  C7  UNL     1      -0.056   4.935  -2.498  1.00  0.00     0.016 C 
HETATM   27  C8  UNL     1      -0.910   5.888  -2.083  1.00  0.00     0.005 C 
BRANCH  27  28
HETATM   28  C9  UNL     1      -1.948   6.601  -2.909  1.00  0.00     0.208 C 
HETATM   29  O3  UNL     1      -2.171   7.914  -2.407  1.00  0.00    -0.215 OA
ENDBRANCH  27  28
BRANCH  26  30
HETATM   30  C10 UNL     1       0.004   4.404  -3.912  1.00  0.00     0.207 C 
HETATM   31  O4  UNL     1      -0.694   3.169  -4.021  1.00  0.00    -0.216 OA
ENDBRANCH  26  30
ENDBRANCH  25  26
ENDBRANCH  24  25
ENDBRANCH   5  24
TORSDOF 10
