REMARK  13 active torsions:
REMARK  status: ('A' for Active; 'I' for Inactive)
REMARK    1  A    between atoms: C1_1  and  C27_37 
REMARK    2  A    between atoms: C3_3  and  O7_25 
REMARK    3  A    between atoms: C4_4  and  O4_14 
REMARK    4  A    between atoms: C5_5  and  O2_7 
REMARK    5  A    between atoms: O2_7  and  C6_8 
REMARK    6  A    between atoms: C6_8  and  C7_9 
REMARK    7  A    between atoms: C9_11  and  C10_12 
REMARK    8  A    between atoms: O4_14  and  C11_15 
REMARK    9  A    between atoms: C11_15  and  C12_16 
REMARK   10  A    between atoms: C12_16  and  C13_17 
REMARK   11  A    between atoms: O7_25  and  C19_26 
REMARK   12  A    between atoms: C19_26  and  C20_27 
REMARK   13  A    between atoms: C20_27  and  C21_28 
ROOT
HETATM    1  C1  UNL     1       5.375   0.664   0.086  1.00  0.00     0.184 C 
HETATM    2  C2  UNL     1       4.863  -0.753   0.329  1.00  0.00     0.212 C 
HETATM    3  C3  UNL     1       3.431  -0.742   0.852  1.00  0.00     0.190 C 
HETATM    4  C4  UNL     1       2.576   0.055  -0.131  1.00  0.00     0.211 C 
HETATM    5  C5  UNL     1       3.202   1.429  -0.308  1.00  0.00     0.267 C 
HETATM    6  O1  UNL     1       4.515   1.318  -0.808  1.00  0.00    -0.326 OA
HETATM    7  O10 UNL     1       5.660  -1.426   1.274  1.00  0.00    -0.218 OA
ENDROOT
BRANCH   3   8
HETATM    8  O7  UNL     1       3.002  -2.070   0.962  1.00  0.00    -0.299 OA
BRANCH   8   9
HETATM    9  C19 UNL     1       2.076  -2.377   1.912  1.00  0.00     0.276 C 
HETATM   10  O9  UNL     1       1.551  -1.579   2.656  1.00  0.00    -0.264 OA
BRANCH   9  11
HETATM   11  C20 UNL     1       1.814  -3.873   1.958  1.00  0.00     0.122 C 
BRANCH  11  12
HETATM   12  C21 UNL     1       1.590  -4.556   0.628  1.00  0.00    -0.012 A 
HETATM   13  C22 UNL     1       1.996  -5.883   0.442  1.00  0.00    -0.002 A 
HETATM   14  C23 UNL     1       1.780  -6.541  -0.770  1.00  0.00     0.027 A 
HETATM   15  C24 UNL     1       1.159  -5.897  -1.844  1.00  0.00     0.131 A 
HETATM   16  C25 UNL     1       0.749  -4.574  -1.654  1.00  0.00     0.027 A 
HETATM   17  O8  UNL     1       0.949  -6.551  -3.018  1.00  0.00    -0.190 OA
HETATM   18  C26 UNL     1       0.952  -3.916  -0.439  1.00  0.00    -0.002 A 
ENDBRANCH  11  12
ENDBRANCH   9  11
ENDBRANCH   8   9
ENDBRANCH   3   8
BRANCH   4  19
HETATM   19  O4  UNL     1       1.288   0.234   0.386  1.00  0.00    -0.296 OA
BRANCH  19  20
HETATM   20  C11 UNL     1       0.215   0.125  -0.440  1.00  0.00     0.277 C 
HETATM   21  O6  UNL     1       0.246  -0.309  -1.570  1.00  0.00    -0.264 OA
BRANCH  20  22
HETATM   22  C12 UNL     1      -1.039   0.690   0.207  1.00  0.00     0.122 C 
BRANCH  22  23
HETATM   23  C13 UNL     1      -0.945   0.887   1.703  1.00  0.00    -0.012 A 
HETATM   24  C14 UNL     1      -1.464  -0.062   2.590  1.00  0.00    -0.002 A 
HETATM   25  C15 UNL     1      -1.386   0.132   3.970  1.00  0.00     0.027 A 
HETATM   26  C16 UNL     1      -0.788   1.274   4.513  1.00  0.00     0.131 A 
HETATM   27  C17 UNL     1      -0.262   2.214   3.622  1.00  0.00     0.027 A 
HETATM   28  O5  UNL     1      -0.710   1.466   5.856  1.00  0.00    -0.190 OA
HETATM   29  C18 UNL     1      -0.342   2.029   2.240  1.00  0.00    -0.002 A 
ENDBRANCH  22  23
ENDBRANCH  20  22
ENDBRANCH  19  20
ENDBRANCH   4  19
BRANCH   1  30
HETATM   30  C27 UNL     1       6.773   0.713  -0.520  1.00  0.00     0.214 C 
HETATM   31  O11 UNL     1       7.754   0.443   0.461  1.00  0.00    -0.218 OA
ENDBRANCH   1  30
BRANCH   5  32
HETATM   32  O2  UNL     1       2.482   2.126  -1.304  1.00  0.00    -0.325 OA
BRANCH  32  33
HETATM   33  C6  UNL     1       2.626   3.531  -1.229  1.00  0.00     0.167 C 
BRANCH  33  34
HETATM   34  C7  UNL     1       1.821   4.264  -2.286  1.00  0.00    -0.016 C 
HETATM   35  C8  UNL     1       1.786   5.763  -2.097  1.00  0.00     0.029 C 
HETATM   36  C9  UNL     1       1.198   3.624  -3.292  1.00  0.00     0.003 C 
BRANCH  36  37
HETATM   37  C10 UNL     1       0.388   4.268  -4.386  1.00  0.00     0.208 C 
HETATM   38  O3  UNL     1       0.339   3.441  -5.543  1.00  0.00    -0.215 OA
ENDBRANCH  36  37
ENDBRANCH  33  34
ENDBRANCH  32  33
ENDBRANCH   5  32
TORSDOF 13
