REMARK  1 active torsions:
REMARK  status: ('A' for Active; 'I' for Inactive)
REMARK    1  A    between atoms: C13_14  and  C14_15 
ROOT
HETATM    1  C1  UNL     1      -0.105   2.661   0.277  1.00  0.00     0.119 A 
HETATM    2  C2  UNL     1       0.024   1.332  -0.099  1.00  0.00     0.119 A 
HETATM    3  C3  UNL     1       1.274   0.748  -0.268  1.00  0.00     0.024 C 
HETATM    4  C4  UNL     1       2.439   1.480   0.025  1.00  0.00     0.005 C 
HETATM    5  C5  UNL     1       2.287   2.852   0.324  1.00  0.00    -0.020 C 
HETATM    6  C6  UNL     1       1.023   3.446   0.472  1.00  0.00     0.022 C 
HETATM    7  C7  UNL     1       3.482   3.762   0.436  1.00  0.00     0.061 C 
HETATM    8  C8  UNL     1       4.706   3.107  -0.204  1.00  0.00     0.255 C 
HETATM    9  N1  UNL     1       4.910   1.753   0.292  1.00  0.00     0.140 N 
HETATM   10  C9  UNL     1       3.822   0.829  -0.118  1.00  0.00     0.222 C 
HETATM   11  C10 UNL     1       4.054   0.477  -1.629  1.00  0.00     0.062 C 
HETATM   12  C11 UNL     1       5.161  -0.531  -1.529  1.00  0.00    -0.021 A 
HETATM   13  C12 UNL     1       5.154  -1.106  -0.260  1.00  0.00     0.004 A 
HETATM   14  C13 UNL     1       4.036  -0.568   0.584  1.00  0.00     0.086 C 
HETATM   15  C18 UNL     1       6.111  -2.068   0.032  1.00  0.00     0.115 A 
HETATM   16  C19 UNL     1       7.053  -2.425  -0.929  1.00  0.00     0.119 A 
HETATM   17  C20 UNL     1       7.070  -1.853  -2.202  1.00  0.00     0.026 A 
HETATM   18  C21 UNL     1       6.100  -0.886  -2.501  1.00  0.00    -0.002 A 
HETATM   19  O3  UNL     1       7.887  -3.387  -0.391  1.00  0.00    -0.300 OA
HETATM   20  C22 UNL     1       7.457  -3.638   0.954  1.00  0.00     0.304 A 
HETATM   21  O4  UNL     1       6.322  -2.793   1.186  1.00  0.00    -0.300 OA
HETATM   22  C23 UNL     1       5.158   1.800   1.730  1.00  0.00     0.286 C 
HETATM   23  O5  UNL     1      -1.233   0.794  -0.298  1.00  0.00    -0.300 OA
HETATM   24  C24 UNL     1      -2.192   1.823  -0.020  1.00  0.00     0.304 A 
HETATM   25  O6  UNL     1      -1.444   2.994   0.330  1.00  0.00    -0.300 OA
ENDROOT
BRANCH  14  26
HETATM   26  C14 UNL     1       2.901  -1.554   0.651  1.00  0.00     0.059 A 
HETATM   27  C15 UNL     1       1.858  -1.509   1.695  1.00  0.00     0.279 A 
HETATM   28  N2  UNL     1       1.031  -2.563   1.408  1.00  0.00    -0.169 NA
HETATM   29  O2  UNL     1       1.694  -0.731   2.621  1.00  0.00    -0.265 OA
HETATM   30  C16 UNL     1       1.399  -3.293   0.309  1.00  0.00     0.295 A 
HETATM   31  C17 UNL     1       2.631  -2.613  -0.169  1.00  0.00     0.129 A 
HETATM   32  O1  UNL     1       0.796  -4.266  -0.111  1.00  0.00    -0.264 OA
HETATM   33  N3  UNL     1       3.333  -3.045  -1.276  1.00  0.00    -0.096 NA
ENDBRANCH  14  26
TORSDOF 1
