REMARK  0 active torsions:
REMARK  status: ('A' for Active; 'I' for Inactive)
ROOT
HETATM    1  C1  UNL     1      -1.927   2.067   1.615  1.00  0.00     0.280 C 
HETATM    2  N1  UNL     1      -1.683   0.644   1.827  1.00  0.00     0.176 N 
HETATM    3  C2  UNL     1      -0.654   0.056   0.934  1.00  0.00     0.360 C 
HETATM    4  C3  UNL     1       0.640   0.873   0.997  1.00  0.00     0.038 C 
HETATM    5  C4  UNL     1       0.550   2.318   1.296  1.00  0.00    -0.000 C 
HETATM    6  C5  UNL     1      -0.656   2.864   1.563  1.00  0.00     0.009 C 
HETATM    7  C6  UNL     1       1.699   3.208   1.068  1.00  0.00     0.022 C 
HETATM    8  C7  UNL     1       2.882   2.633   0.807  1.00  0.00     0.106 C 
HETATM    9  C8  UNL     1       3.132   1.167   0.863  1.00  0.00     0.184 C 
HETATM   10  C9  UNL     1       1.864   0.382   0.701  1.00  0.00     0.010 C 
HETATM   11  O1  UNL     1       4.082   0.995  -0.174  1.00  0.00    -0.318 OA
HETATM   12  C10 UNL     1       4.843   2.199  -0.185  1.00  0.00     0.299 C 
HETATM   13  O2  UNL     1       4.034   3.245   0.353  1.00  0.00    -0.303 OA
HETATM   14  C11 UNL     1      -1.112   0.041  -0.537  1.00  0.00     0.232 C 
HETATM   15  C12 UNL     1      -0.412  -0.923  -1.415  1.00  0.00     0.040 A 
HETATM   16  C13 UNL     1       0.224  -2.012  -0.804  1.00  0.00     0.035 A 
HETATM   17  C14 UNL     1       0.142  -2.257   0.673  1.00  0.00     0.174 C 
HETATM   18  O3  UNL     1      -0.547  -1.283   1.429  1.00  0.00    -0.319 OA
HETATM   19  C15 UNL     1       0.940  -2.860  -1.643  1.00  0.00     0.118 A 
HETATM   20  C16 UNL     1       1.011  -2.657  -3.019  1.00  0.00     0.119 A 
HETATM   21  C17 UNL     1       0.359  -1.591  -3.633  1.00  0.00     0.026 A 
HETATM   22  C18 UNL     1      -0.356  -0.717  -2.805  1.00  0.00     0.005 A 
HETATM   23  O4  UNL     1       1.793  -3.644  -3.581  1.00  0.00    -0.300 OA
HETATM   24  C19 UNL     1       2.250  -4.495  -2.523  1.00  0.00     0.304 A 
HETATM   25  O5  UNL     1       1.675  -3.984  -1.315  1.00  0.00    -0.300 OA
HETATM   26  O6  UNL     1      -1.942   0.809  -1.007  1.00  0.00    -0.286 OA
HETATM   27  C20 UNL     1      -1.406   0.414   3.246  1.00  0.00     0.290 C 
ENDROOT
TORSDOF 0
