REMARK  3 active torsions:
REMARK  status: ('A' for Active; 'I' for Inactive)
REMARK    1  A    between atoms: C7_7  and  C13_15 
REMARK    2  A    between atoms: C13_15  and  C14_16 
REMARK    3  A    between atoms: C14_16  and  C15_18 
ROOT
HETATM    1  C1  UNL     1      -1.931   1.321   0.439  1.00  0.00     0.001 C 
HETATM    2  C2  UNL     1      -1.959   0.661   1.839  1.00  0.00     0.009 C 
HETATM    3  C3  UNL     1      -0.891  -0.432   1.911  1.00  0.00     0.081 C 
HETATM    4  C4  UNL     1       0.433   0.291   1.656  1.00  0.00     0.041 C 
HETATM    5  C5  UNL     1       0.661   1.102   0.370  1.00  0.00     0.007 C 
HETATM    6  C6  UNL     1      -0.667   1.060  -0.419  1.00  0.00     0.000 C 
HETATM    7  C7  UNL     1       1.901   0.484  -0.339  1.00  0.00     0.026 C 
HETATM    8  C8  UNL     1       3.032   0.304   0.686  1.00  0.00    -0.046 C 
HETATM    9  C9  UNL     1       2.762  -0.319   1.850  1.00  0.00    -0.005 C 
HETATM   10  C10 UNL     1       1.370  -0.840   2.018  1.00  0.00     0.146 C 
HETATM   11  O1  UNL     1       0.878  -1.225   3.279  1.00  0.00    -0.300 OA
HETATM   12  C11 UNL     1      -0.481  -0.983   3.284  1.00  0.00     0.271 C 
HETATM   13  O2  UNL     1      -1.222  -1.184   4.220  1.00  0.00    -0.264 OA
HETATM   14  C12 UNL     1       4.410   0.852   0.412  1.00  0.00     0.026 C 
HETATM   15  C19 UNL     1       0.972   2.584   0.699  1.00  0.00     0.000 C 
HETATM   16  C20 UNL     1      -1.267  -1.632   1.012  1.00  0.00     0.010 C 
ENDROOT
BRANCH   7  17
HETATM   17  C13 UNL     1       2.294   1.164  -1.664  1.00  0.00     0.073 C 
BRANCH  17  18
HETATM   18  C14 UNL     1       2.720   0.322  -2.863  1.00  0.00     0.175 C 
HETATM   19  O3  UNL     1       3.090   0.892  -3.879  1.00  0.00    -0.291 OA
BRANCH  18  20
HETATM   20  C15 UNL     1       2.526  -1.160  -2.921  1.00  0.00     0.061 A 
HETATM   21  C16 UNL     1       2.824  -2.102  -1.985  1.00  0.00     0.126 A 
HETATM   22  O4  UNL     1       2.443  -3.337  -2.422  1.00  0.00    -0.303 OA
HETATM   23  C17 UNL     1       1.905  -3.161  -3.663  1.00  0.00     0.123 A 
HETATM   24  C18 UNL     1       1.933  -1.848  -4.027  1.00  0.00     0.032 A 
ENDBRANCH  18  20
ENDBRANCH  17  18
ENDBRANCH   7  17
TORSDOF 3
