REMARK  3 active torsions:
REMARK  status: ('A' for Active; 'I' for Inactive)
REMARK    1  A    between atoms: C7_7  and  C14_17 
REMARK    2  A    between atoms: C14_17  and  C15_18 
REMARK    3  A    between atoms: C15_18  and  C16_20 
ROOT
HETATM    1  C1  UNL     1      -1.822   0.018   0.714  1.00  0.00     0.001 C 
HETATM    2  C2  UNL     1      -2.035  -0.988  -0.420  1.00  0.00     0.010 C 
HETATM    3  C3  UNL     1      -0.867  -1.986  -0.571  1.00  0.00     0.082 C 
HETATM    4  C4  UNL     1       0.454  -1.229  -0.763  1.00  0.00     0.035 C 
HETATM    5  C5  UNL     1       0.680  -0.357   0.486  1.00  0.00     0.060 C 
HETATM    6  C6  UNL     1      -0.446   0.685   0.598  1.00  0.00     0.005 C 
HETATM    7  C7  UNL     1       2.122   0.204   0.434  1.00  0.00     0.042 C 
HETATM    8  C8  UNL     1       2.845  -1.082   0.869  1.00  0.00     0.114 C 
HETATM    9  C9  UNL     1       2.742  -2.072  -0.273  1.00  0.00    -0.004 C 
HETATM   10  C10 UNL     1       1.633  -2.135  -1.022  1.00  0.00    -0.028 C 
HETATM   11  C11 UNL     1       4.306  -0.928   1.291  1.00  0.00     0.034 C 
HETATM   12  O1  UNL     1       2.103  -1.557   1.955  1.00  0.00    -0.331 OA
HETATM   13  C12 UNL     1       0.745  -1.244   1.720  1.00  0.00     0.243 C 
HETATM   14  O2  UNL     1       0.050  -2.470   1.670  1.00  0.00    -0.276 OA
HETATM   15  C13 UNL     1      -0.786  -2.865   0.673  1.00  0.00     0.273 C 
HETATM   16  O3  UNL     1      -1.433  -3.888   0.761  1.00  0.00    -0.264 OA
HETATM   17  C20 UNL     1      -1.177  -2.877  -1.796  1.00  0.00     0.010 C 
ENDROOT
BRANCH   7  18
HETATM   18  C14 UNL     1       2.410   1.439   1.309  1.00  0.00     0.072 C 
BRANCH  18  19
HETATM   19  C15 UNL     1       1.996   2.760   0.673  1.00  0.00     0.175 C 
HETATM   20  O4  UNL     1       1.084   3.433   1.140  1.00  0.00    -0.291 OA
BRANCH  19  21
HETATM   21  C16 UNL     1       2.752   3.247  -0.502  1.00  0.00     0.061 A 
HETATM   22  C17 UNL     1       3.864   2.691  -1.073  1.00  0.00     0.126 A 
HETATM   23  O5  UNL     1       4.258   3.427  -2.146  1.00  0.00    -0.303 OA
HETATM   24  C18 UNL     1       3.378   4.466  -2.250  1.00  0.00     0.123 A 
HETATM   25  C19 UNL     1       2.430   4.411  -1.273  1.00  0.00     0.032 A 
ENDBRANCH  19  21
ENDBRANCH  18  19
ENDBRANCH   7  18
TORSDOF 3
