REMARK  0 active torsions:
REMARK  status: ('A' for Active; 'I' for Inactive)
ROOT
HETATM    1  C1  UNL     1       0.005   1.084  -0.416  1.00  0.00     0.157 C 
HETATM    2  C2  UNL     1       0.282  -0.443  -0.344  1.00  0.00     0.082 C 
HETATM    3  C3  UNL     1       1.613  -0.871  -0.995  1.00  0.00     0.129 C 
HETATM    4  C4  UNL     1       2.940  -0.477  -0.343  1.00  0.00     0.037 C 
HETATM    5  C5  UNL     1       3.013   0.699   0.640  1.00  0.00     0.006 C 
HETATM    6  C6  UNL     1       2.314   1.986   0.185  1.00  0.00     0.033 C 
HETATM    7  C7  UNL     1       0.800   2.072   0.449  1.00  0.00     0.152 C 
HETATM    8  O1  UNL     1       0.401   3.353   0.006  1.00  0.00    -0.224 OA
HETATM    9  C8  UNL     1       0.504   2.090   1.955  1.00  0.00     0.036 C 
HETATM   10  C9  UNL     1       3.442  -1.795   0.262  1.00  0.00     0.089 C 
HETATM   11  C10 UNL     1       2.675  -2.850  -0.504  1.00  0.00     0.271 C 
HETATM   12  O2  UNL     1       1.633  -2.264  -1.141  1.00  0.00    -0.304 OA
HETATM   13  O3  UNL     1       2.919  -4.035  -0.528  1.00  0.00    -0.264 OA
HETATM   14  C11 UNL     1       4.962  -1.979   0.190  1.00  0.00     0.011 C 
HETATM   15  C12 UNL     1      -0.895  -0.951  -1.218  1.00  0.00     0.157 C 
HETATM   16  C13 UNL     1      -2.108  -0.107  -0.837  1.00  0.00     0.036 C 
HETATM   17  C14 UNL     1      -1.522   1.191  -0.256  1.00  0.00     0.036 C 
HETATM   18  O4  UNL     1      -1.159  -2.322  -1.053  1.00  0.00    -0.223 OA
HETATM   19  C15 UNL     1       0.132  -1.052   1.068  1.00  0.00     0.008 C 
HETATM   20  O5  UNL     1       0.261   1.494  -1.744  1.00  0.00    -0.223 OA
ENDROOT
TORSDOF 0
