REMARK  3 active torsions:
REMARK  status: ('A' for Active; 'I' for Inactive)
REMARK    1  A    between atoms: C1_1  and  O8_28 
REMARK    2  A    between atoms: O8_28  and  C21_29 
REMARK    3  A    between atoms: C23_31  and  C27_38 
ROOT
HETATM    1  C1  UNL     1      -0.804  -0.528  -0.481  1.00  0.00     0.167 C 
HETATM    2  C2  UNL     1      -1.477  -1.390   0.561  1.00  0.00    -0.003 C 
HETATM    3  C3  UNL     1      -0.818  -1.739   1.677  1.00  0.00    -0.046 C 
HETATM    4  C4  UNL     1       0.569  -1.159   1.877  1.00  0.00     0.023 C 
HETATM    5  C5  UNL     1       0.480   0.375   1.655  1.00  0.00     0.039 C 
HETATM    6  C6  UNL     1      -0.059   0.628   0.210  1.00  0.00     0.184 C 
HETATM    7  O1  UNL     1      -0.907   1.756   0.203  1.00  0.00    -0.221 OA
HETATM    8  C7  UNL     1       1.922   0.976   1.767  1.00  0.00     0.065 C 
HETATM    9  C8  UNL     1       2.835   0.453   2.888  1.00  0.00     0.061 C 
HETATM   10  C9  UNL     1       2.729  -1.043   3.188  1.00  0.00     0.127 C 
HETATM   11  C10 UNL     1       1.276  -1.536   3.190  1.00  0.00     0.034 C 
HETATM   12  O2  UNL     1       3.428  -1.886   2.314  1.00  0.00    -0.302 OA
HETATM   13  C11 UNL     1       4.207  -1.461   1.294  1.00  0.00     0.302 C 
HETATM   14  C12 UNL     1       4.870  -0.102   1.452  1.00  0.00     0.237 C 
HETATM   15  C13 UNL     1       4.319   0.778   2.575  1.00  0.00     0.048 C 
HETATM   16  C14 UNL     1       4.588   2.296   2.454  1.00  0.00     0.039 C 
HETATM   17  C15 UNL     1       3.446   3.024   1.740  1.00  0.00     0.206 C 
HETATM   18  C16 UNL     1       2.080   2.456   2.088  1.00  0.00     0.247 C 
HETATM   19  O3  UNL     1       1.144   3.255   1.404  1.00  0.00    -0.193 OA
HETATM   20  O4  UNL     1       1.887   2.559   3.470  1.00  0.00    -0.331 OA
HETATM   21  C17 UNL     1       2.344   1.349   4.039  1.00  0.00     0.147 C 
HETATM   22  O5  UNL     1       3.581   2.964   0.343  1.00  0.00    -0.218 OA
HETATM   23  C18 UNL     1       5.992   2.686   1.961  1.00  0.00     0.003 C 
HETATM   24  O6  UNL     1       4.870   0.526   0.178  1.00  0.00    -0.213 OA
HETATM   25  O7  UNL     1       4.461  -2.164   0.338  1.00  0.00    -0.261 OA
HETATM   26  C19 UNL     1      -0.555   0.919   2.682  1.00  0.00     0.003 C 
HETATM   27  C20 UNL     1      -1.423  -2.656   2.708  1.00  0.00     0.026 C 
ENDROOT
BRANCH   1  28
HETATM   28  O8  UNL     1       0.025  -1.390  -1.239  1.00  0.00    -0.350 OA
BRANCH  28  29
HETATM   29  C21 UNL     1       0.668  -0.820  -2.348  1.00  0.00     0.149 C 
HETATM   30  C22 UNL     1       0.087  -1.362  -3.661  1.00  0.00     0.038 C 
HETATM   31  C23 UNL     1       0.855  -0.789  -4.872  1.00  0.00     0.069 C 
HETATM   32  C24 UNL     1       2.343  -1.133  -4.739  1.00  0.00     0.188 C 
HETATM   33  C25 UNL     1       2.897  -0.575  -3.444  1.00  0.00     0.215 C 
HETATM   34  O11 UNL     1       3.085  -0.589  -5.801  1.00  0.00    -0.221 OA
HETATM   35  C26 UNL     1       2.150  -1.179  -2.274  1.00  0.00     0.212 C 
HETATM   36  O10 UNL     1       4.262  -0.893  -3.342  1.00  0.00    -0.218 OA
HETATM   37  O9  UNL     1       2.708  -0.654  -1.101  1.00  0.00    -0.218 OA
BRANCH  31  38
HETATM   38  C27 UNL     1       0.280  -1.279  -6.200  1.00  0.00     0.185 C 
HETATM   39  O12 UNL     1       0.813  -0.504  -7.258  1.00  0.00    -0.221 OA
ENDBRANCH  31  38
ENDBRANCH  28  29
ENDBRANCH   1  28
TORSDOF 3
