REMARK  0 active torsions:
REMARK  status: ('A' for Active; 'I' for Inactive)
ROOT
HETATM    1  C1  UNL     1       1.199   2.534  -0.055  1.00  0.00     0.026 C 
HETATM    2  C2  UNL     1       1.546   1.128   0.407  1.00  0.00    -0.047 C 
HETATM    3  C3  UNL     1       2.050   0.237  -0.471  1.00  0.00    -0.031 C 
HETATM    4  C4  UNL     1       2.206  -1.266  -0.298  1.00  0.00     0.036 C 
HETATM    5  C5  UNL     1       0.795  -1.741   0.005  1.00  0.00    -0.027 C 
HETATM    6  C6  UNL     1      -0.221  -1.525  -0.847  1.00  0.00    -0.030 C 
HETATM    7  C7  UNL     1      -1.681  -1.726  -0.539  1.00  0.00     0.030 C 
HETATM    8  C8  UNL     1      -2.463  -0.449  -0.912  1.00  0.00     0.026 C 
HETATM    9  C9  UNL     1      -1.960   0.767  -0.151  1.00  0.00    -0.048 C 
HETATM   10  C10 UNL     1      -1.048   1.593  -0.705  1.00  0.00    -0.034 C 
HETATM   11  C11 UNL     1      -0.329   2.759  -0.062  1.00  0.00     0.029 C 
HETATM   12  C12 UNL     1      -2.513   0.894   1.249  1.00  0.00     0.026 C 
HETATM   13  C13 UNL     1       3.236  -1.646   0.782  1.00  0.00     0.009 C 
HETATM   14  C14 UNL     1       2.698  -1.911  -1.616  1.00  0.00     0.009 C 
HETATM   15  C15 UNL     1       1.185   0.844   1.847  1.00  0.00     0.026 C 
ENDROOT
TORSDOF 0
