REMARK  1 active torsions:
REMARK  status: ('A' for Active; 'I' for Inactive)
REMARK    1  A    between atoms: C3_3  and  O3_16 
ROOT
HETATM    1  C1  UNL     1      -2.332   1.302  -0.158  1.00  0.00     0.002 C 
HETATM    2  C2  UNL     1      -2.227  -0.063   0.119  1.00  0.00     0.026 C 
HETATM    3  C3  UNL     1      -1.002  -0.736   0.181  1.00  0.00     0.110 C 
HETATM    4  C4  UNL     1       0.188   0.042   0.110  1.00  0.00     0.087 A 
HETATM    5  C5  UNL     1       0.080   1.427  -0.188  1.00  0.00     0.057 A 
HETATM    6  C6  UNL     1      -1.174   2.045  -0.331  1.00  0.00     0.005 C 
HETATM    7  C7  UNL     1       1.275   2.297  -0.341  1.00  0.00     0.200 A 
HETATM    8  C8  UNL     1       2.567   1.633  -0.161  1.00  0.00     0.081 A 
HETATM    9  C9  UNL     1       2.669   0.301   0.146  1.00  0.00     0.167 A 
HETATM   10  N1  UNL     1       1.516  -0.456   0.277  1.00  0.00    -0.305 N 
HETATM   11  C10 UNL     1       1.765  -1.858   0.672  1.00  0.00     0.133 C 
HETATM   12  O1  UNL     1       3.989  -0.034   0.235  1.00  0.00    -0.289 OA
HETATM   13  C11 UNL     1       4.704   1.114  -0.010  1.00  0.00     0.125 A 
HETATM   14  C12 UNL     1       3.888   2.175  -0.260  1.00  0.00     0.034 A 
HETATM   15  O2  UNL     1       1.221   3.497  -0.608  1.00  0.00    -0.286 OA
ENDROOT
BRANCH   3  16
HETATM   16  O3  UNL     1      -1.028  -2.068   0.503  1.00  0.00    -0.327 OA
HETATM   17  C13 UNL     1      -1.366  -2.913  -0.575  1.00  0.00     0.181 C 
ENDBRANCH   3  16
TORSDOF 1
