REMARK  4 active torsions:
REMARK  status: ('A' for Active; 'I' for Inactive)
REMARK    1  A    between atoms: C2_2  and  O5_22 
REMARK    2  A    between atoms: C8_8  and  C10_11 
REMARK    3  A    between atoms: C13_14  and  O4_20 
REMARK    4  A    between atoms: C14_15  and  O3_18 
ROOT
HETATM    1  C1  UNL     1       0.193   2.217  -0.229  1.00  0.00     0.024 A 
HETATM    2  C2  UNL     1      -0.382   0.955  -0.424  1.00  0.00     0.096 A 
HETATM    3  C3  UNL     1       0.519  -0.111  -0.562  1.00  0.00     0.049 A 
HETATM    4  C4  UNL     1       1.914   0.028  -0.538  1.00  0.00     0.098 A 
HETATM    5  C5  UNL     1       2.440   1.310  -0.344  1.00  0.00     0.005 A 
HETATM    6  C6  UNL     1       1.575   2.396  -0.193  1.00  0.00     0.000 A 
HETATM    7  C7  UNL     1       3.927   1.524  -0.316  1.00  0.00     0.057 A 
HETATM    8  C8  UNL     1       4.691   0.229  -0.397  1.00  0.00     0.009 A 
HETATM    9  C9  UNL     1       4.050  -0.936  -0.601  1.00  0.00     0.119 A 
HETATM   10  O1  UNL     1       2.700  -1.075  -0.706  1.00  0.00    -0.306 OA
ENDROOT
BRANCH   8  11
HETATM   11  C10 UNL     1       6.180   0.237  -0.295  1.00  0.00     0.026 A 
HETATM   12  C11 UNL     1       6.886   1.169  -1.052  1.00  0.00     0.004 A 
HETATM   13  C12 UNL     1       8.273   1.165  -1.009  1.00  0.00     0.026 A 
HETATM   14  C13 UNL     1       9.008   0.255  -0.239  1.00  0.00     0.118 A 
HETATM   15  C14 UNL     1       8.296  -0.675   0.560  1.00  0.00     0.141 A 
HETATM   16  C15 UNL     1       6.881  -0.670   0.519  1.00  0.00     0.155 A 
HETATM   17  O2  UNL     1       6.144  -1.495   1.311  1.00  0.00    -0.188 OA
BRANCH  14  18
HETATM   18  O4  UNL     1      10.376   0.397  -0.346  1.00  0.00    -0.326 OA
HETATM   19  C17 UNL     1      11.271  -0.430   0.355  1.00  0.00     0.181 C 
ENDBRANCH  14  18
BRANCH  15  20
HETATM   20  O3  UNL     1       9.032  -1.573   1.297  1.00  0.00    -0.324 OA
HETATM   21  C16 UNL     1       8.461  -2.717   1.882  1.00  0.00     0.182 C 
ENDBRANCH  15  20
ENDBRANCH   8  11
BRANCH   2  22
HETATM   22  O5  UNL     1      -1.750   0.847  -0.432  1.00  0.00    -0.328 OA
HETATM   23  C18 UNL     1      -2.320  -0.441  -0.466  1.00  0.00     0.181 C 
ENDBRANCH   2  22
TORSDOF 4
