REMARK  4 active torsions:
REMARK  status: ('A' for Active; 'I' for Inactive)
REMARK    1  A    between atoms: C2_2  and  C3_3 
REMARK    2  A    between atoms: C3_3  and  C4_4 
REMARK    3  A    between atoms: C4_4  and  C5_5 
REMARK    4  A    between atoms: C5_5  and  C6_6 
ROOT
HETATM    1  C1  UNL     1       2.644   0.096   0.336  1.00  0.00     0.000 C 
HETATM    2  C2  UNL     1       1.210  -0.479   0.373  1.00  0.00     0.003 C 
HETATM    3  C9  UNL     1       1.123  -2.024   0.557  1.00  0.00     0.028 C 
HETATM    4  C10 UNL     1      -0.392  -2.279   0.770  1.00  0.00     0.002 C 
HETATM    5  C11 UNL     1      -0.835  -1.034   1.562  1.00  0.00     0.000 C 
HETATM    6  C12 UNL     1       0.490  -0.260   1.726  1.00  0.00     0.003 C 
HETATM    7  C13 UNL     1       1.349  -1.047   2.743  1.00  0.00     0.033 C 
HETATM    8  C14 UNL     1       1.821  -2.247   1.915  1.00  0.00     0.152 C 
HETATM    9  O2  UNL     1       1.457  -3.463   2.519  1.00  0.00    -0.224 OA
HETATM   10  C15 UNL     1       1.718  -2.866  -0.571  1.00  0.00     0.003 C 
ENDROOT
BRANCH   2  11
HETATM   11  C3  UNL     1       0.472   0.066  -0.878  1.00  0.00     0.008 C 
BRANCH  11  12
HETATM   12  C4  UNL     1       0.012   1.534  -0.780  1.00  0.00     0.069 C 
BRANCH  12  13
HETATM   13  C5  UNL     1      -0.578   2.073  -2.078  1.00  0.00     0.169 C 
HETATM   14  O1  UNL     1      -0.270   1.554  -3.144  1.00  0.00    -0.292 OA
BRANCH  13  15
HETATM   15  C6  UNL     1      -1.552   3.202  -2.079  1.00  0.00     0.013 C 
HETATM   16  C7  UNL     1      -2.175   3.584  -3.403  1.00  0.00     0.034 C 
HETATM   17  C8  UNL     1      -1.865   3.873  -0.953  1.00  0.00    -0.002 C 
ENDBRANCH  13  15
ENDBRANCH  12  13
ENDBRANCH  11  12
ENDBRANCH   2  11
TORSDOF 4
