REMARK  1 active torsions:
REMARK  status: ('A' for Active; 'I' for Inactive)
REMARK    1  A    between atoms: C2_2  and  C10_10 
ROOT
HETATM    1  C1  UNL     1      -1.509   1.726   0.739  1.00  0.00     0.032 C 
HETATM    2  C2  UNL     1      -0.090   1.624   0.247  1.00  0.00     0.038 C 
HETATM    3  C3  UNL     1       0.568   0.448   0.316  1.00  0.00    -0.025 C 
HETATM    4  C4  UNL     1      -0.017  -0.778   0.899  1.00  0.00     0.022 A 
HETATM    5  C5  UNL     1      -1.531  -0.813   0.850  1.00  0.00     0.005 A 
HETATM    6  C6  UNL     1      -2.260   0.439   0.383  1.00  0.00     0.005 C 
HETATM    7  C7  UNL     1      -0.713  -1.647  -0.122  1.00  0.00     0.004 A 
HETATM    8  C8  UNL     1      -0.690  -3.148   0.144  1.00  0.00     0.000 C 
HETATM    9  C9  UNL     1      -0.649  -1.294  -1.603  1.00  0.00     0.000 C 
ENDROOT
BRANCH   2  10
HETATM   10  C10 UNL     1       0.607   2.826  -0.275  1.00  0.00     0.206 C 
HETATM   11  O1  UNL     1       1.733   2.755  -0.752  1.00  0.00    -0.644 OA
HETATM   12  O2  UNL     1       0.040   4.051  -0.256  1.00  0.00    -0.644 OA
ENDBRANCH   2  10
TORSDOF 1
