REMARK  2 active torsions:
REMARK  status: ('A' for Active; 'I' for Inactive)
REMARK    1  A    between atoms: C9_9  and  C11_11 
REMARK    2  A    between atoms: C11_11  and  C12_12 
ROOT
HETATM    1  C1  UNL     1      -2.610   1.021   0.322  1.00  0.00     0.005 C 
HETATM    2  C2  UNL     1      -2.518  -0.442  -0.115  1.00  0.00     0.021 C 
HETATM    3  C3  UNL     1      -1.152  -1.058   0.109  1.00  0.00    -0.052 C 
HETATM    4  C4  UNL     1      -0.039  -0.316   0.295  1.00  0.00    -0.052 C 
HETATM    5  C5  UNL     1      -0.069   1.212   0.333  1.00  0.00     0.015 C 
HETATM    6  C6  UNL     1      -1.398   1.770  -0.230  1.00  0.00     0.004 C 
HETATM    7  C7  UNL     1       1.063   1.792  -0.550  1.00  0.00     0.004 C 
HETATM    8  C8  UNL     1       2.446   1.180  -0.296  1.00  0.00     0.005 C 
HETATM    9  C9  UNL     1       2.378  -0.347  -0.435  1.00  0.00     0.032 C 
HETATM   10  C10 UNL     1       1.339  -0.905   0.551  1.00  0.00     0.026 C 
HETATM   11  C14 UNL     1       0.101   1.694   1.791  1.00  0.00     0.004 C 
HETATM   12  C15 UNL     1      -1.208  -2.571   0.039  1.00  0.00     0.026 C 
ENDROOT
BRANCH   9  13
HETATM   13  C11 UNL     1       3.771  -0.943  -0.320  1.00  0.00     0.042 C 
HETATM   14  C13 UNL     1       4.286  -1.397   0.842  1.00  0.00     0.002 C 
BRANCH  13  15
HETATM   15  C12 UNL     1       4.627  -0.981  -1.536  1.00  0.00     0.207 C 
HETATM   16  O1  UNL     1       4.207  -0.514  -2.731  1.00  0.00    -0.644 OA
HETATM   17  O2  UNL     1       5.760  -1.447  -1.505  1.00  0.00    -0.644 OA
ENDBRANCH  13  15
ENDBRANCH   9  13
TORSDOF 2
