REMARK  0 active torsions:
REMARK  status: ('A' for Active; 'I' for Inactive)
ROOT
HETATM    1  O1  UNL     1      -0.787   2.387  -1.112  1.00  0.00    -0.304 OA
HETATM    2  C1  UNL     1      -1.134   1.033  -1.087  1.00  0.00     0.127 C 
HETATM    3  C2  UNL     1       0.112   0.163  -0.900  1.00  0.00     0.059 C 
HETATM    4  C3  UNL     1       0.665   0.445   0.530  1.00  0.00     0.021 C 
HETATM    5  C4  UNL     1       0.408   1.914   0.947  1.00  0.00     0.133 C 
HETATM    6  C5  UNL     1       0.149   2.845  -0.232  1.00  0.00     0.278 C 
HETATM    7  O2  UNL     1       0.624   3.958  -0.299  1.00  0.00    -0.264 OA
HETATM    8  C6  UNL     1      -0.759   2.125   1.939  1.00  0.00     0.021 C 
HETATM    9  C7  UNL     1      -0.261   1.417   3.200  1.00  0.00     0.026 C 
HETATM   10  C8  UNL     1      -0.366  -0.086   2.917  1.00  0.00     0.004 C 
HETATM   11  C9  UNL     1       0.482  -0.543   1.715  1.00  0.00     0.001 C 
HETATM   12  C10 UNL     1       1.158   1.921   3.232  1.00  0.00     0.013 C 
HETATM   13  C11 UNL     1       1.589   2.272   1.862  1.00  0.00     0.177 C 
HETATM   14  O3  UNL     1       2.698   2.647   1.504  1.00  0.00    -0.291 OA
HETATM   15  C12 UNL     1       1.943   2.041   4.316  1.00  0.00    -0.002 C 
HETATM   16  C13 UNL     1      -0.148  -1.316  -1.292  1.00  0.00     0.064 C 
HETATM   17  C14 UNL     1      -1.625  -1.766  -1.417  1.00  0.00     0.005 C 
HETATM   18  C15 UNL     1      -2.461  -0.779  -2.269  1.00  0.00     0.003 C 
HETATM   19  C16 UNL     1      -1.926   0.662  -2.338  1.00  0.00     0.030 C 
HETATM   20  C17 UNL     1      -1.708  -3.176  -2.055  1.00  0.00     0.000 C 
HETATM   21  C18 UNL     1      -2.256  -1.928  -0.012  1.00  0.00     0.000 C 
HETATM   22  C19 UNL     1       0.644  -1.481  -2.579  1.00  0.00     0.269 C 
HETATM   23  O4  UNL     1       1.731  -0.608  -2.473  1.00  0.00    -0.329 OA
HETATM   24  C20 UNL     1       1.186   0.571  -1.952  1.00  0.00     0.147 C 
HETATM   25  O5  UNL     1       1.326  -2.719  -2.663  1.00  0.00    -0.190 OA
ENDROOT
TORSDOF 0
