REMARK  8 active torsions:
REMARK  status: ('A' for Active; 'I' for Inactive)
REMARK    1  A    between atoms: C5_5  and  C7_7 
REMARK    2  A    between atoms: C7_7  and  O1_8 
REMARK    3  A    between atoms: O1_8  and  C8_9 
REMARK    4  A    between atoms: C8_9  and  C9_10 
REMARK    5  A    between atoms: C19_21  and  O3_22 
REMARK    6  A    between atoms: N1_25  and  C22_26 
REMARK    7  A    between atoms: C26_31  and  O6_37 
REMARK    8  A    between atoms: C28_33  and  O5_34 
ROOT
HETATM    1  C9  UNL     1      -0.441  -1.229  -0.711  1.00  0.00     0.062 C 
HETATM    2  C10 UNL     1       0.545  -0.262   0.013  1.00  0.00     0.038 C 
HETATM    3  C11 UNL     1       0.713   1.005  -0.909  1.00  0.00     0.063 C 
HETATM    4  C12 UNL     1      -0.586   1.425  -1.642  1.00  0.00     0.154 C 
HETATM    5  C13 UNL     1      -1.849   0.887  -0.981  1.00  0.00     0.033 C 
HETATM    6  C14 UNL     1      -1.855  -0.629  -0.784  1.00  0.00     0.007 C 
HETATM    7  O2  UNL     1      -0.557   1.198  -3.028  1.00  0.00    -0.223 OA
HETATM    8  C15 UNL     1       1.221   2.356  -0.282  1.00  0.00     0.009 C 
HETATM    9  C16 UNL     1       2.511   2.428   0.558  1.00  0.00     0.058 C 
HETATM   10  C17 UNL     1       3.533   1.463  -0.047  1.00  0.00     0.161 C 
HETATM   11  C18 UNL     1       2.816   0.171  -0.464  1.00  0.00     0.206 C 
HETATM   12  C19 UNL     1       1.936  -0.470   0.675  1.00  0.00     0.148 C 
HETATM   13  C21 UNL     1       1.867   0.380  -1.714  1.00  0.00     0.254 C 
HETATM   14  N1  UNL     1       1.528  -0.906  -2.389  1.00  0.00     0.138 N 
HETATM   15  C24 UNL     1       0.154  -1.438  -2.173  1.00  0.00     0.253 C 
HETATM   16  O4  UNL     1       3.811  -0.753  -0.821  1.00  0.00    -0.219 OA
HETATM   17  C25 UNL     1       4.372   2.074  -1.192  1.00  0.00     0.063 C 
HETATM   18  C26 UNL     1       4.074   3.515  -1.651  1.00  0.00     0.120 C 
HETATM   19  C27 UNL     1       2.865   4.146  -0.947  1.00  0.00     0.055 C 
HETATM   20  C28 UNL     1       2.918   3.899   0.551  1.00  0.00     0.120 C 
HETATM   21  C30 UNL     1       1.521   3.477  -1.321  1.00  0.00     0.005 C 
HETATM   22  O7  UNL     1       4.438   1.068   0.957  1.00  0.00    -0.223 OA
ENDROOT
BRANCH   1  23
HETATM   23  C8  UNL     1      -0.491  -2.560   0.096  1.00  0.00     0.154 C 
BRANCH  23  24
HETATM   24  O1  UNL     1      -1.552  -3.395  -0.276  1.00  0.00    -0.298 OA
BRANCH  24  25
HETATM   25  C7  UNL     1      -2.028  -4.302   0.640  1.00  0.00     0.297 C 
HETATM   26  O8  UNL     1      -3.067  -4.901   0.371  1.00  0.00    -0.259 OA
BRANCH  25  27
HETATM   27  C5  UNL     1      -1.401  -4.648   1.959  1.00  0.00     0.076 A 
HETATM   28  C4  UNL     1      -2.215  -4.873   3.093  1.00  0.00     0.075 A 
HETATM   29  C3  UNL     1      -1.631  -5.152   4.345  1.00  0.00     0.014 A 
HETATM   30  N2  UNL     1      -3.593  -4.796   3.016  1.00  0.00    -0.100 NA
HETATM   31  C2  UNL     1      -0.249  -5.228   4.474  1.00  0.00     0.001 A 
HETATM   32  C1  UNL     1       0.562  -5.048   3.346  1.00  0.00     0.000 A 
HETATM   33  C6  UNL     1      -0.010  -4.773   2.106  1.00  0.00     0.006 A 
ENDBRANCH  25  27
ENDBRANCH  24  25
ENDBRANCH  23  24
ENDBRANCH   1  23
BRANCH  12  34
HETATM   34  O3  UNL     1       1.917   0.137   1.933  1.00  0.00    -0.351 OA
HETATM   35  C20 UNL     1       2.211  -0.729   3.009  1.00  0.00     0.174 C 
ENDBRANCH  12  34
BRANCH  14  36
HETATM   36  C22 UNL     1       1.921  -0.901  -3.794  1.00  0.00     0.250 C 
HETATM   37  C23 UNL     1       1.781  -2.268  -4.484  1.00  0.00     0.037 C 
ENDBRANCH  14  36
BRANCH  20  38
HETATM   38  O5  UNL     1       4.176   4.167   1.093  1.00  0.00    -0.354 OA
HETATM   39  C29 UNL     1       4.211   4.057   2.500  1.00  0.00     0.174 C 
ENDBRANCH  20  38
BRANCH  18  40
HETATM   40  O6  UNL     1       5.268   4.247  -1.492  1.00  0.00    -0.354 OA
HETATM   41  C31 UNL     1       5.223   5.591  -1.919  1.00  0.00     0.174 C 
ENDBRANCH  18  40
TORSDOF 8
