REMARK  1 active torsions:
REMARK  status: ('A' for Active; 'I' for Inactive)
REMARK    1  A    between atoms: C3_3  and  C30_33 
ROOT
HETATM    1  C1  UNL     1      -1.444  -0.873  -2.506  1.00  0.00     0.182 C 
HETATM    2  C2  UNL     1      -2.281  -1.736  -1.578  1.00  0.00     0.185 C 
HETATM    3  C3  UNL     1      -1.462  -2.521  -0.532  1.00  0.00     0.061 C 
HETATM    4  C4  UNL     1      -0.121  -1.793  -0.197  1.00  0.00     0.005 C 
HETATM    5  C5  UNL     1      -0.040  -0.247  -0.370  1.00  0.00     0.005 C 
HETATM    6  C6  UNL     1      -0.545   0.141  -1.795  1.00  0.00     0.036 C 
HETATM    7  C7  UNL     1       1.470   0.185  -0.253  1.00  0.00     0.030 C 
HETATM    8  C8  UNL     1       2.290  -0.322   0.969  1.00  0.00     0.005 C 
HETATM    9  C9  UNL     1       2.018  -1.832   1.201  1.00  0.00     0.000 C 
HETATM   10  C10 UNL     1       0.541  -2.256   1.115  1.00  0.00     0.000 C 
HETATM   11  C11 UNL     1       3.830  -0.026   0.658  1.00  0.00     0.026 C 
HETATM   12  C12 UNL     1       4.048   1.521   0.529  1.00  0.00     0.129 C 
HETATM   13  C13 UNL     1       2.971   2.273  -0.273  1.00  0.00     0.168 A 
HETATM   14  C14 UNL     1       1.731   1.673  -0.535  1.00  0.00     0.145 A 
HETATM   15  O1  UNL     1       2.734   1.772  -1.700  1.00  0.00    -0.352 OA
HETATM   16  C15 UNL     1       5.498   1.983   0.240  1.00  0.00     0.041 C 
HETATM   17  C16 UNL     1       6.154   1.583   1.570  1.00  0.00     0.081 C 
HETATM   18  C17 UNL     1       6.175   0.057   1.777  1.00  0.00     0.010 C 
HETATM   19  C18 UNL     1       4.766  -0.573   1.778  1.00  0.00     0.003 C 
HETATM   20  C19 UNL     1       7.523   2.247   1.757  1.00  0.00     0.014 C 
HETATM   21  C20 UNL     1       8.431   1.958   0.555  1.00  0.00     0.022 C 
HETATM   22  C21 UNL     1       7.730   2.391  -0.715  1.00  0.00    -0.044 C 
HETATM   23  C22 UNL     1       6.397   1.693  -0.982  1.00  0.00     0.021 C 
HETATM   24  C23 UNL     1       5.771   2.081  -2.328  1.00  0.00     0.004 C 
HETATM   25  C24 UNL     1       8.267   3.342  -1.497  1.00  0.00    -0.009 C 
HETATM   26  C25 UNL     1       5.099   2.142   2.499  1.00  0.00     0.271 C 
HETATM   27  O2  UNL     1       3.916   2.047   1.843  1.00  0.00    -0.304 OA
HETATM   28  O3  UNL     1       5.251   2.567   3.623  1.00  0.00    -0.264 OA
HETATM   29  C26 UNL     1       4.315  -0.779  -0.617  1.00  0.00     0.002 C 
HETATM   30  C27 UNL     1       1.777   0.384   2.256  1.00  0.00     0.000 C 
HETATM   31  C28 UNL     1      -0.913   0.532   0.642  1.00  0.00     0.000 C 
HETATM   32  C29 UNL     1      -1.107  -3.904  -1.168  1.00  0.00     0.005 C 
HETATM   33  O5  UNL     1      -3.270  -0.924  -0.984  1.00  0.00    -0.221 OA
HETATM   34  O6  UNL     1      -0.655  -1.690  -3.340  1.00  0.00    -0.221 OA
ENDROOT
BRANCH   3  35
HETATM   35  C30 UNL     1      -2.325  -2.920   0.684  1.00  0.00     0.185 C 
HETATM   36  O4  UNL     1      -2.686  -1.815   1.480  1.00  0.00    -0.221 OA
ENDBRANCH   3  35
TORSDOF 1
