REMARK  1 active torsions:
REMARK  status: ('A' for Active; 'I' for Inactive)
REMARK    1  A    between atoms: C3_3  and  C10_12 
ROOT
HETATM    1  C1  UNL     1       4.497   0.410   0.330  1.00  0.00     0.156 A 
HETATM    2  C2  UNL     1       3.341  -0.063  -0.304  1.00  0.00     0.158 A 
HETATM    3  C3  UNL     1       2.084   0.278   0.216  1.00  0.00     0.052 A 
HETATM    4  C4  UNL     1       1.922   1.100   1.343  1.00  0.00     0.105 A 
HETATM    5  C5  UNL     1       3.096   1.587   1.942  1.00  0.00     0.025 A 
HETATM    6  C6  UNL     1       4.357   1.238   1.442  1.00  0.00     0.032 A 
HETATM    7  C7  UNL     1       2.992   2.469   3.102  1.00  0.00     0.007 A 
HETATM    8  C8  UNL     1       1.765   2.798   3.559  1.00  0.00     0.069 A 
HETATM    9  C9  UNL     1       0.576   2.240   2.876  1.00  0.00     0.300 A 
HETATM   10  O1  UNL     1       0.669   1.392   1.812  1.00  0.00    -0.273 OA
HETATM   11  O2  UNL     1      -0.529   2.559   3.310  1.00  0.00    -0.259 OA
HETATM   12  O7  UNL     1       3.441  -0.865  -1.399  1.00  0.00    -0.188 OA
HETATM   13  O8  UNL     1       5.734   0.084  -0.130  1.00  0.00    -0.188 OA
ENDROOT
BRANCH   3  14
HETATM   14  C10 UNL     1       0.869  -0.240  -0.490  1.00  0.00     0.033 A 
HETATM   15  C11 UNL     1       0.055   0.686  -1.146  1.00  0.00     0.156 A 
HETATM   16  C12 UNL     1      -1.054   0.230  -1.866  1.00  0.00     0.158 A 
HETATM   17  O6  UNL     1       0.310   2.021  -1.118  1.00  0.00    -0.188 OA
HETATM   18  C13 UNL     1      -1.295  -1.142  -1.946  1.00  0.00     0.054 A 
HETATM   19  O5  UNL     1      -1.858   1.123  -2.500  1.00  0.00    -0.188 OA
HETATM   20  C14 UNL     1      -0.485  -2.099  -1.323  1.00  0.00     0.105 A 
HETATM   21  C15 UNL     1       0.599  -1.619  -0.566  1.00  0.00     0.025 A 
HETATM   22  O3  UNL     1      -0.785  -3.426  -1.467  1.00  0.00    -0.273 OA
HETATM   23  C16 UNL     1       1.439  -2.594   0.130  1.00  0.00     0.007 A 
HETATM   24  C17 UNL     1       1.184  -3.911  -0.021  1.00  0.00     0.069 A 
HETATM   25  C18 UNL     1       0.047  -4.326  -0.871  1.00  0.00     0.300 A 
HETATM   26  O4  UNL     1      -0.144  -5.531  -1.022  1.00  0.00    -0.259 OA
ENDBRANCH   3  14
TORSDOF 1
