REMARK  0 active torsions:
REMARK  status: ('A' for Active; 'I' for Inactive)
ROOT
HETATM    1  N1  UNL     1       1.549  -1.036   0.652  1.00  0.00    -0.181 NA
HETATM    2  C1  UNL     1       0.506  -1.755   1.142  1.00  0.00     0.303 C 
HETATM    3  N2  UNL     1      -0.780  -1.394   1.045  1.00  0.00    -0.182 NA
HETATM    4  C2  UNL     1      -1.050  -0.280   0.345  1.00  0.00     0.188 C 
HETATM    5  C3  UNL     1      -0.049   0.420  -0.326  1.00  0.00     0.156 C 
HETATM    6  C4  UNL     1       1.304   0.035  -0.143  1.00  0.00     0.208 C 
HETATM    7  N3  UNL     1       2.301   0.735  -0.782  1.00  0.00    -0.125 N 
HETATM    8  N4  UNL     1      -0.542   1.358  -1.275  1.00  0.00    -0.218 NA
HETATM    9  C5  UNL     1      -1.820   1.294  -1.280  1.00  0.00     0.201 C 
HETATM   10  N5  UNL     1      -2.577   0.361  -0.060  1.00  0.00    -0.203 NA
HETATM   11  O1  UNL     1       0.674  -3.064   1.503  1.00  0.00    -0.147 OA
ENDROOT
TORSDOF 0
