REMARK  5 active torsions:
REMARK  status: ('A' for Active; 'I' for Inactive)
REMARK    1  A    between atoms: C2_2  and  C21_24 
REMARK    2  A    between atoms: C6_6  and  C7_7 
REMARK    3  A    between atoms: C7_7  and  C8_8 
REMARK    4  A    between atoms: C12_13  and  C15_17 
REMARK    5  A    between atoms: C21_24  and  C22_25 
ROOT
HETATM    1  C1  UNL     1      -1.306  -1.430   0.511  1.00  0.00     0.126 A 
HETATM    2  C2  UNL     1      -0.928  -2.611  -0.351  1.00  0.00     0.007 A 
HETATM    3  C3  UNL     1       0.276  -2.474  -1.214  1.00  0.00     0.002 A 
HETATM    4  C4  UNL     1       0.936  -1.295  -1.289  1.00  0.00     0.043 A 
HETATM    5  C5  UNL     1       0.541  -0.092  -0.528  1.00  0.00     0.094 A 
HETATM    6  C6  UNL     1      -0.531  -0.155   0.316  1.00  0.00     0.030 A 
HETATM    7  O1  UNL     1       1.183   1.103  -0.716  1.00  0.00    -0.329 OA
HETATM    8  C12 UNL     1       1.904   1.261  -1.912  1.00  0.00     0.150 C 
HETATM    9  C13 UNL     1       2.893   0.116  -2.108  1.00  0.00     0.089 C 
HETATM   10  C14 UNL     1       2.183  -1.220  -2.139  1.00  0.00     0.113 C 
HETATM   11  O2  UNL     1       2.647  -2.224  -2.853  1.00  0.00    -0.195 OA
HETATM   12  O4  UNL     1      -2.519  -1.409   1.124  1.00  0.00    -0.191 OA
ENDROOT
BRANCH   8  13
HETATM   13  C15 UNL     1       2.649   2.583  -1.900  1.00  0.00     0.006 A 
HETATM   14  C16 UNL     1       2.708   3.389  -3.041  1.00  0.00     0.000 A 
HETATM   15  C17 UNL     1       3.418   4.591  -3.033  1.00  0.00     0.027 A 
HETATM   16  C18 UNL     1       4.094   5.031  -1.890  1.00  0.00     0.131 A 
HETATM   17  C19 UNL     1       4.036   4.220  -0.753  1.00  0.00     0.027 A 
HETATM   18  O3  UNL     1       4.794   6.195  -1.880  1.00  0.00    -0.190 OA
HETATM   19  C20 UNL     1       3.330   3.015  -0.757  1.00  0.00     0.000 A 
ENDBRANCH   8  13
BRANCH   6  20
HETATM   20  C7  UNL     1      -0.976   1.088   1.067  1.00  0.00     0.056 C 
BRANCH  20  21
HETATM   21  C8  UNL     1       0.162   1.840   1.712  1.00  0.00    -0.030 C 
HETATM   22  C9  UNL     1       0.319   3.175   1.772  1.00  0.00    -0.048 C 
HETATM   23  C10 UNL     1       1.536   3.789   2.425  1.00  0.00     0.026 C 
HETATM   24  C11 UNL     1      -0.656   4.184   1.215  1.00  0.00     0.026 C 
ENDBRANCH  20  21
ENDBRANCH   6  20
BRANCH   2  25
HETATM   25  C21 UNL     1      -1.601  -3.953  -0.194  1.00  0.00     0.054 C 
BRANCH  25  26
HETATM   26  C22 UNL     1      -0.859  -4.812   0.797  1.00  0.00    -0.030 C 
HETATM   27  C23 UNL     1      -1.349  -5.894   1.428  1.00  0.00    -0.048 C 
HETATM   28  C24 UNL     1      -0.496  -6.696   2.385  1.00  0.00     0.026 C 
HETATM   29  C25 UNL     1      -2.752  -6.421   1.247  1.00  0.00     0.026 C 
ENDBRANCH  25  26
ENDBRANCH   2  25
TORSDOF 5
