REMARK  2 active torsions:
REMARK  status: ('A' for Active; 'I' for Inactive)
REMARK    1  A    between atoms: C1_1  and  O4_19 
REMARK    2  A    between atoms: C3_3  and  C13_16 
ROOT
HETATM    1  C1  UNL     1       3.300   1.580   0.143  1.00  0.00     0.099 A 
HETATM    2  C2  UNL     1       3.449   0.155   0.058  1.00  0.00     0.020 A 
HETATM    3  C3  UNL     1       2.447  -0.799  -0.035  1.00  0.00    -0.021 A 
HETATM    4  C4  UNL     1       1.091  -0.335  -0.043  1.00  0.00    -0.002 A 
HETATM    5  C5  UNL     1       0.929   1.046   0.045  1.00  0.00     0.032 A 
HETATM    6  C6  UNL     1       1.980   1.998   0.137  1.00  0.00     0.088 A 
HETATM    7  C7  UNL     1       1.310   3.321   0.208  1.00  0.00     0.302 A 
HETATM    8  O1  UNL     1      -0.221   3.057   0.161  1.00  0.00    -0.271 OA
HETATM    9  C8  UNL     1      -0.337   1.681   0.063  1.00  0.00     0.128 A 
HETATM   10  C9  UNL     1      -1.504   0.956   0.006  1.00  0.00     0.150 A 
HETATM   11  C10 UNL     1      -1.373  -0.464  -0.096  1.00  0.00     0.005 A 
HETATM   12  C11 UNL     1      -0.129  -1.073  -0.124  1.00  0.00    -0.002 A 
HETATM   13  C12 UNL     1      -2.629  -1.300  -0.171  1.00  0.00     0.033 C 
HETATM   14  O2  UNL     1      -2.711   1.579   0.029  1.00  0.00    -0.188 OA
HETATM   15  O3  UNL     1       1.762   4.455   0.304  1.00  0.00    -0.259 OA
ENDROOT
BRANCH   3  16
HETATM   16  C13 UNL     1       2.838  -2.269  -0.112  1.00  0.00     0.022 C 
HETATM   17  C14 UNL     1       2.347  -3.076   1.101  1.00  0.00     0.005 C 
HETATM   18  C15 UNL     1       2.460  -2.909  -1.457  1.00  0.00     0.005 C 
ENDBRANCH   3  16
BRANCH   1  19
HETATM   19  O4  UNL     1       4.460   2.308   0.241  1.00  0.00    -0.328 OA
HETATM   20  C16 UNL     1       4.429   3.697   0.434  1.00  0.00     0.181 C 
ENDBRANCH   1  19
TORSDOF 2
