REMARK  0 active torsions:
REMARK  status: ('A' for Active; 'I' for Inactive)
ROOT
HETATM    1  C1  UNL     1      -0.819   1.148   1.127  1.00  0.00    -0.027 C 
HETATM    2  C2  UNL     1      -0.874   1.101  -0.514  1.00  0.00     0.022 C 
HETATM    3  C3  UNL     1      -0.108  -0.030  -1.413  1.00  0.00     0.022 C 
HETATM    4  C4  UNL     1       1.125  -1.094  -1.150  1.00  0.00     0.008 C 
HETATM    5  C5  UNL     1       1.556  -1.330   0.473  1.00  0.00     0.022 C 
HETATM    6  C6  UNL     1       0.797  -1.135   1.908  1.00  0.00    -0.027 C 
HETATM    7  C7  UNL     1      -0.392  -0.040   2.142  1.00  0.00    -0.009 C 
HETATM    8  C8  UNL     1       1.314   0.124   0.334  1.00  0.00     0.022 C 
HETATM    9  C9  UNL     1      -0.129  -0.607  -0.115  1.00  0.00    -0.044 C 
HETATM   10  C10 UNL     1      -1.013  -1.598   0.179  1.00  0.00    -0.009 C 
HETATM   11  C11 UNL     1       2.328   0.667  -0.717  1.00  0.00     0.004 C 
HETATM   12  C12 UNL     1       2.298  -0.375  -1.821  1.00  0.00     0.001 C 
HETATM   13  C13 UNL     1       2.965  -1.889   0.686  1.00  0.00     0.005 C 
HETATM   14  C14 UNL     1      -0.471   2.501  -1.051  1.00  0.00     0.004 C 
HETATM   15  C15 UNL     1      -2.390   1.024  -0.896  1.00  0.00     0.004 C 
ENDROOT
TORSDOF 0
