REMARK  1 active torsions:
REMARK  status: ('A' for Active; 'I' for Inactive)
REMARK    1  A    between atoms: C10_10  and  C11_11 
ROOT
HETATM    1  C1  UNL     1      -1.127   1.741  -0.305  1.00  0.00    -0.032 C 
HETATM    2  C2  UNL     1      -1.236   0.566   0.332  1.00  0.00    -0.021 C 
HETATM    3  C3  UNL     1      -0.062  -0.387   0.310  1.00  0.00     0.133 C 
HETATM    4  C4  UNL     1       1.271   0.361   0.393  1.00  0.00     0.034 C 
HETATM    5  C5  UNL     1       1.190   0.997  -1.002  1.00  0.00     0.032 C 
HETATM    6  C6  UNL     1       0.146   2.130  -1.006  1.00  0.00     0.028 C 
HETATM    7  C7  UNL     1       0.831  -0.286  -1.767  1.00  0.00     0.093 C 
HETATM    8  C8  UNL     1       2.118  -1.112  -1.948  1.00  0.00     0.027 C 
HETATM    9  C9  UNL     1       3.126  -0.910  -0.801  1.00  0.00     0.003 C 
HETATM   10  C10 UNL     1       2.455  -0.629   0.558  1.00  0.00     0.003 C 
HETATM   11  C14 UNL     1       0.153  -0.064  -3.119  1.00  0.00     0.030 C 
HETATM   12  O1  UNL     1      -0.031  -1.022  -0.944  1.00  0.00    -0.357 OA
HETATM   13  C15 UNL     1      -2.504   0.104   0.998  1.00  0.00     0.028 C 
ENDROOT
BRANCH  10  14
HETATM   14  C11 UNL     1       3.459  -0.165   1.645  1.00  0.00     0.000 C 
HETATM   15  C12 UNL     1       2.823  -0.168   3.051  1.00  0.00     0.000 C 
HETATM   16  C13 UNL     1       4.731  -1.034   1.697  1.00  0.00     0.000 C 
ENDBRANCH  10  14
TORSDOF 1
