REMARK  7 active torsions:
REMARK  status: ('A' for Active; 'I' for Inactive)
REMARK    1  A    between atoms: C1_1  and  C11_14 
REMARK    2  A    between atoms: C2_2  and  O3_12 
REMARK    3  A    between atoms: C11_14  and  C12_15 
REMARK    4  A    between atoms: C12_15  and  O4_16 
REMARK    5  A    between atoms: C12_15  and  C18_23 
REMARK    6  A    between atoms: O4_16  and  C13_17 
REMARK    7  A    between atoms: C13_17  and  C14_19 
ROOT
HETATM    1  C1  UNL     1       3.934  -1.291   0.807  1.00  0.00     0.082 A 
HETATM    2  C2  UNL     1       4.731  -2.396   0.452  1.00  0.00     0.099 A 
HETATM    3  C3  UNL     1       6.123  -2.216   0.521  1.00  0.00     0.024 A 
HETATM    4  C4  UNL     1       6.684  -1.017   0.940  1.00  0.00     0.004 A 
HETATM    5  C5  UNL     1       5.861   0.058   1.304  1.00  0.00     0.023 A 
HETATM    6  C6  UNL     1       4.464  -0.061   1.248  1.00  0.00     0.108 A 
HETATM    7  O1  UNL     1       3.635   0.962   1.619  1.00  0.00    -0.273 OA
HETATM    8  C7  UNL     1       4.193   2.157   1.958  1.00  0.00     0.300 A 
HETATM    9  C8  UNL     1       5.655   2.353   2.046  1.00  0.00     0.069 A 
HETATM   10  C9  UNL     1       6.465   1.319   1.735  1.00  0.00     0.007 A 
HETATM   11  O2  UNL     1       3.473   3.125   2.195  1.00  0.00    -0.259 OA
ENDROOT
BRANCH   1  12
HETATM   12  C11 UNL     1       2.439  -1.469   0.710  1.00  0.00     0.204 C 
HETATM   13  O6  UNL     1       1.902  -2.460   1.192  1.00  0.00    -0.289 OA
BRANCH  12  14
HETATM   14  C12 UNL     1       1.543  -0.440   0.001  1.00  0.00     0.186 C 
BRANCH  14  15
HETATM   15  O4  UNL     1       1.087   0.497   0.951  1.00  0.00    -0.293 OA
BRANCH  15  16
HETATM   16  C13 UNL     1      -0.211   0.929   0.997  1.00  0.00     0.296 C 
HETATM   17  O5  UNL     1      -0.518   1.727   1.880  1.00  0.00    -0.259 OA
BRANCH  16  18
HETATM   18  C14 UNL     1      -1.313   0.480   0.088  1.00  0.00     0.060 C 
HETATM   19  C15 UNL     1      -2.275   1.288  -0.404  1.00  0.00    -0.038 C 
HETATM   20  C16 UNL     1      -3.369   0.744  -1.294  1.00  0.00     0.026 C 
HETATM   21  C17 UNL     1      -2.363   2.776  -0.160  1.00  0.00     0.026 C 
ENDBRANCH  16  18
ENDBRANCH  15  16
ENDBRANCH  14  15
BRANCH  14  22
HETATM   22  C18 UNL     1       2.181   0.233  -1.229  1.00  0.00     0.035 C 
HETATM   23  C19 UNL     1       2.425  -0.806  -2.339  1.00  0.00     0.003 C 
HETATM   24  C20 UNL     1       1.333   1.385  -1.796  1.00  0.00     0.003 C 
ENDBRANCH  14  22
ENDBRANCH  12  14
ENDBRANCH   1  12
BRANCH   2  25
HETATM   25  O3  UNL     1       4.127  -3.548   0.006  1.00  0.00    -0.328 OA
HETATM   26  C10 UNL     1       4.925  -4.576  -0.526  1.00  0.00     0.181 C 
ENDBRANCH   2  25
TORSDOF 7
