REMARK  2 active torsions:
REMARK  status: ('A' for Active; 'I' for Inactive)
REMARK    1  A    between atoms: C2_2  and  O4_18 
REMARK    2  A    between atoms: C6_6  and  O1_7 
ROOT
HETATM    1  C1  UNL     1       0.077  -0.182  -0.126  1.00  0.00     0.050 C 
HETATM    2  C2  UNL     1       1.294  -0.873  -0.141  1.00  0.00     0.112 C 
HETATM    3  C3  UNL     1       2.493  -0.111  -0.123  1.00  0.00     0.087 A 
HETATM    4  C4  UNL     1       2.386   1.285   0.097  1.00  0.00     0.059 A 
HETATM    5  C5  UNL     1       1.131   1.909   0.190  1.00  0.00     0.029 C 
HETATM    6  C6  UNL     1      -0.063   1.203   0.062  1.00  0.00     0.096 C 
HETATM    7  C8  UNL     1       3.584   2.157   0.216  1.00  0.00     0.201 A 
HETATM    8  C9  UNL     1       4.873   1.476   0.087  1.00  0.00     0.081 A 
HETATM    9  C10 UNL     1       4.972   0.130  -0.148  1.00  0.00     0.167 A 
HETATM   10  N1  UNL     1       3.816  -0.628  -0.248  1.00  0.00    -0.305 N 
HETATM   11  C11 UNL     1       4.054  -2.050  -0.572  1.00  0.00     0.133 C 
HETATM   12  O2  UNL     1       6.292  -0.217  -0.197  1.00  0.00    -0.289 OA
HETATM   13  C12 UNL     1       7.009   0.939   0.003  1.00  0.00     0.125 A 
HETATM   14  C13 UNL     1       6.195   2.016   0.182  1.00  0.00     0.034 A 
HETATM   15  O3  UNL     1       3.537   3.370   0.420  1.00  0.00    -0.286 OA
ENDROOT
BRANCH   2  16
HETATM   16  O4  UNL     1       1.254  -2.224  -0.378  1.00  0.00    -0.327 OA
HETATM   17  C14 UNL     1       0.933  -2.991   0.761  1.00  0.00     0.181 C 
ENDBRANCH   2  16
BRANCH   6  18
HETATM   18  O1  UNL     1      -1.251   1.887   0.121  1.00  0.00    -0.328 OA
HETATM   19  C7  UNL     1      -2.453   1.163  -0.004  1.00  0.00     0.181 C 
ENDBRANCH   6  18
TORSDOF 2
