REMARK  2 active torsions:
REMARK  status: ('A' for Active; 'I' for Inactive)
REMARK    1  A    between atoms: C9_10  and  C11_13 
REMARK    2  A    between atoms: C11_13  and  C12_14 
ROOT
HETATM    1  C1  UNL     1       5.821   3.818  -1.179  1.00  0.00     0.113 C 
HETATM    2  C2  UNL     1       5.177   3.137  -2.352  1.00  0.00     0.108 C 
HETATM    3  C3  UNL     1       4.513   1.810  -2.173  1.00  0.00     0.119 C 
HETATM    4  C4  UNL     1       4.311   1.372  -0.899  1.00  0.00     0.065 C 
HETATM    5  C5  UNL     1       4.811   2.089   0.302  1.00  0.00     0.095 C 
HETATM    6  C6  UNL     1       5.514   3.250   0.170  1.00  0.00     0.022 C 
HETATM    7  C7  UNL     1       6.055   3.995   1.372  1.00  0.00     0.035 C 
HETATM    8  O1  UNL     1       4.672   1.550   1.553  1.00  0.00    -0.331 OA
HETATM    9  C8  UNL     1       4.557   0.156   1.602  1.00  0.00     0.156 C 
HETATM   10  C9  UNL     1       3.327  -0.291   0.817  1.00  0.00     0.083 C 
HETATM   11  C10 UNL     1       3.511   0.104  -0.640  1.00  0.00     0.115 C 
HETATM   12  O2  UNL     1       2.987  -0.646  -1.583  1.00  0.00    -0.195 OA
HETATM   13  O5  UNL     1       4.041   1.191  -3.289  1.00  0.00    -0.194 OA
HETATM   14  O6  UNL     1       6.402   5.038  -1.314  1.00  0.00    -0.195 OA
ENDROOT
BRANCH  10  15
HETATM   15  C11 UNL     1       3.074  -1.799   1.009  1.00  0.00     0.035 C 
BRANCH  15  16
HETATM   16  C12 UNL     1       1.721  -2.366   0.620  1.00  0.00    -0.020 A 
HETATM   17  C13 UNL     1       0.596  -1.563   0.372  1.00  0.00     0.022 A 
HETATM   18  C14 UNL     1      -0.620  -2.187   0.110  1.00  0.00     0.119 A 
HETATM   19  C15 UNL     1      -0.743  -3.571   0.077  1.00  0.00     0.119 A 
HETATM   20  O4  UNL     1      -1.858  -1.620  -0.126  1.00  0.00    -0.300 OA
HETATM   21  C16 UNL     1       0.358  -4.394   0.291  1.00  0.00     0.026 A 
HETATM   22  O3  UNL     1      -2.058  -3.907  -0.178  1.00  0.00    -0.300 OA
HETATM   23  C17 UNL     1       1.579  -3.765   0.563  1.00  0.00    -0.002 A 
HETATM   24  C18 UNL     1      -2.802  -2.687  -0.291  1.00  0.00     0.304 A 
ENDBRANCH  15  16
ENDBRANCH  10  15
TORSDOF 2
