REMARK  4 active torsions:
REMARK  status: ('A' for Active; 'I' for Inactive)
REMARK    1  A    between atoms: C6_6  and  O1_7 
REMARK    2  A    between atoms: O1_7  and  C7_8 
REMARK    3  A    between atoms: C8_10  and  C12_17 
REMARK    4  A    between atoms: C13_21  and  C16_25 
ROOT
HETATM    1  C1  UNL     1       3.526  -1.945  -0.729  1.00  0.00     0.027 A 
HETATM    2  C2  UNL     1       4.698  -1.899  -1.485  1.00  0.00     0.007 A 
HETATM    3  C3  UNL     1       5.469  -0.734  -1.497  1.00  0.00     0.059 A 
HETATM    4  C4  UNL     1       5.097   0.384  -0.730  1.00  0.00     0.124 A 
HETATM    5  C5  UNL     1       3.914   0.303   0.019  1.00  0.00     0.175 A 
HETATM    6  C6  UNL     1       3.096  -0.845   0.024  1.00  0.00     0.124 A 
HETATM    7  O7  UNL     1       3.510   1.383   0.745  1.00  0.00    -0.186 OA
HETATM    8  O8  UNL     1       5.800   1.560  -0.770  1.00  0.00    -0.326 OA
HETATM    9  C13 UNL     1       6.490   1.796  -1.973  1.00  0.00     0.151 C 
HETATM   10  C14 UNL     1       7.451   0.645  -2.262  1.00  0.00     0.104 C 
HETATM   11  C15 UNL     1       6.718  -0.682  -2.295  1.00  0.00     0.178 C 
HETATM   12  O9  UNL     1       7.152  -1.635  -2.932  1.00  0.00    -0.291 OA
ENDROOT
BRANCH   6  13
HETATM   13  O1  UNL     1       1.977  -0.804   0.817  1.00  0.00    -0.301 OA
BRANCH  13  14
HETATM   14  C7  UNL     1       1.366  -1.981   1.300  1.00  0.00     0.274 C 
HETATM   15  O2  UNL     1       0.032  -1.899   0.842  1.00  0.00    -0.326 OA
HETATM   16  C8  UNL     1      -0.762  -2.972   1.280  1.00  0.00     0.184 C 
HETATM   17  C9  UNL     1      -0.796  -3.009   2.805  1.00  0.00     0.215 C 
HETATM   18  C10 UNL     1       0.613  -3.111   3.354  1.00  0.00     0.220 C 
HETATM   19  O5  UNL     1      -1.517  -4.123   3.271  1.00  0.00    -0.218 OA
HETATM   20  C11 UNL     1       1.411  -1.949   2.810  1.00  0.00     0.241 C 
HETATM   21  O4  UNL     1       0.573  -3.052   4.757  1.00  0.00    -0.218 OA
HETATM   22  O3  UNL     1       2.749  -2.060   3.224  1.00  0.00    -0.215 OA
BRANCH  16  23
HETATM   23  C12 UNL     1      -2.156  -2.808   0.691  1.00  0.00     0.214 C 
HETATM   24  O6  UNL     1      -2.100  -2.956  -0.714  1.00  0.00    -0.218 OA
ENDBRANCH  16  23
ENDBRANCH  13  14
ENDBRANCH   6  13
BRANCH   9  25
HETATM   25  C16 UNL     1       7.238   3.115  -1.930  1.00  0.00     0.008 A 
HETATM   26  C17 UNL     1       7.207   3.994  -3.018  1.00  0.00     0.028 A 
HETATM   27  C18 UNL     1       7.909   5.203  -3.018  1.00  0.00     0.156 A 
HETATM   28  C19 UNL     1       8.675   5.550  -1.900  1.00  0.00     0.156 A 
HETATM   29  O11 UNL     1       7.875   6.048  -4.082  1.00  0.00    -0.188 OA
HETATM   30  C20 UNL     1       8.714   4.679  -0.809  1.00  0.00     0.029 A 
HETATM   31  O10 UNL     1       9.371   6.716  -1.893  1.00  0.00    -0.188 OA
HETATM   32  C21 UNL     1       8.007   3.476  -0.820  1.00  0.00     0.000 A 
ENDBRANCH   9  25
TORSDOF 4
