REMARK  14 active torsions:
REMARK  status: ('A' for Active; 'I' for Inactive)
REMARK    1  A    between atoms: C2_3  and  C13_17 
REMARK    2  A    between atoms: C6_7  and  O3_15 
REMARK    3  A    between atoms: C7_8  and  O2_13 
REMARK    4  A    between atoms: C8_9  and  O1_11 
REMARK    5  A    between atoms: C13_17  and  C14_18 
REMARK    6  A    between atoms: C16_20  and  O10_53 
REMARK    7  A    between atoms: C17_21  and  O9_51 
REMARK    8  A    between atoms: C19_23  and  C20_24 
REMARK    9  A    between atoms: C21_25  and  O8_49 
REMARK   10  A    between atoms: C22_26  and  O7_47 
REMARK   11  A    between atoms: C23_27  and  C26_30 
REMARK   12  A    between atoms: C26_30  and  C27_31 
REMARK   13  A    between atoms: C34_40  and  O6_45 
REMARK   14  A    between atoms: C35_41  and  O5_43 
ROOT
HETATM    1  C14 UNL     1       4.713  -2.854  -1.827  1.00  0.00    -0.018 A 
HETATM    2  C15 UNL     1       4.689  -3.825  -2.834  1.00  0.00     0.022 A 
HETATM    3  C16 UNL     1       4.098  -5.094  -2.738  1.00  0.00     0.116 A 
HETATM    4  C17 UNL     1       3.552  -5.465  -1.491  1.00  0.00     0.116 A 
HETATM    5  C18 UNL     1       3.573  -4.496  -0.477  1.00  0.00     0.026 A 
HETATM    6  C19 UNL     1       4.101  -3.206  -0.614  1.00  0.00     0.000 A 
ENDROOT
BRANCH   6   7
HETATM    7  C20 UNL     1       4.003  -2.312   0.581  1.00  0.00     0.024 C 
HETATM    8  C21 UNL     1       2.757  -2.033   1.181  1.00  0.00     0.116 C 
HETATM    9  C22 UNL     1       2.746  -1.350   2.414  1.00  0.00     0.116 C 
HETATM   10  C23 UNL     1       3.892  -0.618   2.788  1.00  0.00     0.029 C 
HETATM   11  C24 UNL     1       5.118  -0.883   2.174  1.00  0.00     0.002 C 
HETATM   12  C25 UNL     1       5.180  -1.797   1.125  1.00  0.00     0.002 C 
BRANCH   8  13
HETATM   13  O8  UNL     1       1.612  -2.640   0.724  1.00  0.00    -0.326 OA
HETATM   14  C40 UNL     1       0.666  -1.779   0.131  1.00  0.00     0.181 C 
ENDBRANCH   8  13
BRANCH   9  15
HETATM   15  O7  UNL     1       1.561  -1.156   3.077  1.00  0.00    -0.326 OA
HETATM   16  C39 UNL     1       1.299  -2.136   4.054  1.00  0.00     0.181 C 
ENDBRANCH   9  15
BRANCH  10  17
HETATM   17  C26 UNL     1       3.829   0.377   3.895  1.00  0.00     0.061 C 
HETATM   18  C28 UNL     1       2.887   1.378   3.952  1.00  0.00     0.079 C 
HETATM   19  N2  UNL     1       2.743   2.128   5.124  1.00  0.00    -0.270 NA
HETATM   20  C32 UNL     1       1.913   1.675   2.874  1.00  0.00     0.015 A 
HETATM   21  C29 UNL     1       1.635   3.085   5.295  1.00  0.00     0.130 C 
HETATM   22  C30 UNL     1       0.365   2.491   4.675  1.00  0.00     0.053 C 
HETATM   23  C31 UNL     1       0.653   2.167   3.231  1.00  0.00    -0.017 A 
HETATM   24  C36 UNL     1      -0.314   2.339   2.240  1.00  0.00     0.022 A 
HETATM   25  C35 UNL     1      -0.077   2.126   0.873  1.00  0.00     0.116 A 
HETATM   26  C34 UNL     1       1.222   1.716   0.495  1.00  0.00     0.116 A 
HETATM   27  C33 UNL     1       2.175   1.524   1.508  1.00  0.00     0.027 A 
BRANCH  17  28
HETATM   28  C27 UNL     1       4.833   0.211   4.968  1.00  0.00     0.236 C 
HETATM   29  O4  UNL     1       5.517  -0.798   5.089  1.00  0.00    -0.283 OA
ENDBRANCH  17  28
BRANCH  25  30
HETATM   30  O5  UNL     1      -1.067   2.250  -0.071  1.00  0.00    -0.326 OA
HETATM   31  C37 UNL     1      -2.410   2.357   0.339  1.00  0.00     0.181 C 
ENDBRANCH  25  30
BRANCH  26  32
HETATM   32  O6  UNL     1       1.672   1.540  -0.794  1.00  0.00    -0.326 OA
HETATM   33  C38 UNL     1       0.934   2.043  -1.882  1.00  0.00     0.181 C 
ENDBRANCH  26  32
ENDBRANCH  10  17
ENDBRANCH   6   7
BRANCH   1  34
HETATM   34  C13 UNL     1       5.417  -1.534  -2.113  1.00  0.00     0.064 C 
BRANCH  34  35
HETATM   35  C2  UNL     1       4.671  -0.205  -1.840  1.00  0.00     0.246 C 
HETATM   36  N1  UNL     1       3.608   0.124  -2.792  1.00  0.00     0.142 N 
HETATM   37  C1  UNL     1       4.104   0.792  -3.981  1.00  0.00     0.255 C 
HETATM   38  C43 UNL     1       2.778  -1.007  -3.171  1.00  0.00     0.286 C 
HETATM   39  C5  UNL     1       4.638   2.177  -3.607  1.00  0.00     0.064 C 
HETATM   40  C4  UNL     1       5.666   2.081  -2.512  1.00  0.00     0.002 C 
HETATM   41  C3  UNL     1       5.685   0.936  -1.709  1.00  0.00     0.009 C 
HETATM   42  C6  UNL     1       6.540   3.160  -2.280  1.00  0.00     0.114 C 
HETATM   43  C9  UNL     1       6.687   0.877  -0.739  1.00  0.00     0.024 C 
HETATM   44  C8  UNL     1       7.713   1.820  -0.628  1.00  0.00     0.118 C 
HETATM   45  C7  UNL     1       7.619   3.001  -1.386  1.00  0.00     0.138 C 
BRANCH  44  46
HETATM   46  O1  UNL     1       8.665   1.674   0.349  1.00  0.00    -0.326 OA
HETATM   47  C10 UNL     1       9.835   1.035  -0.108  1.00  0.00     0.181 C 
ENDBRANCH  44  46
BRANCH  45  48
HETATM   48  O2  UNL     1       8.570   3.973  -1.182  1.00  0.00    -0.324 OA
HETATM   49  C11 UNL     1       9.283   4.422  -2.314  1.00  0.00     0.182 C 
ENDBRANCH  45  48
BRANCH  42  50
HETATM   50  O3  UNL     1       6.444   4.285  -3.056  1.00  0.00    -0.326 OA
HETATM   51  C12 UNL     1       5.768   5.348  -2.422  1.00  0.00     0.181 C 
ENDBRANCH  42  50
ENDBRANCH  34  35
ENDBRANCH   1  34
BRANCH   4  52
HETATM   52  O9  UNL     1       2.994  -6.707  -1.315  1.00  0.00    -0.326 OA
HETATM   53  C41 UNL     1       2.355  -7.020  -0.099  1.00  0.00     0.181 C 
ENDBRANCH   4  52
BRANCH   3  54
HETATM   54  O10 UNL     1       4.200  -5.888  -3.858  1.00  0.00    -0.326 OA
HETATM   55  C42 UNL     1       3.998  -7.277  -3.780  1.00  0.00     0.181 C 
ENDBRANCH   3  54
TORSDOF 14
