REMARK  6 active torsions:
REMARK  status: ('A' for Active; 'I' for Inactive)
REMARK    1  A    between atoms: C2_2  and  O4_18 
REMARK    2  A    between atoms: C3_3  and  C10_12 
REMARK    3  A    between atoms: C10_12  and  C11_13 
REMARK    4  A    between atoms: C11_13  and  C12_14 
REMARK    5  A    between atoms: O4_18  and  C15_19 
REMARK    6  A    between atoms: C15_19  and  C16_20 
ROOT
HETATM    1  C1  UNL     1       0.685  -1.805   1.218  1.00  0.00     0.024 C 
HETATM    2  C2  UNL     1       1.171  -0.704   0.500  1.00  0.00     0.092 C 
HETATM    3  C3  UNL     1       2.181  -0.939  -0.453  1.00  0.00     0.030 C 
HETATM    4  C4  UNL     1       2.555  -2.248  -0.821  1.00  0.00     0.102 A 
HETATM    5  C5  UNL     1       1.962  -3.328  -0.142  1.00  0.00     0.023 A 
HETATM    6  C6  UNL     1       1.042  -3.106   0.889  1.00  0.00     0.004 C 
HETATM    7  C7  UNL     1       2.335  -4.697  -0.491  1.00  0.00     0.007 A 
HETATM    8  C8  UNL     1       3.241  -4.894  -1.471  1.00  0.00     0.069 A 
HETATM    9  C9  UNL     1       3.822  -3.712  -2.145  1.00  0.00     0.300 A 
HETATM   10  O1  UNL     1       3.491  -2.436  -1.802  1.00  0.00    -0.273 OA
HETATM   11  O2  UNL     1       4.638  -3.911  -3.043  1.00  0.00    -0.259 OA
ENDROOT
BRANCH   2  12
HETATM   12  O4  UNL     1       0.836   0.556   0.924  1.00  0.00    -0.328 OA
BRANCH  12  13
HETATM   13  C15 UNL     1      -0.206   1.165   0.181  1.00  0.00     0.181 C 
BRANCH  13  14
HETATM   14  C16 UNL     1      -1.042   2.094   1.054  1.00  0.00     0.170 A 
HETATM   15  O5  UNL     1      -0.347   3.267   1.399  1.00  0.00    -0.354 OA
HETATM   16  C17 UNL     1      -1.683   3.265   0.514  1.00  0.00     0.120 A 
HETATM   17  C18 UNL     1      -2.891   3.822   1.251  1.00  0.00     0.032 C 
HETATM   18  C19 UNL     1      -1.414   3.843  -0.865  1.00  0.00     0.032 C 
ENDBRANCH  13  14
ENDBRANCH  12  13
ENDBRANCH   2  12
BRANCH   3  19
HETATM   19  C10 UNL     1       2.848   0.241  -1.137  1.00  0.00     0.095 C 
BRANCH  19  20
HETATM   20  C11 UNL     1       3.603   1.179  -0.203  1.00  0.00     0.155 C 
HETATM   21  O3  UNL     1       3.241   2.331  -0.090  1.00  0.00    -0.296 OA
BRANCH  20  22
HETATM   22  C12 UNL     1       4.851   0.694   0.531  1.00  0.00     0.058 C 
HETATM   23  C13 UNL     1       4.544  -0.350   1.615  1.00  0.00     0.008 C 
HETATM   24  C14 UNL     1       5.932   0.190  -0.436  1.00  0.00     0.008 C 
ENDBRANCH  20  22
ENDBRANCH  19  20
ENDBRANCH   3  19
TORSDOF 6
