REMARK  5 active torsions:
REMARK  status: ('A' for Active; 'I' for Inactive)
REMARK    1  A    between atoms: C2_2  and  C13_14 
REMARK    2  A    between atoms: C5_5  and  C12_12 
REMARK    3  A    between atoms: C13_14  and  C14_15 
REMARK    4  A    between atoms: C14_15  and  C15_16 
REMARK    5  A    between atoms: C15_16  and  C16_17 
ROOT
HETATM    1  C1  UNL     1      -0.354  -0.740   1.580  1.00  0.00     0.156 C 
HETATM    2  C2  UNL     1       0.742  -0.336   0.579  1.00  0.00     0.035 C 
HETATM    3  C3  UNL     1       2.119  -0.585   1.230  1.00  0.00     0.028 C 
HETATM    4  C4  UNL     1       2.610   0.554   2.095  1.00  0.00    -0.027 C 
HETATM    5  C5  UNL     1       1.881   1.352   2.907  1.00  0.00     0.016 C 
HETATM    6  C6  UNL     1       0.394   1.169   3.140  1.00  0.00     0.036 C 
HETATM    7  C7  UNL     1      -0.102  -0.292   3.018  1.00  0.00     0.053 C 
HETATM    8  C8  UNL     1      -1.339  -0.291   3.888  1.00  0.00    -0.046 C 
HETATM    9  C9  UNL     1      -1.347   0.771   4.702  1.00  0.00    -0.034 C 
HETATM   10  C10 UNL     1      -0.132   1.632   4.519  1.00  0.00     0.030 C 
HETATM   11  C11 UNL     1      -2.358  -1.393   3.926  1.00  0.00     0.026 C 
HETATM   12  O2  UNL     1      -0.475  -2.144   1.584  1.00  0.00    -0.223 OA
ENDROOT
BRANCH   2  13
HETATM   13  C13 UNL     1       0.580  -0.988  -0.829  1.00  0.00     0.003 C 
HETATM   14  C20 UNL     1      -0.879  -0.935  -1.331  1.00  0.00     0.000 C 
BRANCH  13  15
HETATM   15  C14 UNL     1       1.502  -0.325  -1.887  1.00  0.00     0.005 C 
BRANCH  15  16
HETATM   16  C15 UNL     1       1.467  -0.969  -3.286  1.00  0.00     0.025 C 
BRANCH  16  17
HETATM   17  C16 UNL     1       2.558  -0.413  -4.173  1.00  0.00    -0.035 C 
HETATM   18  C17 UNL     1       2.429   0.266  -5.329  1.00  0.00    -0.048 C 
HETATM   19  C18 UNL     1       3.650   0.748  -6.082  1.00  0.00     0.026 C 
HETATM   20  C19 UNL     1       1.123   0.623  -6.000  1.00  0.00     0.026 C 
ENDBRANCH  16  17
ENDBRANCH  15  16
ENDBRANCH  13  15
ENDBRANCH   2  13
BRANCH   5  21
HETATM   21  C12 UNL     1       2.604   2.482   3.552  1.00  0.00     0.230 C 
HETATM   22  O1  UNL     1       2.066   3.351   4.221  1.00  0.00    -0.283 OA
ENDBRANCH   5  21
TORSDOF 5
