REMARK  1 active torsions:
REMARK  status: ('A' for Active; 'I' for Inactive)
REMARK    1  A    between atoms: C9_9  and  C11_11 
ROOT
HETATM    1  C1  UNL     1       0.258  -0.100   0.227  1.00  0.00     0.004 C 
HETATM    2  C2  UNL     1       0.339  -1.304  -0.754  1.00  0.00     0.007 C 
HETATM    3  C3  UNL     1       1.685  -2.036  -0.599  1.00  0.00     0.025 C 
HETATM    4  C4  UNL     1       2.844  -1.081  -0.649  1.00  0.00    -0.035 C 
HETATM    5  C5  UNL     1       2.728   0.242  -0.458  1.00  0.00    -0.049 C 
HETATM    6  C6  UNL     1       1.404   0.904  -0.133  1.00  0.00     0.018 C 
HETATM    7  C7  UNL     1       1.607   2.013   0.922  1.00  0.00     0.004 C 
HETATM    8  C8  UNL     1       2.781   2.949   0.599  1.00  0.00     0.005 C 
HETATM    9  C9  UNL     1       4.110   2.184   0.424  1.00  0.00     0.022 C 
HETATM   10  C10 UNL     1       3.903   1.161  -0.710  1.00  0.00     0.026 C 
HETATM   11  C13 UNL     1       4.543   1.445   1.707  1.00  0.00     0.005 C 
HETATM   12  C14 UNL     1      -0.886  -2.270  -0.847  1.00  0.00     0.029 C 
HETATM   13  C15 UNL     1      -2.208  -1.550  -0.509  1.00  0.00     0.152 C 
HETATM   14  C16 UNL     1      -2.129  -0.061  -0.817  1.00  0.00     0.033 C 
HETATM   15  C17 UNL     1      -1.108   0.632   0.094  1.00  0.00     0.003 C 
HETATM   16  O1  UNL     1      -2.565  -1.709   0.844  1.00  0.00    -0.224 OA
HETATM   17  C18 UNL     1      -0.748  -3.558  -0.002  1.00  0.00     0.003 C 
HETATM   18  C19 UNL     1      -1.000  -2.763  -2.318  1.00  0.00     0.003 C 
HETATM   19  C20 UNL     1       0.440  -0.588   1.686  1.00  0.00     0.000 C 
ENDROOT
BRANCH   9  20
HETATM   20  C11 UNL     1       5.206   3.166   0.038  1.00  0.00    -0.026 C 
HETATM   21  C12 UNL     1       5.631   4.176   0.812  1.00  0.00    -0.005 C 
ENDBRANCH   9  20
TORSDOF 1
