REMARK  8 active torsions:
REMARK  status: ('A' for Active; 'I' for Inactive)
REMARK    1  A    between atoms: C1_1  and  O12_34 
REMARK    2  A    between atoms: C7_8  and  C16_24 
REMARK    3  A    between atoms: C8_9  and  O3_12 
REMARK    4  A    between atoms: O3_12  and  C10_13 
REMARK    5  A    between atoms: C11_15  and  C15_22 
REMARK    6  A    between atoms: C20_28  and  O9_30 
REMARK    7  A    between atoms: O12_34  and  C23_35 
REMARK    8  A    between atoms: C24_37  and  C28_44 
ROOT
HETATM    1  C1  UNL     1       1.738   2.377   0.004  1.00  0.00     0.101 A 
HETATM    2  C2  UNL     1       2.317   3.657   0.024  1.00  0.00     0.052 A 
HETATM    3  C3  UNL     1       3.694   3.909  -0.039  1.00  0.00     0.138 A 
HETATM    4  C4  UNL     1       4.546   2.796  -0.129  1.00  0.00     0.089 A 
HETATM    5  C5  UNL     1       4.043   1.499  -0.078  1.00  0.00     0.107 A 
HETATM    6  C6  UNL     1       2.661   1.325  -0.040  1.00  0.00     0.049 A 
HETATM    7  O1  UNL     1       4.839   0.409  -0.191  1.00  0.00    -0.309 OA
HETATM    8  C7  UNL     1       6.147   0.457   0.232  1.00  0.00     0.107 C 
HETATM    9  C8  UNL     1       6.793   1.666   0.151  1.00  0.00     0.154 C 
HETATM   10  C9  UNL     1       6.020   2.887  -0.245  1.00  0.00     0.223 C 
HETATM   11  O2  UNL     1       6.576   3.948  -0.511  1.00  0.00    -0.284 OA
HETATM   12  O11 UNL     1       4.155   5.189  -0.017  1.00  0.00    -0.190 OA
ENDROOT
BRANCH   1  13
HETATM   13  O12 UNL     1       0.369   2.253   0.032  1.00  0.00    -0.303 OA
BRANCH  13  14
HETATM   14  C23 UNL     1      -0.231   0.975   0.017  1.00  0.00     0.274 C 
HETATM   15  O13 UNL     1      -0.969   0.864  -1.180  1.00  0.00    -0.326 OA
HETATM   16  C24 UNL     1      -1.495  -0.431  -1.340  1.00  0.00     0.184 C 
HETATM   17  C25 UNL     1      -2.415  -0.770  -0.169  1.00  0.00     0.215 C 
HETATM   18  C26 UNL     1      -1.704  -0.586   1.159  1.00  0.00     0.220 C 
HETATM   19  O16 UNL     1      -2.835  -2.111  -0.244  1.00  0.00    -0.218 OA
HETATM   20  C27 UNL     1      -1.133   0.815   1.214  1.00  0.00     0.241 C 
HETATM   21  O15 UNL     1      -2.606  -0.780   2.216  1.00  0.00    -0.218 OA
HETATM   22  O14 UNL     1      -0.355   0.961   2.376  1.00  0.00    -0.215 OA
BRANCH  16  23
HETATM   23  C28 UNL     1      -2.196  -0.525  -2.692  1.00  0.00     0.214 C 
HETATM   24  O17 UNL     1      -1.554  -1.491  -3.504  1.00  0.00    -0.218 OA
ENDBRANCH  16  23
ENDBRANCH  13  14
ENDBRANCH   1  13
BRANCH   8  25
HETATM   25  C16 UNL     1       6.536  -0.925   0.930  1.00  0.00     0.072 C 
HETATM   26  C17 UNL     1       6.456  -2.360   1.096  1.00  0.00    -0.018 C 
HETATM   27  C18 UNL     1       7.259  -3.410   0.741  1.00  0.00     0.021 C 
HETATM   28  C19 UNL     1       8.468  -2.903   0.223  1.00  0.00     0.135 C 
HETATM   29  C20 UNL     1       8.427  -1.529   0.127  1.00  0.00     0.164 C 
HETATM   30  O10 UNL     1       9.517  -3.692  -0.084  1.00  0.00    -0.192 OA
HETATM   31  C21 UNL     1       7.029  -1.318  -0.457  1.00  0.00     0.047 C 
BRANCH  29  32
HETATM   32  O9  UNL     1       9.701  -0.906  -0.343  1.00  0.00    -0.347 OA
HETATM   33  C22 UNL     1      10.763   0.532   0.231  1.00  0.00     0.175 C 
ENDBRANCH  29  32
ENDBRANCH   8  25
BRANCH   9  34
HETATM   34  O3  UNL     1       8.148   1.905   0.221  1.00  0.00    -0.299 OA
BRANCH  34  35
HETATM   35  C10 UNL     1       8.823   0.757  -0.179  1.00  0.00     0.274 C 
HETATM   36  O4  UNL     1       9.230   0.025   1.327  1.00  0.00    -0.326 OA
HETATM   37  C11 UNL     1      10.488  -1.093   1.481  1.00  0.00     0.184 C 
HETATM   38  C12 UNL     1      11.674  -1.298   0.081  1.00  0.00     0.215 C 
HETATM   39  C13 UNL     1      11.233  -0.626  -1.543  1.00  0.00     0.220 C 
HETATM   40  O7  UNL     1      12.004  -2.653  -0.084  1.00  0.00    -0.218 OA
HETATM   41  C14 UNL     1       9.940   0.656  -1.627  1.00  0.00     0.241 C 
HETATM   42  O6  UNL     1      12.390  -0.170  -2.201  1.00  0.00    -0.218 OA
HETATM   43  O5  UNL     1       9.176   0.320  -2.771  1.00  0.00    -0.215 OA
BRANCH  37  44
HETATM   44  C15 UNL     1      11.218  -0.856   2.819  1.00  0.00     0.214 C 
HETATM   45  O8  UNL     1      10.889  -1.840   3.780  1.00  0.00    -0.218 OA
ENDBRANCH  37  44
ENDBRANCH  34  35
ENDBRANCH   9  34
TORSDOF 8
