REMARK  0 active torsions:
REMARK  status: ('A' for Active; 'I' for Inactive)
ROOT
HETATM    1  C1  UNL     1      -0.045   0.055   0.392  1.00  0.00     0.007 C 
HETATM    2  C2  UNL     1      -0.100  -1.363   0.797  1.00  0.00    -0.001 A 
HETATM    3  C3  UNL     1       1.066  -2.097   0.485  1.00  0.00     0.015 A 
HETATM    4  C4  UNL     1       2.194  -1.598  -0.211  1.00  0.00     0.001 A 
HETATM    5  C5  UNL     1       2.244  -0.180  -0.694  1.00  0.00     0.066 C 
HETATM    6  C6  UNL     1       1.338   0.692   0.214  1.00  0.00     0.246 C 
HETATM    7  N1  UNL     1       1.251   2.108  -0.151  1.00  0.00     0.144 N 
HETATM    8  C7  UNL     1       0.172   2.383  -1.084  1.00  0.00     0.285 C 
HETATM    9  C8  UNL     1      -1.153   2.150  -0.357  1.00  0.00     0.176 C 
HETATM   10  C9  UNL     1      -1.179   0.725   0.121  1.00  0.00     0.003 C 
HETATM   11  O1  UNL     1      -1.151   2.975   0.787  1.00  0.00    -0.219 OA
HETATM   12  C10 UNL     1      -2.361   2.498  -1.220  1.00  0.00     0.040 C 
HETATM   13  C11 UNL     1       2.509   2.660  -0.629  1.00  0.00     0.286 C 
HETATM   14  C12 UNL     1       3.091  -2.634  -0.284  1.00  0.00     0.095 A 
HETATM   15  N2  UNL     1       2.522  -3.752   0.325  1.00  0.00    -0.244 NA
HETATM   16  C13 UNL     1       1.258  -3.440   0.795  1.00  0.00     0.081 A 
HETATM   17  C14 UNL     1       0.225  -4.151   1.454  1.00  0.00     0.019 A 
HETATM   18  C15 UNL     1      -0.939  -3.457   1.736  1.00  0.00     0.002 A 
HETATM   19  C16 UNL     1      -1.111  -2.078   1.413  1.00  0.00    -0.000 A 
ENDROOT
TORSDOF 0
