REMARK  6 active torsions:
REMARK  status: ('A' for Active; 'I' for Inactive)
REMARK    1  A    between atoms: C1_1  and  O4_19 
REMARK    2  A    between atoms: C3_3  and  O3_16 
REMARK    3  A    between atoms: C4_4  and  C9_10 
REMARK    4  A    between atoms: C5_5  and  O1_8 
REMARK    5  A    between atoms: C9_10  and  C10_11 
REMARK    6  A    between atoms: C10_11  and  C11_12 
ROOT
HETATM    1  C1  UNL     1       3.229   1.745  -0.217  1.00  0.00     0.090 C 
HETATM    2  C2  UNL     1       3.599   0.408   0.010  1.00  0.00     0.023 C 
HETATM    3  C3  UNL     1       2.689  -0.588   0.426  1.00  0.00     0.097 C 
HETATM    4  C4  UNL     1       1.342  -0.197   0.515  1.00  0.00     0.079 C 
HETATM    5  C5  UNL     1       0.915   1.121   0.272  1.00  0.00     0.097 C 
HETATM    6  C6  UNL     1       1.885   2.101   0.001  1.00  0.00     0.023 C 
HETATM    7  C7  UNL     1       1.477   3.560   0.010  1.00  0.00     0.035 C 
HETATM    8  C15 UNL     1       5.056  -0.001  -0.133  1.00  0.00     0.035 C 
ENDROOT
BRANCH   4   9
HETATM    9  C9  UNL     1       0.264  -1.136   1.027  1.00  0.00     0.176 C 
HETATM   10  O2  UNL     1       0.273  -1.419   2.213  1.00  0.00    -0.291 OA
BRANCH   9  11
HETATM   11  C10 UNL     1      -0.855  -1.619   0.099  1.00  0.00     0.062 C 
HETATM   12  C13 UNL     1      -0.464  -1.600  -1.390  1.00  0.00     0.008 C 
BRANCH  11  13
HETATM   13  C11 UNL     1      -1.404  -3.008   0.490  1.00  0.00     0.008 C 
HETATM   14  C12 UNL     1      -2.294  -3.014   1.743  1.00  0.00     0.001 C 
ENDBRANCH  11  13
ENDBRANCH   9  11
ENDBRANCH   4   9
BRANCH   3  15
HETATM   15  O3  UNL     1       3.224  -1.842   0.624  1.00  0.00    -0.328 OA
HETATM   16  C14 UNL     1       2.428  -2.994   0.733  1.00  0.00     0.181 C 
ENDBRANCH   3  15
BRANCH   5  17
HETATM   17  O1  UNL     1      -0.405   1.451   0.466  1.00  0.00    -0.328 OA
HETATM   18  C8  UNL     1      -1.083   1.930  -0.679  1.00  0.00     0.181 C 
ENDBRANCH   5  17
BRANCH   1  19
HETATM   19  O4  UNL     1       4.200   2.654  -0.570  1.00  0.00    -0.329 OA
HETATM   20  C16 UNL     1       3.964   3.455  -1.707  1.00  0.00     0.181 C 
ENDBRANCH   1  19
TORSDOF 6
