REMARK  3 active torsions:
REMARK  status: ('A' for Active; 'I' for Inactive)
REMARK    1  A    between atoms: C2_2  and  O2_22 
REMARK    2  A    between atoms: O2_22  and  C21_23 
REMARK    3  A    between atoms: C21_23  and  C22_25 
ROOT
HETATM    1  C1  UNL     1       2.289   0.873   0.291  1.00  0.00     0.152 C 
HETATM    2  C2  UNL     1       2.097  -0.450  -0.483  1.00  0.00     0.153 C 
HETATM    3  C3  UNL     1       3.438  -1.135  -0.795  1.00  0.00     0.037 C 
HETATM    4  C4  UNL     1       4.277  -1.363   0.468  1.00  0.00     0.021 C 
HETATM    5  C5  UNL     1       4.541  -0.034   1.219  1.00  0.00     0.013 C 
HETATM    6  C6  UNL     1       3.191   0.699   1.561  1.00  0.00     0.029 C 
HETATM    7  C7  UNL     1       2.566  -0.142   2.714  1.00  0.00     0.003 C 
HETATM    8  C8  UNL     1       3.461   2.098   2.173  1.00  0.00     0.003 C 
HETATM    9  C9  UNL     1       2.183   2.901   2.458  1.00  0.00     0.000 C 
HETATM   10  C10 UNL     1       1.343   3.063   1.188  1.00  0.00     0.002 C 
HETATM   11  C11 UNL     1       0.988   1.729   0.479  1.00  0.00     0.028 C 
HETATM   12  C12 UNL     1       0.348   2.141  -0.881  1.00  0.00     0.003 C 
HETATM   13  C13 UNL     1      -0.176   1.048   1.236  1.00  0.00     0.003 C 
HETATM   14  C14 UNL     1       5.688   0.807   0.605  1.00  0.00     0.051 C 
HETATM   15  C15 UNL     1       6.915  -0.032   0.407  1.00  0.00     0.071 A 
HETATM   16  C16 UNL     1       6.838  -1.463   0.204  1.00  0.00     0.009 A 
HETATM   17  C17 UNL     1       5.530  -2.153   0.151  1.00  0.00    -0.043 C 
HETATM   18  C18 UNL     1       5.447  -3.625  -0.169  1.00  0.00     0.026 C 
HETATM   19  C19 UNL     1       8.111  -1.918   0.092  1.00  0.00     0.007 A 
HETATM   20  C20 UNL     1       8.934  -0.680   0.241  1.00  0.00     0.175 A 
HETATM   21  O1  UNL     1       8.144   0.392   0.428  1.00  0.00    -0.330 OA
HETATM   22  O4  UNL     1       3.054   1.642  -0.614  1.00  0.00    -0.224 OA
ENDROOT
BRANCH   2  23
HETATM   23  O2  UNL     1       1.284  -1.361   0.194  1.00  0.00    -0.298 OA
BRANCH  23  24
HETATM   24  C21 UNL     1       0.120  -1.849  -0.340  1.00  0.00     0.296 C 
HETATM   25  O3  UNL     1      -0.585  -2.563   0.365  1.00  0.00    -0.259 OA
BRANCH  24  26
HETATM   26  C22 UNL     1      -0.436  -1.567  -1.711  1.00  0.00     0.063 A 
HETATM   27  C23 UNL     1       0.345  -1.691  -2.866  1.00  0.00     0.005 A 
HETATM   28  C24 UNL     1      -0.198  -1.384  -4.114  1.00  0.00     0.000 A 
HETATM   29  C25 UNL     1      -1.528  -0.964  -4.219  1.00  0.00     0.000 A 
HETATM   30  C26 UNL     1      -2.317  -0.868  -3.072  1.00  0.00     0.000 A 
HETATM   31  C27 UNL     1      -1.775  -1.176  -1.822  1.00  0.00     0.005 A 
ENDBRANCH  24  26
ENDBRANCH  23  24
ENDBRANCH   2  23
TORSDOF 3
