REMARK  0 active torsions:
REMARK  status: ('A' for Active; 'I' for Inactive)
ROOT
HETATM    1  C1  UNL     1      -2.552   0.658   0.417  1.00  0.00     0.038 C 
HETATM    2  C2  UNL     1      -2.382  -0.857   0.287  1.00  0.00     0.024 C 
HETATM    3  C3  UNL     1      -0.957  -1.343   0.431  1.00  0.00    -0.052 C 
HETATM    4  C4  UNL     1       0.097  -0.503   0.494  1.00  0.00    -0.050 C 
HETATM    5  C5  UNL     1      -0.041   1.013   0.406  1.00  0.00     0.045 C 
HETATM    6  C6  UNL     1      -1.384   1.369  -0.254  1.00  0.00     0.156 C 
HETATM    7  O1  UNL     1      -1.615   2.758  -0.211  1.00  0.00    -0.223 OA
HETATM    8  C7  UNL     1       1.135   1.573  -0.440  1.00  0.00     0.037 C 
HETATM    9  C8  UNL     1       1.637   0.592  -1.505  1.00  0.00     0.129 C 
HETATM   10  C9  UNL     1       2.080  -0.748  -0.877  1.00  0.00     0.059 C 
HETATM   11  C10 UNL     1       1.541  -0.952   0.542  1.00  0.00     0.028 C 
HETATM   12  C11 UNL     1       3.574  -0.684  -0.981  1.00  0.00     0.043 C 
HETATM   13  C12 UNL     1       3.842   0.458  -1.869  1.00  0.00     0.292 C 
HETATM   14  O2  UNL     1       2.727   1.162  -2.192  1.00  0.00    -0.301 OA
HETATM   15  O3  UNL     1       4.959   0.743  -2.292  1.00  0.00    -0.260 OA
HETATM   16  C13 UNL     1       4.502  -1.472  -0.413  1.00  0.00     0.001 C 
HETATM   17  C14 UNL     1       0.049   1.601   1.835  1.00  0.00     0.007 C 
HETATM   18  C15 UNL     1      -0.855  -2.853   0.418  1.00  0.00     0.026 C 
ENDROOT
TORSDOF 0
