REMARK  11 active torsions:
REMARK  status: ('A' for Active; 'I' for Inactive)
REMARK    1  A    between atoms: C5_5  and  O1_9 
REMARK    2  A    between atoms: O1_9  and  C9_10 
REMARK    3  A    between atoms: C9_10  and  C10_11 
REMARK    4  A    between atoms: C10_11  and  C11_12 
REMARK    5  A    between atoms: C21_26  and  O6_28 
REMARK    6  A    between atoms: O6_28  and  C23_29 
REMARK    7  A    between atoms: C24_31  and  C28_38 
REMARK    8  A    between atoms: C28_38  and  O11_39 
REMARK    9  A    between atoms: O11_39  and  C29_40 
REMARK   10  A    between atoms: C29_40  and  C30_41 
REMARK   11  A    between atoms: C30_41  and  C31_42 
ROOT
HETATM    1  C1  UNL     1      12.189  -2.116  -2.539  1.00  0.00     0.027 C 
HETATM    2  C2  UNL     1      12.818  -2.391  -1.147  1.00  0.00     0.053 C 
HETATM    3  C3  UNL     1      13.433  -1.160  -0.481  1.00  0.00     0.135 C 
HETATM    4  C4  UNL     1      14.686  -0.633  -1.216  1.00  0.00     0.084 C 
HETATM    5  C5  UNL     1      14.388   0.459  -2.245  1.00  0.00     0.135 C 
HETATM    6  C6  UNL     1      13.576  -0.111  -3.412  1.00  0.00     0.053 C 
HETATM    7  C7  UNL     1      12.227  -0.664  -2.996  1.00  0.00    -0.042 C 
HETATM    8  C8  UNL     1      11.154   0.143  -3.058  1.00  0.00    -0.009 C 
HETATM    9  C17 UNL     1      15.562  -0.205  -0.072  1.00  0.00     0.045 C 
HETATM   10  C18 UNL     1      14.964  -0.833   1.116  1.00  0.00     0.292 C 
HETATM   11  O4  UNL     1      13.769  -1.422   0.860  1.00  0.00    -0.300 OA
HETATM   12  O5  UNL     1      15.493  -0.848   2.223  1.00  0.00    -0.260 OA
HETATM   13  C19 UNL     1      16.672   0.552  -0.074  1.00  0.00     0.001 C 
HETATM   14  C20 UNL     1      11.685  -2.987  -0.336  1.00  0.00    -0.015 C 
HETATM   15  C21 UNL     1      10.363  -2.714  -1.002  1.00  0.00     0.137 C 
HETATM   16  C22 UNL     1      10.793  -2.772  -2.468  1.00  0.00     0.038 C 
HETATM   17  C37 UNL     1      11.827  -3.689   0.796  1.00  0.00    -0.007 C 
ENDROOT
BRANCH  15  18
HETATM   18  O6  UNL     1       9.916  -1.424  -0.673  1.00  0.00    -0.327 OA
BRANCH  18  19
HETATM   19  C23 UNL     1       9.152  -1.363   0.511  1.00  0.00     0.270 C 
HETATM   20  O7  UNL     1       7.814  -1.408   0.062  1.00  0.00    -0.326 OA
HETATM   21  C24 UNL     1       6.880  -1.270   1.101  1.00  0.00     0.181 C 
HETATM   22  C25 UNL     1       7.075   0.078   1.788  1.00  0.00     0.215 C 
HETATM   23  C26 UNL     1       8.488   0.177   2.325  1.00  0.00     0.220 C 
HETATM   24  O10 UNL     1       6.200   0.237   2.877  1.00  0.00    -0.218 OA
HETATM   25  C27 UNL     1       9.457  -0.047   1.187  1.00  0.00     0.241 C 
HETATM   26  O9  UNL     1       8.690   1.451   2.881  1.00  0.00    -0.218 OA
HETATM   27  O8  UNL     1      10.763  -0.102   1.705  1.00  0.00    -0.215 OA
BRANCH  21  28
HETATM   28  C28 UNL     1       5.490  -1.448   0.495  1.00  0.00     0.184 C 
BRANCH  28  29
HETATM   29  O11 UNL     1       4.534  -1.526   1.518  1.00  0.00    -0.299 OA
BRANCH  29  30
HETATM   30  C29 UNL     1       3.322  -2.055   1.207  1.00  0.00     0.276 C 
HETATM   31  O13 UNL     1       2.997  -2.449   0.110  1.00  0.00    -0.264 OA
BRANCH  30  32
HETATM   32  C30 UNL     1       2.438  -2.076   2.444  1.00  0.00     0.122 C 
BRANCH  32  33
HETATM   33  C31 UNL     1       1.012  -2.451   2.120  1.00  0.00    -0.012 A 
HETATM   34  C32 UNL     1       0.479  -3.687   2.499  1.00  0.00    -0.002 A 
HETATM   35  C33 UNL     1      -0.842  -4.019   2.192  1.00  0.00     0.027 A 
HETATM   36  C34 UNL     1      -1.672  -3.133   1.499  1.00  0.00     0.131 A 
HETATM   37  C35 UNL     1      -1.132  -1.901   1.118  1.00  0.00     0.027 A 
HETATM   38  O12 UNL     1      -2.957  -3.454   1.194  1.00  0.00    -0.190 OA
HETATM   39  C36 UNL     1       0.186  -1.562   1.425  1.00  0.00    -0.002 A 
ENDBRANCH  32  33
ENDBRANCH  30  32
ENDBRANCH  29  30
ENDBRANCH  28  29
ENDBRANCH  21  28
ENDBRANCH  18  19
ENDBRANCH  15  18
BRANCH   5  40
HETATM   40  O1  UNL     1      13.710   1.493  -1.594  1.00  0.00    -0.303 OA
BRANCH  40  41
HETATM   41  C9  UNL     1      13.614   2.708  -2.191  1.00  0.00     0.276 C 
HETATM   42  O3  UNL     1      14.102   2.999  -3.259  1.00  0.00    -0.264 OA
BRANCH  41  43
HETATM   43  C10 UNL     1      12.790   3.647  -1.323  1.00  0.00     0.122 C 
BRANCH  43  44
HETATM   44  C11 UNL     1      13.425   5.002  -1.120  1.00  0.00    -0.012 A 
HETATM   45  C12 UNL     1      12.633   6.153  -1.041  1.00  0.00    -0.002 A 
HETATM   46  C13 UNL     1      13.210   7.410  -0.848  1.00  0.00     0.027 A 
HETATM   47  C14 UNL     1      14.594   7.563  -0.728  1.00  0.00     0.131 A 
HETATM   48  C15 UNL     1      15.381   6.410  -0.800  1.00  0.00     0.027 A 
HETATM   49  O2  UNL     1      15.161   8.784  -0.546  1.00  0.00    -0.190 OA
HETATM   50  C16 UNL     1      14.809   5.149  -0.984  1.00  0.00    -0.002 A 
ENDBRANCH  43  44
ENDBRANCH  41  43
ENDBRANCH  40  41
ENDBRANCH   5  40
TORSDOF 11
