REMARK  3 active torsions:
REMARK  status: ('A' for Active; 'I' for Inactive)
REMARK    1  A    between atoms: C7_8  and  C8_9 
REMARK    2  A    between atoms: C8_9  and  C9_10 
REMARK    3  A    between atoms: C12_13  and  C14_17 
ROOT
HETATM    1  C9  UNL     1       2.095   0.061   0.824  1.00  0.00     0.036 C 
HETATM    2  C10 UNL     1       1.634  -0.074   2.087  1.00  0.00    -0.040 C 
HETATM    3  C11 UNL     1       1.816  -1.382   2.819  1.00  0.00     0.057 C 
HETATM    4  C12 UNL     1       1.810  -2.588   1.887  1.00  0.00     0.152 C 
HETATM    5  O2  UNL     1       2.679  -2.399   0.800  1.00  0.00    -0.296 OA
HETATM    6  C13 UNL     1       2.775  -1.147   0.267  1.00  0.00     0.291 C 
HETATM    7  O3  UNL     1       3.482  -0.990  -0.725  1.00  0.00    -0.260 OA
HETATM    8  C18 UNL     1       1.035   1.016   2.947  1.00  0.00     0.026 C 
ENDROOT
BRANCH   1   9
HETATM    9  C8  UNL     1       2.149   1.379   0.071  1.00  0.00     0.062 C 
BRANCH   9  10
HETATM   10  C7  UNL     1       1.754   1.434  -1.417  1.00  0.00     0.135 C 
HETATM   11  C4  UNL     1       0.240   1.456  -1.764  1.00  0.00     0.078 C 
HETATM   12  C3  UNL     1      -0.006   2.935  -1.693  1.00  0.00     0.041 C 
HETATM   13  C5  UNL     1      -0.777   0.764  -0.853  1.00  0.00     0.159 C 
HETATM   14  C20 UNL     1       0.084   1.028  -3.245  1.00  0.00     0.010 C 
HETATM   15  C2  UNL     1      -1.143   3.561  -1.355  1.00  0.00    -0.025 C 
HETATM   16  C19 UNL     1       1.290   3.539  -2.030  1.00  0.00     0.291 C 
HETATM   17  C1  UNL     1      -2.347   2.783  -0.896  1.00  0.00     0.029 C 
HETATM   18  C6  UNL     1      -2.203   1.267  -1.112  1.00  0.00     0.038 C 
HETATM   19  O7  UNL     1       2.304   2.638  -1.932  1.00  0.00    -0.300 OA
HETATM   20  O8  UNL     1       1.445   4.709  -2.364  1.00  0.00    -0.260 OA
HETATM   21  O1  UNL     1      -0.750  -0.627  -1.058  1.00  0.00    -0.223 OA
ENDBRANCH   9  10
ENDBRANCH   1   9
BRANCH   4  22
HETATM   22  C14 UNL     1       0.438  -2.926   1.367  1.00  0.00     0.048 A 
HETATM   23  C15 UNL     1       0.103  -4.258   0.744  1.00  0.00     0.298 A 
HETATM   24  O4  UNL     1      -1.215  -4.147   0.206  1.00  0.00    -0.266 OA
HETATM   25  O6  UNL     1      -0.084  -5.267   1.731  1.00  0.00    -0.185 OA
HETATM   26  C16 UNL     1      -1.625  -2.890   0.538  1.00  0.00     0.298 A 
HETATM   27  C17 UNL     1      -0.632  -2.122   1.306  1.00  0.00     0.067 A 
HETATM   28  O5  UNL     1      -2.662  -2.366   0.144  1.00  0.00    -0.259 OA
ENDBRANCH   4  22
TORSDOF 3
