REMARK  3 active torsions:
REMARK  status: ('A' for Active; 'I' for Inactive)
REMARK    1  A    between atoms: C4_4  and  O3_9 
REMARK    2  A    between atoms: C5_6  and  C6_7 
REMARK    3  A    between atoms: O3_9  and  C7_10 
ROOT
HETATM    1  C7  UNL     1       0.025  -2.578   0.864  1.00  0.00     0.263 C 
HETATM    2  O4  UNL     1       0.974  -1.752   0.206  1.00  0.00    -0.300 OA
HETATM    3  C8  UNL     1       0.705  -0.417   0.222  1.00  0.00     0.120 C 
HETATM    4  C9  UNL     1      -0.536   0.096   0.348  1.00  0.00     0.069 C 
HETATM    5  C10 UNL     1      -1.758  -0.796   0.306  1.00  0.00     0.062 C 
HETATM    6  C11 UNL     1      -1.405  -2.261   0.485  1.00  0.00     0.012 C 
HETATM    7  C12 UNL     1      -2.354  -3.210   0.361  1.00  0.00    -0.029 C 
HETATM    8  C13 UNL     1      -2.209  -4.702   0.526  1.00  0.00     0.030 C 
HETATM    9  C14 UNL     1      -2.520  -0.524  -1.018  1.00  0.00     0.105 C 
HETATM   10  C15 UNL     1      -1.646  -0.662  -2.259  1.00  0.00     0.273 C 
HETATM   11  O5  UNL     1      -0.921  -1.607  -2.470  1.00  0.00    -0.264 OA
HETATM   12  O6  UNL     1      -1.722   0.457  -3.033  1.00  0.00    -0.302 OA
HETATM   13  C16 UNL     1      -0.781   0.640  -4.063  1.00  0.00     0.152 C 
HETATM   14  C17 UNL     1      -0.256   2.090  -4.041  1.00  0.00     0.033 C 
HETATM   15  C18 UNL     1       0.359   2.465  -2.668  1.00  0.00     0.007 C 
HETATM   16  C19 UNL     1       1.853   2.745  -2.920  1.00  0.00     0.033 C 
HETATM   17  C20 UNL     1       2.141   2.052  -4.245  1.00  0.00     0.152 C 
HETATM   18  C21 UNL     1       0.878   2.283  -5.074  1.00  0.00     0.033 C 
HETATM   19  C22 UNL     1       0.809   3.678  -5.720  1.00  0.00     0.003 C 
HETATM   20  O7  UNL     1       3.292   2.576  -4.856  1.00  0.00    -0.224 OA
HETATM   21  C23 UNL     1      -0.323   3.593  -1.854  1.00  0.00     0.030 C 
HETATM   22  C24 UNL     1       0.187   3.661  -0.397  1.00  0.00     0.152 C 
HETATM   23  O8  UNL     1       0.389   2.404   0.194  1.00  0.00    -0.299 OA
HETATM   24  C25 UNL     1      -0.680   1.584   0.414  1.00  0.00     0.294 C 
HETATM   25  O9  UNL     1      -1.807   2.050   0.533  1.00  0.00    -0.259 OA
HETATM   26  C26 UNL     1      -1.860   3.620  -1.937  1.00  0.00     0.003 C 
ENDROOT
BRANCH   1  27
HETATM   27  O3  UNL     1       0.381  -2.370   2.230  1.00  0.00    -0.300 OA
BRANCH  27  28
HETATM   28  C4  UNL     1      -0.571  -2.750   3.197  1.00  0.00     0.272 C 
HETATM   29  C3  UNL     1       0.015  -3.659   4.259  1.00  0.00     0.241 C 
HETATM   30  C2  UNL     1       0.794  -2.939   5.342  1.00  0.00     0.220 C 
HETATM   31  O10 UNL     1      -1.025  -4.404   4.855  1.00  0.00    -0.215 OA
HETATM   32  C1  UNL     1       0.080  -1.677   5.785  1.00  0.00     0.215 C 
HETATM   33  O11 UNL     1       2.075  -2.617   4.857  1.00  0.00    -0.218 OA
HETATM   34  C5  UNL     1      -0.391  -0.826   4.616  1.00  0.00     0.184 C 
HETATM   35  O12 UNL     1      -1.028  -2.022   6.585  1.00  0.00    -0.218 OA
HETATM   36  O1  UNL     1      -1.152  -1.562   3.693  1.00  0.00    -0.326 OA
BRANCH  34  37
HETATM   37  C6  UNL     1       0.737  -0.013   3.989  1.00  0.00     0.214 C 
HETATM   38  O2  UNL     1       0.224   0.887   3.030  1.00  0.00    -0.218 OA
ENDBRANCH  34  37
ENDBRANCH  27  28
ENDBRANCH   1  27
TORSDOF 3
