REMARK  4 active torsions:
REMARK  status: ('A' for Active; 'I' for Inactive)
REMARK    1  A    between atoms: C4_4  and  O3_9 
REMARK    2  A    between atoms: C5_6  and  C6_7 
REMARK    3  A    between atoms: O3_9  and  C7_10 
REMARK    4  A    between atoms: C23_30  and  C26_33 
ROOT
HETATM    1  C7  UNL     1       2.254  -3.041  -1.239  1.00  0.00     0.263 C 
HETATM    2  O4  UNL     1       3.397  -2.555  -1.918  1.00  0.00    -0.300 OA
HETATM    3  C8  UNL     1       3.349  -1.247  -2.292  1.00  0.00     0.121 C 
HETATM    4  C9  UNL     1       2.230  -0.515  -2.381  1.00  0.00     0.073 C 
HETATM    5  C10 UNL     1       0.831  -1.104  -2.151  1.00  0.00     0.080 C 
HETATM    6  C11 UNL     1       0.955  -2.614  -1.892  1.00  0.00     0.016 C 
HETATM    7  C12 UNL     1      -0.042  -3.503  -2.086  1.00  0.00    -0.029 C 
HETATM    8  C13 UNL     1      -0.045  -4.993  -1.829  1.00  0.00     0.030 C 
HETATM    9  C14 UNL     1      -0.228  -0.686  -3.217  1.00  0.00     0.051 C 
HETATM   10  C15 UNL     1      -1.273   0.441  -3.069  1.00  0.00     0.292 C 
HETATM   11  O5  UNL     1      -1.884   0.586  -1.845  1.00  0.00    -0.301 OA
HETATM   12  C16 UNL     1      -1.143   1.266  -0.877  1.00  0.00     0.125 C 
HETATM   13  C17 UNL     1      -0.116   2.186  -1.500  1.00  0.00     0.030 C 
HETATM   14  C18 UNL     1       0.594   2.729  -0.268  1.00  0.00     0.007 C 
HETATM   15  C19 UNL     1       1.698   3.726  -0.673  1.00  0.00     0.030 C 
HETATM   16  C20 UNL     1       2.546   3.214  -1.870  1.00  0.00     0.152 C 
HETATM   17  O6  UNL     1       2.895   1.846  -1.746  1.00  0.00    -0.299 OA
HETATM   18  C21 UNL     1       2.519   0.950  -2.724  1.00  0.00     0.294 C 
HETATM   19  O7  UNL     1       2.199   1.317  -3.844  1.00  0.00    -0.259 OA
HETATM   20  C22 UNL     1       2.616   4.083   0.507  1.00  0.00     0.003 C 
HETATM   21  C23 UNL     1      -0.629   3.118   0.608  1.00  0.00     0.036 C 
HETATM   22  C24 UNL     1      -1.835   2.260   0.065  1.00  0.00     0.030 C 
HETATM   23  C25 UNL     1      -2.920   3.123  -0.601  1.00  0.00     0.003 C 
HETATM   24  O9  UNL     1      -1.631   1.075  -4.040  1.00  0.00    -0.259 OA
ENDROOT
BRANCH   1  25
HETATM   25  O3  UNL     1       2.447  -2.529   0.073  1.00  0.00    -0.300 OA
BRANCH  25  26
HETATM   26  C4  UNL     1       1.478  -2.905   1.026  1.00  0.00     0.272 C 
HETATM   27  C3  UNL     1       2.069  -3.705   2.167  1.00  0.00     0.241 C 
HETATM   28  C2  UNL     1       2.911  -2.878   3.121  1.00  0.00     0.220 C 
HETATM   29  O10 UNL     1       1.027  -4.317   2.893  1.00  0.00    -0.215 OA
HETATM   30  C1  UNL     1       2.245  -1.554   3.452  1.00  0.00     0.215 C 
HETATM   31  O11 UNL     1       4.174  -2.647   2.543  1.00  0.00    -0.218 OA
HETATM   32  C5  UNL     1       1.644  -0.862   2.238  1.00  0.00     0.184 C 
HETATM   33  O12 UNL     1       1.238  -1.761   4.416  1.00  0.00    -0.218 OA
HETATM   34  O1  UNL     1       0.852  -1.714   1.453  1.00  0.00    -0.326 OA
BRANCH  32  35
HETATM   35  C6  UNL     1       2.679  -0.098   1.422  1.00  0.00     0.214 C 
HETATM   36  O2  UNL     1       3.022   1.093   2.099  1.00  0.00    -0.218 OA
ENDBRANCH  32  35
ENDBRANCH  25  26
ENDBRANCH   1  25
BRANCH  21  37
HETATM   37  C26 UNL     1      -0.363   2.887   2.103  1.00  0.00     0.182 C 
HETATM   38  O8  UNL     1      -0.561   4.083   2.829  1.00  0.00    -0.221 OA
ENDBRANCH  21  37
TORSDOF 4
