REMARK  2 active torsions:
REMARK  status: ('A' for Active; 'I' for Inactive)
REMARK    1  A    between atoms: C4_4  and  C9_11 
REMARK    2  A    between atoms: C7_7  and  C8_8 
ROOT
HETATM    1  C1  UNL     1      -0.197  -1.340  -0.907  1.00  0.00     0.029 C 
HETATM    2  C2  UNL     1       0.014   0.183  -0.949  1.00  0.00     0.008 C 
HETATM    3  C3  UNL     1       0.492   0.759   0.389  1.00  0.00     0.022 C 
HETATM    4  C4  UNL     1       1.982   0.620   0.565  1.00  0.00    -0.044 C 
HETATM    5  C5  UNL     1       2.614  -0.566   0.461  1.00  0.00    -0.009 C 
HETATM    6  C6  UNL     1       2.058  -1.889   0.181  1.00  0.00     0.001 C 
HETATM    7  C7  UNL     1       0.886  -2.258  -0.390  1.00  0.00     0.042 C 
HETATM    8  C12 UNL     1      -1.410   0.644  -1.342  1.00  0.00     0.001 C 
HETATM    9  C13 UNL     1      -2.330  -0.201  -0.448  1.00  0.00     0.000 C 
HETATM   10  C14 UNL     1      -1.548  -1.500  -0.180  1.00  0.00     0.005 C 
HETATM   11  C15 UNL     1      -1.712   2.146  -1.291  1.00  0.00     0.000 C 
ENDROOT
BRANCH   4  12
HETATM   12  C9  UNL     1       2.754   1.877   0.949  1.00  0.00     0.018 C 
HETATM   13  C10 UNL     1       3.244   1.791   2.404  1.00  0.00     0.004 C 
HETATM   14  C11 UNL     1       3.913   2.156  -0.023  1.00  0.00     0.004 C 
ENDBRANCH   4  12
BRANCH   7  15
HETATM   15  C8  UNL     1       0.660  -3.724  -0.570  1.00  0.00     0.207 C 
HETATM   16  O1  UNL     1      -0.347  -4.134  -1.134  1.00  0.00    -0.644 OA
HETATM   17  O2  UNL     1       1.531  -4.674  -0.162  1.00  0.00    -0.644 OA
ENDBRANCH   7  15
TORSDOF 2
