REMARK  3 active torsions:
REMARK  status: ('A' for Active; 'I' for Inactive)
REMARK    1  A    between atoms: C5_5  and  O1_6 
REMARK    2  A    between atoms: O1_6  and  C6_7 
REMARK    3  A    between atoms: C13_15  and  C19_22 
ROOT
HETATM    1  C1  UNL     1       0.248  -0.925   0.850  1.00  0.00    -0.014 C 
HETATM    2  C2  UNL     1       0.156   0.559   0.595  1.00  0.00     0.078 C 
HETATM    3  C3  UNL     1      -1.258   0.892   1.098  1.00  0.00     0.014 C 
HETATM    4  C4  UNL     1      -2.127  -0.357   0.858  1.00  0.00     0.033 C 
HETATM    5  C5  UNL     1      -1.142  -1.536   0.787  1.00  0.00     0.143 C 
HETATM    6  C8  UNL     1      -3.005  -0.229  -0.397  1.00  0.00     0.003 C 
HETATM    7  C9  UNL     1       0.349   0.962  -0.865  1.00  0.00     0.158 C 
HETATM    8  C10 UNL     1       1.042   2.298  -1.137  1.00  0.00     0.080 C 
HETATM    9  C11 UNL     1       2.487   2.153  -0.727  1.00  0.00    -0.023 C 
HETATM   10  C12 UNL     1       3.319   1.283  -1.319  1.00  0.00    -0.026 C 
HETATM   11  C13 UNL     1       4.678   0.916  -0.774  1.00  0.00     0.047 C 
HETATM   12  C14 UNL     1       4.759  -0.605  -0.533  1.00  0.00     0.073 C 
HETATM   13  C15 UNL     1       3.412  -1.266  -0.260  1.00  0.00     0.155 C 
HETATM   14  C16 UNL     1       2.809  -1.319   1.141  1.00  0.00     0.079 C 
HETATM   15  C17 UNL     1       1.337  -1.681   1.082  1.00  0.00    -0.025 C 
HETATM   16  C18 UNL     1       3.160  -0.161   2.082  1.00  0.00     0.013 C 
HETATM   17  O3  UNL     1       2.836  -1.818  -1.172  1.00  0.00    -0.296 OA
HETATM   18  C22 UNL     1       0.900   2.793  -2.583  1.00  0.00     0.013 C 
HETATM   19  O4  UNL     1      -0.026   0.255  -1.772  1.00  0.00    -0.295 OA
ENDROOT
BRANCH   5  20
HETATM   20  O1  UNL     1      -1.331  -2.423   1.865  1.00  0.00    -0.300 OA
BRANCH  20  21
HETATM   21  C6  UNL     1      -2.392  -3.272   1.808  1.00  0.00     0.273 C 
HETATM   22  C7  UNL     1      -2.417  -4.161   3.035  1.00  0.00     0.106 C 
HETATM   23  O2  UNL     1      -3.198  -3.325   0.907  1.00  0.00    -0.264 OA
ENDBRANCH  20  21
ENDBRANCH   5  20
BRANCH  11  24
HETATM   24  C19 UNL     1       5.798   1.405  -1.670  1.00  0.00    -0.040 C 
HETATM   25  C20 UNL     1       6.940   2.123  -0.994  1.00  0.00     0.027 C 
HETATM   26  C21 UNL     1       5.806   1.171  -2.993  1.00  0.00    -0.009 C 
ENDBRANCH  11  24
TORSDOF 3
