REMARK  8 active torsions:
REMARK  status: ('A' for Active; 'I' for Inactive)
REMARK    1  A    between atoms: C3_3  and  C44_50 
REMARK    2  A    between atoms: C26_31  and  C39_44 
REMARK    3  A    between atoms: C29_34  and  C30_35 
REMARK    4  A    between atoms: C31_36  and  C32_37 
REMARK    5  A    between atoms: C33_38  and  C34_39 
REMARK    6  A    between atoms: C35_40  and  C36_41 
REMARK    7  A    between atoms: C36_41  and  C37_42 
REMARK    8  A    between atoms: C40_45  and  C41_46 
ROOT
HETATM    1  C1  UNL     1       6.615  -1.507  -6.863  1.00  0.00     0.191 C 
HETATM    2  C2  UNL     1       7.529  -2.646  -6.413  1.00  0.00     0.063 C 
HETATM    3  C3  UNL     1       8.410  -2.387  -5.204  1.00  0.00    -0.013 C 
HETATM    4  C4  UNL     1       8.172  -1.494  -4.223  1.00  0.00    -0.030 C 
HETATM    5  C5  UNL     1       6.953  -0.610  -4.058  1.00  0.00     0.052 C 
HETATM    6  C6  UNL     1       6.791   0.469  -5.149  1.00  0.00     0.137 C 
HETATM    7  C7  UNL     1       7.182  -0.124  -6.508  1.00  0.00     0.086 C 
HETATM    8  C8  UNL     1       7.002   0.695  -7.755  1.00  0.00    -0.022 C 
HETATM    9  C9  UNL     1       6.618  -0.040  -8.813  1.00  0.00     0.011 C 
HETATM   10  C10 UNL     1       6.431  -1.437  -8.377  1.00  0.00     0.197 C 
HETATM   11  O1  UNL     1       6.052  -2.385  -9.048  1.00  0.00    -0.289 OA
HETATM   12  C11 UNL     1       6.409   0.455 -10.211  1.00  0.00     0.034 C 
HETATM   13  C12 UNL     1       5.380   1.075  -4.991  1.00  0.00     0.031 C 
HETATM   14  C13 UNL     1       5.190   1.727  -3.599  1.00  0.00     0.030 C 
HETATM   15  C14 UNL     1       5.926   1.115  -2.423  1.00  0.00     0.104 A 
HETATM   16  C15 UNL     1       6.876  -0.031  -2.642  1.00  0.00     0.037 A 
HETATM   17  C16 UNL     1       5.607  -0.237  -1.812  1.00  0.00     0.054 A 
HETATM   18  C17 UNL     1       4.441  -1.064  -2.345  1.00  0.00     0.005 C 
HETATM   19  C18 UNL     1       5.881  -0.507  -0.328  1.00  0.00     0.154 C 
HETATM   20  O2  UNL     1       5.129   0.132   0.684  1.00  0.00    -0.302 OA
HETATM   21  C19 UNL     1       4.119   1.002   0.434  1.00  0.00     0.272 C 
HETATM   22  O3  UNL     1       3.626   1.243  -0.643  1.00  0.00    -0.264 OA
HETATM   23  C20 UNL     1       3.669   1.678   1.728  1.00  0.00     0.091 C 
HETATM   24  C21 UNL     1       4.798   2.358   2.538  1.00  0.00     0.035 C 
HETATM   25  C22 UNL     1       5.940   2.867   1.692  1.00  0.00    -0.030 C 
HETATM   26  C23 UNL     1       5.786   3.649   0.612  1.00  0.00    -0.020 C 
HETATM   27  C24 UNL     1       6.918   4.013  -0.320  1.00  0.00     0.121 C 
HETATM   28  C25 UNL     1       6.996   3.114  -1.551  1.00  0.00     0.276 C 
HETATM   29  O4  UNL     1       6.243   2.000  -1.369  1.00  0.00    -0.306 OA
HETATM   30  O5  UNL     1       7.655   3.367  -2.533  1.00  0.00    -0.264 OA
HETATM   31  C26 UNL     1       5.212   1.268   3.553  1.00  0.00     0.027 C 
HETATM   32  C27 UNL     1       3.991   0.374   3.773  1.00  0.00     0.009 A 
HETATM   33  C28 UNL     1       3.031   0.628   2.632  1.00  0.00     0.014 A 
HETATM   34  C29 UNL     1       2.656   1.034   4.040  1.00  0.00     0.023 A 
HETATM   35  C43 UNL     1       4.950   2.085  -6.070  1.00  0.00     0.003 C 
HETATM   36  O6  UNL     1       7.725   1.482  -4.883  1.00  0.00    -0.225 OA
HETATM   37  O8  UNL     1       5.310  -1.721  -6.377  1.00  0.00    -0.217 OA
ENDROOT
BRANCH  34  38
HETATM   38  C30 UNL     1       1.733   0.041   4.646  1.00  0.00    -0.026 C 
HETATM   39  C31 UNL     1       1.075   0.271   5.800  1.00  0.00    -0.005 C 
BRANCH  39  40
HETATM   40  C32 UNL     1       0.169  -0.739   6.355  1.00  0.00    -0.000 C 
HETATM   41  C33 UNL     1      -0.446  -0.601   7.553  1.00  0.00    -0.000 C 
BRANCH  41  42
HETATM   42  C34 UNL     1      -1.339  -1.644   8.067  1.00  0.00    -0.005 C 
HETATM   43  C35 UNL     1      -1.898  -1.586   9.292  1.00  0.00    -0.026 C 
BRANCH  43  44
HETATM   44  C36 UNL     1      -2.800  -2.662   9.843  1.00  0.00     0.026 C 
BRANCH  44  45
HETATM   45  C37 UNL     1      -2.076  -3.547  10.870  1.00  0.00     0.005 C 
HETATM   46  C38 UNL     1      -0.906  -4.328  10.256  1.00  0.00     0.000 C 
ENDBRANCH  44  45
ENDBRANCH  43  44
ENDBRANCH  41  42
ENDBRANCH  39  40
ENDBRANCH  34  38
BRANCH  31  47
HETATM   47  C39 UNL     1       5.707   1.845   4.856  1.00  0.00    -0.026 C 
HETATM   48  C40 UNL     1       6.984   1.909   5.286  1.00  0.00    -0.005 C 
BRANCH  48  49
HETATM   49  C41 UNL     1       8.160   1.418   4.559  1.00  0.00    -0.000 C 
HETATM   50  C42 UNL     1       9.403   1.530   5.066  1.00  0.00    -0.000 C 
ENDBRANCH  48  49
ENDBRANCH  31  47
BRANCH   3  51
HETATM   51  C44 UNL     1       9.664  -3.235  -5.159  1.00  0.00     0.204 C 
HETATM   52  O7  UNL     1      10.563  -2.857  -6.195  1.00  0.00    -0.216 OA
ENDBRANCH   3  51
TORSDOF 8
