REMARK  6 active torsions:
REMARK  status: ('A' for Active; 'I' for Inactive)
REMARK    1  A    between atoms: C3_3  and  C45_50 
REMARK    2  A    between atoms: C34_37  and  C35_38 
REMARK    3  A    between atoms: C36_39  and  C37_40 
REMARK    4  A    between atoms: C38_41  and  C39_42 
REMARK    5  A    between atoms: C40_43  and  C41_44 
REMARK    6  A    between atoms: C41_44  and  C42_45 
ROOT
HETATM    1  C1  UNL     1       3.700   0.218  -5.965  1.00  0.00     0.191 C 
HETATM    2  C2  UNL     1       3.534  -1.223  -5.460  1.00  0.00     0.063 C 
HETATM    3  C3  UNL     1       4.263  -1.561  -4.171  1.00  0.00    -0.013 C 
HETATM    4  C4  UNL     1       4.344  -0.721  -3.124  1.00  0.00    -0.030 C 
HETATM    5  C5  UNL     1       3.709   0.654  -3.044  1.00  0.00     0.050 C 
HETATM    6  C6  UNL     1       4.527   1.645  -3.907  1.00  0.00     0.137 C 
HETATM    7  C7  UNL     1       4.836   0.987  -5.265  1.00  0.00     0.086 C 
HETATM    8  C8  UNL     1       5.456   1.797  -6.365  1.00  0.00    -0.022 C 
HETATM    9  C9  UNL     1       5.066   1.401  -7.588  1.00  0.00     0.011 C 
HETATM   10  C10 UNL     1       4.078   0.311  -7.446  1.00  0.00     0.197 C 
HETATM   11  O1  UNL     1       3.584  -0.331  -8.362  1.00  0.00    -0.289 OA
HETATM   12  C11 UNL     1       5.570   1.938  -8.893  1.00  0.00     0.034 C 
HETATM   13  C12 UNL     1       3.801   3.002  -3.903  1.00  0.00     0.029 C 
HETATM   14  C13 UNL     1       3.694   3.532  -2.453  1.00  0.00     0.003 C 
HETATM   15  C14 UNL     1       3.593   2.535  -1.293  1.00  0.00     0.010 A 
HETATM   16  C15 UNL     1       3.475   1.056  -1.587  1.00  0.00     0.009 A 
HETATM   17  C16 UNL     1       2.254   1.826  -1.107  1.00  0.00     0.029 A 
HETATM   18  C17 UNL     1       1.096   2.100  -2.059  1.00  0.00     0.003 C 
HETATM   19  C18 UNL     1       1.774   1.601   0.334  1.00  0.00     0.152 C 
HETATM   20  O2  UNL     1       0.635   0.772   0.464  1.00  0.00    -0.298 OA
HETATM   21  C19 UNL     1      -0.603   1.346   0.478  1.00  0.00     0.296 C 
HETATM   22  C20 UNL     1      -1.831   0.627   0.024  1.00  0.00     0.064 C 
HETATM   23  C21 UNL     1      -2.225  -0.641   0.247  1.00  0.00    -0.021 C 
HETATM   24  C22 UNL     1      -1.689  -1.754   1.104  1.00  0.00     0.026 C 
HETATM   25  C23 UNL     1      -0.649  -2.745   0.508  1.00  0.00     0.005 C 
HETATM   26  C24 UNL     1       0.364  -2.105  -0.399  1.00  0.00     0.005 C 
HETATM   27  C25 UNL     1       1.834  -2.445  -0.382  1.00  0.00     0.026 C 
HETATM   28  C26 UNL     1       2.752  -1.830   0.628  1.00  0.00    -0.031 C 
HETATM   29  C27 UNL     1       4.101  -1.859   0.495  1.00  0.00    -0.031 C 
HETATM   30  C28 UNL     1       4.997  -1.139   1.457  1.00  0.00     0.026 C 
HETATM   31  C29 UNL     1       6.191  -0.378   0.936  1.00  0.00     0.012 C 
HETATM   32  C30 UNL     1       6.134   1.022   0.376  1.00  0.00     0.065 C 
HETATM   33  C31 UNL     1       4.971   1.878   0.864  1.00  0.00     0.151 C 
HETATM   34  C32 UNL     1       4.404   2.955  -0.056  1.00  0.00     0.065 C 
HETATM   35  O3  UNL     1       4.572   1.780   2.003  1.00  0.00    -0.296 OA
HETATM   36  C33 UNL     1      -0.192  -2.951   1.978  1.00  0.00     0.005 C 
HETATM   37  C34 UNL     1      -0.740  -1.536   2.306  1.00  0.00     0.026 C 
HETATM   38  O4  UNL     1      -0.726   2.562   0.597  1.00  0.00    -0.259 OA
HETATM   39  C44 UNL     1       4.397   4.114  -4.787  1.00  0.00     0.003 C 
HETATM   40  O5  UNL     1       5.773   1.845  -3.286  1.00  0.00    -0.225 OA
HETATM   41  O7  UNL     1       2.479   0.917  -5.847  1.00  0.00    -0.217 OA
ENDROOT
BRANCH  37  42
HETATM   42  C35 UNL     1      -1.346  -1.391   3.671  1.00  0.00    -0.026 C 
HETATM   43  C36 UNL     1      -0.598  -1.458   4.789  1.00  0.00    -0.005 C 
BRANCH  43  44
HETATM   44  C37 UNL     1      -1.158  -1.263   6.130  1.00  0.00    -0.000 C 
HETATM   45  C38 UNL     1      -0.372  -1.283   7.232  1.00  0.00    -0.000 C 
BRANCH  45  46
HETATM   46  C39 UNL     1      -0.908  -1.058   8.578  1.00  0.00    -0.005 C 
HETATM   47  C40 UNL     1      -0.117  -1.079   9.669  1.00  0.00    -0.026 C 
BRANCH  47  48
HETATM   48  C41 UNL     1      -0.614  -0.860  11.076  1.00  0.00     0.026 C 
BRANCH  48  49
HETATM   49  C42 UNL     1      -0.410  -2.109  11.948  1.00  0.00     0.005 C 
HETATM   50  C43 UNL     1      -1.210  -3.315  11.438  1.00  0.00     0.000 C 
ENDBRANCH  48  49
ENDBRANCH  47  48
ENDBRANCH  45  46
ENDBRANCH  43  44
ENDBRANCH  37  42
BRANCH   3  51
HETATM   51  C45 UNL     1       4.907  -2.932  -4.146  1.00  0.00     0.204 C 
HETATM   52  O6  UNL     1       5.673  -3.191  -2.976  1.00  0.00    -0.216 OA
ENDBRANCH   3  51
TORSDOF 6
