REMARK  8 active torsions:
REMARK  status: ('A' for Active; 'I' for Inactive)
REMARK    1  A    between atoms: C3_3  and  O8_39 
REMARK    2  A    between atoms: C10_10  and  O1_11 
REMARK    3  A    between atoms: C12_13  and  O2_15 
REMARK    4  A    between atoms: C17_21  and  C22_27 
REMARK    5  A    between atoms: C20_24  and  O4_25 
REMARK    6  A    between atoms: C22_27  and  O5_28 
REMARK    7  A    between atoms: O5_28  and  C23_29 
REMARK    8  A    between atoms: C23_29  and  C24_30 
ROOT
HETATM    1  C1  UNL     1       1.010   0.802  -0.022  1.00  0.00     0.051 C 
HETATM    2  C2  UNL     1       0.865  -0.738  -0.228  1.00  0.00     0.038 C 
HETATM    3  C3  UNL     1       1.297  -0.997  -1.690  1.00  0.00     0.148 C 
HETATM    4  C4  UNL     1       1.263   0.400  -2.336  1.00  0.00     0.197 C 
HETATM    5  C5  UNL     1       2.612   1.107  -2.507  1.00  0.00     0.161 C 
HETATM    6  C6  UNL     1       3.404   1.031  -1.198  1.00  0.00     0.058 C 
HETATM    7  C7  UNL     1       2.492   1.290   0.023  1.00  0.00     0.009 C 
HETATM    8  C8  UNL     1       2.676   2.811   0.253  1.00  0.00     0.005 C 
HETATM    9  C9  UNL     1       3.590   3.326  -0.880  1.00  0.00     0.055 C 
HETATM   10  C10 UNL     1       4.481   2.111  -1.115  1.00  0.00     0.120 C 
HETATM   11  C12 UNL     1       2.749   3.718  -2.106  1.00  0.00     0.120 C 
HETATM   12  C13 UNL     1       2.509   2.544  -3.071  1.00  0.00     0.063 C 
HETATM   13  O3  UNL     1       3.316   0.386  -3.491  1.00  0.00    -0.223 OA
HETATM   14  C15 UNL     1       0.385   1.209  -1.368  1.00  0.00     0.133 C 
HETATM   15  N1  UNL     1      -1.047   0.897  -1.400  1.00  0.00    -0.295 NA
HETATM   16  C16 UNL     1      -1.422  -0.493  -1.153  1.00  0.00     0.122 C 
HETATM   17  C17 UNL     1      -0.615  -1.186  -0.002  1.00  0.00     0.053 C 
HETATM   18  C18 UNL     1      -1.204  -0.679   1.339  1.00  0.00     0.007 C 
HETATM   19  C19 UNL     1      -0.251   0.221   2.125  1.00  0.00     0.030 C 
HETATM   20  C20 UNL     1       0.300   1.341   1.250  1.00  0.00     0.117 C 
HETATM   21  O7  UNL     1       0.678   0.313  -3.608  1.00  0.00    -0.219 OA
ENDROOT
BRANCH  17  22
HETATM   22  C22 UNL     1      -0.888  -2.707  -0.186  1.00  0.00     0.154 C 
BRANCH  22  23
HETATM   23  O5  UNL     1      -0.654  -3.664   0.823  1.00  0.00    -0.298 OA
BRANCH  23  24
HETATM   24  C23 UNL     1       0.072  -3.506   1.958  1.00  0.00     0.297 C 
HETATM   25  O6  UNL     1       0.916  -2.626   2.072  1.00  0.00    -0.259 OA
BRANCH  24  26
HETATM   26  C24 UNL     1      -0.216  -4.347   3.149  1.00  0.00     0.076 A 
HETATM   27  C25 UNL     1      -0.875  -5.578   2.971  1.00  0.00     0.006 A 
HETATM   28  C26 UNL     1      -1.168  -6.385   4.064  1.00  0.00     0.000 A 
HETATM   29  C27 UNL     1      -0.840  -5.963   5.363  1.00  0.00     0.001 A 
HETATM   30  C28 UNL     1      -0.224  -4.734   5.561  1.00  0.00     0.014 A 
HETATM   31  C29 UNL     1       0.097  -3.915   4.456  1.00  0.00     0.075 A 
HETATM   32  N2  UNL     1       0.683  -2.688   4.696  1.00  0.00    -0.100 NA
ENDBRANCH  24  26
ENDBRANCH  23  24
ENDBRANCH  22  23
ENDBRANCH  17  22
BRANCH   3  33
HETATM   33  O8  UNL     1       2.529  -1.653  -1.793  1.00  0.00    -0.351 OA
HETATM   34  C30 UNL     1       2.466  -3.040  -1.537  1.00  0.00     0.174 C 
ENDBRANCH   3  33
BRANCH  20  35
HETATM   35  O4  UNL     1      -0.699   2.263   0.907  1.00  0.00    -0.354 OA
HETATM   36  C21 UNL     1      -0.980   3.220   1.907  1.00  0.00     0.174 C 
ENDBRANCH  20  35
BRANCH  10  37
HETATM   37  O1  UNL     1       5.258   2.224  -2.271  1.00  0.00    -0.354 OA
HETATM   38  C11 UNL     1       6.314   1.288  -2.317  1.00  0.00     0.174 C 
ENDBRANCH  10  37
BRANCH  11  39
HETATM   39  O2  UNL     1       3.355   4.759  -2.833  1.00  0.00    -0.354 OA
HETATM   40  C14 UNL     1       3.200   6.040  -2.253  1.00  0.00     0.174 C 
ENDBRANCH  11  39
TORSDOF 8
