REMARK  4 active torsions:
REMARK  status: ('A' for Active; 'I' for Inactive)
REMARK    1  A    between atoms: C10_10  and  O1_11 
REMARK    2  A    between atoms: O1_11  and  C11_12 
REMARK    3  A    between atoms: C14_18  and  O7_27 
REMARK    4  A    between atoms: O7_27  and  C21_28 
ROOT
HETATM    1  C1  UNL     1      -2.114   0.143   2.937  1.00  0.00     0.000 C 
HETATM    2  C2  UNL     1      -1.860  -1.366   3.031  1.00  0.00     0.000 C 
HETATM    3  C3  UNL     1      -1.359  -1.975   1.702  1.00  0.00     0.003 C 
HETATM    4  C4  UNL     1      -0.125  -1.160   1.212  1.00  0.00     0.035 C 
HETATM    5  C5  UNL     1      -0.230   0.389   1.188  1.00  0.00     0.030 C 
HETATM    6  C6  UNL     1      -0.844   0.890   2.512  1.00  0.00     0.003 C 
HETATM    7  C7  UNL     1       1.202   0.987   0.964  1.00  0.00     0.012 C 
HETATM    8  C8  UNL     1       1.685   0.639  -0.479  1.00  0.00     0.108 C 
HETATM    9  C9  UNL     1       0.681  -0.396  -1.011  1.00  0.00     0.249 C 
HETATM   10  C10 UNL     1       0.481  -1.622  -0.124  1.00  0.00     0.178 C 
HETATM   11  O3  UNL     1      -0.567   0.221  -1.205  1.00  0.00    -0.331 OA
HETATM   12  C13 UNL     1      -1.056   0.814  -0.029  1.00  0.00     0.145 C 
HETATM   13  O4  UNL     1       1.004  -0.838  -2.317  1.00  0.00    -0.193 OA
HETATM   14  C14 UNL     1       1.745   1.951  -1.315  1.00  0.00     0.134 C 
HETATM   15  C15 UNL     1       2.942   2.671  -0.668  1.00  0.00     0.058 C 
HETATM   16  C16 UNL     1       2.570   3.172   0.739  1.00  0.00     0.005 C 
HETATM   17  C17 UNL     1       1.318   2.490   1.309  1.00  0.00     0.001 C 
HETATM   18  C18 UNL     1       3.921   1.518  -0.612  1.00  0.00     0.150 A 
HETATM   19  C19 UNL     1       3.184   0.206  -0.460  1.00  0.00     0.186 C 
HETATM   20  O5  UNL     1       3.492  -0.661  -1.536  1.00  0.00    -0.221 OA
HETATM   21  C20 UNL     1       5.245   1.605  -1.153  1.00  0.00     0.172 A 
HETATM   22  O6  UNL     1       5.249   1.710   0.248  1.00  0.00    -0.351 OA
HETATM   23  C23 UNL     1      -0.914  -3.432   1.995  1.00  0.00     0.000 C 
HETATM   24  C24 UNL     1      -2.550  -2.083   0.719  1.00  0.00     0.000 C 
ENDROOT
BRANCH  10  25
HETATM   25  O1  UNL     1       1.707  -2.246   0.124  1.00  0.00    -0.299 OA
BRANCH  25  26
HETATM   26  C11 UNL     1       2.294  -3.118  -0.741  1.00  0.00     0.273 C 
HETATM   27  O2  UNL     1       3.501  -3.235  -0.781  1.00  0.00    -0.264 OA
HETATM   28  C12 UNL     1       1.364  -4.026  -1.522  1.00  0.00     0.106 C 
ENDBRANCH  25  26
ENDBRANCH  10  25
BRANCH  14  29
HETATM   29  O7  UNL     1       2.042   1.672  -2.653  1.00  0.00    -0.304 OA
BRANCH  29  30
HETATM   30  C21 UNL     1       1.291   2.073  -3.719  1.00  0.00     0.272 C 
HETATM   31  O8  UNL     1       1.579   1.751  -4.852  1.00  0.00    -0.264 OA
HETATM   32  C22 UNL     1       0.097   2.968  -3.440  1.00  0.00     0.106 C 
ENDBRANCH  29  30
ENDBRANCH  14  29
TORSDOF 4
