REMARK  6 active torsions:
REMARK  status: ('A' for Active; 'I' for Inactive)
REMARK    1  A    between atoms: C7_7  and  O5_22 
REMARK    2  A    between atoms: C8_8  and  O3_16 
REMARK    3  A    between atoms: O3_16  and  C14_17 
REMARK    4  A    between atoms: C14_17  and  C15_18 
REMARK    5  A    between atoms: O5_22  and  C18_23 
REMARK    6  A    between atoms: C18_23  and  C19_25 
ROOT
HETATM    1  C1  UNL     1      -1.385  -0.847  -1.533  1.00  0.00     0.035 C 
HETATM    2  C2  UNL     1      -1.748  -2.347  -1.518  1.00  0.00     0.025 C 
HETATM    3  C3  UNL     1      -1.448  -3.009  -0.185  1.00  0.00    -0.023 C 
HETATM    4  C4  UNL     1      -0.276  -3.124   0.459  1.00  0.00     0.035 C 
HETATM    5  C5  UNL     1       1.052  -2.676  -0.076  1.00  0.00     0.203 C 
HETATM    6  C6  UNL     1       1.868  -1.652   0.725  1.00  0.00     0.209 C 
HETATM    7  C7  UNL     1       1.204  -0.271   0.946  1.00  0.00     0.187 C 
HETATM    8  C8  UNL     1       1.283   0.880  -0.088  1.00  0.00     0.158 C 
HETATM    9  C9  UNL     1       0.552   0.846  -1.458  1.00  0.00     0.068 C 
HETATM   10  C10 UNL     1       0.015  -0.466  -2.026  1.00  0.00     0.128 C 
HETATM   11  O1  UNL     1      -0.016  -0.338  -3.423  1.00  0.00    -0.304 OA
HETATM   12  C11 UNL     1       0.686   0.737  -3.853  1.00  0.00     0.271 C 
HETATM   13  C12 UNL     1       1.361   1.374  -2.657  1.00  0.00     0.091 C 
HETATM   14  C13 UNL     1       1.422   2.903  -2.751  1.00  0.00     0.011 C 
HETATM   15  O2  UNL     1       0.773   1.098  -5.005  1.00  0.00    -0.264 OA
HETATM   16  C22 UNL     1       3.277  -1.545   0.130  1.00  0.00     0.044 C 
HETATM   17  O7  UNL     1       2.042  -2.220   2.011  1.00  0.00    -0.215 OA
HETATM   18  O8  UNL     1       1.539  -3.255  -1.036  1.00  0.00    -0.289 OA
HETATM   19  C23 UNL     1      -1.263  -3.143  -2.735  1.00  0.00     0.005 C 
ENDROOT
BRANCH   7  20
HETATM   20  O5  UNL     1      -0.117  -0.413   1.364  1.00  0.00    -0.296 OA
BRANCH  20  21
HETATM   21  C18 UNL     1      -0.534  -0.533   2.664  1.00  0.00     0.292 C 
HETATM   22  O6  UNL     1      -1.737  -0.730   2.824  1.00  0.00    -0.260 OA
BRANCH  21  23
HETATM   23  C19 UNL     1       0.258  -0.414   3.935  1.00  0.00     0.041 C 
HETATM   24  C20 UNL     1      -0.185  -1.117   5.000  1.00  0.00     0.001 C 
HETATM   25  C21 UNL     1       1.449   0.494   4.122  1.00  0.00     0.037 C 
ENDBRANCH  21  23
ENDBRANCH  20  21
ENDBRANCH   7  20
BRANCH   8  26
HETATM   26  O3  UNL     1       2.618   1.285  -0.246  1.00  0.00    -0.298 OA
BRANCH  26  27
HETATM   27  C14 UNL     1       3.159   2.232   0.580  1.00  0.00     0.292 C 
HETATM   28  O4  UNL     1       2.527   2.677   1.531  1.00  0.00    -0.260 OA
BRANCH  27  29
HETATM   29  C15 UNL     1       4.508   2.812   0.325  1.00  0.00     0.041 C 
HETATM   30  C16 UNL     1       5.001   3.939   1.200  1.00  0.00     0.037 C 
HETATM   31  C17 UNL     1       5.251   2.319  -0.684  1.00  0.00     0.001 C 
ENDBRANCH  27  29
ENDBRANCH  26  27
ENDBRANCH   8  26
TORSDOF 6
