REMARK  9 active torsions:
REMARK  status: ('A' for Active; 'I' for Inactive)
REMARK    1  A    between atoms: C1_1  and  O12_38 
REMARK    2  A    between atoms: C6_6  and  O1_7 
REMARK    3  A    between atoms: O1_7  and  C7_8 
REMARK    4  A    between atoms: C9_11  and  O9_31 
REMARK    5  A    between atoms: C10_12  and  O7_27 
REMARK    6  A    between atoms: C14_16  and  C17_19 
REMARK    7  A    between atoms: O7_27  and  C21_28 
REMARK    8  A    between atoms: O9_31  and  C23_32 
REMARK    9  A    between atoms: O12_38  and  C27_39 
ROOT
HETATM    1  C1  UNL     1       0.473   1.477   0.422  1.00  0.00     0.154 C 
HETATM    2  C2  UNL     1       0.114   0.188  -0.352  1.00  0.00     0.063 C 
HETATM    3  C3  UNL     1       1.071  -0.977  -0.106  1.00  0.00     0.125 A 
HETATM    4  C4  UNL     1       2.513  -0.540  -0.165  1.00  0.00     0.063 C 
HETATM    5  C5  UNL     1       2.766   0.519   0.948  1.00  0.00     0.062 C 
HETATM    6  C6  UNL     1       1.995   1.771   0.444  1.00  0.00     0.154 C 
HETATM    7  C9  UNL     1       4.299   0.190   0.764  1.00  0.00     0.147 C 
HETATM    8  C10 UNL     1       3.863  -1.212   0.162  1.00  0.00     0.159 C 
HETATM    9  C11 UNL     1       4.664  -1.669  -1.066  1.00  0.00     0.190 C 
HETATM   10  C12 UNL     1       6.043  -2.176  -0.690  1.00  0.00     0.177 C 
HETATM   11  C13 UNL     1       7.233  -1.262  -0.531  1.00  0.00     0.004 C 
HETATM   12  C14 UNL     1       7.386   0.077  -0.446  1.00  0.00     0.009 C 
HETATM   13  C15 UNL     1       6.345   1.118  -0.534  1.00  0.00    -0.004 C 
HETATM   14  C16 UNL     1       5.082   1.175  -0.071  1.00  0.00     0.003 C 
HETATM   15  O4  UNL     1       6.336  -3.207  -1.606  1.00  0.00    -0.297 OA
HETATM   16  C18 UNL     1       5.235  -3.666  -2.255  1.00  0.00     0.274 C 
HETATM   17  C19 UNL     1       4.038  -2.800  -1.900  1.00  0.00     0.119 C 
HETATM   18  C20 UNL     1       3.258  -2.412  -3.170  1.00  0.00     0.013 C 
HETATM   19  O5  UNL     1       5.238  -4.587  -3.041  1.00  0.00    -0.264 OA
HETATM   20  O6  UNL     1       4.849  -0.618  -1.982  1.00  0.00    -0.220 OA
HETATM   21  C25 UNL     1       2.244   0.135   2.360  1.00  0.00     0.005 C 
HETATM   22  C26 UNL     1       0.603  -2.246   0.365  1.00  0.00     0.169 A 
HETATM   23  O11 UNL     1       0.762  -2.243  -1.031  1.00  0.00    -0.354 OA
ENDROOT
BRANCH   1  24
HETATM   24  O12 UNL     1      -0.182   2.579  -0.144  1.00  0.00    -0.302 OA
BRANCH  24  25
HETATM   25  C27 UNL     1      -1.524   2.701   0.030  1.00  0.00     0.272 C 
HETATM   26  C28 UNL     1      -2.043   3.886  -0.759  1.00  0.00     0.106 C 
HETATM   27  O13 UNL     1      -2.211   1.962   0.698  1.00  0.00    -0.264 OA
ENDBRANCH  24  25
ENDBRANCH   1  24
BRANCH   6  28
HETATM   28  O1  UNL     1       2.367   2.143  -0.856  1.00  0.00    -0.302 OA
BRANCH  28  29
HETATM   29  C7  UNL     1       2.479   3.462  -1.169  1.00  0.00     0.272 C 
HETATM   30  C8  UNL     1       3.042   3.619  -2.568  1.00  0.00     0.106 C 
HETATM   31  O2  UNL     1       2.200   4.385  -0.437  1.00  0.00    -0.264 OA
ENDBRANCH  28  29
ENDBRANCH   6  28
BRANCH   7  32
HETATM   32  O9  UNL     1       5.013  -0.005   1.956  1.00  0.00    -0.300 OA
BRANCH  32  33
HETATM   33  C23 UNL     1       5.175   1.061   2.783  1.00  0.00     0.273 C 
HETATM   34  C24 UNL     1       5.996   0.662   3.992  1.00  0.00     0.106 C 
HETATM   35  O10 UNL     1       4.726   2.167   2.585  1.00  0.00    -0.264 OA
ENDBRANCH  32  33
ENDBRANCH   7  32
BRANCH   8  36
HETATM   36  O7  UNL     1       3.656  -2.095   1.230  1.00  0.00    -0.301 OA
BRANCH  36  37
HETATM   37  C21 UNL     1       3.896  -3.425   1.343  1.00  0.00     0.272 C 
HETATM   38  C22 UNL     1       3.519  -3.880   2.741  1.00  0.00     0.106 C 
HETATM   39  O8  UNL     1       4.352  -4.173   0.513  1.00  0.00    -0.264 OA
ENDBRANCH  36  37
ENDBRANCH   8  36
BRANCH  12  40
HETATM   40  C17 UNL     1       8.831   0.554  -0.344  1.00  0.00     0.209 C 
HETATM   41  O3  UNL     1       9.006   1.936  -0.632  1.00  0.00    -0.215 OA
ENDBRANCH  12  40
TORSDOF 9
