REMARK  11 active torsions:
REMARK  status: ('A' for Active; 'I' for Inactive)
REMARK    1  A    between atoms: C2_2  and  O11_40 
REMARK    2  A    between atoms: C6_6  and  O1_7 
REMARK    3  A    between atoms: O1_7  and  C7_8 
REMARK    4  A    between atoms: C9_11  and  O8_31 
REMARK    5  A    between atoms: C16_18  and  O3_19 
REMARK    6  A    between atoms: O3_19  and  C17_20 
REMARK    7  A    between atoms: O8_31  and  C23_32 
REMARK    8  A    between atoms: C23_32  and  C24_34 
REMARK    9  A    between atoms: O11_40  and  C29_41 
REMARK   10  A    between atoms: C29_41  and  C30_42 
REMARK   11  A    between atoms: C30_42  and  C31_43 
ROOT
HETATM    1  C1  UNL     1       1.682  -0.195   1.500  1.00  0.00     0.063 C 
HETATM    2  C2  UNL     1       1.791  -1.382   0.540  1.00  0.00     0.154 C 
HETATM    3  C3  UNL     1       3.198  -1.978   0.611  1.00  0.00     0.148 A 
HETATM    4  C4  UNL     1       4.441  -1.045   0.427  1.00  0.00     0.065 C 
HETATM    5  C5  UNL     1       4.125   0.452   0.869  1.00  0.00     0.056 C 
HETATM    6  C6  UNL     1       3.048   0.296   2.000  1.00  0.00     0.129 C 
HETATM    7  C9  UNL     1       3.595   1.325  -0.329  1.00  0.00     0.127 C 
HETATM    8  C10 UNL     1       4.481   1.727  -1.533  1.00  0.00     0.035 C 
HETATM    9  C11 UNL     1       4.577   0.720  -2.712  1.00  0.00     0.026 C 
HETATM   10  C12 UNL     1       5.984   0.346  -3.157  1.00  0.00    -0.027 C 
HETATM   11  C13 UNL     1       6.696  -0.816  -2.481  1.00  0.00     0.129 C 
HETATM   12  C14 UNL     1       7.060  -0.390  -1.059  1.00  0.00     0.174 C 
HETATM   13  C15 UNL     1       7.152  -1.368   0.105  1.00  0.00     0.188 C 
HETATM   14  C16 UNL     1       5.806  -1.714   0.809  1.00  0.00     0.158 C 
HETATM   15  C19 UNL     1       8.237  -0.703   0.976  1.00  0.00     0.119 C 
HETATM   16  C20 UNL     1       8.983   0.208   0.020  1.00  0.00     0.274 C 
HETATM   17  O5  UNL     1       8.246   0.353  -1.102  1.00  0.00    -0.300 OA
HETATM   18  O6  UNL     1      10.051   0.742   0.220  1.00  0.00    -0.264 OA
HETATM   19  C21 UNL     1       9.227  -1.628   1.702  1.00  0.00     0.013 C 
HETATM   20  O7  UNL     1       7.738  -2.542  -0.406  1.00  0.00    -0.220 OA
HETATM   21 CL1  UNL     1       5.744  -2.322  -2.640  1.00  0.00    -0.108 Cl
HETATM   22  C22 UNL     1       6.614   1.082  -4.088  1.00  0.00    -0.008 C 
HETATM   23  C27 UNL     1       5.305   1.204   1.536  1.00  0.00     0.005 C 
HETATM   24  O10 UNL     1       3.321  -3.291  -0.307  1.00  0.00    -0.351 OA
HETATM   25  C28 UNL     1       3.259  -3.334   1.097  1.00  0.00     0.172 A 
ENDROOT
BRANCH   2  26
HETATM   26  O11 UNL     1       1.492  -0.989  -0.778  1.00  0.00    -0.302 OA
BRANCH  26  27
HETATM   27  C29 UNL     1       0.550  -1.639  -1.509  1.00  0.00     0.272 C 
HETATM   28  O12 UNL     1      -0.118  -2.570  -1.121  1.00  0.00    -0.264 OA
BRANCH  27  29
HETATM   29  C30 UNL     1       0.456  -0.998  -2.885  1.00  0.00     0.096 C 
BRANCH  29  30
HETATM   30  C31 UNL     1      -0.941  -1.073  -3.525  1.00  0.00     0.010 C 
HETATM   31  C32 UNL     1      -1.992  -0.339  -2.676  1.00  0.00     0.001 C 
HETATM   32  C33 UNL     1      -0.904  -0.480  -4.945  1.00  0.00     0.001 C 
ENDBRANCH  29  30
ENDBRANCH  27  29
ENDBRANCH  26  27
ENDBRANCH   2  26
BRANCH   6  33
HETATM   33  O1  UNL     1       2.838   1.485   2.719  1.00  0.00    -0.304 OA
BRANCH  33  34
HETATM   34  C7  UNL     1       2.743   1.561   4.077  1.00  0.00     0.272 C 
HETATM   35  O2  UNL     1       2.539   2.615   4.643  1.00  0.00    -0.264 OA
HETATM   36  C8  UNL     1       2.910   0.273   4.864  1.00  0.00     0.106 C 
ENDBRANCH  33  34
ENDBRANCH   6  33
BRANCH  14  37
HETATM   37  O3  UNL     1       5.911  -1.730   2.204  1.00  0.00    -0.302 OA
BRANCH  37  38
HETATM   38  C17 UNL     1       6.282  -2.870   2.849  1.00  0.00     0.272 C 
HETATM   39  C18 UNL     1       6.314  -2.631   4.344  1.00  0.00     0.106 C 
HETATM   40  O4  UNL     1       6.545  -3.923   2.313  1.00  0.00    -0.264 OA
ENDBRANCH  37  38
ENDBRANCH  14  37
BRANCH   7  41
HETATM   41  O8  UNL     1       2.800   2.385   0.130  1.00  0.00    -0.304 OA
BRANCH  41  42
HETATM   42  C23 UNL     1       3.228   3.672   0.155  1.00  0.00     0.271 C 
HETATM   43  O9  UNL     1       4.380   4.033   0.068  1.00  0.00    -0.264 OA
BRANCH  42  44
HETATM   44  C24 UNL     1       2.022   4.603   0.176  1.00  0.00     0.086 C 
HETATM   45  C25 UNL     1       1.161   4.411  -1.086  1.00  0.00     0.010 C 
HETATM   46  C26 UNL     1       1.184   4.421   1.450  1.00  0.00     0.010 C 
ENDBRANCH  42  44
ENDBRANCH  41  42
ENDBRANCH   7  41
TORSDOF 11
