REMARK  8 active torsions:
REMARK  status: ('A' for Active; 'I' for Inactive)
REMARK    1  A    between atoms: C2_2  and  O9_35 
REMARK    2  A    between atoms: C5_5  and  O5_21 
REMARK    3  A    between atoms: C7_7  and  O3_17 
REMARK    4  A    between atoms: O3_17  and  C15_18 
REMARK    5  A    between atoms: O5_21  and  C17_22 
REMARK    6  A    between atoms: C19_25  and  O7_30 
REMARK    7  A    between atoms: O7_30  and  C24_31 
REMARK    8  A    between atoms: O9_35  and  C27_36 
ROOT
HETATM    1  C1  UNL     1      -0.372  -1.558   1.554  1.00  0.00     0.190 C 
HETATM    2  C2  UNL     1      -1.360   0.009   1.099  1.00  0.00     0.159 C 
HETATM    3  C3  UNL     1      -0.698   1.526  -0.088  1.00  0.00     0.053 C 
HETATM    4  C4  UNL     1       0.420   1.176  -1.557  1.00  0.00     0.058 C 
HETATM    5  C5  UNL     1      -0.141  -0.407  -2.297  1.00  0.00     0.133 C 
HETATM    6  C6  UNL     1      -1.000  -0.507  -1.038  1.00  0.00     0.082 C 
HETATM    7  C7  UNL     1       0.269  -0.388   0.091  1.00  0.00     0.079 C 
HETATM    8  C8  UNL     1       1.621  -1.018  -0.600  1.00  0.00    -0.005 C 
HETATM    9  C9  UNL     1       2.152  -1.792   0.319  1.00  0.00     0.004 C 
HETATM   10  C10 UNL     1       1.311  -1.686   1.583  1.00  0.00     0.177 C 
HETATM   11  O1  UNL     1       1.758  -2.824   2.240  1.00  0.00    -0.297 OA
HETATM   12  C11 UNL     1       0.963  -2.986   3.272  1.00  0.00     0.274 C 
HETATM   13  C12 UNL     1      -0.398  -2.309   2.949  1.00  0.00     0.119 C 
HETATM   14  C13 UNL     1      -1.265  -3.584   2.967  1.00  0.00     0.013 C 
HETATM   15  O2  UNL     1       1.261  -3.686   4.219  1.00  0.00    -0.264 OA
HETATM   16  C14 UNL     1       2.347  -0.945  -2.018  1.00  0.00     0.033 C 
HETATM   17  C19 UNL     1       0.704   2.256  -2.597  1.00  0.00     0.127 C 
HETATM   18  C20 UNL     1       0.316   3.678  -2.264  1.00  0.00     0.035 C 
HETATM   19  C21 UNL     1       0.635   4.032  -0.828  1.00  0.00     0.025 C 
HETATM   20  C22 UNL     1       0.296   2.981   0.256  1.00  0.00    -0.042 C 
HETATM   21  C23 UNL     1       1.094   3.292   1.321  1.00  0.00    -0.009 C 
HETATM   22  C26 UNL     1       2.056   1.409  -0.802  1.00  0.00     0.005 C 
HETATM   23  O11 UNL     1      -0.772  -2.571   0.660  1.00  0.00    -0.220 OA
ENDROOT
BRANCH   2  24
HETATM   24  O9  UNL     1      -1.782   0.041   2.497  1.00  0.00    -0.301 OA
BRANCH  24  25
HETATM   25  C27 UNL     1      -3.009   0.136   3.042  1.00  0.00     0.272 C 
HETATM   26  C28 UNL     1      -2.911   0.443   4.540  1.00  0.00     0.106 C 
HETATM   27  O10 UNL     1      -4.070   0.018   2.459  1.00  0.00    -0.264 OA
ENDBRANCH  24  25
ENDBRANCH   2  24
BRANCH   5  28
HETATM   28  O5  UNL     1       0.068  -1.878  -2.009  1.00  0.00    -0.304 OA
BRANCH  28  29
HETATM   29  C17 UNL     1       0.413  -2.980  -2.724  1.00  0.00     0.272 C 
HETATM   30  C18 UNL     1       0.441  -4.197  -1.764  1.00  0.00     0.106 C 
HETATM   31  O6  UNL     1       0.642  -3.035  -3.917  1.00  0.00    -0.264 OA
ENDBRANCH  28  29
ENDBRANCH   5  28
BRANCH  17  32
HETATM   32  O7  UNL     1       0.042   1.896  -3.750  1.00  0.00    -0.304 OA
BRANCH  32  33
HETATM   33  C24 UNL     1       0.763   1.645  -4.855  1.00  0.00     0.272 C 
HETATM   34  C25 UNL     1      -0.132   0.876  -5.810  1.00  0.00     0.106 C 
HETATM   35  O8  UNL     1       1.938   1.900  -5.034  1.00  0.00    -0.264 OA
ENDBRANCH  32  33
ENDBRANCH  17  32
BRANCH   7  36
HETATM   36  O3  UNL     1       0.426   0.666   1.488  1.00  0.00    -0.281 OA
BRANCH  36  37
HETATM   37  C15 UNL     1      -0.557   1.768   2.111  1.00  0.00     0.276 C 
HETATM   38  C16 UNL     1      -0.457   2.371   3.518  1.00  0.00     0.107 C 
HETATM   39  O4  UNL     1      -1.607   2.241   1.688  1.00  0.00    -0.264 OA
ENDBRANCH  36  37
ENDBRANCH   7  36
TORSDOF 8
