REMARK  12 active torsions:
REMARK  status: ('A' for Active; 'I' for Inactive)
REMARK    1  A    between atoms: C1_1  and  O13_42 
REMARK    2  A    between atoms: C2_2  and  O11_38 
REMARK    3  A    between atoms: C6_6  and  O1_7 
REMARK    4  A    between atoms: O1_7  and  C7_8 
REMARK    5  A    between atoms: C9_11  and  O8_31 
REMARK    6  A    between atoms: C16_18  and  O3_19 
REMARK    7  A    between atoms: O3_19  and  C17_20 
REMARK    8  A    between atoms: O8_31  and  C23_32 
REMARK    9  A    between atoms: O11_38  and  C27_39 
REMARK   10  A    between atoms: O13_42  and  C29_43 
REMARK   11  A    between atoms: C29_43  and  C30_44 
REMARK   12  A    between atoms: C30_44  and  C31_45 
ROOT
HETATM    1  C1  UNL     1       2.095   0.318   0.838  1.00  0.00     0.182 C 
HETATM    2  C2  UNL     1       2.132  -0.957  -0.002  1.00  0.00     0.181 C 
HETATM    3  C3  UNL     1       3.396  -1.731   0.381  1.00  0.00     0.150 A 
HETATM    4  C4  UNL     1       4.763  -1.004   0.278  1.00  0.00     0.065 C 
HETATM    5  C5  UNL     1       4.684   0.300   1.186  1.00  0.00     0.062 C 
HETATM    6  C6  UNL     1       3.407   1.102   0.741  1.00  0.00     0.157 C 
HETATM    7  C9  UNL     1       5.882   1.308   1.098  1.00  0.00     0.149 C 
HETATM    8  C10 UNL     1       7.224   0.757   1.512  1.00  0.00     0.003 C 
HETATM    9  C11 UNL     1       8.332   0.901   0.770  1.00  0.00    -0.005 C 
HETATM   10  C12 UNL     1       9.431  -0.076   0.963  1.00  0.00    -0.005 C 
HETATM   11  C13 UNL     1       9.722  -1.040  -0.169  1.00  0.00     0.132 C 
HETATM   12  C14 UNL     1       8.603  -2.078  -0.411  1.00  0.00     0.174 A 
HETATM   13  C15 UNL     1       7.149  -1.700  -0.794  1.00  0.00     0.188 A 
HETATM   14  C16 UNL     1       6.031  -1.939   0.280  1.00  0.00     0.158 C 
HETATM   15  C19 UNL     1       6.907  -2.556  -2.063  1.00  0.00     0.119 A 
HETATM   16  C20 UNL     1       8.216  -3.258  -2.350  1.00  0.00     0.274 A 
HETATM   17  O5  UNL     1       9.084  -2.999  -1.352  1.00  0.00    -0.300 OA
HETATM   18  O6  UNL     1       8.452  -3.971  -3.301  1.00  0.00    -0.264 OA
HETATM   19  C21 UNL     1       6.393  -1.821  -3.310  1.00  0.00     0.013 C 
HETATM   20  O7  UNL     1       7.064  -0.363  -1.187  1.00  0.00    -0.220 OA
HETATM   21 CL1  UNL     1      10.202  -0.145  -1.647  1.00  0.00    -0.108 Cl
HETATM   22  C22 UNL     1      10.062  -0.141   2.148  1.00  0.00    -0.003 C 
HETATM   23  C25 UNL     1       4.490  -0.069   2.683  1.00  0.00     0.005 C 
HETATM   24  O10 UNL     1       3.333  -3.239  -0.144  1.00  0.00    -0.351 OA
HETATM   25  C26 UNL     1       3.226  -2.886   1.216  1.00  0.00     0.172 A 
ENDROOT
BRANCH   1  26
HETATM   26  O13 UNL     1       1.031   1.161   0.490  1.00  0.00    -0.299 OA
BRANCH  26  27
HETATM   27  C29 UNL     1      -0.209   0.860   0.958  1.00  0.00     0.272 C 
HETATM   28  O14 UNL     1      -0.494  -0.164   1.538  1.00  0.00    -0.264 OA
BRANCH  27  29
HETATM   29  C30 UNL     1      -1.157   2.026   0.745  1.00  0.00     0.096 C 
BRANCH  29  30
HETATM   30  C31 UNL     1      -1.262   2.508  -0.714  1.00  0.00     0.010 C 
HETATM   31  C32 UNL     1      -1.715   1.372  -1.644  1.00  0.00     0.001 C 
HETATM   32  C33 UNL     1      -2.229   3.701  -0.812  1.00  0.00     0.001 C 
ENDBRANCH  29  30
ENDBRANCH  27  29
ENDBRANCH  26  27
ENDBRANCH   1  26
BRANCH   2  33
HETATM   33  O11 UNL     1       2.128  -0.647  -1.377  1.00  0.00    -0.299 OA
BRANCH  33  34
HETATM   34  C27 UNL     1       1.311  -1.223  -2.305  1.00  0.00     0.273 C 
HETATM   35  O12 UNL     1       1.358  -0.904  -3.474  1.00  0.00    -0.264 OA
HETATM   36  C28 UNL     1       0.328  -2.272  -1.818  1.00  0.00     0.106 C 
ENDBRANCH  33  34
ENDBRANCH   2  33
BRANCH   6  37
HETATM   37  O1  UNL     1       3.566   1.567  -0.573  1.00  0.00    -0.302 OA
BRANCH  37  38
HETATM   38  C7  UNL     1       3.180   2.830  -0.895  1.00  0.00     0.272 C 
HETATM   39  C8  UNL     1       3.379   3.062  -2.379  1.00  0.00     0.106 C 
HETATM   40  O2  UNL     1       2.726   3.643  -0.122  1.00  0.00    -0.264 OA
ENDBRANCH  37  38
ENDBRANCH   6  37
BRANCH   7  41
HETATM   41  O8  UNL     1       5.618   2.470   1.855  1.00  0.00    -0.300 OA
BRANCH  41  42
HETATM   42  C23 UNL     1       6.033   3.672   1.367  1.00  0.00     0.273 C 
HETATM   43  C24 UNL     1       5.522   4.797   2.243  1.00  0.00     0.106 C 
HETATM   44  O9  UNL     1       6.681   3.830   0.357  1.00  0.00    -0.264 OA
ENDBRANCH  41  42
ENDBRANCH   7  41
BRANCH  14  45
HETATM   45  O3  UNL     1       6.527  -2.051   1.578  1.00  0.00    -0.302 OA
BRANCH  45  46
HETATM   46  C17 UNL     1       6.813  -3.229   2.216  1.00  0.00     0.272 C 
HETATM   47  O4  UNL     1       7.181  -3.244   3.372  1.00  0.00    -0.264 OA
HETATM   48  C18 UNL     1       6.705  -4.523   1.421  1.00  0.00     0.106 C 
ENDBRANCH  45  46
ENDBRANCH  14  45
TORSDOF 12
