REMARK  1 active torsions:
REMARK  status: ('A' for Active; 'I' for Inactive)
REMARK    1  A    between atoms: C4_4  and  C9_11 
ROOT
HETATM    1  C1  UNL     1       3.907  -2.411  -0.153  1.00  0.00     0.005 A 
HETATM    2  C2  UNL     1       3.910  -1.024   0.192  1.00  0.00     0.002 A 
HETATM    3  C3  UNL     1       2.691  -0.293   0.251  1.00  0.00     0.002 A 
HETATM    4  C4  UNL     1       1.435  -0.932  -0.048  1.00  0.00    -0.001 A 
HETATM    5  C5  UNL     1       1.456  -2.273  -0.348  1.00  0.00     0.013 A 
HETATM    6  C6  UNL     1       2.680  -2.971  -0.403  1.00  0.00     0.062 A 
HETATM    7  C7  UNL     1       2.318  -4.337  -0.800  1.00  0.00     0.296 A 
HETATM    8  O1  UNL     1       0.971  -4.487  -0.993  1.00  0.00    -0.293 OA
HETATM    9  C8  UNL     1       0.348  -3.226  -0.720  1.00  0.00     0.179 A 
HETATM   10  O2  UNL     1       3.132  -5.245  -0.951  1.00  0.00    -0.259 OA
HETATM   11  C16 UNL     1       2.726   1.085   0.643  1.00  0.00     0.026 A 
HETATM   12  C17 UNL     1       3.946   1.662   0.896  1.00  0.00     0.119 A 
HETATM   13  C18 UNL     1       5.151   0.935   0.802  1.00  0.00     0.119 A 
HETATM   14  C19 UNL     1       5.166  -0.394   0.467  1.00  0.00     0.026 A 
HETATM   15  O5  UNL     1       6.203   1.772   1.118  1.00  0.00    -0.300 OA
HETATM   16  C20 UNL     1       5.657   3.060   1.429  1.00  0.00     0.304 A 
HETATM   17  O6  UNL     1       4.236   2.956   1.278  1.00  0.00    -0.300 OA
ENDROOT
BRANCH   4  18
HETATM   18  C9  UNL     1       0.145  -0.183  -0.090  1.00  0.00     0.002 A 
HETATM   19  C10 UNL     1      -0.909  -0.529   0.771  1.00  0.00     0.002 A 
HETATM   20  C11 UNL     1      -2.122   0.171   0.763  1.00  0.00     0.026 A 
HETATM   21  C12 UNL     1      -2.237   1.238  -0.123  1.00  0.00     0.119 A 
HETATM   22  C13 UNL     1      -1.202   1.577  -0.990  1.00  0.00     0.119 A 
HETATM   23  O4  UNL     1      -3.297   2.099  -0.326  1.00  0.00    -0.300 OA
HETATM   24  C14 UNL     1      -0.002   0.874  -1.002  1.00  0.00     0.026 A 
HETATM   25  O3  UNL     1      -1.590   2.658  -1.757  1.00  0.00    -0.300 OA
HETATM   26  C15 UNL     1      -2.912   3.027  -1.349  1.00  0.00     0.304 A 
ENDBRANCH   4  18
TORSDOF 1
