REMARK  5 active torsions:
REMARK  status: ('A' for Active; 'I' for Inactive)
REMARK    1  A    between atoms: C7_7  and  O10_34 
REMARK    2  A    between atoms: C10_10  and  C11_11 
REMARK    3  A    between atoms: C15_15  and  O1_17 
REMARK    4  A    between atoms: O1_17  and  C17_18 
REMARK    5  A    between atoms: C18_20  and  C22_27 
ROOT
HETATM    1  C1  UNL     1       1.215   2.625  -0.042  1.00  0.00     0.119 A 
HETATM    2  C2  UNL     1       2.429   1.978  -0.345  1.00  0.00     0.119 A 
HETATM    3  C3  UNL     1       2.472   0.649  -0.671  1.00  0.00     0.026 A 
HETATM    4  C4  UNL     1       1.252  -0.107  -0.631  1.00  0.00     0.004 A 
HETATM    5  C5  UNL     1       0.017   0.557  -0.395  1.00  0.00     0.024 A 
HETATM    6  C6  UNL     1       0.017   1.957  -0.078  1.00  0.00     0.028 A 
HETATM    7  C7  UNL     1      -1.242  -0.139  -0.481  1.00  0.00     0.093 C 
HETATM    8  C8  UNL     1      -1.155  -1.502  -0.636  1.00  0.00     0.035 A 
HETATM    9  C9  UNL     1       0.076  -2.165  -0.821  1.00  0.00     0.064 A 
HETATM   10  C10 UNL     1       1.294  -1.530  -0.817  1.00  0.00     0.005 C 
HETATM   11  C23 UNL     1      -0.279  -3.588  -0.908  1.00  0.00     0.296 A 
HETATM   12  O8  UNL     1      -1.629  -3.800  -0.801  1.00  0.00    -0.293 OA
HETATM   13  C24 UNL     1      -2.258  -2.528  -0.622  1.00  0.00     0.181 A 
HETATM   14  O9  UNL     1       0.532  -4.498  -1.057  1.00  0.00    -0.259 OA
HETATM   15  O11 UNL     1       3.463   2.891  -0.273  1.00  0.00    -0.300 OA
HETATM   16  C26 UNL     1       2.893   4.154   0.095  1.00  0.00     0.304 A 
HETATM   17  O12 UNL     1       1.479   3.952   0.229  1.00  0.00    -0.300 OA
ENDROOT
BRANCH  10  18
HETATM   18  C11 UNL     1       2.596  -2.249  -0.867  1.00  0.00     0.002 C 
HETATM   19  C12 UNL     1       3.028  -2.955  -1.991  1.00  0.00     0.002 C 
HETATM   20  C13 UNL     1       4.359  -3.376  -2.064  1.00  0.00     0.029 C 
HETATM   21  C14 UNL     1       5.272  -3.077  -1.049  1.00  0.00     0.153 C 
HETATM   22  C15 UNL     1       4.841  -2.356   0.074  1.00  0.00     0.122 C 
HETATM   23  O7  UNL     1       6.601  -3.336  -1.173  1.00  0.00    -0.188 OA
HETATM   24  C16 UNL     1       3.482  -2.057   0.196  1.00  0.00     0.026 C 
BRANCH  22  25
HETATM   25  O1  UNL     1       5.726  -2.023   1.062  1.00  0.00    -0.301 OA
BRANCH  25  26
HETATM   26  C17 UNL     1       5.999  -0.641   1.078  1.00  0.00     0.274 C 
HETATM   27  O2  UNL     1       6.820  -0.420  -0.048  1.00  0.00    -0.326 OA
HETATM   28  C18 UNL     1       7.093   0.947  -0.231  1.00  0.00     0.184 C 
HETATM   29  C19 UNL     1       7.824   1.487   0.997  1.00  0.00     0.215 C 
HETATM   30  C20 UNL     1       7.032   1.216   2.261  1.00  0.00     0.220 C 
HETATM   31  O5  UNL     1       8.020   2.878   0.916  1.00  0.00    -0.218 OA
HETATM   32  C21 UNL     1       6.728  -0.265   2.342  1.00  0.00     0.241 C 
HETATM   33  O4  UNL     1       7.779   1.608   3.383  1.00  0.00    -0.218 OA
HETATM   34  O3  UNL     1       5.896  -0.506   3.448  1.00  0.00    -0.215 OA
BRANCH  28  35
HETATM   35  C22 UNL     1       7.887   1.094  -1.522  1.00  0.00     0.214 C 
HETATM   36  O6  UNL     1       7.798   2.418  -2.009  1.00  0.00    -0.218 OA
ENDBRANCH  28  35
ENDBRANCH  25  26
ENDBRANCH  22  25
ENDBRANCH  10  18
BRANCH   7  37
HETATM   37  O10 UNL     1      -2.441   0.447  -0.174  1.00  0.00    -0.328 OA
HETATM   38  C25 UNL     1      -3.086   1.062  -1.269  1.00  0.00     0.181 C 
ENDBRANCH   7  37
TORSDOF 5
