REMARK  7 active torsions:
REMARK  status: ('A' for Active; 'I' for Inactive)
REMARK    1  A    between atoms: C1_1  and  O7_21 
REMARK    2  A    between atoms: C2_2  and  O6_19 
REMARK    3  A    between atoms: C5_5  and  N1_7 
REMARK       I    between atoms: N1_7  and  C7_8 
REMARK    4  A    between atoms: C7_8  and  C8_9 
REMARK    5  A    between atoms: C8_9  and  C9_10 
REMARK    6  A    between atoms: C9_10  and  C10_11 
REMARK    7  A    between atoms: C10_11  and  C11_12 
ROOT
HETATM    1  C1  UNL     1       6.847   0.499  -0.235  1.00  0.00     0.118 A 
HETATM    2  C2  UNL     1       7.210  -0.836  -0.506  1.00  0.00     0.118 A 
HETATM    3  C3  UNL     1       6.184  -1.774  -0.693  1.00  0.00     0.055 A 
HETATM    4  C4  UNL     1       4.825  -1.456  -0.656  1.00  0.00     0.151 A 
HETATM    5  C5  UNL     1       4.475  -0.123  -0.416  1.00  0.00     0.112 A 
HETATM    6  C6  UNL     1       5.482   0.823  -0.216  1.00  0.00     0.048 A 
HETATM    7  O5  UNL     1       3.883  -2.412  -0.887  1.00  0.00    -0.189 OA
ENDROOT
BRANCH   5   8
HETATM    8  N1  UNL     1       3.152   0.126  -0.388  1.00  0.00    -0.207 NA
HETATM    9  C7  UNL     1       2.427   1.254  -0.162  1.00  0.00     0.286 C 
HETATM   10  O4  UNL     1       2.901   2.339   0.073  1.00  0.00    -0.267 OA
BRANCH   9  11
HETATM   11  C8  UNL     1       0.926   1.007  -0.224  1.00  0.00     0.235 C 
HETATM   12  O3  UNL     1       0.684   0.103  -1.292  1.00  0.00    -0.213 OA
BRANCH  11  13
HETATM   13  C9  UNL     1       0.407   0.402   1.083  1.00  0.00     0.093 C 
BRANCH  13  14
HETATM   14  C10 UNL     1      -1.056   0.735   1.429  1.00  0.00     0.390 C 
HETATM   15  N2  UNL     1      -1.405   0.088   2.707  1.00  0.00     0.628 N 
BRANCH  14  16
HETATM   16  C11 UNL     1      -2.080   0.344   0.383  1.00  0.00     0.224 C 
HETATM   17  O1  UNL     1      -3.334   0.487   0.853  1.00  0.00    -0.646 OA
HETATM   18  O2  UNL     1      -1.872  -0.048  -0.738  1.00  0.00    -0.646 OA
ENDBRANCH  14  16
ENDBRANCH  13  14
ENDBRANCH  11  13
ENDBRANCH   9  11
ENDBRANCH   5   8
BRANCH   1  19
HETATM   19  O7  UNL     1       7.859   1.415  -0.069  1.00  0.00    -0.326 OA
HETATM   20  C13 UNL     1       7.544   2.788  -0.083  1.00  0.00     0.181 C 
ENDBRANCH   1  19
BRANCH   2  21
HETATM   21  O6  UNL     1       8.550  -1.145  -0.524  1.00  0.00    -0.326 OA
HETATM   22  C12 UNL     1       8.932  -2.501  -0.567  1.00  0.00     0.181 C 
ENDBRANCH   2  21
TORSDOF 7
