REMARK  9 active torsions:
REMARK  status: ('A' for Active; 'I' for Inactive)
REMARK    1  A    between atoms: C2_2  and  O11_40 
REMARK    2  A    between atoms: C8_10  and  O9_36 
REMARK    3  A    between atoms: C11_13  and  O6_26 
REMARK    4  A    between atoms: C14_16  and  O5_24 
REMARK    5  A    between atoms: C15_17  and  O4_22 
REMARK    6  A    between atoms: C16_18  and  O3_20 
REMARK    7  A    between atoms: O6_26  and  C21_27 
REMARK    8  A    between atoms: C21_27  and  C22_28 
REMARK    9  A    between atoms: O9_36  and  C28_37 
ROOT
HETATM    1  C1  UNL     1      -0.272  -1.460   1.722  1.00  0.00     0.190 C 
HETATM    2  C2  UNL     1       0.974  -1.857   0.928  1.00  0.00     0.101 C 
HETATM    3  C3  UNL     1       2.007  -0.742   0.910  1.00  0.00     0.013 C 
HETATM    4  C4  UNL     1       1.443   0.606   0.498  1.00  0.00    -0.013 C 
HETATM    5  C5  UNL     1      -0.020   0.509   0.120  1.00  0.00     0.057 C 
HETATM    6  C6  UNL     1      -0.927  -0.249   1.069  1.00  0.00     0.155 C 
HETATM    7  O1  UNL     1      -2.143  -0.709   0.474  1.00  0.00    -0.326 OA
HETATM    8  C7  UNL     1      -2.334  -2.090   0.749  1.00  0.00     0.295 C 
HETATM    9  O2  UNL     1      -1.262  -2.497   1.592  1.00  0.00    -0.321 OA
HETATM   10  C8  UNL     1       1.909   1.931   1.076  1.00  0.00     0.145 C 
HETATM   11  C9  UNL     1       3.421   2.116   1.318  1.00  0.00     0.063 C 
HETATM   12  C10 UNL     1       4.302   2.078   0.043  1.00  0.00     0.158 C 
HETATM   13  C11 UNL     1       4.167   0.748  -0.713  1.00  0.00     0.171 C 
HETATM   14  C12 UNL     1       4.463  -0.425   0.197  1.00  0.00    -0.014 C 
HETATM   15  C13 UNL     1       3.404  -1.106   1.045  1.00  0.00     0.003 C 
HETATM   16  C14 UNL     1       3.750  -2.376   1.838  1.00  0.00     0.167 C 
HETATM   17  C15 UNL     1       5.257  -2.473   2.120  1.00  0.00     0.174 C 
HETATM   18  C16 UNL     1       6.032  -2.376   0.814  1.00  0.00     0.149 C 
HETATM   19  C17 UNL     1       5.854  -1.006   0.208  1.00  0.00     0.056 C 
HETATM   20  O8  UNL     1       3.875   3.087  -0.841  1.00  0.00    -0.223 OA
HETATM   21  C26 UNL     1       5.771   2.374   0.383  1.00  0.00     0.036 C 
HETATM   22  C27 UNL     1       3.643   3.405   2.146  1.00  0.00     0.005 C 
ENDROOT
BRANCH  13  23
HETATM   23  O6  UNL     1       5.015   0.734  -1.843  1.00  0.00    -0.294 OA
BRANCH  23  24
HETATM   24  C21 UNL     1       4.534   0.316  -3.051  1.00  0.00     0.292 C 
HETATM   25  O7  UNL     1       3.439  -0.231  -3.130  1.00  0.00    -0.260 OA
BRANCH  24  26
HETATM   26  C22 UNL     1       5.206   0.661  -4.340  1.00  0.00     0.037 C 
HETATM   27  C23 UNL     1       4.362   0.621  -5.595  1.00  0.00     0.036 C 
HETATM   28  C24 UNL     1       6.505   1.025  -4.394  1.00  0.00    -0.025 C 
HETATM   29  C25 UNL     1       7.506   1.077  -3.271  1.00  0.00     0.030 C 
ENDBRANCH  24  26
ENDBRANCH  23  24
ENDBRANCH  13  23
BRANCH  10  30
HETATM   30  O9  UNL     1       1.472   2.993   0.256  1.00  0.00    -0.300 OA
BRANCH  30  31
HETATM   31  C28 UNL     1       0.265   3.574   0.493  1.00  0.00     0.273 C 
HETATM   32  C29 UNL     1      -0.011   4.636  -0.552  1.00  0.00     0.106 C 
HETATM   33  O10 UNL     1      -0.483   3.284   1.399  1.00  0.00    -0.264 OA
ENDBRANCH  30  31
ENDBRANCH  10  30
BRANCH  16  34
HETATM   34  O5  UNL     1       2.977  -2.576   2.960  1.00  0.00    -0.347 OA
HETATM   35  C20 UNL     1       2.349  -3.837   3.006  1.00  0.00     0.175 C 
ENDBRANCH  16  34
BRANCH  18  36
HETATM   36  O3  UNL     1       7.094  -3.197   0.551  1.00  0.00    -0.351 OA
HETATM   37  C18 UNL     1       8.141  -2.648  -0.217  1.00  0.00     0.174 C 
ENDBRANCH  18  36
BRANCH   2  38
HETATM   38  O11 UNL     1       0.834  -2.727  -0.125  1.00  0.00    -0.330 OA
HETATM   39  C30 UNL     1       1.589  -2.465  -1.285  1.00  0.00     0.181 C 
ENDBRANCH   2  38
BRANCH  17  40
HETATM   40  O4  UNL     1       5.638  -3.495   2.954  1.00  0.00    -0.349 OA
HETATM   41  C19 UNL     1       6.186  -3.038   4.168  1.00  0.00     0.174 C 
ENDBRANCH  17  40
TORSDOF 9
