REMARK  8 active torsions:
REMARK  status: ('A' for Active; 'I' for Inactive)
REMARK    1  A    between atoms: C8_10  and  O10_37 
REMARK    2  A    between atoms: C11_13  and  O7_27 
REMARK    3  A    between atoms: C15_17  and  O4_22 
REMARK    4  A    between atoms: C16_18  and  O3_20 
REMARK    5  A    between atoms: O7_27  and  C21_28 
REMARK    6  A    between atoms: C21_28  and  C22_30 
REMARK    7  A    between atoms: O10_37  and  C28_38 
REMARK    8  A    between atoms: C28_38  and  C29_40 
ROOT
HETATM    1  C1  UNL     1      -0.351   3.472  -0.660  1.00  0.00     0.141 A 
HETATM    2  C2  UNL     1      -0.350   2.100  -0.893  1.00  0.00     0.114 A 
HETATM    3  C3  UNL     1       0.819   1.366  -0.690  1.00  0.00     0.008 A 
HETATM    4  C4  UNL     1       2.022   1.966  -0.275  1.00  0.00     0.006 A 
HETATM    5  C5  UNL     1       2.007   3.358  -0.065  1.00  0.00     0.024 A 
HETATM    6  C6  UNL     1       0.826   4.081  -0.254  1.00  0.00     0.121 A 
HETATM    7  O1  UNL     1       0.592   5.433  -0.094  1.00  0.00    -0.299 OA
HETATM    8  C7  UNL     1      -0.785   5.680  -0.410  1.00  0.00     0.304 A 
HETATM    9  O2  UNL     1      -1.355   4.416  -0.773  1.00  0.00    -0.298 OA
HETATM   10  C8  UNL     1       3.308   1.188  -0.040  1.00  0.00     0.149 C 
HETATM   11  C9  UNL     1       3.330   0.150   1.114  1.00  0.00     0.063 C 
HETATM   12  C10 UNL     1       2.059  -0.017   1.979  1.00  0.00     0.155 C 
HETATM   13  C11 UNL     1       1.002  -0.962   1.374  1.00  0.00     0.153 C 
HETATM   14  C12 UNL     1       0.982  -1.115  -0.137  1.00  0.00     0.049 C 
HETATM   15  C13 UNL     1       0.553  -0.057  -1.104  1.00  0.00     0.096 C 
HETATM   16  C14 UNL     1       1.193  -0.281  -2.479  1.00  0.00     0.138 C 
HETATM   17  C15 UNL     1       1.682  -1.656  -2.918  1.00  0.00     0.134 C 
HETATM   18  C16 UNL     1       1.533  -2.721  -2.077  1.00  0.00     0.096 C 
HETATM   19  C17 UNL     1       0.931  -2.498  -0.725  1.00  0.00     0.056 C 
HETATM   20  O5  UNL     1       1.281   0.784  -3.251  1.00  0.00    -0.192 OA
HETATM   21  C20 UNL     1      -0.989  -0.045  -1.304  1.00  0.00     0.159 C 
HETATM   22  O6  UNL     1      -1.399   1.319  -1.328  1.00  0.00    -0.328 OA
HETATM   23  C26 UNL     1       1.497   1.318   2.503  1.00  0.00     0.036 C 
HETATM   24  O9  UNL     1       2.488  -0.650   3.167  1.00  0.00    -0.223 OA
HETATM   25  C27 UNL     1       3.972  -1.204   0.729  1.00  0.00     0.005 C 
ENDROOT
BRANCH  10  26
HETATM   26  O10 UNL     1       3.781   0.628  -1.242  1.00  0.00    -0.297 OA
BRANCH  26  27
HETATM   27  C28 UNL     1       4.644   1.322  -2.051  1.00  0.00     0.292 C 
HETATM   28  O11 UNL     1       4.951   0.843  -3.133  1.00  0.00    -0.260 OA
BRANCH  27  29
HETATM   29  C29 UNL     1       5.262   2.672  -1.747  1.00  0.00     0.037 C 
HETATM   30  C30 UNL     1       4.912   3.805  -2.682  1.00  0.00     0.036 C 
HETATM   31  C31 UNL     1       6.136   2.832  -0.739  1.00  0.00    -0.025 C 
HETATM   32  C32 UNL     1       6.654   1.760   0.187  1.00  0.00     0.030 C 
ENDBRANCH  27  29
ENDBRANCH  26  27
ENDBRANCH  10  26
BRANCH  13  33
HETATM   33  O7  UNL     1      -0.268  -0.662   1.889  1.00  0.00    -0.299 OA
BRANCH  33  34
HETATM   34  C21 UNL     1      -1.048  -1.474   2.672  1.00  0.00     0.291 C 
HETATM   35  O8  UNL     1      -2.086  -0.948   3.072  1.00  0.00    -0.260 OA
BRANCH  34  36
HETATM   36  C22 UNL     1      -0.800  -2.864   3.186  1.00  0.00     0.037 C 
HETATM   37  C23 UNL     1      -1.852  -3.645   3.534  1.00  0.00    -0.025 C 
HETATM   38  C24 UNL     1      -3.326  -3.348   3.436  1.00  0.00     0.030 C 
HETATM   39  C25 UNL     1       0.577  -3.445   3.428  1.00  0.00     0.036 C 
ENDBRANCH  34  36
ENDBRANCH  33  34
ENDBRANCH  13  33
BRANCH  17  40
HETATM   40  O4  UNL     1       2.256  -1.897  -4.145  1.00  0.00    -0.325 OA
HETATM   41  C19 UNL     1       2.392  -0.862  -5.087  1.00  0.00     0.182 C 
ENDBRANCH  17  40
BRANCH  18  42
HETATM   42  O3  UNL     1       1.983  -3.955  -2.478  1.00  0.00    -0.330 OA
HETATM   43  C18 UNL     1       2.031  -4.971  -1.504  1.00  0.00     0.181 C 
ENDBRANCH  18  42
TORSDOF 8
