REMARK  9 active torsions:
REMARK  status: ('A' for Active; 'I' for Inactive)
REMARK    1  A    between atoms: C1_1  and  C27_29 
REMARK    2  A    between atoms: C2_2  and  C24_26 
REMARK    3  A    between atoms: C13_13  and  C14_14 
REMARK    4  A    between atoms: C14_14  and  C15_15 
REMARK    5  A    between atoms: C15_15  and  C16_16 
REMARK    6  A    between atoms: C16_16  and  C17_17 
REMARK    7  A    between atoms: C18_18  and  C19_19 
REMARK    8  A    between atoms: C27_29  and  C28_30 
REMARK    9  A    between atoms: C28_30  and  C29_31 
ROOT
HETATM    1  C1  UNL     1       1.730  -1.412  -0.822  1.00  0.00     0.030 C 
HETATM    2  C2  UNL     1       1.986  -2.754  -1.590  1.00  0.00    -0.045 C 
HETATM    3  C3  UNL     1       2.963  -2.570  -2.757  1.00  0.00     0.022 C 
HETATM    4  C4  UNL     1       4.343  -2.038  -2.355  1.00  0.00     0.008 C 
HETATM    5  C5  UNL     1       4.318  -1.141  -1.105  1.00  0.00     0.019 C 
HETATM    6  C6  UNL     1       2.969  -0.493  -0.856  1.00  0.00    -0.046 C 
HETATM    7  C7  UNL     1       2.902   0.791  -0.449  1.00  0.00    -0.034 C 
HETATM    8  C8  UNL     1       4.084   1.676  -0.114  1.00  0.00     0.025 C 
HETATM    9  C9  UNL     1       5.320   0.812   0.193  1.00  0.00     0.004 C 
HETATM   10  C10 UNL     1       5.472  -0.109  -1.058  1.00  0.00     0.004 C 
HETATM   11  C11 UNL     1       6.855  -0.735  -0.822  1.00  0.00     0.000 C 
HETATM   12  C12 UNL     1       7.666   0.374  -0.130  1.00  0.00     0.000 C 
HETATM   13  C13 UNL     1       6.707   1.514   0.291  1.00  0.00     0.000 C 
HETATM   14  C22 UNL     1       5.535   0.689  -2.392  1.00  0.00     0.000 C 
HETATM   15  C23 UNL     1       5.065   0.049   1.520  1.00  0.00     0.000 C 
HETATM   16  C30 UNL     1       1.480  -1.714   0.674  1.00  0.00     0.008 C 
ENDROOT
BRANCH  13  17
HETATM   17  C14 UNL     1       7.139   2.245   1.591  1.00  0.00     0.000 C 
HETATM   18  C21 UNL     1       6.152   3.376   1.951  1.00  0.00     0.000 C 
BRANCH  17  19
HETATM   19  C15 UNL     1       8.558   2.876   1.534  1.00  0.00     0.005 C 
BRANCH  19  20
HETATM   20  C16 UNL     1       9.739   1.909   1.737  1.00  0.00     0.026 C 
BRANCH  20  21
HETATM   21  C17 UNL     1      11.067   2.587   1.974  1.00  0.00    -0.024 C 
HETATM   22  C18 UNL     1      12.284   1.995   1.955  1.00  0.00     0.038 C 
HETATM   23  C20 UNL     1      13.544   2.797   2.180  1.00  0.00     0.037 C 
BRANCH  22  24
HETATM   24  C19 UNL     1      12.454   0.538   1.706  1.00  0.00     0.206 C 
HETATM   25  O1  UNL     1      13.673  -0.002   1.489  1.00  0.00    -0.644 OA
HETATM   26  O2  UNL     1      11.521  -0.255   1.733  1.00  0.00    -0.644 OA
ENDBRANCH  22  24
ENDBRANCH  20  21
ENDBRANCH  19  20
ENDBRANCH  17  19
ENDBRANCH  13  17
BRANCH   1  27
HETATM   27  C27 UNL     1       0.505  -0.673  -1.458  1.00  0.00     0.019 C 
BRANCH  27  28
HETATM   28  C28 UNL     1      -0.522  -0.002  -0.523  1.00  0.00     0.098 C 
BRANCH  28  29
HETATM   29  C29 UNL     1      -1.646   0.695  -1.271  1.00  0.00     0.185 C 
HETATM   30  O3  UNL     1      -2.602   1.125  -0.427  1.00  0.00    -0.647 OA
HETATM   31  O4  UNL     1      -1.735   0.869  -2.463  1.00  0.00    -0.647 OA
ENDBRANCH  28  29
ENDBRANCH  27  28
ENDBRANCH   1  27
BRANCH   2  32
HETATM   32  C24 UNL     1       2.170  -4.031  -0.770  1.00  0.00    -0.029 C 
HETATM   33  C25 UNL     1       1.100  -4.741  -0.366  1.00  0.00    -0.005 C 
HETATM   34  C26 UNL     1       3.550  -4.523  -0.401  1.00  0.00     0.030 C 
ENDBRANCH   2  32
TORSDOF 9
