REMARK  7 active torsions:
REMARK  status: ('A' for Active; 'I' for Inactive)
REMARK    1  A    between atoms: C1_1  and  O9_33 
REMARK    2  A    between atoms: C2_2  and  O8_31 
REMARK    3  A    between atoms: C6_6  and  O1_7 
REMARK    4  A    between atoms: C11_12  and  O6_25 
REMARK    5  A    between atoms: C14_15  and  O4_22 
REMARK    6  A    between atoms: C15_16  and  O3_20 
REMARK    7  A    between atoms: O6_25  and  C20_26 
ROOT
HETATM    1  C1  UNL     1      -0.389   2.745   0.314  1.00  0.00     0.138 C 
HETATM    2  C2  UNL     1      -0.357   1.328   0.374  1.00  0.00     0.117 C 
HETATM    3  C3  UNL     1       0.763   0.677  -0.155  1.00  0.00     0.038 C 
HETATM    4  C4  UNL     1       1.740   1.428  -0.810  1.00  0.00     0.021 C 
HETATM    5  C5  UNL     1       1.722   2.809  -0.886  1.00  0.00     0.028 C 
HETATM    6  C6  UNL     1       0.693   3.487  -0.221  1.00  0.00     0.118 C 
HETATM    7  C8  UNL     1       2.707   0.416  -1.306  1.00  0.00     0.072 C 
HETATM    8  C9  UNL     1       4.203   0.200  -1.449  1.00  0.00     0.048 C 
HETATM    9  C10 UNL     1       4.517  -1.103  -0.621  1.00  0.00     0.038 C 
HETATM   10  C11 UNL     1       3.726  -1.280   0.728  1.00  0.00     0.146 C 
HETATM   11  C12 UNL     1       2.170  -1.316   0.825  1.00  0.00     0.021 C 
HETATM   12  C13 UNL     1       1.186  -0.806  -0.246  1.00  0.00     0.177 C 
HETATM   13  C14 UNL     1       0.029  -1.792  -0.341  1.00  0.00     0.130 C 
HETATM   14  C15 UNL     1      -0.528  -2.278   0.794  1.00  0.00     0.154 C 
HETATM   15  C16 UNL     1       0.173  -2.010   2.085  1.00  0.00     0.219 C 
HETATM   16  C17 UNL     1       1.634  -1.800   1.962  1.00  0.00     0.041 C 
HETATM   17  O2  UNL     1      -0.342  -2.253   3.173  1.00  0.00    -0.284 OA
HETATM   18  O5  UNL     1       1.963  -0.767  -1.433  1.00  0.00    -0.326 OA
HETATM   19  C22 UNL     1       4.512  -2.418  -1.432  1.00  0.00     0.003 C 
HETATM   20  C23 UNL     1       4.546   0.123  -2.944  1.00  0.00     0.007 C 
ENDROOT
BRANCH  10  21
HETATM   21  O6  UNL     1       4.210  -0.335   1.660  1.00  0.00    -0.300 OA
BRANCH  21  22
HETATM   22  C20 UNL     1       5.290  -0.550   2.471  1.00  0.00     0.273 C 
HETATM   23  O7  UNL     1       5.729   0.321   3.191  1.00  0.00    -0.264 OA
HETATM   24  C21 UNL     1       5.898  -1.944   2.476  1.00  0.00     0.106 C 
ENDBRANCH  21  22
ENDBRANCH  10  21
BRANCH  13  25
HETATM   25  O4  UNL     1      -0.513  -2.113  -1.560  1.00  0.00    -0.327 OA
HETATM   26  C19 UNL     1       0.292  -2.894  -2.415  1.00  0.00     0.181 C 
ENDBRANCH  13  25
BRANCH   2  27
HETATM   27  O8  UNL     1      -1.331   0.625   1.031  1.00  0.00    -0.326 OA
HETATM   28  C24 UNL     1      -2.538   0.500   0.313  1.00  0.00     0.181 C 
ENDBRANCH   2  27
BRANCH  14  29
HETATM   29  O3  UNL     1      -1.453  -3.290   0.786  1.00  0.00    -0.323 OA
HETATM   30  C18 UNL     1      -2.792  -2.883   0.922  1.00  0.00     0.182 C 
ENDBRANCH  14  29
BRANCH   1  31
HETATM   31  O9  UNL     1      -1.432   3.406   0.920  1.00  0.00    -0.324 OA
HETATM   32  C25 UNL     1      -2.295   4.111   0.051  1.00  0.00     0.182 C 
ENDBRANCH   1  31
BRANCH   6  33
HETATM   33  O1  UNL     1       0.658   4.855  -0.291  1.00  0.00    -0.326 OA
HETATM   34  C7  UNL     1       1.187   5.493   0.848  1.00  0.00     0.181 C 
ENDBRANCH   6  33
TORSDOF 7
