REMARK  7 active torsions:
REMARK  status: ('A' for Active; 'I' for Inactive)
REMARK    1  A    between atoms: C8_10  and  O10_34 
REMARK    2  A    between atoms: C11_13  and  O7_27 
REMARK    3  A    between atoms: C14_16  and  O5_23 
REMARK    4  A    between atoms: C15_17  and  O4_21 
REMARK    5  A    between atoms: O7_27  and  C21_28 
REMARK    6  A    between atoms: O10_34  and  C25_35 
REMARK    7  A    between atoms: C25_35  and  C26_37 
ROOT
HETATM    1  C1  UNL     1      -2.011   2.851   0.156  1.00  0.00     0.141 A 
HETATM    2  C2  UNL     1      -1.911   1.500  -0.158  1.00  0.00     0.115 A 
HETATM    3  C3  UNL     1      -0.691   0.844   0.018  1.00  0.00     0.012 A 
HETATM    4  C4  UNL     1       0.450   1.502   0.507  1.00  0.00     0.006 A 
HETATM    5  C5  UNL     1       0.336   2.868   0.820  1.00  0.00     0.024 A 
HETATM    6  C6  UNL     1      -0.887   3.516   0.633  1.00  0.00     0.121 A 
HETATM    7  O1  UNL     1      -1.225   4.831   0.886  1.00  0.00    -0.299 OA
HETATM    8  C7  UNL     1      -2.610   5.002   0.556  1.00  0.00     0.304 A 
HETATM    9  O2  UNL     1      -3.078   3.729   0.092  1.00  0.00    -0.298 OA
HETATM   10  C8  UNL     1       1.751   0.770   0.762  1.00  0.00     0.149 C 
HETATM   11  C9  UNL     1       1.769   0.075   2.145  1.00  0.00     0.063 C 
HETATM   12  C10 UNL     1       0.430  -0.434   2.744  1.00  0.00     0.158 C 
HETATM   13  C11 UNL     1      -0.281  -1.558   1.955  1.00  0.00     0.171 C 
HETATM   14  C12 UNL     1      -0.193  -1.606   0.423  1.00  0.00     0.000 C 
HETATM   15  C13 UNL     1      -0.825  -0.571  -0.484  1.00  0.00     0.107 C 
HETATM   16  C14 UNL     1      -0.321  -0.602  -1.930  1.00  0.00     0.106 C 
HETATM   17  C15 UNL     1       0.134  -1.742  -2.503  1.00  0.00     0.152 C 
HETATM   18  C16 UNL     1       0.388  -2.914  -1.620  1.00  0.00     0.219 C 
HETATM   19  C17 UNL     1       0.318  -2.712  -0.154  1.00  0.00     0.039 C 
HETATM   20  O3  UNL     1       0.712  -4.021  -2.038  1.00  0.00    -0.284 OA
HETATM   21  C20 UNL     1      -2.377  -0.683  -0.578  1.00  0.00     0.163 C 
HETATM   22  O6  UNL     1      -2.887   0.649  -0.634  1.00  0.00    -0.328 OA
HETATM   23  C23 UNL     1      -0.508   0.708   3.186  1.00  0.00     0.036 C 
HETATM   24  O9  UNL     1       0.774  -1.017   3.985  1.00  0.00    -0.223 OA
HETATM   25  C24 UNL     1       2.889  -0.989   2.217  1.00  0.00     0.005 C 
ENDROOT
BRANCH  10  26
HETATM   26  O10 UNL     1       2.064  -0.146  -0.254  1.00  0.00    -0.297 OA
BRANCH  26  27
HETATM   27  C25 UNL     1       3.096  -0.048  -1.150  1.00  0.00     0.292 C 
HETATM   28  O11 UNL     1       3.240  -1.028  -1.880  1.00  0.00    -0.260 OA
BRANCH  27  29
HETATM   29  C26 UNL     1       4.120   1.036  -1.328  1.00  0.00     0.037 C 
HETATM   30  C27 UNL     1       4.645   1.265  -2.555  1.00  0.00    -0.025 C 
HETATM   31  C28 UNL     1       4.322   0.604  -3.871  1.00  0.00     0.030 C 
HETATM   32  C29 UNL     1       4.676   1.850  -0.180  1.00  0.00     0.036 C 
ENDBRANCH  27  29
ENDBRANCH  26  27
ENDBRANCH  10  26
BRANCH  13  33
HETATM   33  O7  UNL     1      -1.631  -1.654   2.347  1.00  0.00    -0.297 OA
BRANCH  33  34
HETATM   34  C21 UNL     1      -2.099  -2.430   3.366  1.00  0.00     0.273 C 
HETATM   35  O8  UNL     1      -3.205  -2.262   3.836  1.00  0.00    -0.264 OA
HETATM   36  C22 UNL     1      -1.245  -3.613   3.785  1.00  0.00     0.106 C 
ENDBRANCH  33  34
ENDBRANCH  13  33
BRANCH  16  37
HETATM   37  O5  UNL     1      -0.642   0.473  -2.726  1.00  0.00    -0.330 OA
HETATM   38  C19 UNL     1       0.406   1.381  -2.979  1.00  0.00     0.181 C 
ENDBRANCH  16  37
BRANCH  17  39
HETATM   39  O4  UNL     1       0.460  -1.726  -3.840  1.00  0.00    -0.323 OA
HETATM   40  C18 UNL     1       1.329  -2.702  -4.360  1.00  0.00     0.182 C 
ENDBRANCH  17  39
TORSDOF 7
