REMARK  5 active torsions:
REMARK  status: ('A' for Active; 'I' for Inactive)
REMARK    1  A    between atoms: C1_1  and  O7_29 
REMARK    2  A    between atoms: C2_2  and  O6_27 
REMARK    3  A    between atoms: C6_6  and  O1_7 
REMARK    4  A    between atoms: C14_15  and  O4_22 
REMARK    5  A    between atoms: C15_16  and  O3_20 
ROOT
HETATM    1  C1  UNL     1      -0.472   2.532   0.464  1.00  0.00     0.138 C 
HETATM    2  C2  UNL     1      -0.344   1.126   0.592  1.00  0.00     0.117 C 
HETATM    3  C3  UNL     1       0.758   0.518  -0.016  1.00  0.00     0.038 C 
HETATM    4  C4  UNL     1       1.627   1.271  -0.806  1.00  0.00     0.021 C 
HETATM    5  C5  UNL     1       1.502   2.643  -0.953  1.00  0.00     0.028 C 
HETATM    6  C6  UNL     1       0.505   3.297  -0.218  1.00  0.00     0.118 C 
HETATM    7  C8  UNL     1       2.672   0.322  -1.290  1.00  0.00     0.072 C 
HETATM    8  C9  UNL     1       4.195   0.173  -1.323  1.00  0.00     0.045 C 
HETATM    9  C10 UNL     1       4.618  -0.868  -0.214  1.00  0.00     0.010 C 
HETATM   10  C11 UNL     1       3.777  -0.823   1.108  1.00  0.00     0.025 C 
HETATM   11  C12 UNL     1       2.288  -1.226   1.131  1.00  0.00    -0.007 C 
HETATM   12  C13 UNL     1       1.292  -0.921  -0.001  1.00  0.00     0.175 C 
HETATM   13  C14 UNL     1       0.216  -1.999  -0.060  1.00  0.00     0.129 C 
HETATM   14  C15 UNL     1      -0.285  -2.544   1.073  1.00  0.00     0.154 C 
HETATM   15  C16 UNL     1       0.408  -2.259   2.361  1.00  0.00     0.219 C 
HETATM   16  C17 UNL     1       1.808  -1.791   2.256  1.00  0.00     0.039 C 
HETATM   17  O2  UNL     1      -0.064  -2.604   3.440  1.00  0.00    -0.284 OA
HETATM   18  O5  UNL     1       2.057  -0.938  -1.204  1.00  0.00    -0.326 OA
HETATM   19  C20 UNL     1       4.765  -2.330  -0.686  1.00  0.00     0.001 C 
HETATM   20  C21 UNL     1       4.596  -0.235  -2.751  1.00  0.00     0.007 C 
ENDROOT
BRANCH   1  21
HETATM   21  O7  UNL     1      -1.470   3.173   1.160  1.00  0.00    -0.324 OA
HETATM   22  C23 UNL     1      -2.485   3.755   0.369  1.00  0.00     0.182 C 
ENDBRANCH   1  21
BRANCH   2  23
HETATM   23  O6  UNL     1      -1.176   0.403   1.405  1.00  0.00    -0.326 OA
HETATM   24  C22 UNL     1      -2.453   0.158   0.860  1.00  0.00     0.181 C 
ENDBRANCH   2  23
BRANCH   6  25
HETATM   25  O1  UNL     1       0.396   4.659  -0.331  1.00  0.00    -0.326 OA
HETATM   26  C7  UNL     1       1.029   5.359   0.716  1.00  0.00     0.181 C 
ENDBRANCH   6  25
BRANCH  13  27
HETATM   27  O4  UNL     1      -0.353  -2.303  -1.270  1.00  0.00    -0.327 OA
HETATM   28  C19 UNL     1       0.355  -3.240  -2.052  1.00  0.00     0.181 C 
ENDBRANCH  13  27
BRANCH  14  29
HETATM   29  O3  UNL     1      -1.147  -3.611   1.049  1.00  0.00    -0.323 OA
HETATM   30  C18 UNL     1      -2.505  -3.293   1.227  1.00  0.00     0.182 C 
ENDBRANCH  14  29
TORSDOF 5
