REMARK  7 active torsions:
REMARK  status: ('A' for Active; 'I' for Inactive)
REMARK    1  A    between atoms: C1_1  and  C2_2 
REMARK    2  A    between atoms: C1_1  and  O4_13 
REMARK    3  A    between atoms: C3_3  and  C4_4 
REMARK    4  A    between atoms: O4_13  and  C10_14 
REMARK    5  A    between atoms: C10_14  and  C11_15 
REMARK    6  A    between atoms: C11_15  and  C12_16 
REMARK    7  A    between atoms: C12_16  and  C13_17 
ROOT
HETATM    1  C1  UNL     1      -0.807   1.455  -0.230  1.00  0.00     0.296 C 
HETATM    2  O3  UNL     1      -1.258   2.554  -0.538  1.00  0.00    -0.259 OA
ENDROOT
BRANCH   1   3
HETATM    3  C2  UNL     1      -1.783   0.365   0.040  1.00  0.00     0.068 C 
HETATM    4  C3  UNL     1      -1.385  -0.886   0.372  1.00  0.00     0.005 C 
BRANCH   4   5
HETATM    5  C4  UNL     1      -2.264  -2.029   0.659  1.00  0.00     0.002 A 
HETATM    6  C5  UNL     1      -1.673  -3.262   0.985  1.00  0.00     0.002 A 
HETATM    7  C6  UNL     1      -2.459  -4.376   1.270  1.00  0.00     0.029 A 
HETATM    8  C7  UNL     1      -3.855  -4.302   1.241  1.00  0.00     0.156 A 
HETATM    9  C8  UNL     1      -4.461  -3.084   0.916  1.00  0.00     0.156 A 
HETATM   10  O2  UNL     1      -4.636  -5.379   1.519  1.00  0.00    -0.188 OA
HETATM   11  C9  UNL     1      -3.665  -1.970   0.630  1.00  0.00     0.029 A 
HETATM   12  O1  UNL     1      -5.816  -2.998   0.883  1.00  0.00    -0.188 OA
ENDBRANCH   4   5
ENDBRANCH   1   3
BRANCH   1  13
HETATM   13  O4  UNL     1       0.539   1.239  -0.174  1.00  0.00    -0.298 OA
BRANCH  13  14
HETATM   14  C10 UNL     1       1.385   2.295  -0.545  1.00  0.00     0.155 C 
BRANCH  14  15
HETATM   15  C11 UNL     1       2.834   1.815  -0.449  1.00  0.00     0.083 C 
BRANCH  15  16
HETATM   16  C12 UNL     1       3.858   2.911  -0.788  1.00  0.00     0.390 C 
HETATM   17  N1  UNL     1       3.722   3.337  -2.190  1.00  0.00     0.628 N 
BRANCH  16  18
HETATM   18  C13 UNL     1       5.290   2.470  -0.544  1.00  0.00     0.224 C 
HETATM   19  O5  UNL     1       6.156   3.464  -0.816  1.00  0.00    -0.646 OA
HETATM   20  O6  UNL     1       5.670   1.392  -0.154  1.00  0.00    -0.646 OA
ENDBRANCH  16  18
ENDBRANCH  15  16
ENDBRANCH  14  15
ENDBRANCH  13  14
ENDBRANCH   1  13
TORSDOF 7
