REMARK  1 active torsions:
REMARK  status: ('A' for Active; 'I' for Inactive)
REMARK    1  A    between atoms: C1_2  and  C9_13 
ROOT
HETATM    1  N1  UNL     1      -0.084   0.725  -1.322  1.00  0.00    -0.229 NA
HETATM    2  C1  UNL     1      -0.500  -0.434  -0.524  1.00  0.00     0.184 C 
HETATM    3  C2  UNL     1       0.669  -1.319  -0.110  1.00  0.00     0.256 C 
HETATM    4  N2  UNL     1       1.893  -0.717  -0.137  1.00  0.00    -0.314 N 
HETATM    5  C3  UNL     1       2.119   0.716  -0.251  1.00  0.00     0.139 C 
HETATM    6  C4  UNL     1       1.117   1.358  -1.201  1.00  0.00     0.270 C 
HETATM    7  O1  UNL     1       1.331   2.373  -1.818  1.00  0.00    -0.269 OA
HETATM    8  C5  UNL     1       3.576   0.831  -0.764  1.00  0.00     0.032 C 
HETATM    9  C6  UNL     1       4.054  -0.619  -0.953  1.00  0.00     0.027 C 
HETATM   10  C7  UNL     1       3.153  -1.426  -0.012  1.00  0.00     0.105 C 
HETATM   11  C8  UNL     1       1.998   1.391   1.127  1.00  0.00     0.032 C 
HETATM   12  O2  UNL     1       0.529  -2.495   0.141  1.00  0.00    -0.270 OA
ENDROOT
BRANCH   2  13
HETATM   13  C9  UNL     1      -1.488  -0.033   0.592  1.00  0.00     0.032 C 
HETATM   14  C10 UNL     1      -2.792   0.522  -0.011  1.00  0.00     0.003 C 
HETATM   15  C11 UNL     1      -1.816  -1.183   1.558  1.00  0.00     0.003 C 
ENDBRANCH   2  13
TORSDOF 1
