REMARK  4 active torsions:
REMARK  status: ('A' for Active; 'I' for Inactive)
REMARK    1  A    between atoms: C14_16  and  C16_19 
REMARK    2  A    between atoms: C16_19  and  C17_20 
REMARK    3  A    between atoms: C17_20  and  C18_21 
REMARK    4  A    between atoms: C18_21  and  C19_22 
ROOT
HETATM    1  C17 UNL     1       1.577   0.300   0.539  1.00  0.00     0.155 C 
HETATM    2  O7  UNL     1       1.701   1.272   1.249  1.00  0.00    -0.296 OA
ENDROOT
BRANCH   1   3
HETATM    3  C16 UNL     1       0.208  -0.308   0.263  1.00  0.00     0.091 C 
BRANCH   3   4
HETATM    4  C14 UNL     1      -0.618  -0.487   1.549  1.00  0.00     0.109 C 
HETATM    5  C13 UNL     1      -1.458  -1.747   1.521  1.00  0.00     0.001 C 
HETATM    6  C12 UNL     1      -2.881  -1.724   1.019  1.00  0.00    -0.029 C 
HETATM    7  C39 UNL     1      -0.855  -3.081   1.951  1.00  0.00     0.165 A 
HETATM    8  C9  UNL     1      -3.548  -0.389   0.843  1.00  0.00    -0.011 C 
HETATM    9  C42 UNL     1      -3.350  -2.912   0.222  1.00  0.00     0.028 C 
HETATM   10  C8  UNL     1      -2.716   0.842   1.074  1.00  0.00     0.047 C 
HETATM   11  C10 UNL     1      -5.042  -0.228   0.900  1.00  0.00     0.032 C 
HETATM   12  C4  UNL     1      -3.213   2.111   0.509  1.00  0.00    -0.012 C 
HETATM   13  N1  UNL     1      -1.435   0.702   1.856  1.00  0.00    -0.345 N 
HETATM   14  C3  UNL     1      -4.685   2.215   0.159  1.00  0.00    -0.044 C 
HETATM   15  C5  UNL     1      -2.425   3.390   0.648  1.00  0.00     0.059 C 
HETATM   16  C2  UNL     1      -5.256   3.613   0.241  1.00  0.00     0.054 C 
HETATM   17  C11 UNL     1      -5.592   1.107   0.651  1.00  0.00     0.026 C 
HETATM   18  C1  UNL     1      -4.688   4.556   1.291  1.00  0.00     0.149 A 
HETATM   19  C6  UNL     1      -3.176   4.597   1.163  1.00  0.00     0.150 A 
HETATM   20  O2  UNL     1      -5.068   5.906   0.969  1.00  0.00    -0.327 OA
HETATM   21  O1  UNL     1      -2.797   5.834   0.714  1.00  0.00    -0.327 OA
HETATM   22  C7  UNL     1      -3.924   6.703   0.680  1.00  0.00     0.294 A 
HETATM   23  C15 UNL     1      -1.239   1.645   2.969  1.00  0.00     0.126 C 
HETATM   24  C41 UNL     1      -2.801  -4.253   0.622  1.00  0.00     0.037 C 
HETATM   25  C40 UNL     1      -1.425  -4.293   1.237  1.00  0.00     0.149 A 
HETATM   26  O8  UNL     1      -0.376  -4.890   0.479  1.00  0.00    -0.327 OA
HETATM   27  C43 UNL     1       0.836  -4.183   0.710  1.00  0.00     0.295 A 
HETATM   28  O9  UNL     1       0.546  -3.135   1.631  1.00  0.00    -0.323 OA
ENDBRANCH   3   4
ENDBRANCH   1   3
BRANCH   1  29
HETATM   29  C18 UNL     1       2.784  -0.428  -0.038  1.00  0.00     0.091 C 
BRANCH  29  30
HETATM   30  C19 UNL     1       4.145   0.204   0.297  1.00  0.00     0.112 C 
HETATM   31  C20 UNL     1       4.406   1.441  -0.525  1.00  0.00     0.015 C 
HETATM   32  C21 UNL     1       5.692   1.591  -1.292  1.00  0.00    -0.022 C 
HETATM   33  C37 UNL     1       3.733   2.747  -0.190  1.00  0.00     0.099 C 
HETATM   34  C22 UNL     1       6.311   0.323  -1.799  1.00  0.00     0.007 C 
HETATM   35  C34 UNL     1       6.532   2.789  -0.928  1.00  0.00     0.029 C 
HETATM   36  C23 UNL     1       6.010  -0.863  -1.107  1.00  0.00     0.051 C 
HETATM   37  C28 UNL     1       7.130   0.329  -2.948  1.00  0.00    -0.021 C 
HETATM   38  N2  UNL     1       5.222  -0.804   0.170  1.00  0.00    -0.344 N 
HETATM   39  C25 UNL     1       6.397  -2.181  -1.730  1.00  0.00    -0.012 C 
HETATM   40  C24 UNL     1       5.676  -1.698   1.251  1.00  0.00     0.126 C 
HETATM   41  C26 UNL     1       7.452  -2.233  -2.806  1.00  0.00    -0.040 C 
HETATM   42  C32 UNL     1       5.893  -3.504  -1.220  1.00  0.00     0.059 C 
HETATM   43  C27 UNL     1       7.918  -0.895  -3.332  1.00  0.00     0.048 C 
HETATM   44  C29 UNL     1       8.465  -3.339  -2.616  1.00  0.00     0.054 C 
HETATM   45  C30 UNL     1       8.052  -4.596  -1.888  1.00  0.00     0.149 A 
HETATM   46  C31 UNL     1       6.907  -4.588  -0.890  1.00  0.00     0.150 A 
HETATM   47  O4  UNL     1       7.994  -5.809  -2.631  1.00  0.00    -0.327 OA
HETATM   48  O3  UNL     1       6.296  -5.877  -1.091  1.00  0.00    -0.327 OA
HETATM   49  C33 UNL     1       6.908  -6.596  -2.158  1.00  0.00     0.294 A 
HETATM   50  C35 UNL     1       5.808   4.045  -0.511  1.00  0.00     0.041 C 
HETATM   51  C36 UNL     1       4.525   3.942   0.309  1.00  0.00     0.163 C 
HETATM   52  O6  UNL     1       3.670   5.029  -0.102  1.00  0.00    -0.323 OA
HETATM   53  C38 UNL     1       2.477   4.553  -0.722  1.00  0.00     0.299 C 
HETATM   54  O5  UNL     1       2.640   3.151  -0.890  1.00  0.00    -0.304 OA
ENDBRANCH  29  30
ENDBRANCH   1  29
TORSDOF 4
