REMARK  6 active torsions:
REMARK  status: ('A' for Active; 'I' for Inactive)
REMARK    1  A    between atoms: C6_6  and  O5_25 
REMARK    2  A    between atoms: C11_11  and  C13_15 
REMARK    3  A    between atoms: C14_16  and  C15_17 
REMARK    4  A    between atoms: C16_18  and  C17_19 
REMARK    5  A    between atoms: C17_19  and  O3_20 
REMARK    6  A    between atoms: O5_25  and  C21_26 
ROOT
HETATM    1  C1  UNL     1      -3.261  -0.788  -1.743  1.00  0.00     0.024 C 
HETATM    2  C2  UNL     1      -4.287  -1.802  -1.293  1.00  0.00    -0.048 C 
HETATM    3  C3  UNL     1      -4.378  -2.331  -0.061  1.00  0.00    -0.034 C 
HETATM    4  C4  UNL     1      -3.492  -2.107   1.136  1.00  0.00     0.037 C 
HETATM    5  C5  UNL     1      -2.093  -1.516   0.882  1.00  0.00     0.105 C 
HETATM    6  C6  UNL     1      -2.124  -0.013   0.544  1.00  0.00     0.113 C 
HETATM    7  C7  UNL     1      -2.907   0.313  -0.732  1.00  0.00     0.033 C 
HETATM    8  C8  UNL     1      -0.592   0.186   0.625  1.00  0.00     0.056 C 
HETATM    9  C9  UNL     1      -0.244  -0.425   2.008  1.00  0.00     0.006 C 
HETATM   10  C10 UNL     1      -1.224  -1.597   2.161  1.00  0.00     0.012 C 
HETATM   11  C11 UNL     1       0.205  -0.504  -0.496  1.00  0.00     0.122 C 
HETATM   12  O1  UNL     1      -0.269  -1.800  -0.757  1.00  0.00    -0.302 OA
HETATM   13  C12 UNL     1      -1.334  -2.371  -0.137  1.00  0.00     0.274 C 
HETATM   14  O2  UNL     1      -1.656  -3.517  -0.375  1.00  0.00    -0.264 OA
HETATM   15  C20 UNL     1       0.164   0.271  -1.828  1.00  0.00     0.035 C 
HETATM   16  C23 UNL     1      -5.231  -2.256  -2.386  1.00  0.00     0.026 C 
ENDROOT
BRANCH  11  17
HETATM   17  C13 UNL     1       1.685  -0.610  -0.114  1.00  0.00     0.001 C 
HETATM   18  C14 UNL     1       2.597   0.374  -0.202  1.00  0.00    -0.002 C 
BRANCH  18  19
HETATM   19  C15 UNL     1       3.895   0.190   0.100  1.00  0.00     0.001 C 
HETATM   20  C16 UNL     1       4.871   1.113  -0.046  1.00  0.00     0.041 C 
HETATM   21  C19 UNL     1       4.578   2.489  -0.613  1.00  0.00     0.037 C 
BRANCH  20  22
HETATM   22  C17 UNL     1       6.156   0.805   0.305  1.00  0.00     0.292 C 
HETATM   23  O4  UNL     1       6.413  -0.290   0.760  1.00  0.00    -0.260 OA
BRANCH  22  24
HETATM   24  O3  UNL     1       7.175   1.707   0.151  1.00  0.00    -0.296 OA
HETATM   25  C18 UNL     1       8.470   1.295   0.521  1.00  0.00     0.185 C 
ENDBRANCH  22  24
ENDBRANCH  20  22
ENDBRANCH  18  19
ENDBRANCH  11  17
BRANCH   6  26
HETATM   26  O5  UNL     1      -2.737   0.627   1.635  1.00  0.00    -0.306 OA
BRANCH  26  27
HETATM   27  C21 UNL     1      -2.990   1.957   1.801  1.00  0.00     0.272 C 
HETATM   28  O6  UNL     1      -3.508   2.372   2.817  1.00  0.00    -0.264 OA
HETATM   29  C22 UNL     1      -2.625   2.932   0.696  1.00  0.00     0.106 C 
ENDBRANCH  26  27
ENDBRANCH   6  26
TORSDOF 6
