REMARK  5 active torsions:
REMARK  status: ('A' for Active; 'I' for Inactive)
REMARK    1  A    between atoms: C1_2  and  C2_3 
REMARK    2  A    between atoms: C2_3  and  C3_4 
REMARK    3  A    between atoms: C3_4  and  C4_5 
REMARK    4  A    between atoms: C4_5  and  C5_6 
REMARK    5  A    between atoms: C5_6  and  O2_7 
ROOT
HETATM    1  C3  UNL     1       0.007   1.363   0.001  1.00  0.00     0.078 C 
ENDROOT
BRANCH   1   2
HETATM    2  C2  UNL     1      -1.416   1.910   0.001  1.00  0.00     0.184 C 
HETATM    3  O4  UNL     1      -1.583   3.111   0.001  1.00  0.00    -0.293 OA
BRANCH   2   4
HETATM    4  C1  UNL     1      -2.596   0.948   0.000  1.00  0.00     0.246 C 
HETATM    5  O1  UNL     1      -3.851   1.619   0.011  1.00  0.00    -0.212 OA
ENDBRANCH   2   4
ENDBRANCH   1   2
BRANCH   1   6
HETATM    6  C4  UNL     1       0.168  -0.166  -0.002  1.00  0.00     0.104 C 
BRANCH   6   7
HETATM    7  C5  UNL     1       1.624  -0.611  -0.001  1.00  0.00     0.272 C 
HETATM    8  O3  UNL     1       2.576   0.136   0.008  1.00  0.00    -0.264 OA
BRANCH   7   9
HETATM    9  O2  UNL     1       1.706  -1.970  -0.008  1.00  0.00    -0.299 OA
HETATM   10  C6  UNL     1       3.005  -2.515  -0.004  1.00  0.00     0.184 C 
ENDBRANCH   7   9
ENDBRANCH   6   7
ENDBRANCH   1   6
TORSDOF 5
