REMARK  2 active torsions:
REMARK  status: ('A' for Active; 'I' for Inactive)
REMARK    1  A    between atoms: C3_3  and  C19_20 
REMARK    2  A    between atoms: C19_20  and  O3_22 
ROOT
HETATM    1  C1  UNL     1       1.741  -0.553  -1.379  1.00  0.00    -0.030 C 
HETATM    2  C2  UNL     1       1.116  -1.555  -0.098  1.00  0.00    -0.022 C 
HETATM    3  C3  UNL     1      -0.540  -1.517   0.417  1.00  0.00     0.096 C 
HETATM    4  C4  UNL     1      -1.585  -0.299  -0.439  1.00  0.00     0.013 C 
HETATM    5  C5  UNL     1      -0.834   1.059  -1.440  1.00  0.00     0.005 C 
HETATM    6  C6  UNL     1       0.857   0.789  -2.092  1.00  0.00     0.026 C 
HETATM    7  C7  UNL     1      -0.381   1.942  -0.353  1.00  0.00     0.007 C 
HETATM    8  C8  UNL     1       0.252   0.548  -0.181  1.00  0.00     0.004 C 
HETATM    9  C9  UNL     1      -0.351  -0.806  -1.554  1.00  0.00     0.000 C 
HETATM   10  C10 UNL     1      -1.868  -1.051  -1.677  1.00  0.00     0.001 C 
HETATM   11  C11 UNL     1       1.602   1.075   0.596  1.00  0.00     0.024 C 
HETATM   12  C12 UNL     1       1.101   1.903   1.799  1.00  0.00    -0.002 A 
HETATM   13  C13 UNL     1      -0.094   2.512   1.922  1.00  0.00     0.074 A 
HETATM   14  C14 UNL     1      -1.159   2.453   0.856  1.00  0.00     0.051 C 
HETATM   15  O1  UNL     1      -0.197   3.096   3.000  1.00  0.00    -0.310 OA
HETATM   16  C15 UNL     1       0.848   2.928   3.627  1.00  0.00     0.122 A 
HETATM   17  C16 UNL     1       1.728   2.182   2.949  1.00  0.00     0.024 A 
HETATM   18  C17 UNL     1       2.661   2.046  -0.001  1.00  0.00     0.005 C 
HETATM   19  C18 UNL     1      -1.731   1.839  -2.408  1.00  0.00     0.000 C 
HETATM   20  C21 UNL     1      -0.580  -1.413   1.982  1.00  0.00     0.014 C 
ENDROOT
BRANCH   3  21
HETATM   21  C19 UNL     1      -1.265  -2.887   0.316  1.00  0.00     0.275 C 
HETATM   22  O2  UNL     1      -2.412  -3.055   0.671  1.00  0.00    -0.264 OA
BRANCH  21  23
HETATM   23  O3  UNL     1      -0.490  -3.876  -0.201  1.00  0.00    -0.299 OA
HETATM   24  C20 UNL     1      -1.097  -5.138  -0.348  1.00  0.00     0.184 C 
ENDBRANCH  21  23
ENDBRANCH   3  21
TORSDOF 2
