REMARK  8 active torsions:
REMARK  status: ('A' for Active; 'I' for Inactive)
REMARK    1  A    between atoms: C4_4  and  O4_15 
REMARK    2  A    between atoms: C5_5  and  C8_9 
REMARK    3  A    between atoms: C6_6  and  O1_7 
REMARK    4  A    between atoms: C8_9  and  C9_10 
REMARK    5  A    between atoms: C9_10  and  C10_11 
REMARK    6  A    between atoms: C10_11  and  O2_12 
REMARK    7  A    between atoms: O4_15  and  C12_16 
REMARK    8  A    between atoms: C13_18  and  C17_25 
ROOT
HETATM    1  C1  UNL     1       3.385   1.008  -2.247  1.00  0.00     0.047 A 
HETATM    2  C2  UNL     1       2.772   2.165  -2.482  1.00  0.00     0.104 A 
HETATM    3  C3  UNL     1       1.545   2.353  -1.998  1.00  0.00     0.049 A 
HETATM    4  C4  UNL     1       0.918   1.413  -1.255  1.00  0.00     0.100 A 
HETATM    5  C5  UNL     1       1.593   0.244  -1.006  1.00  0.00     0.041 A 
HETATM    6  C6  UNL     1       2.814   0.006  -1.562  1.00  0.00     0.098 A 
HETATM    7  O10 UNL     1       3.462   2.940  -3.141  1.00  0.00    -0.305 OA
HETATM    8  C18 UNL     1       4.536   2.382  -3.364  1.00  0.00     0.123 A 
HETATM    9  C19 UNL     1       4.582   1.152  -2.833  1.00  0.00     0.031 A 
ENDROOT
BRANCH   4  10
HETATM   10  O4  UNL     1      -0.327   1.862  -0.843  1.00  0.00    -0.303 OA
BRANCH  10  11
HETATM   11  C12 UNL     1      -1.165   1.333   0.160  1.00  0.00     0.274 C 
HETATM   12  O5  UNL     1      -1.303   2.371   1.107  1.00  0.00    -0.326 OA
HETATM   13  C13 UNL     1      -2.111   2.007   2.199  1.00  0.00     0.184 C 
HETATM   14  C14 UNL     1      -3.514   1.665   1.706  1.00  0.00     0.215 C 
HETATM   15  C15 UNL     1      -3.509   0.631   0.596  1.00  0.00     0.220 C 
HETATM   16  O8  UNL     1      -4.323   1.170   2.745  1.00  0.00    -0.218 OA
HETATM   17  C16 UNL     1      -2.496   0.990  -0.467  1.00  0.00     0.241 C 
HETATM   18  O7  UNL     1      -4.785   0.597   0.006  1.00  0.00    -0.218 OA
HETATM   19  O6  UNL     1      -2.973   2.108  -1.177  1.00  0.00    -0.215 OA
BRANCH  13  20
HETATM   20  C17 UNL     1      -1.443   0.938   3.061  1.00  0.00     0.214 C 
HETATM   21  O9  UNL     1      -1.854   1.057   4.409  1.00  0.00    -0.218 OA
ENDBRANCH  13  20
ENDBRANCH  10  11
ENDBRANCH   4  10
BRANCH   5  22
HETATM   22  C8  UNL     1       0.964  -0.816  -0.110  1.00  0.00    -0.012 C 
BRANCH  22  23
HETATM   23  C9  UNL     1       1.490  -2.233   0.177  1.00  0.00     0.122 C 
BRANCH  23  24
HETATM   24  C10 UNL     1       0.560  -2.948   1.155  1.00  0.00     0.276 C 
HETATM   25  O3  UNL     1      -0.091  -2.388   2.009  1.00  0.00    -0.264 OA
BRANCH  24  26
HETATM   26  O2  UNL     1       0.532  -4.288   0.921  1.00  0.00    -0.299 OA
HETATM   27  C11 UNL     1      -0.330  -5.037   1.747  1.00  0.00     0.184 C 
ENDBRANCH  24  26
ENDBRANCH  23  24
ENDBRANCH  22  23
ENDBRANCH   5  22
BRANCH   6  28
HETATM   28  O1  UNL     1       3.550  -1.130  -1.351  1.00  0.00    -0.328 OA
HETATM   29  C7  UNL     1       3.587  -2.009  -2.455  1.00  0.00     0.181 C 
ENDBRANCH   6  28
TORSDOF 8
