REMARK  2 active torsions:
REMARK  status: ('A' for Active; 'I' for Inactive)
REMARK    1  A    between atoms: C8_9  and  C9_10 
REMARK    2  A    between atoms: C9_10  and  O2_12 
ROOT
HETATM    1  C1  UNL     1       2.883   1.268  -1.040  1.00  0.00     0.002 A 
HETATM    2  C2  UNL     1       1.907   2.191  -0.978  1.00  0.00     0.000 A 
HETATM    3  C3  UNL     1       0.664   1.866  -0.579  1.00  0.00     0.002 A 
HETATM    4  C4  UNL     1       0.398   0.596  -0.235  1.00  0.00     0.024 A 
HETATM    5  C5  UNL     1       1.389  -0.308  -0.305  1.00  0.00     0.082 A 
HETATM    6  C6  UNL     1       2.631  -0.006  -0.700  1.00  0.00     0.019 A 
HETATM    7  N1  UNL     1       0.926  -1.427   0.059  1.00  0.00    -0.244 NA
HETATM    8  C7  UNL     1      -0.301  -1.332   0.364  1.00  0.00     0.104 A 
HETATM    9  C8  UNL     1      -0.702  -0.059   0.197  1.00  0.00     0.084 A 
ENDROOT
BRANCH   9  10
HETATM   10  C9  UNL     1      -1.939   0.479   0.409  1.00  0.00     0.297 C 
HETATM   11  O1  UNL     1      -2.047   1.667   0.181  1.00  0.00    -0.259 OA
BRANCH  10  12
HETATM   12  O2  UNL     1      -3.090  -0.128   0.845  1.00  0.00    -0.296 OA
HETATM   13  C10 UNL     1      -3.174  -1.491   1.165  1.00  0.00     0.185 C 
ENDBRANCH  10  12
ENDBRANCH   9  10
TORSDOF 2
