REMARK  2 active torsions:
REMARK  status: ('A' for Active; 'I' for Inactive)
REMARK    1  A    between atoms: C1_1  and  C13_15 
REMARK    2  A    between atoms: C13_15  and  O3_16 
ROOT
HETATM    1  C1  UNL     1       1.114  -1.496  -0.009  1.00  0.00     0.085 A 
HETATM    2  C2  UNL     1       0.074  -1.836  -0.807  1.00  0.00     0.138 A 
HETATM    3  C3  UNL     1      -0.800  -0.882  -1.154  1.00  0.00     0.052 A 
HETATM    4  C4  UNL     1      -0.723   0.394  -0.754  1.00  0.00     0.096 A 
HETATM    5  C5  UNL     1       0.305   0.722   0.058  1.00  0.00     0.018 A 
HETATM    6  C6  UNL     1       1.249  -0.199   0.391  1.00  0.00    -0.013 A 
HETATM    7  C7  UNL     1       2.461   0.233   1.218  1.00  0.00     0.031 C 
HETATM    8  C8  UNL     1       0.325   2.004   0.477  1.00  0.00    -0.001 C 
HETATM    9  C9  UNL     1      -0.680   2.855   0.238  1.00  0.00     0.001 C 
HETATM   10  C10 UNL     1      -1.946   2.399  -0.429  1.00  0.00     0.117 C 
HETATM   11  O1  UNL     1      -1.707   1.249  -1.183  1.00  0.00    -0.332 OA
HETATM   12  C11 UNL     1      -2.990   2.077   0.646  1.00  0.00     0.035 C 
HETATM   13  C12 UNL     1      -2.472   3.483  -1.375  1.00  0.00     0.035 C 
HETATM   14  O2  UNL     1      -0.149  -3.078  -1.327  1.00  0.00    -0.190 OA
ENDROOT
BRANCH   1  15
HETATM   15  C13 UNL     1       1.988  -2.484   0.377  1.00  0.00     0.298 C 
HETATM   16  O4  UNL     1       2.915  -2.259   1.123  1.00  0.00    -0.259 OA
BRANCH  15  17
HETATM   17  O3  UNL     1       1.842  -3.797   0.012  1.00  0.00    -0.296 OA
HETATM   18  C14 UNL     1       2.706  -4.754   0.578  1.00  0.00     0.185 C 
ENDBRANCH  15  17
ENDBRANCH   1  15
TORSDOF 2
