REMARK  3 active torsions:
REMARK  status: ('A' for Active; 'I' for Inactive)
REMARK    1  A    between atoms: C6_6  and  C7_7 
REMARK    2  A    between atoms: C7_7  and  C8_8 
REMARK    3  A    between atoms: C16_17  and  C18_19 
ROOT
HETATM    1  C1  UNL     1      -2.805  -1.425   0.061  1.00  0.00     0.127 A 
HETATM    2  C2  UNL     1      -3.872  -0.678   0.403  1.00  0.00     0.029 A 
HETATM    3  C3  UNL     1      -3.746   0.548   0.929  1.00  0.00     0.021 A 
HETATM    4  C4  UNL     1      -2.505   1.017   1.080  1.00  0.00     0.081 A 
HETATM    5  C5  UNL     1      -1.419   0.302   0.740  1.00  0.00     0.018 A 
HETATM    6  C6  UNL     1      -1.552  -0.942   0.239  1.00  0.00     0.009 A 
HETATM    7  C12 UNL     1      -0.376   1.109   1.015  1.00  0.00     0.019 A 
HETATM    8  C13 UNL     1      -0.888   2.246   1.513  1.00  0.00     0.081 A 
HETATM    9  N1  UNL     1      -2.151   2.145   1.534  1.00  0.00    -0.246 NA
HETATM   10  C14 UNL     1      -0.125   3.273   1.897  1.00  0.00     0.019 A 
HETATM   11  C15 UNL     1       1.206   3.150   1.766  1.00  0.00     0.005 A 
HETATM   12  C16 UNL     1       1.750   2.024   1.261  1.00  0.00     0.042 A 
HETATM   13  C17 UNL     1       0.955   1.001   0.884  1.00  0.00     0.005 A 
HETATM   14  O2  UNL     1      -3.018  -2.652  -0.491  1.00  0.00    -0.191 OA
ENDROOT
BRANCH   6  15
HETATM   15  C7  UNL     1      -0.354  -1.798  -0.121  1.00  0.00     0.054 C 
BRANCH  15  16
HETATM   16  C8  UNL     1       0.228  -1.391  -1.449  1.00  0.00    -0.030 C 
HETATM   17  C9  UNL     1       1.462  -1.692  -1.889  1.00  0.00    -0.048 C 
HETATM   18  C10 UNL     1       1.951  -1.221  -3.239  1.00  0.00     0.026 C 
HETATM   19  C11 UNL     1       2.465  -2.507  -1.108  1.00  0.00     0.026 C 
ENDBRANCH  15  16
ENDBRANCH   6  15
BRANCH  12  20
HETATM   20  C18 UNL     1       3.100   1.925   1.130  1.00  0.00     0.234 C 
HETATM   21  O1  UNL     1       3.676   0.959   0.688  1.00  0.00    -0.283 OA
ENDBRANCH  12  20
TORSDOF 3
