REMARK  4 active torsions:
REMARK  status: ('A' for Active; 'I' for Inactive)
REMARK    1  A    between atoms: C1_2  and  C2_3 
REMARK    2  A    between atoms: C2_3  and  C3_4 
REMARK    3  A    between atoms: C3_4  and  C4_5 
REMARK    4  A    between atoms: C9_10  and  C10_11 
ROOT
HETATM    1  C4  UNL     1      -1.438  -0.572  -0.098  1.00  0.00     0.004 A 
HETATM    2  C5  UNL     1      -0.269   0.416  -0.122  1.00  0.00     0.000 A 
HETATM    3  C6  UNL     1       1.118  -0.250  -0.095  1.00  0.00     0.000 C 
HETATM    4  C7  UNL     1       1.160  -1.479  -1.023  1.00  0.00     0.000 C 
HETATM    5  C8  UNL     1       0.054  -2.525  -0.814  1.00  0.00     0.004 C 
HETATM    6  C9  UNL     1      -1.102  -2.061   0.087  1.00  0.00     0.018 C 
HETATM    7  C13 UNL     1       2.271   0.742  -0.412  1.00  0.00     0.007 C 
HETATM    8  C14 UNL     1       1.948   2.108   0.243  1.00  0.00     0.051 C 
HETATM    9  C15 UNL     1       0.781   2.774  -0.504  1.00  0.00     0.007 C 
HETATM   10  C16 UNL     1      -0.341   1.764  -0.850  1.00  0.00     0.000 C 
HETATM   11  C17 UNL     1       3.305   2.791   0.141  1.00  0.00     0.150 C 
HETATM   12  C18 UNL     1       4.397   1.736   0.239  1.00  0.00     0.065 C 
HETATM   13  C19 UNL     1       3.644   0.390   0.208  1.00  0.00     0.008 C 
HETATM   14  O2  UNL     1       3.492   3.979   0.020  1.00  0.00    -0.296 OA
HETATM   15  C20 UNL     1       1.664   2.116   1.763  1.00  0.00     0.007 C 
HETATM   16  C21 UNL     1       2.534   0.899  -1.938  1.00  0.00     0.000 C 
HETATM   17  C22 UNL     1      -1.179   0.324   1.085  1.00  0.00     0.000 A 
ENDROOT
BRANCH   1  18
HETATM   18  C3  UNL     1      -2.658  -0.283  -0.976  1.00  0.00     0.012 C 
BRANCH  18  19
HETATM   19  C2  UNL     1      -4.010  -0.692  -0.366  1.00  0.00     0.098 C 
BRANCH  19  20
HETATM   20  C1  UNL     1      -5.243  -0.457  -1.221  1.00  0.00     0.185 C 
HETATM   21  O1  UNL     1      -4.974   0.144  -2.393  1.00  0.00    -0.647 OA
HETATM   22  O3  UNL     1      -6.373  -0.765  -0.922  1.00  0.00    -0.647 OA
ENDBRANCH  19  20
ENDBRANCH  18  19
ENDBRANCH   1  18
BRANCH   6  23
HETATM   23  C10 UNL     1      -1.018  -2.511   1.539  1.00  0.00    -0.044 C 
HETATM   24  C11 UNL     1      -2.332  -2.591   2.286  1.00  0.00     0.026 C 
HETATM   25  C12 UNL     1       0.131  -2.833   2.158  1.00  0.00    -0.009 C 
ENDBRANCH   6  23
TORSDOF 4
