REMARK  8 active torsions:
REMARK  status: ('A' for Active; 'I' for Inactive)
REMARK    1  A    between atoms: C4_4  and  C7_7 
REMARK    2  A    between atoms: C7_7  and  C8_8 
REMARK    3  A    between atoms: C15_17  and  C16_18 
REMARK    4  A    between atoms: C20_23  and  C21_24 
REMARK    5  A    between atoms: C21_24  and  C22_25 
REMARK    6  A    between atoms: C26_30  and  C27_31 
REMARK    7  A    between atoms: C27_31  and  C28_32 
REMARK    8  A    between atoms: C40_48  and  C45_57 
ROOT
HETATM    1  C8  UNL     1      -2.702   3.743  -1.098  1.00  0.00     0.189 C 
HETATM    2  C9  UNL     1      -1.247   3.270  -1.025  1.00  0.00     0.257 C 
HETATM    3  N1  UNL     1      -0.263   4.221  -0.918  1.00  0.00    -0.312 N 
HETATM    4  C10 UNL     1       1.160   3.884  -0.883  1.00  0.00     0.165 C 
HETATM    5  C11 UNL     1       1.908   5.229  -0.980  1.00  0.00     0.034 C 
HETATM    6  C12 UNL     1       0.853   6.184  -1.548  1.00  0.00     0.027 C 
HETATM    7  C13 UNL     1      -0.443   5.666  -0.906  1.00  0.00     0.105 C 
HETATM    8  C14 UNL     1       1.592   3.172   0.395  1.00  0.00     0.272 C 
HETATM    9  N2  UNL     1       2.716   2.401   0.258  1.00  0.00    -0.229 NA
HETATM   10  C15 UNL     1       3.419   1.781   1.389  1.00  0.00     0.186 C 
HETATM   11  C19 UNL     1       3.684   0.325   1.028  1.00  0.00     0.274 C 
HETATM   12  N3  UNL     1       3.837  -0.514   2.098  1.00  0.00    -0.229 NA
HETATM   13  C20 UNL     1       4.120  -1.949   1.962  1.00  0.00     0.186 C 
HETATM   14  C25 UNL     1       2.802  -2.690   2.137  1.00  0.00     0.274 C 
HETATM   15  N4  UNL     1       2.301  -3.254   0.998  1.00  0.00    -0.228 NA
HETATM   16  C26 UNL     1       1.030  -3.990   0.968  1.00  0.00     0.189 C 
HETATM   17  C34 UNL     1       0.645  -4.068  -0.508  1.00  0.00     0.257 C 
HETATM   18  O2  UNL     1       1.522  -4.107  -1.341  1.00  0.00    -0.270 OA
HETATM   19  N5  UNL     1      -0.688  -4.024  -0.830  1.00  0.00    -0.312 N 
HETATM   20  C35 UNL     1      -1.169  -3.859  -2.197  1.00  0.00     0.165 C 
HETATM   21  C36 UNL     1      -2.579  -4.473  -2.144  1.00  0.00     0.034 C 
HETATM   22  C37 UNL     1      -3.075  -3.982  -0.778  1.00  0.00     0.027 C 
HETATM   23  C38 UNL     1      -1.813  -4.067   0.097  1.00  0.00     0.105 C 
HETATM   24  C39 UNL     1      -1.176  -2.373  -2.552  1.00  0.00     0.272 C 
HETATM   25  N6  UNL     1      -1.976  -2.040  -3.611  1.00  0.00    -0.229 NA
HETATM   26  C40 UNL     1      -2.306  -0.654  -3.974  1.00  0.00     0.186 C 
HETATM   27  C41 UNL     1      -3.324  -0.092  -2.981  1.00  0.00     0.274 C 
HETATM   28  O3  UNL     1      -3.297  -0.351  -1.802  1.00  0.00    -0.268 OA
HETATM   29  N7  UNL     1      -4.269   0.729  -3.534  1.00  0.00    -0.229 NA
HETATM   30  C42 UNL     1      -5.286   1.441  -2.750  1.00  0.00     0.186 C 
HETATM   31  C43 UNL     1      -4.709   2.731  -2.180  1.00  0.00     0.274 C 
HETATM   32  N8  UNL     1      -3.490   2.595  -1.574  1.00  0.00    -0.228 NA
HETATM   33  O4  UNL     1      -5.284   3.787  -2.287  1.00  0.00    -0.268 OA
HETATM   34  C44 UNL     1      -5.991   0.619  -1.660  1.00  0.00     0.037 C 
HETATM   35  O5  UNL     1      -0.540  -1.567  -1.915  1.00  0.00    -0.269 OA
HETATM   36  O6  UNL     1       2.246  -2.752   3.207  1.00  0.00    -0.268 OA
HETATM   37  O7  UNL     1       3.773  -0.028  -0.124  1.00  0.00    -0.268 OA
HETATM   38  O8  UNL     1       1.045   3.364   1.455  1.00  0.00    -0.269 OA
HETATM   39  O9  UNL     1      -1.002   2.089  -1.101  1.00  0.00    -0.270 OA
ENDROOT
BRANCH  16  40
HETATM   40  C27 UNL     1       1.203  -5.381   1.611  1.00  0.00     0.060 C 
BRANCH  40  41
HETATM   41  C28 UNL     1      -0.051  -5.923   2.263  1.00  0.00    -0.020 A 
HETATM   42  C29 UNL     1      -0.638  -7.054   1.836  1.00  0.00    -0.002 A 
HETATM   43  C30 UNL     1      -1.754  -7.514   2.424  1.00  0.00     0.027 A 
HETATM   44  C31 UNL     1      -2.319  -6.867   3.458  1.00  0.00     0.131 A 
HETATM   45  C32 UNL     1      -1.722  -5.745   3.890  1.00  0.00     0.027 A 
HETATM   46  O1  UNL     1      -3.452  -7.327   4.054  1.00  0.00    -0.190 OA
HETATM   47  C33 UNL     1      -0.606  -5.282   3.307  1.00  0.00    -0.002 A 
ENDBRANCH  40  41
ENDBRANCH  16  40
BRANCH  13  48
HETATM   48  C21 UNL     1       5.173  -2.352   3.014  1.00  0.00     0.034 C 
BRANCH  48  49
HETATM   49  C22 UNL     1       5.906  -3.686   2.758  1.00  0.00     0.002 C 
HETATM   50  C23 UNL     1       6.950  -3.932   3.863  1.00  0.00     0.000 C 
HETATM   51  C24 UNL     1       4.963  -4.895   2.666  1.00  0.00     0.000 C 
ENDBRANCH  48  49
ENDBRANCH  13  48
BRANCH  10  52
HETATM   52  C16 UNL     1       4.737   2.539   1.675  1.00  0.00     0.032 C 
HETATM   53  C17 UNL     1       5.603   1.864   2.754  1.00  0.00     0.003 C 
HETATM   54  C18 UNL     1       4.463   3.996   2.088  1.00  0.00     0.003 C 
ENDBRANCH  10  52
BRANCH  26  55
HETATM   55  C45 UNL     1      -1.097   0.279  -4.209  1.00  0.00     0.032 C 
HETATM   56  C46 UNL     1      -0.116  -0.341  -5.220  1.00  0.00     0.003 C 
HETATM   57  C47 UNL     1      -1.515   1.678  -4.699  1.00  0.00     0.003 C 
ENDBRANCH  26  55
BRANCH   1  58
HETATM   58  C7  UNL     1      -3.242   4.257   0.253  1.00  0.00     0.060 C 
BRANCH  58  59
HETATM   59  C4  UNL     1      -3.543   5.741   0.370  1.00  0.00    -0.020 A 
HETATM   60  C3  UNL     1      -3.301   6.392   1.524  1.00  0.00    -0.004 A 
HETATM   61  C2  UNL     1      -3.578   7.698   1.664  1.00  0.00    -0.000 A 
HETATM   62  C1  UNL     1      -4.107   8.387   0.642  1.00  0.00    -0.000 A 
HETATM   63  C6  UNL     1      -4.361   7.756  -0.514  1.00  0.00    -0.000 A 
HETATM   64  C5  UNL     1      -4.086   6.449  -0.638  1.00  0.00    -0.004 A 
ENDBRANCH  58  59
ENDBRANCH   1  58
TORSDOF 8
