REMARK  3 active torsions:
REMARK  status: ('A' for Active; 'I' for Inactive)
REMARK    1  A    between atoms: C1_1  and  O6_23 
REMARK    2  A    between atoms: C7_8  and  C10_12 
REMARK    3  A    between atoms: C11_13  and  O3_14 
ROOT
HETATM    1  C1  UNL     1       4.258  -0.371  -0.140  1.00  0.00     0.096 A 
HETATM    2  C2  UNL     1       4.618   0.923  -0.224  1.00  0.00     0.024 A 
HETATM    3  C3  UNL     1       3.716   1.915  -0.244  1.00  0.00     0.007 A 
HETATM    4  C4  UNL     1       2.403   1.638  -0.180  1.00  0.00     0.062 A 
HETATM    5  C5  UNL     1       1.995   0.361  -0.095  1.00  0.00     0.105 A 
HETATM    6  C6  UNL     1       2.933  -0.606  -0.077  1.00  0.00     0.049 A 
HETATM    7  O1  UNL     1       0.680   0.012  -0.025  1.00  0.00    -0.307 OA
HETATM    8  C7  UNL     1      -0.271   0.996  -0.054  1.00  0.00     0.105 A 
HETATM    9  C8  UNL     1       0.162   2.274  -0.139  1.00  0.00     0.067 A 
HETATM   10  C9  UNL     1       1.473   2.627  -0.201  1.00  0.00     0.200 A 
HETATM   11  O2  UNL     1       1.777   3.798  -0.276  1.00  0.00    -0.286 OA
ENDROOT
BRANCH   8  12
HETATM   12  C10 UNL     1      -1.594   0.658   0.003  1.00  0.00     0.047 A 
HETATM   13  C11 UNL     1      -1.978  -0.655   0.093  1.00  0.00     0.098 A 
HETATM   14  C13 UNL     1      -3.297  -0.952   0.144  1.00  0.00     0.051 A 
HETATM   15  C14 UNL     1      -4.227   0.004   0.109  1.00  0.00     0.121 A 
HETATM   16  C15 UNL     1      -3.859   1.280   0.023  1.00  0.00     0.119 A 
HETATM   17  O5  UNL     1      -5.448  -0.114   0.147  1.00  0.00    -0.299 OA
HETATM   18  C16 UNL     1      -2.564   1.605  -0.029  1.00  0.00     0.030 A 
HETATM   19  O4  UNL     1      -4.835   2.025   0.003  1.00  0.00    -0.300 OA
HETATM   20  C17 UNL     1      -6.002   1.202   0.084  1.00  0.00     0.304 A 
BRANCH  13  21
HETATM   21  O3  UNL     1      -1.035  -1.661   0.130  1.00  0.00    -0.328 OA
HETATM   22  C12 UNL     1      -1.424  -3.011   0.220  1.00  0.00     0.181 C 
ENDBRANCH  13  21
ENDBRANCH   8  12
BRANCH   1  23
HETATM   23  O6  UNL     1       5.240  -1.334  -0.127  1.00  0.00    -0.328 OA
HETATM   24  C18 UNL     1       4.861  -2.689  -0.048  1.00  0.00     0.181 C 
ENDBRANCH   1  23
TORSDOF 3
