REMARK  9 active torsions:
REMARK  status: ('A' for Active; 'I' for Inactive)
REMARK    1  A    between atoms: C8_9  and  C10_12 
REMARK    2  A    between atoms: C10_12  and  C11_13 
REMARK    3  A    between atoms: C10_12  and  C31_39 
REMARK    4  A    between atoms: C11_13  and  C12_14 
REMARK    5  A    between atoms: C16_19  and  C18_22 
REMARK    6  A    between atoms: C18_22  and  C19_23 
REMARK    7  A    between atoms: C18_22  and  C25_30 
REMARK    8  A    between atoms: C31_39  and  C32_40 
REMARK    9  A    between atoms: C31_39  and  C38_47 
ROOT
HETATM    1  C10 UNL     1      -1.646  -1.121   0.432  1.00  0.00     0.012 C 
ENDROOT
BRANCH   1   2
HETATM    2  C8  UNL     1      -2.589  -1.159   1.671  1.00  0.00     0.114 C 
HETATM    3  C7  UNL     1      -3.212   0.198   1.965  1.00  0.00     0.161 C 
HETATM    4  O1  UNL     1      -3.993   0.098   3.120  1.00  0.00    -0.330 OA
HETATM    5  C5  UNL     1      -4.924  -0.910   3.112  1.00  0.00     0.101 A 
HETATM    6  C4  UNL     1      -4.830  -2.028   2.356  1.00  0.00     0.083 A 
HETATM    7  C6  UNL     1      -6.029  -0.739   3.861  1.00  0.00     0.052 A 
HETATM    8  C3  UNL     1      -5.817  -2.956   2.374  1.00  0.00     0.138 A 
HETATM    9  C9  UNL     1      -3.711  -2.200   1.594  1.00  0.00     0.183 C 
HETATM   10  C2  UNL     1      -6.883  -2.734   3.163  1.00  0.00     0.055 A 
HETATM   11  O11 UNL     1      -5.809  -4.132   1.681  1.00  0.00    -0.190 OA
HETATM   12  C1  UNL     1      -7.023  -1.636   3.916  1.00  0.00     0.135 A 
HETATM   13  O12 UNL     1      -8.124  -1.449   4.693  1.00  0.00    -0.190 OA
HETATM   14  O2  UNL     1      -3.541  -3.155   0.872  1.00  0.00    -0.291 OA
ENDBRANCH   1   2
BRANCH   1  15
HETATM   15  C11 UNL     1      -0.936   0.207   0.075  1.00  0.00     0.193 C 
HETATM   16  O8  UNL     1      -1.452   0.754  -0.877  1.00  0.00    -0.287 OA
BRANCH  15  17
HETATM   17  C12 UNL     1       0.191   0.733   0.656  1.00  0.00     0.089 A 
HETATM   18  C13 UNL     1       0.685   0.253   1.817  1.00  0.00     0.138 A 
HETATM   19  O3  UNL     1       0.124  -0.745   2.540  1.00  0.00    -0.190 OA
HETATM   20  C14 UNL     1       1.840   0.743   2.287  1.00  0.00     0.055 A 
HETATM   21  C15 UNL     1       2.526   1.710   1.671  1.00  0.00     0.132 A 
HETATM   22  C16 UNL     1       2.032   2.209   0.521  1.00  0.00     0.037 A 
HETATM   23  O7  UNL     1       3.710   2.116   2.206  1.00  0.00    -0.190 OA
HETATM   24  C17 UNL     1       0.861   1.738   0.029  1.00  0.00     0.135 A 
HETATM   25  O4  UNL     1       0.433   2.220  -1.174  1.00  0.00    -0.190 OA
BRANCH  22  26
HETATM   26  C18 UNL     1       2.893   3.239  -0.213  1.00  0.00     0.078 C 
BRANCH  26  27
HETATM   27  C19 UNL     1       2.207   4.389  -0.877  1.00  0.00     0.020 A 
HETATM   28  C20 UNL     1       2.420   5.135  -2.007  1.00  0.00     0.006 A 
HETATM   29  C21 UNL     1       1.570   6.186  -2.342  1.00  0.00     0.028 A 
HETATM   30  C22 UNL     1       0.463   6.577  -1.583  1.00  0.00     0.139 A 
HETATM   31  C23 UNL     1       0.151   5.913  -0.419  1.00  0.00     0.068 A 
HETATM   32  O5  UNL     1      -0.300   7.626  -1.996  1.00  0.00    -0.190 OA
HETATM   33  C24 UNL     1       1.193   5.190  -0.714  1.00  0.00    -0.102 A 
ENDBRANCH  26  27
BRANCH  26  34
HETATM   34  C25 UNL     1       3.815   2.485  -1.159  1.00  0.00    -0.013 A 
HETATM   35  C26 UNL     1       5.089   2.224  -0.811  1.00  0.00    -0.002 A 
HETATM   36  C27 UNL     1       5.910   1.536  -1.619  1.00  0.00     0.027 A 
HETATM   37  C28 UNL     1       5.494   1.078  -2.811  1.00  0.00     0.131 A 
HETATM   38  C29 UNL     1       4.223   1.337  -3.160  1.00  0.00     0.027 A 
HETATM   39  O6  UNL     1       6.317   0.376  -3.635  1.00  0.00    -0.190 OA
HETATM   40  C30 UNL     1       3.401   2.024  -2.353  1.00  0.00    -0.002 A 
ENDBRANCH  26  34
ENDBRANCH  22  26
ENDBRANCH  15  17
ENDBRANCH   1  15
BRANCH   1  41
HETATM   41  C31 UNL     1      -0.796  -2.403   0.157  1.00  0.00     0.066 C 
BRANCH  41  42
HETATM   42  C32 UNL     1      -1.135  -3.159  -1.126  1.00  0.00    -0.014 A 
HETATM   43  C33 UNL     1      -1.129  -4.505  -1.140  1.00  0.00    -0.002 A 
HETATM   44  C34 UNL     1      -1.404  -5.195  -2.257  1.00  0.00     0.027 A 
HETATM   45  C35 UNL     1      -1.690  -4.571  -3.411  1.00  0.00     0.131 A 
HETATM   46  C36 UNL     1      -1.687  -3.228  -3.403  1.00  0.00     0.027 A 
HETATM   47  O9  UNL     1      -1.966  -5.262  -4.550  1.00  0.00    -0.190 OA
HETATM   48  C37 UNL     1      -1.412  -2.538  -2.287  1.00  0.00    -0.002 A 
ENDBRANCH  41  42
BRANCH  41  49
HETATM   49  C38 UNL     1       0.720  -2.234   0.184  1.00  0.00    -0.014 A 
HETATM   50  C39 UNL     1       1.464  -2.763   1.174  1.00  0.00    -0.002 A 
HETATM   51  C40 UNL     1       2.790  -2.566   1.233  1.00  0.00     0.027 A 
HETATM   52  C41 UNL     1       3.432  -1.849   0.297  1.00  0.00     0.131 A 
HETATM   53  C42 UNL     1       2.699  -1.363  -0.717  1.00  0.00     0.027 A 
HETATM   54  O10 UNL     1       4.774  -1.639   0.367  1.00  0.00    -0.190 OA
HETATM   55  C43 UNL     1       1.373  -1.555  -0.776  1.00  0.00    -0.002 A 
ENDBRANCH  41  49
ENDBRANCH   1  41
TORSDOF 9
