REMARK  1 active torsions:
REMARK  status: ('A' for Active; 'I' for Inactive)
REMARK    1  A    between atoms: C7_8  and  C10_13 
ROOT
HETATM    1  C1  UNL     1      -3.386  -2.183   1.780  1.00  0.00     0.133 A 
HETATM    2  C2  UNL     1      -2.976  -3.320   1.196  1.00  0.00     0.027 A 
HETATM    3  C3  UNL     1      -1.910  -3.322   0.385  1.00  0.00     0.002 A 
HETATM    4  C4  UNL     1      -1.220  -2.194   0.143  1.00  0.00     0.033 A 
HETATM    5  C5  UNL     1      -1.599  -1.036   0.726  1.00  0.00     0.095 A 
HETATM    6  C6  UNL     1      -2.686  -1.067   1.521  1.00  0.00     0.051 A 
HETATM    7  O1  UNL     1      -0.969   0.166   0.513  1.00  0.00    -0.326 OA
HETATM    8  C7  UNL     1      -0.091   0.224  -0.584  1.00  0.00     0.177 C 
HETATM    9  C8  UNL     1       0.815  -0.991  -0.563  1.00  0.00     0.218 C 
HETATM   10  C9  UNL     1      -0.023  -2.232  -0.781  1.00  0.00     0.209 C 
HETATM   11  O2  UNL     1       0.807  -3.356  -0.559  1.00  0.00    -0.216 OA
HETATM   12  O3  UNL     1       1.772  -0.879  -1.585  1.00  0.00    -0.217 OA
HETATM   13  O6  UNL     1      -4.474  -2.170   2.596  1.00  0.00    -0.190 OA
ENDROOT
BRANCH   8  14
HETATM   14  C10 UNL     1       0.735   1.497  -0.552  1.00  0.00     0.010 A 
HETATM   15  C11 UNL     1       0.713   2.369  -1.574  1.00  0.00     0.000 A 
HETATM   16  C12 UNL     1       1.454   3.486  -1.535  1.00  0.00     0.029 A 
HETATM   17  C13 UNL     1       2.242   3.760  -0.483  1.00  0.00     0.156 A 
HETATM   18  C14 UNL     1       2.282   2.892   0.543  1.00  0.00     0.156 A 
HETATM   19  O5  UNL     1       2.990   4.894  -0.447  1.00  0.00    -0.188 OA
HETATM   20  C15 UNL     1       1.530   1.780   0.494  1.00  0.00     0.028 A 
HETATM   21  O4  UNL     1       3.079   3.161   1.612  1.00  0.00    -0.188 OA
ENDBRANCH   8  14
TORSDOF 1
