REMARK  5 active torsions:
REMARK  status: ('A' for Active; 'I' for Inactive)
REMARK    1  A    between atoms: C10_11  and  C14_16 
REMARK    2  A    between atoms: C14_16  and  C15_17 
REMARK    3  A    between atoms: C16_18  and  C18_20 
REMARK    4  A    between atoms: C18_20  and  C19_21 
REMARK    5  A    between atoms: C19_21  and  C20_22 
ROOT
HETATM    1  C1  UNL     1       0.993   5.197  -4.314  1.00  0.00     0.030 A 
HETATM    2  C2  UNL     1       0.975   5.547  -3.020  1.00  0.00     0.158 A 
HETATM    3  C3  UNL     1       1.052   4.584  -2.084  1.00  0.00     0.179 A 
HETATM    4  C4  UNL     1       1.151   3.284  -2.431  1.00  0.00     0.130 A 
HETATM    5  C5  UNL     1       1.179   2.949  -3.735  1.00  0.00     0.064 A 
HETATM    6  C6  UNL     1       1.093   3.910  -4.672  1.00  0.00     0.007 A 
HETATM    7  C7  UNL     1       1.301   1.643  -4.098  1.00  0.00     0.199 A 
HETATM    8  C8  UNL     1       1.416   0.698  -3.123  1.00  0.00     0.062 A 
HETATM    9  C9  UNL     1       1.381   1.049  -1.822  1.00  0.00     0.101 A 
HETATM   10  O1  UNL     1       1.221   2.349  -1.442  1.00  0.00    -0.305 OA
HETATM   11  C10 UNL     1       1.502   0.090  -0.875  1.00  0.00     0.030 A 
HETATM   12  C11 UNL     1       1.683  -1.204  -1.214  1.00  0.00     0.129 A 
HETATM   13  C12 UNL     1       1.709  -1.528  -2.515  1.00  0.00     0.027 A 
HETATM   14  C13 UNL     1       1.573  -0.593  -3.464  1.00  0.00     0.007 A 
HETATM   15  O2  UNL     1       1.833  -2.181  -0.276  1.00  0.00    -0.190 OA
HETATM   16  O3  UNL     1       1.326   1.334  -5.270  1.00  0.00    -0.286 OA
HETATM   17  O4  UNL     1       1.031   4.948  -0.772  1.00  0.00    -0.186 OA
HETATM   18  O5  UNL     1       0.881   6.852  -2.653  1.00  0.00    -0.188 OA
ENDROOT
BRANCH  11  19
HETATM   19  C14 UNL     1       1.442   0.463   0.600  1.00  0.00     0.056 C 
BRANCH  19  20
HETATM   20  C15 UNL     1       0.338  -0.272   1.322  1.00  0.00    -0.030 C 
HETATM   21  C16 UNL     1       0.155  -0.290   2.654  1.00  0.00    -0.048 C 
HETATM   22  C17 UNL     1       0.991   0.533   3.608  1.00  0.00     0.026 C 
BRANCH  21  23
HETATM   23  C18 UNL     1      -0.913  -1.126   3.335  1.00  0.00     0.026 C 
BRANCH  23  24
HETATM   24  C19 UNL     1      -1.548  -2.241   2.488  1.00  0.00     0.030 C 
BRANCH  24  25
HETATM   25  C20 UNL     1      -2.445  -3.152   3.291  1.00  0.00    -0.034 C 
HETATM   26  C21 UNL     1      -3.024  -4.271   2.822  1.00  0.00    -0.048 C 
HETATM   27  C22 UNL     1      -3.883  -5.144   3.707  1.00  0.00     0.026 C 
HETATM   28  C23 UNL     1      -2.876  -4.761   1.401  1.00  0.00     0.026 C 
ENDBRANCH  24  25
ENDBRANCH  23  24
ENDBRANCH  21  23
ENDBRANCH  19  20
ENDBRANCH  11  19
TORSDOF 5
