REMARK  1 active torsions:
REMARK  status: ('A' for Active; 'I' for Inactive)
REMARK    1  A    between atoms: C8_8  and  C10_12 
ROOT
HETATM    1  C1  UNL     1      -3.972  -0.077   0.062  1.00  0.00     0.133 A 
HETATM    2  C2  UNL     1      -3.924  -1.415  -0.006  1.00  0.00     0.055 A 
HETATM    3  C3  UNL     1      -2.779  -2.118  -0.090  1.00  0.00     0.138 A 
HETATM    4  C4  UNL     1      -1.611  -1.432  -0.080  1.00  0.00     0.085 A 
HETATM    5  C5  UNL     1      -1.632  -0.086  -0.026  1.00  0.00    -0.010 A 
HETATM    6  C6  UNL     1      -2.801   0.573   0.042  1.00  0.00     0.024 A 
HETATM    7  C7  UNL     1      -0.357   0.713  -0.120  1.00  0.00     0.061 C 
HETATM    8  C8  UNL     1       0.818  -0.077   0.431  1.00  0.00     0.151 C 
HETATM    9  O1  UNL     1       0.814  -1.397  -0.040  1.00  0.00    -0.296 OA
HETATM   10  C9  UNL     1      -0.389  -2.039  -0.156  1.00  0.00     0.298 C 
HETATM   11  O2  UNL     1      -0.330  -3.236  -0.346  1.00  0.00    -0.259 OA
HETATM   12  O3  UNL     1      -2.893  -3.477  -0.129  1.00  0.00    -0.190 OA
HETATM   13  O4  UNL     1      -5.151   0.598   0.130  1.00  0.00    -0.190 OA
ENDROOT
BRANCH   8  14
HETATM   14  C10 UNL     1       2.163   0.577   0.166  1.00  0.00     0.005 A 
HETATM   15  C11 UNL     1       2.975   0.937   1.177  1.00  0.00    -0.002 A 
HETATM   16  C12 UNL     1       4.166   1.509   0.941  1.00  0.00    -0.000 A 
HETATM   17  C13 UNL     1       4.566   1.734  -0.320  1.00  0.00    -0.000 A 
HETATM   18  C14 UNL     1       3.770   1.377  -1.338  1.00  0.00    -0.000 A 
HETATM   19  C15 UNL     1       2.583   0.799  -1.093  1.00  0.00    -0.002 A 
ENDBRANCH   8  14
TORSDOF 1
