REMARK  1 active torsions:
REMARK  status: ('A' for Active; 'I' for Inactive)
REMARK    1  A    between atoms: C16_16  and  C25_25 
ROOT
HETATM    1  C1  UNL     1      -0.609  -1.408  -2.529  1.00  0.00     0.065 C 
HETATM    2  C2  UNL     1      -0.762  -2.765  -1.205  1.00  0.00     0.150 C 
HETATM    3  C3  UNL     1      -2.461  -2.801  -0.220  1.00  0.00     0.051 C 
HETATM    4  C4  UNL     1      -3.590  -1.846  -0.994  1.00  0.00     0.006 C 
HETATM    5  C5  UNL     1      -3.117  -0.364  -1.512  1.00  0.00     0.001 C 
HETATM    6  C6  UNL     1      -2.034  -0.363  -2.804  1.00  0.00     0.008 C 
HETATM    7  C7  UNL     1      -2.038   0.155  -0.583  1.00  0.00     0.000 C 
HETATM    8  C8  UNL     1      -1.279  -1.163  -0.615  1.00  0.00     0.000 C 
HETATM    9  C9  UNL     1      -2.228  -2.299  -2.082  1.00  0.00     0.000 C 
HETATM   10  C10 UNL     1      -3.761  -2.475  -2.309  1.00  0.00     0.000 C 
HETATM   11  C11 UNL     1       0.438  -0.365  -0.319  1.00  0.00     0.004 C 
HETATM   12  C12 UNL     1       0.436   0.727   0.895  1.00  0.00     0.018 C 
HETATM   13  C13 UNL     1      -0.749   1.724   0.839  1.00  0.00     0.004 C 
HETATM   14  C14 UNL     1      -2.149   1.122   0.586  1.00  0.00     0.000 C 
HETATM   15  C15 UNL     1       1.825   1.389   1.145  1.00  0.00    -0.040 C 
HETATM   16  C16 UNL     1       3.098   0.526   1.223  1.00  0.00     0.093 C 
HETATM   17  C17 UNL     1       3.048  -0.741   0.342  1.00  0.00     0.014 C 
HETATM   18  C18 UNL     1       1.625  -1.300   0.216  1.00  0.00     0.001 C 
HETATM   19  C19 UNL     1       4.316   1.332   0.701  1.00  0.00     0.014 C 
HETATM   20  C20 UNL     1       4.460   2.660   1.442  1.00  0.00     0.005 C 
HETATM   21  C21 UNL     1       3.217   3.543   1.235  1.00  0.00     0.018 C 
HETATM   22  C22 UNL     1       1.937   2.727   1.265  1.00  0.00    -0.035 C 
HETATM   23  C23 UNL     1       3.156   4.615   2.349  1.00  0.00     0.004 C 
HETATM   24  C24 UNL     1       3.232   4.184  -0.180  1.00  0.00     0.004 C 
HETATM   25  C26 UNL     1       1.229   0.496  -1.391  1.00  0.00     0.000 C 
HETATM   26  C27 UNL     1      -0.745  -1.940   0.868  1.00  0.00     0.000 C 
HETATM   27  C28 UNL     1      -4.368   0.520  -1.648  1.00  0.00     0.000 C 
HETATM   28  C29 UNL     1      -2.673  -4.319   0.089  1.00  0.00     0.007 C 
HETATM   29  C30 UNL     1      -3.105  -2.037   1.146  1.00  0.00     0.007 C 
HETATM   30  O3  UNL     1       0.013  -3.705  -1.244  1.00  0.00    -0.296 OA
ENDROOT
BRANCH  16  31
HETATM   31  C25 UNL     1       3.430   0.077   2.657  1.00  0.00     0.188 C 
HETATM   32  O1  UNL     1       2.353  -0.216   3.394  1.00  0.00    -0.647 OA
HETATM   33  O2  UNL     1       4.540  -0.035   3.121  1.00  0.00    -0.647 OA
ENDBRANCH  16  31
TORSDOF 1
