REMARK  3 active torsions:
REMARK  status: ('A' for Active; 'I' for Inactive)
REMARK    1  A    between atoms: C2_2  and  C19_25 
REMARK    2  A    between atoms: C8_8  and  C9_10 
REMARK    3  A    between atoms: C19_25  and  C20_26 
ROOT
HETATM    1  C1  UNL     1      -0.012  -0.459  -0.544  1.00  0.00     0.090 A 
HETATM    2  C2  UNL     1      -1.034  -1.280  -0.273  1.00  0.00     0.030 A 
HETATM    3  C3  UNL     1      -2.250  -0.747  -0.008  1.00  0.00     0.134 A 
HETATM    4  C4  UNL     1      -2.410   0.605  -0.018  1.00  0.00     0.087 A 
HETATM    5  C5  UNL     1      -1.369   1.427  -0.276  1.00  0.00     0.103 A 
HETATM    6  C6  UNL     1      -0.180   0.862  -0.533  1.00  0.00     0.025 A 
HETATM    7  C7  UNL     1       1.109   1.568  -0.830  1.00  0.00     0.063 A 
HETATM    8  C8  UNL     1       1.978   0.316  -1.073  1.00  0.00     0.153 A 
HETATM    9  O1  UNL     1       1.136  -0.808  -0.813  1.00  0.00    -0.331 OA
HETATM   10  O3  UNL     1      -1.446   2.786  -0.291  1.00  0.00    -0.305 OA
HETATM   11  C12 UNL     1      -2.672   3.322  -0.049  1.00  0.00     0.128 A 
HETATM   12  C13 UNL     1      -3.741   2.549   0.217  1.00  0.00     0.064 A 
HETATM   13  C14 UNL     1      -3.618   1.190   0.242  1.00  0.00     0.201 A 
HETATM   14  O4  UNL     1      -4.604   0.538   0.500  1.00  0.00    -0.286 OA
HETATM   15  C15 UNL     1      -4.936   3.124   0.456  1.00  0.00     0.005 A 
HETATM   16  C16 UNL     1      -5.071   4.457   0.429  1.00  0.00     0.002 A 
HETATM   17  C17 UNL     1      -4.004   5.220   0.164  1.00  0.00     0.029 A 
HETATM   18  C18 UNL     1      -2.805   4.666  -0.074  1.00  0.00     0.154 A 
HETATM   19  O5  UNL     1      -1.734   5.463  -0.340  1.00  0.00    -0.188 OA
HETATM   20  O6  UNL     1      -3.266  -1.629   0.225  1.00  0.00    -0.190 OA
ENDROOT
BRANCH   2  21
HETATM   21  C19 UNL     1      -0.774  -2.777  -0.277  1.00  0.00     0.056 C 
BRANCH  21  22
HETATM   22  C20 UNL     1       0.272  -3.119   0.757  1.00  0.00    -0.030 C 
HETATM   23  C21 UNL     1       1.347  -3.913   0.602  1.00  0.00    -0.048 C 
HETATM   24  C22 UNL     1       2.331  -4.118   1.731  1.00  0.00     0.026 C 
HETATM   25  C23 UNL     1       1.698  -4.656  -0.665  1.00  0.00     0.026 C 
ENDBRANCH  21  22
ENDBRANCH   2  21
BRANCH   8  26
HETATM   26  C9  UNL     1       3.273   0.224  -0.256  1.00  0.00     0.152 C 
HETATM   27  C10 UNL     1       4.154  -0.916  -0.776  1.00  0.00     0.036 C 
HETATM   28  C11 UNL     1       3.012   0.032   1.240  1.00  0.00     0.036 C 
HETATM   29  O2  UNL     1       3.985   1.421  -0.427  1.00  0.00    -0.224 OA
ENDBRANCH   8  26
TORSDOF 3
