REMARK  3 active torsions:
REMARK  status: ('A' for Active; 'I' for Inactive)
REMARK    1  A    between atoms: C6_6  and  C7_7 
REMARK    2  A    between atoms: C7_7  and  C8_8 
REMARK    3  A    between atoms: C20_25  and  C21_27 
ROOT
HETATM    1  C1  UNL     1       1.457  -0.272   0.362  1.00  0.00     0.090 A 
HETATM    2  C2  UNL     1       1.593  -1.585   0.546  1.00  0.00     0.028 A 
HETATM    3  C3  UNL     1       0.546  -2.416   0.660  1.00  0.00     0.134 A 
HETATM    4  C4  UNL     1      -0.690  -1.865   0.561  1.00  0.00     0.087 A 
HETATM    5  C5  UNL     1      -0.839  -0.535   0.358  1.00  0.00     0.103 A 
HETATM    6  C6  UNL     1       0.240   0.275   0.249  1.00  0.00     0.027 A 
HETATM    7  O1  UNL     1      -2.068   0.042   0.265  1.00  0.00    -0.305 OA
HETATM    8  C12 UNL     1      -3.158  -0.764   0.364  1.00  0.00     0.130 A 
HETATM    9  C13 UNL     1      -3.062  -2.094   0.568  1.00  0.00     0.089 A 
HETATM   10  C14 UNL     1      -1.813  -2.637   0.674  1.00  0.00     0.203 A 
HETATM   11  O2  UNL     1      -1.701  -3.821   0.880  1.00  0.00    -0.286 OA
HETATM   12  C15 UNL     1      -4.183  -2.850   0.670  1.00  0.00     0.136 A 
HETATM   13  C16 UNL     1      -5.372  -2.236   0.543  1.00  0.00     0.030 A 
HETATM   14  C17 UNL     1      -5.471  -0.920   0.337  1.00  0.00     0.032 A 
HETATM   15  C18 UNL     1      -4.364  -0.172   0.247  1.00  0.00     0.154 A 
HETATM   16  O3  UNL     1      -4.468   1.169   0.034  1.00  0.00    -0.188 OA
HETATM   17  O4  UNL     1      -4.217  -4.204   0.852  1.00  0.00    -0.190 OA
HETATM   18  O5  UNL     1       0.827  -3.741   0.823  1.00  0.00    -0.190 OA
HETATM   19  C19 UNL     1       3.045  -1.966   0.580  1.00  0.00     0.063 C 
HETATM   20  C20 UNL     1       3.630  -0.538   0.602  1.00  0.00     0.153 C 
HETATM   21  O6  UNL     1       2.530   0.328   0.310  1.00  0.00    -0.331 OA
ENDROOT
BRANCH   6  22
HETATM   22  C7  UNL     1       0.097   1.776   0.051  1.00  0.00     0.056 C 
BRANCH  22  23
HETATM   23  C8  UNL     1      -0.899   2.159  -1.016  1.00  0.00    -0.030 C 
HETATM   24  C9  UNL     1      -1.768   3.185  -0.971  1.00  0.00    -0.048 C 
HETATM   25  C10 UNL     1      -2.748   3.430  -2.095  1.00  0.00     0.026 C 
HETATM   26  C11 UNL     1      -1.874   4.174   0.166  1.00  0.00     0.026 C 
ENDBRANCH  22  23
ENDBRANCH   6  22
BRANCH  20  27
HETATM   27  C21 UNL     1       4.875  -0.244  -0.258  1.00  0.00     0.152 C 
HETATM   28  C22 UNL     1       6.066   0.145   0.626  1.00  0.00     0.036 C 
HETATM   29  C23 UNL     1       4.631   0.853  -1.297  1.00  0.00     0.036 C 
HETATM   30  O7  UNL     1       5.257  -1.396  -0.964  1.00  0.00    -0.224 OA
ENDBRANCH  20  27
TORSDOF 3
