REMARK  10 active torsions:
REMARK  status: ('A' for Active; 'I' for Inactive)
REMARK    1  A    between atoms: C5_5  and  C7_7 
REMARK    2  A    between atoms: C7_7  and  O1_8 
REMARK    3  A    between atoms: O1_8  and  C8_9 
REMARK    4  A    between atoms: C8_9  and  C9_10 
REMARK    5  A    between atoms: C8_9  and  C11_14 
REMARK    6  A    between atoms: C9_10  and  O2_11 
REMARK    7  A    between atoms: C11_14  and  C12_15 
REMARK    8  A    between atoms: C12_15  and  C13_16 
REMARK    9  A    between atoms: C13_16  and  C14_18 
REMARK   10  A    between atoms: C14_18  and  O6_20 
ROOT
HETATM    1  C8  UNL     1      -0.855   0.973  -0.904  1.00  0.00     0.243 C 
ENDROOT
BRANCH   1   2
HETATM    2  O1  UNL     1      -1.337  -0.342  -0.792  1.00  0.00    -0.288 OA
BRANCH   2   3
HETATM    3  C7  UNL     1      -0.640  -1.496  -0.525  1.00  0.00     0.296 C 
HETATM    4  O9  UNL     1      -1.355  -2.479  -0.449  1.00  0.00    -0.259 OA
BRANCH   3   5
HETATM    5  C5  UNL     1       0.698  -1.735  -0.339  1.00  0.00     0.067 A 
HETATM    6  C4  UNL     1       1.108  -2.993  -0.070  1.00  0.00     0.035 A 
HETATM    7  C3  UNL     1       2.396  -3.319   0.126  1.00  0.00     0.158 A 
HETATM    8  C2  UNL     1       3.336  -2.363   0.055  1.00  0.00     0.181 A 
HETATM    9  O10 UNL     1       2.752  -4.604   0.394  1.00  0.00    -0.188 OA
HETATM   10  C1  UNL     1       2.973  -1.097  -0.212  1.00  0.00     0.158 A 
HETATM   11  O11 UNL     1       4.640  -2.699   0.252  1.00  0.00    -0.186 OA
HETATM   12  C6  UNL     1       1.673  -0.812  -0.406  1.00  0.00     0.035 A 
HETATM   13  O12 UNL     1       3.909  -0.111  -0.298  1.00  0.00    -0.188 OA
ENDBRANCH   3   5
ENDBRANCH   2   3
ENDBRANCH   1   2
BRANCH   1  14
HETATM   14  C9  UNL     1      -0.122   1.260  -2.219  1.00  0.00     0.303 C 
HETATM   15  O3  UNL     1       0.427   2.314  -2.452  1.00  0.00    -0.261 OA
BRANCH  14  16
HETATM   16  O2  UNL     1      -0.102   0.180  -3.042  1.00  0.00    -0.297 OA
HETATM   17  C10 UNL     1       0.645   0.316  -4.227  1.00  0.00     0.185 C 
ENDBRANCH  14  16
ENDBRANCH   1  14
BRANCH   1  18
HETATM   18  C11 UNL     1      -2.043   1.927  -0.735  1.00  0.00     0.223 C 
HETATM   19  O8  UNL     1      -3.096   1.471  -1.552  1.00  0.00    -0.217 OA
BRANCH  18  20
HETATM   20  C12 UNL     1      -2.586   2.156   0.677  1.00  0.00     0.225 C 
HETATM   21  O7  UNL     1      -3.924   2.584   0.542  1.00  0.00    -0.217 OA
BRANCH  20  22
HETATM   22  C13 UNL     1      -2.578   0.993   1.663  1.00  0.00     0.270 C 
HETATM   23  O4  UNL     1      -3.419   1.341   2.751  1.00  0.00    -0.210 OA
BRANCH  22  24
HETATM   24  C14 UNL     1      -1.208   0.612   2.220  1.00  0.00     0.305 C 
HETATM   25  O5  UNL     1      -0.832  -0.529   2.367  1.00  0.00    -0.261 OA
BRANCH  24  26
HETATM   26  O6  UNL     1      -0.474   1.711   2.535  1.00  0.00    -0.297 OA
HETATM   27  C15 UNL     1       0.821   1.482   3.037  1.00  0.00     0.185 C 
ENDBRANCH  24  26
ENDBRANCH  22  24
ENDBRANCH  20  22
ENDBRANCH  18  20
ENDBRANCH   1  18
TORSDOF 10
