REMARK  8 active torsions:
REMARK  status: ('A' for Active; 'I' for Inactive)
REMARK    1  A    between atoms: C3_3  and  O9_22 
REMARK    2  A    between atoms: C4_4  and  C5_6 
REMARK    3  A    between atoms: C5_6  and  C6_7 
REMARK    4  A    between atoms: C5_6  and  O4_10 
REMARK    5  A    between atoms: O4_10  and  C7_11 
REMARK    6  A    between atoms: C7_11  and  C8_12 
REMARK    7  A    between atoms: O9_22  and  C14_23 
REMARK    8  A    between atoms: C14_23  and  C15_24 
ROOT
HETATM    1  C1  UNL     1      -0.859   2.044  -2.099  1.00  0.00     0.305 C 
HETATM    2  C2  UNL     1      -1.334   0.634  -1.407  1.00  0.00     0.267 C 
HETATM    3  C3  UNL     1       0.191   0.524  -0.713  1.00  0.00     0.195 C 
HETATM    4  C4  UNL     1       0.621   1.947  -0.368  1.00  0.00     0.193 C 
HETATM    5  O1  UNL     1      -0.003   2.749  -1.319  1.00  0.00    -0.297 OA
HETATM    6  O14 UNL     1      -3.108   0.253  -0.571  1.00  0.00    -0.210 OA
HETATM    7  O15 UNL     1      -1.215   2.463  -3.181  1.00  0.00    -0.261 OA
ENDROOT
BRANCH   4   8
HETATM    8  C5  UNL     1       0.465   2.379   1.131  1.00  0.00     0.241 C 
BRANCH   8   9
HETATM    9  C6  UNL     1       1.431   3.507   1.501  1.00  0.00     0.217 C 
HETATM   10  O2  UNL     1       1.507   4.461   0.566  1.00  0.00    -0.646 OA
HETATM   11  O3  UNL     1       2.085   3.559   2.517  1.00  0.00    -0.646 OA
ENDBRANCH   8   9
BRANCH   8  12
HETATM   12  O4  UNL     1      -0.839   2.624   1.654  1.00  0.00    -0.288 OA
BRANCH  12  13
HETATM   13  C7  UNL     1      -1.793   2.689   0.700  1.00  0.00     0.289 C 
HETATM   14  O8  UNL     1      -2.319   3.751   0.446  1.00  0.00    -0.260 OA
BRANCH  13  15
HETATM   15  C8  UNL     1      -2.114   1.597  -0.050  1.00  0.00     0.032 C 
HETATM   16  C9  UNL     1      -2.890   1.796  -1.357  1.00  0.00     0.084 C 
HETATM   17  C10 UNL     1      -3.072   0.626  -2.323  1.00  0.00     0.140 C 
HETATM   18  C11 UNL     1      -2.584  -0.762  -1.950  1.00  0.00     0.174 C 
HETATM   19  O7  UNL     1      -3.756   0.772  -3.488  1.00  0.00    -0.192 OA
HETATM   20  C12 UNL     1      -1.836  -1.013  -0.647  1.00  0.00     0.140 C 
HETATM   21  O6  UNL     1      -2.808  -1.792  -2.795  1.00  0.00    -0.186 OA
HETATM   22  C13 UNL     1      -1.671   0.159   0.358  1.00  0.00     0.084 C 
HETATM   23  O5  UNL     1      -1.521  -2.302  -0.314  1.00  0.00    -0.192 OA
ENDBRANCH  13  15
ENDBRANCH  12  13
ENDBRANCH   8  12
ENDBRANCH   4   8
BRANCH   3  24
HETATM   24  O9  UNL     1       1.131  -0.111  -1.565  1.00  0.00    -0.295 OA
BRANCH  24  25
HETATM   25  C14 UNL     1       2.257  -0.711  -1.041  1.00  0.00     0.296 C 
HETATM   26  O13 UNL     1       3.253  -0.585  -1.723  1.00  0.00    -0.259 OA
BRANCH  25  27
HETATM   27  C15 UNL     1       2.378  -1.464   0.102  1.00  0.00     0.067 A 
HETATM   28  C16 UNL     1       3.572  -1.858   0.588  1.00  0.00     0.035 A 
HETATM   29  C17 UNL     1       3.689  -2.564   1.730  1.00  0.00     0.158 A 
HETATM   30  C18 UNL     1       2.594  -2.894   2.441  1.00  0.00     0.181 A 
HETATM   31  O12 UNL     1       4.906  -2.930   2.217  1.00  0.00    -0.188 OA
HETATM   32  C19 UNL     1       1.383  -2.555   1.975  1.00  0.00     0.158 A 
HETATM   33  O11 UNL     1       2.689  -3.560   3.623  1.00  0.00    -0.186 OA
HETATM   34  C20 UNL     1       1.328  -1.876   0.825  1.00  0.00     0.035 A 
HETATM   35  O10 UNL     1       0.233  -2.880   2.631  1.00  0.00    -0.188 OA
ENDBRANCH  25  27
ENDBRANCH  24  25
ENDBRANCH   3  24
TORSDOF 8
