REMARK  5 active torsions:
REMARK  status: ('A' for Active; 'I' for Inactive)
REMARK    1  A    between atoms: C5_5  and  C7_7 
REMARK    2  A    between atoms: C7_7  and  O2_9 
REMARK    3  A    between atoms: O2_9  and  C8_10 
REMARK    4  A    between atoms: C10_13  and  C12_16 
REMARK    5  A    between atoms: C12_16  and  C13_18 
ROOT
HETATM    1  C8  UNL     1       1.045   1.227   0.013  1.00  0.00     0.243 C 
HETATM    2  C9  UNL     1       0.626   2.691   0.059  1.00  0.00     0.303 C 
HETATM    3  O3  UNL     1       1.069   3.243   1.217  1.00  0.00    -0.296 OA
HETATM    4  C10 UNL     1       1.721   2.292   2.005  1.00  0.00     0.198 C 
HETATM    5  C11 UNL     1       1.296   0.929   1.479  1.00  0.00     0.220 C 
HETATM    6  O4  UNL     1       2.334  -0.002   1.658  1.00  0.00    -0.217 OA
HETATM    7  O8  UNL     1       0.010   3.276  -0.805  1.00  0.00    -0.261 OA
ENDROOT
BRANCH   1   8
HETATM    8  O2  UNL     1       0.056   0.441  -0.608  1.00  0.00    -0.288 OA
BRANCH   8   9
HETATM    9  C7  UNL     1       0.234  -0.912  -0.706  1.00  0.00     0.296 C 
HETATM   10  O1  UNL     1       1.014  -1.457   0.043  1.00  0.00    -0.259 OA
BRANCH   9  11
HETATM   11  C5  UNL     1      -0.353  -1.652  -1.692  1.00  0.00     0.067 A 
HETATM   12  C4  UNL     1      -1.167  -1.075  -2.592  1.00  0.00     0.035 A 
HETATM   13  C3  UNL     1      -1.736  -1.786  -3.579  1.00  0.00     0.158 A 
HETATM   14  C2  UNL     1      -1.494  -3.106  -3.671  1.00  0.00     0.181 A 
HETATM   15  O9  UNL     1      -2.548  -1.181  -4.488  1.00  0.00    -0.188 OA
HETATM   16  C1  UNL     1      -0.689  -3.709  -2.776  1.00  0.00     0.158 A 
HETATM   17  O10 UNL     1      -2.072  -3.816  -4.678  1.00  0.00    -0.186 OA
HETATM   18  C6  UNL     1      -0.130  -2.974  -1.800  1.00  0.00     0.035 A 
HETATM   19  O11 UNL     1      -0.433  -5.044  -2.856  1.00  0.00    -0.188 OA
ENDBRANCH   9  11
ENDBRANCH   8   9
ENDBRANCH   1   8
BRANCH   4  20
HETATM   20  C12 UNL     1       1.463   2.539   3.486  1.00  0.00     0.268 C 
HETATM   21  O5  UNL     1       2.292   3.606   3.925  1.00  0.00    -0.209 OA
BRANCH  20  22
HETATM   22  C13 UNL     1       0.057   2.941   3.886  1.00  0.00     0.220 C 
HETATM   23  O6  UNL     1      -0.911   2.189   3.345  1.00  0.00    -0.645 OA
HETATM   24  O7  UNL     1      -0.153   3.850   4.654  1.00  0.00    -0.645 OA
ENDBRANCH  20  22
ENDBRANCH   4  20
TORSDOF 5
