REMARK  9 active torsions:
REMARK  status: ('A' for Active; 'I' for Inactive)
REMARK    1  A    between atoms: C2_2  and  O4_33 
REMARK    2  A    between atoms: C3_3  and  C20_23 
REMARK    3  A    between atoms: C7_8  and  C9_10 
REMARK    4  A    between atoms: C10_11  and  C15_18 
REMARK    5  A    between atoms: C15_18  and  C16_19 
REMARK    6  A    between atoms: C20_23  and  C21_24 
REMARK    7  A    between atoms: C22_25  and  C23_26 
REMARK    8  A    between atoms: C23_26  and  C24_27 
REMARK    9  A    between atoms: C24_27  and  C25_28 
ROOT
HETATM    1  C1  UNL     1      -3.816   1.149   1.991  1.00  0.00     0.155 A 
HETATM    2  C2  UNL     1      -3.571  -0.152   2.283  1.00  0.00     0.116 A 
HETATM    3  C3  UNL     1      -2.542  -0.802   1.685  1.00  0.00     0.009 A 
HETATM    4  C4  UNL     1      -1.876  -0.136   0.728  1.00  0.00     0.023 A 
HETATM    5  C5  UNL     1      -2.139   1.130   0.406  1.00  0.00     0.102 A 
HETATM    6  C6  UNL     1      -3.108   1.791   1.044  1.00  0.00     0.054 A 
HETATM    7  O1  UNL     1      -1.403   1.558  -0.480  1.00  0.00    -0.307 OA
HETATM    8  C7  UNL     1      -0.615   0.669  -0.824  1.00  0.00     0.100 A 
HETATM    9  C8  UNL     1      -0.877  -0.443  -0.106  1.00  0.00     0.026 A 
HETATM   10  O5  UNL     1      -4.803   1.811   2.657  1.00  0.00    -0.188 OA
ENDROOT
BRANCH   8  11
HETATM   11  C9  UNL     1       0.345   0.833  -1.768  1.00  0.00     0.023 A 
HETATM   12  C10 UNL     1       0.515   1.957  -2.509  1.00  0.00     0.010 A 
HETATM   13  C11 UNL     1       1.556   2.054  -3.369  1.00  0.00     0.129 A 
HETATM   14  C12 UNL     1       2.414   1.031  -3.500  1.00  0.00     0.054 A 
HETATM   15  O3  UNL     1       1.781   3.176  -4.111  1.00  0.00    -0.190 OA
HETATM   16  C13 UNL     1       2.261  -0.109  -2.818  1.00  0.00     0.133 A 
HETATM   17  C14 UNL     1       1.224  -0.170  -1.972  1.00  0.00     0.029 A 
HETATM   18  O2  UNL     1       3.141  -1.143  -2.931  1.00  0.00    -0.190 OA
BRANCH  12  19
HETATM   19  C15 UNL     1      -0.419   3.161  -2.439  1.00  0.00     0.054 C 
BRANCH  19  20
HETATM   20  C16 UNL     1      -0.029   4.108  -1.332  1.00  0.00    -0.030 C 
HETATM   21  C17 UNL     1      -0.809   5.065  -0.797  1.00  0.00    -0.048 C 
HETATM   22  C18 UNL     1      -0.291   5.983   0.286  1.00  0.00     0.026 C 
HETATM   23  C19 UNL     1      -2.233   5.335  -1.218  1.00  0.00     0.026 C 
ENDBRANCH  19  20
ENDBRANCH  12  19
ENDBRANCH   8  11
BRANCH   3  24
HETATM   24  C20 UNL     1      -2.189  -2.236   2.047  1.00  0.00     0.054 C 
BRANCH  24  25
HETATM   25  C21 UNL     1      -0.709  -2.530   2.103  1.00  0.00    -0.030 C 
HETATM   26  C22 UNL     1      -0.111  -3.678   1.731  1.00  0.00    -0.048 C 
HETATM   27  C29 UNL     1      -0.847  -4.896   1.222  1.00  0.00     0.026 C 
BRANCH  26  28
HETATM   28  C23 UNL     1       1.402  -3.789   1.688  1.00  0.00     0.026 C 
BRANCH  28  29
HETATM   29  C24 UNL     1       1.915  -3.133   0.397  1.00  0.00     0.030 C 
BRANCH  29  30
HETATM   30  C25 UNL     1       3.359  -3.429   0.088  1.00  0.00    -0.034 C 
HETATM   31  C26 UNL     1       4.380  -2.559  -0.015  1.00  0.00    -0.048 C 
HETATM   32  C27 UNL     1       5.767  -3.043  -0.376  1.00  0.00     0.026 C 
HETATM   33  C28 UNL     1       4.295  -1.069   0.216  1.00  0.00     0.026 C 
ENDBRANCH  29  30
ENDBRANCH  28  29
ENDBRANCH  26  28
ENDBRANCH  24  25
ENDBRANCH   3  24
BRANCH   2  34
HETATM   34  O4  UNL     1      -4.306  -0.739   3.285  1.00  0.00    -0.326 OA
HETATM   35  C30 UNL     1      -5.411  -1.482   2.818  1.00  0.00     0.181 C 
ENDBRANCH   2  34
TORSDOF 9
