REMARK  2 active torsions:
REMARK  status: ('A' for Active; 'I' for Inactive)
REMARK    1  A    between atoms: C2_2  and  C18_20 
REMARK    2  A    between atoms: C3_3  and  C17_17 
ROOT
HETATM    1  C1  UNL     1      -2.984  -0.100   0.269  1.00  0.00     0.001 C 
HETATM    2  C2  UNL     1      -2.257  -1.267  -0.439  1.00  0.00     0.010 C 
HETATM    3  C3  UNL     1      -0.766  -1.024  -0.075  1.00  0.00     0.079 C 
HETATM    4  C4  UNL     1      -0.680   0.512  -0.230  1.00  0.00     0.014 C 
HETATM    5  C5  UNL     1      -1.982   1.065   0.372  1.00  0.00     0.001 C 
HETATM    6  C6  UNL     1       0.666   1.143   0.191  1.00  0.00     0.023 C 
HETATM    7  C7  UNL     1       1.864   0.322  -0.353  1.00  0.00     0.008 C 
HETATM    8  C8  UNL     1       1.396  -0.659  -1.458  1.00  0.00     0.001 C 
HETATM    9  C9  UNL     1       0.270  -1.631  -1.050  1.00  0.00     0.010 C 
HETATM   10  C10 UNL     1       2.927   1.244  -0.969  1.00  0.00     0.026 C 
HETATM   11  C11 UNL     1       3.531   2.221   0.003  1.00  0.00    -0.030 C 
HETATM   12  C12 UNL     1       2.909   3.331   0.433  1.00  0.00    -0.026 C 
HETATM   13  C13 UNL     1       1.603   3.543   0.198  1.00  0.00    -0.009 C 
HETATM   14  C14 UNL     1       0.634   2.644  -0.048  1.00  0.00    -0.027 C 
HETATM   15  C15 UNL     1       3.740   4.446   1.036  1.00  0.00     0.031 C 
HETATM   16  C16 UNL     1       2.570  -0.478   0.768  1.00  0.00     0.001 C 
ENDROOT
BRANCH   2  17
HETATM   17  C18 UNL     1      -2.893  -2.642  -0.127  1.00  0.00     0.001 C 
HETATM   18  C19 UNL     1      -4.399  -2.655  -0.458  1.00  0.00     0.000 C 
HETATM   19  C20 UNL     1      -2.219  -3.795  -0.891  1.00  0.00     0.000 C 
ENDBRANCH   2  17
BRANCH   3  20
HETATM   20  C17 UNL     1      -0.536  -1.586   1.333  1.00  0.00     0.184 C 
HETATM   21  O1  UNL     1      -0.742  -0.710   2.329  1.00  0.00    -0.647 OA
HETATM   22  O2  UNL     1      -0.216  -2.720   1.601  1.00  0.00    -0.647 OA
ENDBRANCH   3  20
TORSDOF 2
