REMARK  2 active torsions:
REMARK  status: ('A' for Active; 'I' for Inactive)
REMARK    1  A    between atoms: C2_2  and  C20_21 
REMARK    2  A    between atoms: C14_15  and  C17_18 
ROOT
HETATM    1  C1  UNL     1      -0.780   0.458  -0.023  1.00  0.00     0.010 C 
HETATM    2  C2  UNL     1      -0.820  -1.083   0.081  1.00  0.00     0.078 C 
HETATM    3  C3  UNL     1      -0.074  -1.634  -1.156  1.00  0.00     0.010 C 
HETATM    4  C4  UNL     1       0.898  -0.630  -1.809  1.00  0.00     0.001 C 
HETATM    5  C5  UNL     1       1.643   0.323  -0.838  1.00  0.00     0.008 C 
HETATM    6  C6  UNL     1       0.622   1.098   0.043  1.00  0.00     0.005 C 
HETATM    7  C7  UNL     1       0.519   2.599  -0.290  1.00  0.00     0.026 C 
HETATM    8  C8  UNL     1       1.723   3.389   0.155  1.00  0.00    -0.028 C 
HETATM    9  C9  UNL     1       3.021   3.178  -0.124  1.00  0.00     0.009 C 
HETATM   10  C10 UNL     1       3.456   2.191  -0.952  1.00  0.00     0.169 C 
HETATM   11  C11 UNL     1       2.511   1.267  -1.704  1.00  0.00     0.069 C 
HETATM   12  O1  UNL     1       4.645   2.053  -1.143  1.00  0.00    -0.292 OA
HETATM   13  C12 UNL     1       4.070   4.073   0.509  1.00  0.00     0.034 C 
HETATM   14  C13 UNL     1       2.618  -0.501   0.035  1.00  0.00     0.001 C 
HETATM   15  C14 UNL     1      -2.357  -1.317   0.107  1.00  0.00     0.010 C 
HETATM   16  C15 UNL     1      -2.858  -0.200   1.053  1.00  0.00     0.001 C 
HETATM   17  C16 UNL     1      -1.868   0.972   0.932  1.00  0.00     0.001 C 
ENDROOT
BRANCH   2  18
HETATM   18  C20 UNL     1      -0.231  -1.707   1.350  1.00  0.00     0.184 C 
HETATM   19  O2  UNL     1      -0.094  -0.860   2.383  1.00  0.00    -0.647 OA
HETATM   20  O3  UNL     1       0.094  -2.863   1.486  1.00  0.00    -0.647 OA
ENDBRANCH   2  18
BRANCH  15  21
HETATM   21  C17 UNL     1      -2.904  -2.713   0.485  1.00  0.00     0.001 C 
HETATM   22  C18 UNL     1      -4.444  -2.707   0.577  1.00  0.00     0.000 C 
HETATM   23  C19 UNL     1      -2.483  -3.802  -0.516  1.00  0.00     0.000 C 
ENDBRANCH  15  21
TORSDOF 2
