REMARK  27 active torsions:
REMARK  status: ('A' for Active; 'I' for Inactive)
REMARK    1  A    between atoms: C1_1  and  C2_2 
REMARK    2  A    between atoms: C1_1  and  C6_6 
REMARK    3  A    between atoms: C2_2  and  C3_3 
REMARK    4  A    between atoms: C3_3  and  C4_4 
REMARK    5  A    between atoms: C7_7  and  C8_8 
REMARK    6  A    between atoms: C8_8  and  C9_9 
REMARK    7  A    between atoms: C9_9  and  C10_10 
REMARK    8  A    between atoms: C10_10  and  C11_12 
REMARK    9  A    between atoms: C11_12  and  C12_13 
REMARK   10  A    between atoms: C12_13  and  C13_14 
REMARK   11  A    between atoms: C13_14  and  C14_15 
REMARK   12  A    between atoms: C14_15  and  C15_16 
REMARK   13  A    between atoms: C15_16  and  C16_17 
REMARK   14  A    between atoms: C16_17  and  C17_18 
REMARK   15  A    between atoms: C18_20  and  C21_23 
REMARK   16  A    between atoms: C21_23  and  C22_24 
REMARK   17  A    between atoms: C22_24  and  C23_25 
REMARK   18  A    between atoms: C23_25  and  C24_26 
REMARK   19  A    between atoms: C24_26  and  C25_27 
REMARK   20  A    between atoms: C25_27  and  C26_28 
REMARK   21  A    between atoms: C26_28  and  C27_29 
REMARK   22  A    between atoms: C27_29  and  C28_30 
REMARK   23  A    between atoms: C28_30  and  C29_31 
REMARK   24  A    between atoms: C29_31  and  C30_32 
REMARK   25  A    between atoms: C30_32  and  C31_33 
REMARK   26  A    between atoms: C31_33  and  C32_34 
REMARK   27  A    between atoms: C32_34  and  C33_35 
ROOT
HETATM    1  C17 UNL     1       0.417  -0.838  -1.766  1.00  0.00     0.145 C 
HETATM    2  O2  UNL     1       1.555  -1.653  -1.655  1.00  0.00    -0.357 OA
HETATM    3  C18 UNL     1       2.381  -1.089  -0.674  1.00  0.00     0.115 C 
HETATM    4  C19 UNL     1       2.234   0.424  -0.823  1.00  0.00     0.032 C 
HETATM    5  C20 UNL     1       0.942   0.588  -1.631  1.00  0.00     0.035 C 
ENDROOT
BRANCH   1   6
HETATM    6  C16 UNL     1      -0.620  -1.256  -0.726  1.00  0.00     0.179 C 
HETATM    7  O5  UNL     1      -0.862  -2.631  -0.919  1.00  0.00    -0.221 OA
BRANCH   6   8
HETATM    8  C15 UNL     1      -1.953  -0.499  -0.779  1.00  0.00     0.035 C 
BRANCH   8   9
HETATM    9  C14 UNL     1      -2.975  -1.062   0.226  1.00  0.00     0.003 C 
BRANCH   9  10
HETATM   10  C13 UNL     1      -4.214  -0.167   0.418  1.00  0.00     0.003 C 
BRANCH  10  11
HETATM   11  C12 UNL     1      -5.242  -0.849   1.336  1.00  0.00     0.036 C 
BRANCH  11  12
HETATM   12  C11 UNL     1      -6.531  -0.064   1.610  1.00  0.00     0.182 C 
HETATM   13  O6  UNL     1      -7.516  -1.016   1.958  1.00  0.00    -0.221 OA
BRANCH  12  14
HETATM   14  C10 UNL     1      -6.457   0.934   2.764  1.00  0.00     0.183 C 
HETATM   15  O1  UNL     1      -7.742   1.013   3.348  1.00  0.00    -0.221 OA
BRANCH  14  16
HETATM   16  C9  UNL     1      -6.041   2.355   2.376  1.00  0.00     0.040 C 
BRANCH  16  17
HETATM   17  C8  UNL     1      -5.844   3.252   3.612  1.00  0.00     0.028 C 
BRANCH  17  18
HETATM   18  C7  UNL     1      -5.640   4.706   3.261  1.00  0.00    -0.031 C 
HETATM   19  C6  UNL     1      -5.873   5.729   4.099  1.00  0.00    -0.031 C 
BRANCH  19  20
HETATM   20  C1  UNL     1      -6.345   5.579   5.525  1.00  0.00     0.026 C 
BRANCH  20  21
HETATM   21  C2  UNL     1      -6.090   6.838   6.371  1.00  0.00     0.005 C 
BRANCH  21  22
HETATM   22  C3  UNL     1      -6.458   6.621   7.849  1.00  0.00     0.000 C 
BRANCH  22  23
HETATM   23  C4  UNL     1      -6.281   7.899   8.685  1.00  0.00     0.000 C 
HETATM   24  C5  UNL     1      -6.569   7.655  10.172  1.00  0.00     0.000 C 
ENDBRANCH  22  23
ENDBRANCH  21  22
ENDBRANCH  20  21
ENDBRANCH  19  20
ENDBRANCH  17  18
ENDBRANCH  16  17
ENDBRANCH  14  16
ENDBRANCH  12  14
ENDBRANCH  11  12
ENDBRANCH  10  11
ENDBRANCH   9  10
ENDBRANCH   8   9
ENDBRANCH   6   8
ENDBRANCH   1   6
BRANCH   3  25
HETATM   25  C21 UNL     1       3.817  -1.609  -0.789  1.00  0.00     0.030 C 
BRANCH  25  26
HETATM   26  C22 UNL     1       4.716  -1.058   0.335  1.00  0.00     0.003 C 
BRANCH  26  27
HETATM   27  C23 UNL     1       6.164  -1.575   0.287  1.00  0.00     0.000 C 
BRANCH  27  28
HETATM   28  C24 UNL     1       6.348  -2.958   0.939  1.00  0.00     0.000 C 
BRANCH  28  29
HETATM   29  C25 UNL     1       7.747  -3.565   0.705  1.00  0.00     0.000 C 
BRANCH  29  30
HETATM   30  C26 UNL     1       7.814  -4.590  -0.444  1.00  0.00     0.000 C 
BRANCH  30  31
HETATM   31  C27 UNL     1       7.343  -4.019  -1.787  1.00  0.00     0.000 C 
BRANCH  31  32
HETATM   32  C28 UNL     1       7.362  -5.041  -2.934  1.00  0.00     0.000 C 
BRANCH  32  33
HETATM   33  C29 UNL     1       6.815  -4.463  -4.253  1.00  0.00     0.000 C 
BRANCH  33  34
HETATM   34  C30 UNL     1       5.333  -4.057  -4.166  1.00  0.00     0.000 C 
BRANCH  34  35
HETATM   35  C31 UNL     1       4.785  -3.497  -5.487  1.00  0.00     0.005 C 
BRANCH  35  36
HETATM   36  C32 UNL     1       3.338  -3.006  -5.312  1.00  0.00     0.032 C 
BRANCH  36  37
HETATM   37  C33 UNL     1       2.746  -2.343  -6.522  1.00  0.00     0.039 A 
HETATM   38  C34 UNL     1       1.532  -1.744  -6.596  1.00  0.00     0.292 A 
HETATM   39  O3  UNL     1       1.220  -1.207  -7.814  1.00  0.00    -0.297 OA
HETATM   40  O4  UNL     1       0.778  -1.686  -5.649  1.00  0.00    -0.260 OA
HETATM   41  C35 UNL     1       2.339  -1.462  -8.641  1.00  0.00     0.146 A 
HETATM   42  C36 UNL     1       3.283  -2.211  -7.739  1.00  0.00     0.004 A 
HETATM   43  C37 UNL     1       2.938  -0.151  -9.139  1.00  0.00     0.038 C 
ENDBRANCH  36  37
ENDBRANCH  35  36
ENDBRANCH  34  35
ENDBRANCH  33  34
ENDBRANCH  32  33
ENDBRANCH  31  32
ENDBRANCH  30  31
ENDBRANCH  29  30
ENDBRANCH  28  29
ENDBRANCH  27  28
ENDBRANCH  26  27
ENDBRANCH  25  26
ENDBRANCH   3  25
TORSDOF 27
