REMARK  17 active torsions:
REMARK  status: ('A' for Active; 'I' for Inactive)
REMARK    1  A    between atoms: C7_8  and  C29_32 
REMARK    2  A    between atoms: C8_9  and  O3_12 
REMARK    3  A    between atoms: O3_12  and  C10_13 
REMARK    4  A    between atoms: C10_13  and  C11_14 
REMARK    5  A    between atoms: C11_14  and  C12_15 
REMARK    6  A    between atoms: C12_15  and  C13_16 
REMARK    7  A    between atoms: C13_16  and  C14_17 
REMARK    8  A    between atoms: C14_17  and  C15_18 
REMARK    9  A    between atoms: C15_18  and  C16_19 
REMARK   10  A    between atoms: C16_19  and  C17_20 
REMARK   11  A    between atoms: C17_20  and  C18_21 
REMARK   12  A    between atoms: C18_21  and  C19_22 
REMARK   13  A    between atoms: C19_22  and  C20_23 
REMARK   14  A    between atoms: C20_23  and  C21_24 
REMARK   15  A    between atoms: C21_24  and  C22_25 
REMARK   16  A    between atoms: C22_25  and  C23_26 
REMARK   17  A    between atoms: C23_26  and  C24_27 
ROOT
HETATM    1  C1  UNL     1      -8.408  -1.694   6.049  1.00  0.00     0.135 A 
HETATM    2  C2  UNL     1      -7.913  -2.791   5.462  1.00  0.00     0.055 A 
HETATM    3  C3  UNL     1      -6.759  -2.800   4.771  1.00  0.00     0.138 A 
HETATM    4  C4  UNL     1      -6.070  -1.639   4.659  1.00  0.00     0.085 A 
HETATM    5  C5  UNL     1      -6.534  -0.507   5.239  1.00  0.00     0.101 A 
HETATM    6  C6  UNL     1      -7.700  -0.566   5.908  1.00  0.00     0.052 A 
HETATM    7  O1  UNL     1      -5.925   0.718   5.141  1.00  0.00    -0.326 OA
HETATM    8  C7  UNL     1      -5.120   0.887   4.007  1.00  0.00     0.178 C 
HETATM    9  C8  UNL     1      -4.124  -0.258   3.958  1.00  0.00     0.208 C 
HETATM   10  C9  UNL     1      -4.880  -1.588   3.993  1.00  0.00     0.207 C 
HETATM   11  O2  UNL     1      -4.352  -2.542   3.469  1.00  0.00    -0.288 OA
HETATM   12  O5  UNL     1      -6.388  -3.990   4.214  1.00  0.00    -0.190 OA
HETATM   13  O6  UNL     1      -9.580  -1.728   6.738  1.00  0.00    -0.190 OA
ENDROOT
BRANCH   9  14
HETATM   14  O3  UNL     1      -3.328  -0.091   2.802  1.00  0.00    -0.349 OA
BRANCH  14  15
HETATM   15  C10 UNL     1      -2.007  -0.550   2.915  1.00  0.00     0.116 C 
HETATM   16  C28 UNL     1      -1.170   0.429   3.750  1.00  0.00     0.032 C 
BRANCH  15  17
HETATM   17  C11 UNL     1      -1.433  -0.668   1.494  1.00  0.00     0.030 C 
BRANCH  17  18
HETATM   18  C12 UNL     1      -0.203  -1.587   1.415  1.00  0.00     0.003 C 
BRANCH  18  19
HETATM   19  C13 UNL     1       0.464  -1.553   0.029  1.00  0.00     0.000 C 
BRANCH  19  20
HETATM   20  C14 UNL     1       1.591  -2.593  -0.075  1.00  0.00     0.000 C 
BRANCH  20  21
HETATM   21  C15 UNL     1       2.359  -2.498  -1.404  1.00  0.00     0.000 C 
BRANCH  21  22
HETATM   22  C16 UNL     1       3.414  -3.610  -1.519  1.00  0.00     0.000 C 
BRANCH  22  23
HETATM   23  C17 UNL     1       4.212  -3.611  -2.841  1.00  0.00     0.000 C 
HETATM   24  C27 UNL     1       5.115  -4.860  -2.882  1.00  0.00     0.000 C 
BRANCH  23  25
HETATM   25  C18 UNL     1       5.055  -2.331  -3.033  1.00  0.00     0.000 C 
BRANCH  25  26
HETATM   26  C19 UNL     1       4.425  -1.323  -4.009  1.00  0.00     0.000 C 
BRANCH  26  27
HETATM   27  C20 UNL     1       5.241  -0.021  -4.089  1.00  0.00     0.000 C 
BRANCH  27  28
HETATM   28  C21 UNL     1       4.682   0.947  -5.146  1.00  0.00     0.000 C 
BRANCH  28  29
HETATM   29  C22 UNL     1       5.456   2.274  -5.172  1.00  0.00     0.000 C 
BRANCH  29  30
HETATM   30  C23 UNL     1       5.072   3.231  -6.322  1.00  0.00     0.000 C 
HETATM   31  C26 UNL     1       5.969   4.483  -6.250  1.00  0.00     0.000 C 
BRANCH  30  32
HETATM   32  C24 UNL     1       3.583   3.640  -6.311  1.00  0.00     0.000 C 
HETATM   33  C25 UNL     1       2.704   2.796  -7.247  1.00  0.00     0.000 C 
ENDBRANCH  30  32
ENDBRANCH  29  30
ENDBRANCH  28  29
ENDBRANCH  27  28
ENDBRANCH  26  27
ENDBRANCH  25  26
ENDBRANCH  23  25
ENDBRANCH  22  23
ENDBRANCH  21  22
ENDBRANCH  20  21
ENDBRANCH  19  20
ENDBRANCH  18  19
ENDBRANCH  17  18
ENDBRANCH  15  17
ENDBRANCH  14  15
ENDBRANCH   9  14
BRANCH   8  34
HETATM   34  C29 UNL     1      -4.390   2.220   4.034  1.00  0.00     0.008 A 
HETATM   35  C30 UNL     1      -4.302   2.981   2.929  1.00  0.00     0.000 A 
HETATM   36  C31 UNL     1      -3.613   4.132   2.936  1.00  0.00     0.027 A 
HETATM   37  C32 UNL     1      -2.986   4.564   4.044  1.00  0.00     0.131 A 
HETATM   38  C33 UNL     1      -3.079   3.802   5.147  1.00  0.00     0.027 A 
HETATM   39  O4  UNL     1      -2.275   5.722   4.052  1.00  0.00    -0.190 OA
HETATM   40  C34 UNL     1      -3.767   2.650   5.144  1.00  0.00     0.000 A 
ENDBRANCH   8  34
TORSDOF 17
