REMARK  5 active torsions:
REMARK  status: ('A' for Active; 'I' for Inactive)
REMARK    1  A    between atoms: C6_6  and  C15_22 
REMARK    2  A    between atoms: C8_9  and  O2_10 
REMARK    3  A    between atoms: O2_10  and  C9_11 
REMARK    4  A    between atoms: C13_15  and  C14_17 
REMARK    5  A    between atoms: C15_22  and  O8_23 
ROOT
HETATM    1  C1  UNL     1      -2.530   1.842   0.802  1.00  0.00     0.031 C 
HETATM    2  C2  UNL     1      -1.789   0.787   1.639  1.00  0.00     0.132 C 
HETATM    3  C3  UNL     1      -0.296   1.149   1.525  1.00  0.00     0.089 C 
HETATM    4  C4  UNL     1      -0.340   2.684   1.431  1.00  0.00     0.037 C 
HETATM    5  C5  UNL     1      -1.495   2.921   0.445  1.00  0.00     0.007 C 
HETATM    6  C6  UNL     1       0.965   3.304   0.999  1.00  0.00     0.065 C 
HETATM    7  C7  UNL     1       1.856   2.486   0.397  1.00  0.00     0.120 C 
HETATM    8  O1  UNL     1       1.686   1.157   0.137  1.00  0.00    -0.304 OA
HETATM    9  C8  UNL     1       0.418   0.575   0.314  1.00  0.00     0.244 C 
HETATM   10  O10 UNL     1      -2.158   0.963   2.986  1.00  0.00    -0.226 OA
HETATM   11  C17 UNL     1      -2.188  -0.637   1.265  1.00  0.00     0.033 C 
ENDROOT
BRANCH   9  12
HETATM   12  O2  UNL     1       0.711  -0.788   0.552  1.00  0.00    -0.304 OA
BRANCH  12  13
HETATM   13  C9  UNL     1       1.106  -1.514  -0.593  1.00  0.00     0.272 C 
HETATM   14  C10 UNL     1       1.701  -2.814  -0.115  1.00  0.00     0.241 C 
HETATM   15  C11 UNL     1       2.035  -3.689  -1.302  1.00  0.00     0.220 C 
HETATM   16  O7  UNL     1       2.876  -2.552   0.610  1.00  0.00    -0.215 OA
HETATM   17  C12 UNL     1       0.799  -3.864  -2.168  1.00  0.00     0.215 C 
HETATM   18  O6  UNL     1       2.486  -4.929  -0.812  1.00  0.00    -0.218 OA
HETATM   19  C13 UNL     1       0.141  -2.521  -2.477  1.00  0.00     0.184 C 
HETATM   20  O5  UNL     1       1.188  -4.476  -3.377  1.00  0.00    -0.218 OA
HETATM   21  O3  UNL     1      -0.078  -1.779  -1.308  1.00  0.00    -0.326 OA
BRANCH  19  22
HETATM   22  C14 UNL     1      -1.216  -2.684  -3.153  1.00  0.00     0.214 C 
HETATM   23  O4  UNL     1      -1.102  -3.506  -4.295  1.00  0.00    -0.218 OA
ENDBRANCH  19  22
ENDBRANCH  12  13
ENDBRANCH   9  12
BRANCH   6  24
HETATM   24  C15 UNL     1       1.306   4.625   1.152  1.00  0.00     0.294 C 
HETATM   25  O9  UNL     1       2.350   4.970   0.630  1.00  0.00    -0.259 OA
BRANCH  24  26
HETATM   26  O8  UNL     1       0.649   5.647   1.794  1.00  0.00    -0.296 OA
HETATM   27  C16 UNL     1      -0.447   5.484   2.653  1.00  0.00     0.185 C 
ENDBRANCH  24  26
ENDBRANCH   6  24
TORSDOF 5
