REMARK  4 active torsions:
REMARK  status: ('A' for Active; 'I' for Inactive)
REMARK    1  A    between atoms: C8_9  and  C11_13 
REMARK    2  A    between atoms: C12_14  and  O4_20 
REMARK    3  A    between atoms: O4_20  and  C17_21 
REMARK    4  A    between atoms: C18_23  and  C22_30 
ROOT
HETATM    1  C11 UNL     1       1.121   0.482  -1.613  1.00  0.00     0.030 A 
HETATM    2  C12 UNL     1       2.001   0.578  -0.588  1.00  0.00     0.095 A 
HETATM    3  C13 UNL     1       3.006   1.464  -0.748  1.00  0.00     0.026 A 
HETATM    4  C14 UNL     1       3.184   2.165  -1.877  1.00  0.00     0.029 A 
HETATM    5  C15 UNL     1       2.347   2.025  -2.914  1.00  0.00     0.131 A 
HETATM    6  C16 UNL     1       1.318   1.181  -2.746  1.00  0.00     0.027 A 
HETATM    7  O3  UNL     1       2.514   2.713  -4.075  1.00  0.00    -0.190 OA
ENDROOT
BRANCH   1   8
HETATM    8  C8  UNL     1      -0.102  -0.427  -1.527  1.00  0.00     0.153 C 
HETATM    9  O1  UNL     1      -1.214   0.183  -2.121  1.00  0.00    -0.329 OA
HETATM   10  C5  UNL     1      -2.358  -0.569  -2.199  1.00  0.00     0.097 A 
HETATM   11  C4  UNL     1      -2.357  -1.922  -2.224  1.00  0.00     0.082 A 
HETATM   12  C6  UNL     1      -3.539   0.085  -2.198  1.00  0.00     0.026 A 
HETATM   13  C3  UNL     1      -3.521  -2.611  -2.266  1.00  0.00     0.134 A 
HETATM   14  C10 UNL     1      -1.155  -2.570  -2.241  1.00  0.00     0.180 C 
HETATM   15  C2  UNL     1      -4.684  -1.928  -2.265  1.00  0.00     0.029 A 
HETATM   16  O10 UNL     1      -3.603  -3.975  -2.278  1.00  0.00    -0.190 OA
HETATM   17  C1  UNL     1      -4.706  -0.584  -2.237  1.00  0.00     0.127 A 
HETATM   18  C23 UNL     1      -5.988  -2.705  -2.303  1.00  0.00     0.035 C 
HETATM   19  O11 UNL     1      -5.887   0.096  -2.225  1.00  0.00    -0.191 OA
HETATM   20  C9  UNL     1       0.128  -1.754  -2.225  1.00  0.00     0.104 C 
HETATM   21  O2  UNL     1      -1.011  -3.771  -2.287  1.00  0.00    -0.291 OA
HETATM   22  C7  UNL     1      -3.578   1.604  -2.167  1.00  0.00     0.035 C 
ENDBRANCH   1   8
BRANCH   2  23
HETATM   23  O4  UNL     1       1.798  -0.170   0.549  1.00  0.00    -0.304 OA
BRANCH  23  24
HETATM   24  C17 UNL     1       2.374   0.202   1.782  1.00  0.00     0.274 C 
HETATM   25  O5  UNL     1       1.569   1.266   2.238  1.00  0.00    -0.326 OA
HETATM   26  C18 UNL     1       1.925   1.746   3.508  1.00  0.00     0.184 C 
HETATM   27  C19 UNL     1       1.873   0.622   4.538  1.00  0.00     0.215 C 
HETATM   28  C20 UNL     1       2.663  -0.598   4.109  1.00  0.00     0.220 C 
HETATM   29  O8  UNL     1       2.376   1.034   5.785  1.00  0.00    -0.218 OA
HETATM   30  C21 UNL     1       2.290  -0.994   2.700  1.00  0.00     0.241 C 
HETATM   31  O7  UNL     1       2.356  -1.665   4.974  1.00  0.00    -0.218 OA
HETATM   32  O6  UNL     1       0.975  -1.492   2.701  1.00  0.00    -0.215 OA
BRANCH  26  33
HETATM   33  C22 UNL     1       3.230   2.532   3.452  1.00  0.00     0.214 C 
HETATM   34  O9  UNL     1       3.235   3.534   4.452  1.00  0.00    -0.218 OA
ENDBRANCH  26  33
ENDBRANCH  23  24
ENDBRANCH   2  23
TORSDOF 4
