REMARK  4 active torsions:
REMARK  status: ('A' for Active; 'I' for Inactive)
REMARK    1  A    between atoms: C5_5  and  C7_7 
REMARK    2  A    between atoms: C7_7  and  C8_8 
REMARK    3  A    between atoms: C8_8  and  N1_9 
REMARK    4  A    between atoms: C8_8  and  C11_12 
ROOT
HETATM    1  C7  UNL     1      -0.335   0.136  -0.902  1.00  0.00     0.059 C 
ENDROOT
BRANCH   1   2
HETATM    2  C5  UNL     1       1.150  -0.052  -0.850  1.00  0.00    -0.020 A 
HETATM    3  C4  UNL     1       1.685  -1.296  -0.517  1.00  0.00    -0.004 A 
HETATM    4  C3  UNL     1       3.067  -1.471  -0.469  1.00  0.00    -0.000 A 
HETATM    5  C2  UNL     1       3.916  -0.401  -0.753  1.00  0.00    -0.000 A 
HETATM    6  C1  UNL     1       3.381   0.844  -1.085  1.00  0.00    -0.000 A 
HETATM    7  C6  UNL     1       1.998   1.019  -1.134  1.00  0.00    -0.004 A 
ENDBRANCH   1   2
BRANCH   1   8
HETATM    8  C8  UNL     1      -0.960  -0.399   0.380  1.00  0.00     0.170 C 
BRANCH   8   9
HETATM    9  N1  UNL     1      -1.655   0.664   1.054  1.00  0.00    -0.358 N 
HETATM   10  C9  UNL     1      -2.332   0.406   2.296  1.00  0.00     0.122 C 
HETATM   11  C10 UNL     1      -1.674   1.985   0.486  1.00  0.00     0.122 C 
ENDBRANCH   8   9
BRANCH   8  12
HETATM   12  C11 UNL     1      -1.933  -1.501   0.042  1.00  0.00     0.207 C 
HETATM   13  O1  UNL     1      -2.540  -2.062   0.923  1.00  0.00    -0.646 OA
HETATM   14  O2  UNL     1      -2.124  -1.858  -1.233  1.00  0.00    -0.646 OA
ENDBRANCH   8  12
ENDBRANCH   1   8
TORSDOF 4
