REMARK  13 active torsions:
REMARK  status: ('A' for Active; 'I' for Inactive)
REMARK    1  A    between atoms: C1_1  and  O3_24 
REMARK       I    between atoms: N1_3  and  C18_20 
REMARK    2  A    between atoms: C3_4  and  C6_7 
REMARK    3  A    between atoms: C6_7  and  C7_8 
REMARK    4  A    between atoms: C7_8  and  C8_9 
REMARK    5  A    between atoms: C8_9  and  C9_10 
REMARK    6  A    between atoms: C9_10  and  C10_11 
REMARK    7  A    between atoms: C10_11  and  C11_12 
REMARK    8  A    between atoms: C11_12  and  C12_13 
REMARK    9  A    between atoms: C12_13  and  C13_14 
REMARK   10  A    between atoms: C13_14  and  C14_15 
REMARK   11  A    between atoms: C14_15  and  C15_16 
REMARK   12  A    between atoms: C15_16  and  C16_17 
REMARK   13  A    between atoms: O3_24  and  C21_25 
ROOT
HETATM    1  C1  UNL     1       0.092   4.170  -1.904  1.00  0.00     0.145 C 
HETATM    2  C2  UNL     1       0.247   2.637  -1.940  1.00  0.00     0.111 C 
HETATM    3  N1  UNL     1       1.087   2.192  -0.812  1.00  0.00    -0.321 N 
HETATM    4  C3  UNL     1       2.433   2.791  -0.842  1.00  0.00     0.084 C 
HETATM    5  C4  UNL     1       2.303   4.321  -0.711  1.00  0.00     0.025 C 
HETATM    6  C5  UNL     1       1.447   4.877  -1.858  1.00  0.00     0.034 C 
HETATM    7  C18 UNL     1       0.620   1.413   0.232  1.00  0.00     0.234 C 
HETATM    8  O2  UNL     1       1.251   1.174   1.234  1.00  0.00    -0.272 OA
HETATM    9  C19 UNL     1      -0.771   0.812   0.083  1.00  0.00     0.098 C 
HETATM   10  C20 UNL     1       0.719   2.073  -3.293  1.00  0.00     0.027 C 
ENDROOT
BRANCH   4  11
HETATM   11  C6  UNL     1       3.519   2.263   0.119  1.00  0.00     0.022 C 
BRANCH  11  12
HETATM   12  C7  UNL     1       3.974   0.824  -0.183  1.00  0.00     0.002 C 
BRANCH  12  13
HETATM   13  C8  UNL     1       5.003   0.340   0.852  1.00  0.00     0.000 C 
BRANCH  13  14
HETATM   14  C9  UNL     1       5.649  -1.002   0.470  1.00  0.00     0.000 C 
BRANCH  14  15
HETATM   15  C10 UNL     1       6.671  -1.452   1.527  1.00  0.00     0.000 C 
BRANCH  15  16
HETATM   16  C11 UNL     1       7.471  -2.687   1.083  1.00  0.00     0.000 C 
BRANCH  16  17
HETATM   17  C12 UNL     1       8.508  -3.101   2.141  1.00  0.00     0.000 C 
BRANCH  17  18
HETATM   18  C13 UNL     1       9.409  -4.248   1.655  1.00  0.00     0.000 C 
BRANCH  18  19
HETATM   19  C14 UNL     1      10.470  -4.623   2.703  1.00  0.00     0.008 C 
BRANCH  19  20
HETATM   20  C15 UNL     1      11.421  -5.718   2.196  1.00  0.00     0.065 C 
BRANCH  20  21
HETATM   21  C16 UNL     1      12.506  -6.099   3.192  1.00  0.00     0.151 C 
HETATM   22  C17 UNL     1      13.509  -7.143   2.737  1.00  0.00     0.072 C 
HETATM   23  O1  UNL     1      12.577  -5.602   4.294  1.00  0.00    -0.296 OA
ENDBRANCH  20  21
ENDBRANCH  19  20
ENDBRANCH  18  19
ENDBRANCH  17  18
ENDBRANCH  16  17
ENDBRANCH  15  16
ENDBRANCH  14  15
ENDBRANCH  13  14
ENDBRANCH  12  13
ENDBRANCH  11  12
ENDBRANCH   4  11
BRANCH   1  24
HETATM   24  O3  UNL     1      -0.620   4.651  -3.009  1.00  0.00    -0.302 OA
BRANCH  24  25
HETATM   25  C21 UNL     1      -1.979   4.624  -2.955  1.00  0.00     0.272 C 
HETATM   26  C22 UNL     1      -2.564   5.230  -4.215  1.00  0.00     0.106 C 
HETATM   27  O4  UNL     1      -2.631   4.186  -2.035  1.00  0.00    -0.264 OA
ENDBRANCH  24  25
ENDBRANCH   1  24
TORSDOF 13
