REMARK  0 active torsions:
REMARK  status: ('A' for Active; 'I' for Inactive)
REMARK       I    between atoms: N1_9  and  C17_18 
ROOT
HETATM    1  C1  UNL     1      -0.713   2.141   0.481  1.00  0.00     0.119 A 
HETATM    2  C2  UNL     1      -0.745   0.759   0.624  1.00  0.00     0.119 A 
HETATM    3  C3  UNL     1       0.410  -0.019   0.498  1.00  0.00     0.021 A 
HETATM    4  C4  UNL     1       1.608   0.652   0.167  1.00  0.00    -0.004 A 
HETATM    5  C5  UNL     1       1.629   2.047   0.019  1.00  0.00    -0.020 A 
HETATM    6  C6  UNL     1       0.466   2.813   0.182  1.00  0.00     0.022 A 
HETATM    7  C7  UNL     1       2.914   2.704  -0.401  1.00  0.00     0.050 C 
HETATM    8  C8  UNL     1       3.637   1.752  -1.360  1.00  0.00     0.109 C 
HETATM    9  N1  UNL     1       3.984   0.518  -0.662  1.00  0.00    -0.318 N 
HETATM   10  C9  UNL     1       2.869  -0.178  -0.008  1.00  0.00     0.110 C 
HETATM   11  C10 UNL     1       2.489  -1.461  -0.769  1.00  0.00     0.053 C 
HETATM   12  C11 UNL     1       1.433  -2.209   0.005  1.00  0.00    -0.020 A 
HETATM   13  C12 UNL     1       0.415  -1.486   0.649  1.00  0.00    -0.002 A 
HETATM   14  C13 UNL     1      -0.525  -2.177   1.428  1.00  0.00    -0.000 A 
HETATM   15  C14 UNL     1      -0.484  -3.568   1.530  1.00  0.00    -0.000 A 
HETATM   16  C15 UNL     1       0.512  -4.285   0.867  1.00  0.00    -0.000 A 
HETATM   17  C16 UNL     1       1.472  -3.603   0.117  1.00  0.00    -0.004 A 
HETATM   18  C17 UNL     1       5.255  -0.020  -0.622  1.00  0.00     0.234 C 
HETATM   19  O1  UNL     1       5.514  -1.024   0.001  1.00  0.00    -0.272 OA
HETATM   20  C18 UNL     1       6.337   0.688  -1.422  1.00  0.00     0.098 C 
HETATM   21  O2  UNL     1      -2.052   0.377   0.873  1.00  0.00    -0.300 OA
HETATM   22  C19 UNL     1      -2.864   1.556   0.900  1.00  0.00     0.304 A 
HETATM   23  O3  UNL     1      -1.983   2.656   0.651  1.00  0.00    -0.300 OA
ENDROOT
TORSDOF 0
