REMARK  1 active torsions:
REMARK  status: ('A' for Active; 'I' for Inactive)
REMARK       I    between atoms: C2_2  and  N1_3 
REMARK       I    between atoms: N1_3  and  C3_4 
REMARK    1  A    between atoms: C3_4  and  O1_5 
ROOT
HETATM    1  C1  UNL     1      -2.348  -0.457  -0.001  1.00  0.00     0.101 C 
HETATM    2  C2  UNL     1      -1.150   0.480  -0.003  1.00  0.00     0.268 C 
HETATM    3  N1  UNL     1       0.100  -0.139  -0.004  1.00  0.00    -0.094 N 
HETATM    4  C3  UNL     1       1.345   0.483   0.000  1.00  0.00     0.397 C 
HETATM    5  O2  UNL     1       1.457   1.691   0.016  1.00  0.00    -0.235 OA
HETATM    6  O3  UNL     1       0.156  -1.459  -0.011  1.00  0.00    -0.073 OA
HETATM    7  O4  UNL     1      -1.296   1.681  -0.004  1.00  0.00    -0.270 OA
ENDROOT
BRANCH   4   8
HETATM    8  O1  UNL     1       2.449  -0.317  -0.012  1.00  0.00    -0.280 OA
HETATM    9  C4  UNL     1       3.706   0.317  -0.002  1.00  0.00     0.186 C 
ENDBRANCH   4   8
TORSDOF 1
