REMARK  1 active torsions:
REMARK  status: ('A' for Active; 'I' for Inactive)
REMARK       I    between atoms: N1_3  and  C19_23 
REMARK    1  A    between atoms: C6_7  and  O3_21 
ROOT
HETATM    1  C1  UNL     1      -1.276  -0.417   0.211  1.00  0.00     0.053 C 
HETATM    2  C2  UNL     1      -0.800  -1.449   1.260  1.00  0.00     0.113 C 
HETATM    3  N1  UNL     1       0.593  -1.895   1.116  1.00  0.00    -0.302 N 
HETATM    4  C3  UNL     1       1.142  -1.571  -0.203  1.00  0.00     0.044 C 
HETATM    5  C4  UNL     1       1.114  -0.072  -0.329  1.00  0.00     0.012 C 
HETATM    6  C5  UNL     1      -0.150   0.521  -0.174  1.00  0.00     0.005 C 
HETATM    7  C6  UNL     1      -0.349   1.898  -0.372  1.00  0.00     0.114 C 
HETATM    8  C7  UNL     1       0.829   2.630  -0.553  1.00  0.00     0.141 A 
HETATM    9  C8  UNL     1       2.095   2.055  -0.635  1.00  0.00     0.121 A 
HETATM   10  C9  UNL     1       2.291   0.677  -0.490  1.00  0.00     0.025 C 
HETATM   11  C10 UNL     1       3.603   0.004  -0.434  1.00  0.00    -0.002 A 
HETATM   12  C11 UNL     1       3.661  -1.394  -0.579  1.00  0.00    -0.016 A 
HETATM   13  C12 UNL     1       2.404  -2.188  -0.822  1.00  0.00     0.070 C 
HETATM   14  C13 UNL     1       4.893  -2.054  -0.517  1.00  0.00    -0.004 A 
HETATM   15  C14 UNL     1       6.074  -1.351  -0.280  1.00  0.00    -0.000 A 
HETATM   16  C15 UNL     1       6.020   0.029  -0.091  1.00  0.00    -0.000 A 
HETATM   17  C16 UNL     1       4.795   0.694  -0.161  1.00  0.00    -0.000 A 
HETATM   18  O1  UNL     1       3.023   3.062  -0.838  1.00  0.00    -0.299 OA
HETATM   19  C17 UNL     1       2.328   4.312  -0.855  1.00  0.00     0.304 A 
HETATM   20  O2  UNL     1       0.942   4.000  -0.703  1.00  0.00    -0.298 OA
HETATM   21  C19 UNL     1       1.229  -2.500   2.181  1.00  0.00     0.238 C 
HETATM   22  C20 UNL     1       2.737  -2.645   2.132  1.00  0.00     0.098 C 
HETATM   23  O4  UNL     1       0.626  -2.835   3.175  1.00  0.00    -0.272 OA
ENDROOT
BRANCH   7  24
HETATM   24  O3  UNL     1      -1.547   2.521  -0.151  1.00  0.00    -0.326 OA
HETATM   25  C18 UNL     1      -2.336   2.643  -1.312  1.00  0.00     0.181 C 
ENDBRANCH   7  24
TORSDOF 1
