REMARK  3 active torsions:
REMARK  status: ('A' for Active; 'I' for Inactive)
REMARK    1  A    between atoms: C9_10  and  O2_11 
REMARK    2  A    between atoms: O2_11  and  C10_12 
REMARK    3  A    between atoms: C15_18  and  O3_21 
ROOT
HETATM    1  C1  UNL     1      -0.344   2.356  -1.442  1.00  0.00     0.119 A 
HETATM    2  C2  UNL     1       0.319   3.335  -0.714  1.00  0.00     0.119 A 
HETATM    3  C3  UNL     1       1.475   3.049   0.006  1.00  0.00     0.027 A 
HETATM    4  C4  UNL     1       1.947   1.731  -0.012  1.00  0.00     0.032 A 
HETATM    5  C5  UNL     1       1.250   0.728  -0.728  1.00  0.00    -0.012 A 
HETATM    6  C6  UNL     1       0.107   1.038  -1.473  1.00  0.00     0.022 A 
HETATM    7  C7  UNL     1       1.896  -0.636  -0.598  1.00  0.00     0.096 C 
HETATM    8  C8  UNL     1       3.319  -0.190  -0.968  1.00  0.00     0.164 C 
HETATM    9  O1  UNL     1       3.986   0.278   0.153  1.00  0.00    -0.327 OA
HETATM   10  C9  UNL     1       3.259   1.386   0.707  1.00  0.00     0.260 C 
HETATM   11  C12 UNL     1       3.938  -1.297  -1.817  1.00  0.00     0.320 C 
HETATM   12  N1  UNL     1       2.743  -1.780  -2.541  1.00  0.00     0.340 N 
HETATM   13  C13 UNL     1       1.774  -1.906  -1.464  1.00  0.00     0.269 C 
HETATM   14  C14 UNL     1       0.362  -2.463  -1.625  1.00  0.00     0.071 C 
HETATM   15  C15 UNL     1      -0.158  -2.736  -0.190  1.00  0.00     0.139 C 
HETATM   16  C16 UNL     1       0.152  -1.550   0.733  1.00  0.00    -0.001 C 
HETATM   17  C17 UNL     1       1.444  -1.139   0.773  1.00  0.00    -0.021 C 
HETATM   18  O4  UNL     1      -0.338   4.540  -0.868  1.00  0.00    -0.300 OA
HETATM   19  C19 UNL     1      -1.464   4.314  -1.724  1.00  0.00     0.304 A 
HETATM   20  O5  UNL     1      -1.436   2.923  -2.070  1.00  0.00    -0.300 OA
ENDROOT
BRANCH  10  21
HETATM   21  O2  UNL     1       2.971   1.037   2.054  1.00  0.00    -0.328 OA
BRANCH  21  22
HETATM   22  C10 UNL     1       4.039   1.292   2.932  1.00  0.00     0.145 C 
HETATM   23  C11 UNL     1       3.655   0.804   4.325  1.00  0.00     0.035 C 
ENDBRANCH  21  22
ENDBRANCH  10  21
BRANCH  15  24
HETATM   24  O3  UNL     1      -1.538  -3.017  -0.269  1.00  0.00    -0.350 OA
HETATM   25  C18 UNL     1      -2.080  -3.456   0.958  1.00  0.00     0.175 C 
ENDBRANCH  15  24
TORSDOF 3
