REMARK  7 active torsions:
REMARK  status: ('A' for Active; 'I' for Inactive)
REMARK    1  A    between atoms: N1_13  and  C13_15 
REMARK    2  A    between atoms: C16_18  and  C21_23 
REMARK    3  A    between atoms: C21_23  and  O2_24 
REMARK    4  A    between atoms: O2_24  and  C22_25 
REMARK    5  A    between atoms: C22_25  and  C23_26 
REMARK    6  A    between atoms: C26_29  and  O4_34 
REMARK    7  A    between atoms: C27_30  and  O3_32 
ROOT
HETATM    1  C1  UNL     1      -3.885   0.070  -0.246  1.00  0.00     0.033 C 
HETATM    2  C2  UNL     1      -3.913  -1.116   0.736  1.00  0.00     0.005 C 
HETATM    3  C3  UNL     1      -2.971  -2.244   0.253  1.00  0.00     0.032 C 
HETATM    4  C4  UNL     1      -1.553  -1.561   0.307  1.00  0.00     0.006 C 
HETATM    5  C5  UNL     1      -1.489  -0.824  -1.046  1.00  0.00     0.058 C 
HETATM    6  C6  UNL     1      -2.611   0.225  -1.097  1.00  0.00     0.154 C 
HETATM    7  O1  UNL     1      -2.960   0.528  -2.424  1.00  0.00    -0.223 OA
HETATM    8  C7  UNL     1      -0.093  -0.150  -1.217  1.00  0.00     0.007 C 
HETATM    9  C8  UNL     1       0.815  -1.249  -1.790  1.00  0.00     0.033 C 
HETATM   10  C9  UNL     1       0.064  -2.496  -1.291  1.00  0.00     0.034 C 
HETATM   11  C10 UNL     1      -0.251  -2.429   0.255  1.00  0.00     0.002 C 
HETATM   12  C11 UNL     1      -1.356  -2.160  -1.859  1.00  0.00     0.222 C 
HETATM   13  N1  UNL     1      -2.568  -2.874  -2.240  1.00  0.00     0.135 N 
HETATM   14  C12 UNL     1      -3.543  -2.693  -1.158  1.00  0.00     0.250 C 
HETATM   15  C15 UNL     1       2.276  -0.995  -1.394  1.00  0.00     0.182 C 
HETATM   16  C16 UNL     1       2.605   0.499  -1.587  1.00  0.00     0.182 C 
HETATM   17  C17 UNL     1       1.596   1.052  -2.624  1.00  0.00     0.033 C 
HETATM   18  C18 UNL     1       0.145   1.112  -2.068  1.00  0.00     0.003 C 
HETATM   19  C19 UNL     1       1.535   0.078  -3.820  1.00  0.00     0.003 C 
HETATM   20  C20 UNL     1       0.804  -1.191  -3.344  1.00  0.00     0.003 C 
HETATM   21  O6  UNL     1       3.908   0.561  -2.110  1.00  0.00    -0.221 OA
HETATM   22  O7  UNL     1       2.602  -1.436  -0.104  1.00  0.00    -0.221 OA
HETATM   23  C31 UNL     1      -3.036  -3.415   1.253  1.00  0.00     0.002 C 
ENDROOT
BRANCH  16  24
HETATM   24  C21 UNL     1       2.641   1.347  -0.310  1.00  0.00     0.185 C 
BRANCH  24  25
HETATM   25  O2  UNL     1       3.398   2.504  -0.512  1.00  0.00    -0.296 OA
BRANCH  25  26
HETATM   26  C22 UNL     1       3.827   3.330   0.509  1.00  0.00     0.296 C 
HETATM   27  O5  UNL     1       4.676   4.128   0.157  1.00  0.00    -0.259 OA
BRANCH  26  28
HETATM   28  C23 UNL     1       3.450   3.409   1.829  1.00  0.00     0.065 A 
HETATM   29  C24 UNL     1       4.080   4.273   2.650  1.00  0.00     0.007 A 
HETATM   30  C25 UNL     1       3.742   4.376   3.942  1.00  0.00     0.026 A 
HETATM   31  C26 UNL     1       2.781   3.619   4.500  1.00  0.00     0.116 A 
HETATM   32  C27 UNL     1       2.076   2.794   3.695  1.00  0.00     0.116 A 
HETATM   33  C28 UNL     1       2.455   2.706   2.403  1.00  0.00     0.032 A 
BRANCH  31  34
HETATM   34  O4  UNL     1       2.428   3.803   5.815  1.00  0.00    -0.326 OA
HETATM   35  C30 UNL     1       3.007   2.869   6.698  1.00  0.00     0.181 C 
ENDBRANCH  31  34
BRANCH  32  36
HETATM   36  O3  UNL     1       1.028   2.090   4.249  1.00  0.00    -0.326 OA
HETATM   37  C29 UNL     1       0.251   1.234   3.441  1.00  0.00     0.181 C 
ENDBRANCH  32  36
ENDBRANCH  26  28
ENDBRANCH  25  26
ENDBRANCH  24  25
ENDBRANCH  16  24
BRANCH  13  38
HETATM   38  C13 UNL     1      -3.039  -2.512  -3.565  1.00  0.00     0.250 C 
HETATM   39  C14 UNL     1      -4.233  -3.368  -4.016  1.00  0.00     0.037 C 
ENDBRANCH  13  38
TORSDOF 7
