REMARK  2 active torsions:
REMARK  status: ('A' for Active; 'I' for Inactive)
REMARK    1  A    between atoms: C1_1  and  O3_22 
REMARK    2  A    between atoms: C6_6  and  O1_7 
ROOT
HETATM    1  C1  UNL     1       1.037   2.082   0.201  1.00  0.00     0.141 A 
HETATM    2  C2  UNL     1      -0.278   1.751   0.220  1.00  0.00     0.155 A 
HETATM    3  C3  UNL     1      -0.717   0.480   0.050  1.00  0.00     0.025 A 
HETATM    4  C4  UNL     1       0.221  -0.488  -0.061  1.00  0.00     0.009 A 
HETATM    5  C5  UNL     1       1.524  -0.161  -0.106  1.00  0.00     0.002 A 
HETATM    6  C6  UNL     1       1.962   1.112  -0.003  1.00  0.00     0.114 A 
HETATM    7  C8  UNL     1       2.521  -1.290  -0.261  1.00  0.00     0.064 C 
HETATM    8  C9  UNL     1       2.019  -2.445   0.603  1.00  0.00     0.255 C 
HETATM    9  N1  UNL     1       0.766  -2.971   0.105  1.00  0.00     0.142 N 
HETATM   10  C10 UNL     1      -0.211  -1.939  -0.248  1.00  0.00     0.246 C 
HETATM   11  C11 UNL     1      -1.445  -2.168   0.622  1.00  0.00     0.064 C 
HETATM   12  C12 UNL     1      -2.448  -1.120   0.233  1.00  0.00    -0.020 A 
HETATM   13  C13 UNL     1      -2.035   0.143  -0.022  1.00  0.00    -0.002 A 
HETATM   14  C14 UNL     1      -3.014   0.991  -0.409  1.00  0.00    -0.000 A 
HETATM   15  C15 UNL     1      -4.311   0.653  -0.476  1.00  0.00    -0.000 A 
HETATM   16  C16 UNL     1      -4.691  -0.592  -0.171  1.00  0.00    -0.000 A 
HETATM   17  C17 UNL     1      -3.745  -1.474   0.173  1.00  0.00    -0.004 A 
HETATM   18  C18 UNL     1       0.963  -3.913  -0.990  1.00  0.00     0.286 C 
HETATM   19  O2  UNL     1      -1.165   2.735   0.531  1.00  0.00    -0.188 OA
ENDROOT
BRANCH   1  20
HETATM   20  O3  UNL     1       1.474   3.382   0.337  1.00  0.00    -0.324 OA
HETATM   21  C19 UNL     1       0.722   4.472  -0.144  1.00  0.00     0.182 C 
ENDBRANCH   1  20
BRANCH   6  22
HETATM   22  O1  UNL     1       3.332   1.284  -0.061  1.00  0.00    -0.326 OA
HETATM   23  C7  UNL     1       3.977   2.505   0.205  1.00  0.00     0.181 C 
ENDBRANCH   6  22
TORSDOF 2
