REMARK  2 active torsions:
REMARK  status: ('A' for Active; 'I' for Inactive)
REMARK    1  A    between atoms: C9_10  and  O1_11 
REMARK    2  A    between atoms: O1_11  and  C10_12 
ROOT
HETATM    1  N1  UNL     1      -1.042   0.497   1.519  1.00  0.00     0.133 N 
HETATM    2  C1  UNL     1      -2.175  -0.218   0.935  1.00  0.00     0.250 C 
HETATM    3  C2  UNL     1      -2.408   0.086  -0.553  1.00  0.00     0.035 C 
HETATM    4  C3  UNL     1      -1.122  -0.112  -1.365  1.00  0.00     0.006 C 
HETATM    5  C4  UNL     1       0.056   0.631  -0.710  1.00  0.00     0.057 C 
HETATM    6  C5  UNL     1       0.217   0.244   0.787  1.00  0.00     0.194 C 
HETATM    7  C6  UNL     1       1.358   1.071   1.424  1.00  0.00     0.030 C 
HETATM    8  C7  UNL     1       2.667   0.800   0.667  1.00  0.00     0.004 C 
HETATM    9  C8  UNL     1       2.561   1.156  -0.826  1.00  0.00     0.030 C 
HETATM   10  C9  UNL     1       1.327   0.637  -1.576  1.00  0.00     0.126 C 
HETATM   11  C12 UNL     1       3.118  -0.640   0.958  1.00  0.00     0.000 C 
HETATM   12  C13 UNL     1       2.047  -1.698   0.661  1.00  0.00     0.002 C 
HETATM   13  C14 UNL     1       0.617  -1.247   1.016  1.00  0.00     0.031 C 
HETATM   14  C15 UNL     1       2.391  -3.034   1.347  1.00  0.00     0.000 C 
HETATM   15  C16 UNL     1       1.042   2.566   1.570  1.00  0.00     0.004 C 
HETATM   16  C17 UNL     1      -0.254   2.708   2.372  1.00  0.00     0.035 C 
HETATM   17  C18 UNL     1      -1.375   1.910   1.695  1.00  0.00     0.250 C 
ENDROOT
BRANCH  10  18
HETATM   18  O1  UNL     1       1.586  -0.621  -2.127  1.00  0.00    -0.304 OA
BRANCH  18  19
HETATM   19  C10 UNL     1       1.347  -0.852  -3.447  1.00  0.00     0.272 C 
HETATM   20  C11 UNL     1       1.700  -2.281  -3.808  1.00  0.00     0.106 C 
HETATM   21  O2  UNL     1       0.907  -0.049  -4.238  1.00  0.00    -0.264 OA
ENDBRANCH  18  19
ENDBRANCH  10  18
TORSDOF 2
