REMARK  5 active torsions:
REMARK  status: ('A' for Active; 'I' for Inactive)
REMARK    1  A    between atoms: C5_5  and  C7_7 
REMARK    2  A    between atoms: C7_7  and  C8_8 
REMARK    3  A    between atoms: C10_11  and  O4_23 
REMARK    4  A    between atoms: C11_12  and  C12_13 
REMARK    5  A    between atoms: C12_13  and  C13_14 
ROOT
HETATM    1  C8  UNL     1      -1.058  -1.575   0.270  1.00  0.00     0.039 C 
HETATM    2  C9  UNL     1      -1.452  -3.047   0.270  1.00  0.00     0.145 C 
HETATM    3  O1  UNL     1      -0.407  -3.678   0.961  1.00  0.00    -0.331 OA
HETATM    4  C10 UNL     1       0.808  -3.050   0.595  1.00  0.00     0.236 C 
HETATM    5  C11 UNL     1       0.465  -1.602   0.270  1.00  0.00     0.064 C 
ENDROOT
BRANCH   1   6
HETATM    6  C7  UNL     1      -1.586  -0.874  -0.974  1.00  0.00     0.029 C 
BRANCH   6   7
HETATM    7  C5  UNL     1      -2.453   0.277  -0.568  1.00  0.00    -0.020 A 
HETATM    8  C4  UNL     1      -3.057   1.077  -1.555  1.00  0.00    -0.002 A 
HETATM    9  C3  UNL     1      -3.870   2.156  -1.196  1.00  0.00     0.026 A 
HETATM   10  C2  UNL     1      -4.053   2.400   0.149  1.00  0.00     0.119 A 
HETATM   11  C1  UNL     1      -3.463   1.617   1.114  1.00  0.00     0.119 A 
HETATM   12  O5  UNL     1      -4.806   3.399   0.680  1.00  0.00    -0.300 OA
HETATM   13  C6  UNL     1      -2.657   0.547   0.788  1.00  0.00     0.022 A 
HETATM   14  O6  UNL     1      -3.771   2.026   2.373  1.00  0.00    -0.300 OA
HETATM   15  C21 UNL     1      -4.623   3.155   2.090  1.00  0.00     0.304 A 
ENDBRANCH   6   7
ENDBRANCH   1   6
BRANCH   5  16
HETATM   16  C12 UNL     1       1.022  -0.663   1.332  1.00  0.00     0.032 C 
BRANCH  16  17
HETATM   17  C13 UNL     1       1.927   0.340   0.686  1.00  0.00    -0.020 A 
HETATM   18  C14 UNL     1       2.562   1.317   1.475  1.00  0.00    -0.002 A 
HETATM   19  C15 UNL     1       3.410   2.261   0.890  1.00  0.00     0.026 A 
HETATM   20  C16 UNL     1       3.596   2.197  -0.474  1.00  0.00     0.119 A 
HETATM   21  C17 UNL     1       2.976   1.242  -1.245  1.00  0.00     0.119 A 
HETATM   22  O3  UNL     1       4.381   3.029  -1.209  1.00  0.00    -0.300 OA
HETATM   23  C18 UNL     1       2.135   0.298  -0.695  1.00  0.00     0.022 A 
HETATM   24  O2  UNL     1       3.293   1.353  -2.563  1.00  0.00    -0.300 OA
HETATM   25  C19 UNL     1       4.184   2.487  -2.532  1.00  0.00     0.304 A 
ENDBRANCH  16  17
ENDBRANCH   5  16
BRANCH   4  26
HETATM   26  O4  UNL     1       1.360  -3.681  -0.529  1.00  0.00    -0.328 OA
HETATM   27  C20 UNL     1       2.644  -4.240  -0.459  1.00  0.00     0.177 C 
ENDBRANCH   4  26
TORSDOF 5
