REMARK  3 active torsions:
REMARK  status: ('A' for Active; 'I' for Inactive)
REMARK    1  A    between atoms: C14_15  and  O3_22 
REMARK    2  A    between atoms: C15_16  and  O2_20 
REMARK    3  A    between atoms: C16_17  and  O1_18 
ROOT
HETATM    1  C1  UNL     1      -4.245   1.913  -0.522  1.00  0.00    -0.000 A 
HETATM    2  C2  UNL     1      -4.062   0.663  -0.085  1.00  0.00    -0.004 A 
HETATM    3  C3  UNL     1      -2.831   0.157   0.121  1.00  0.00    -0.020 A 
HETATM    4  C4  UNL     1      -1.708   0.890  -0.067  1.00  0.00    -0.002 A 
HETATM    5  C5  UNL     1      -1.938   2.134  -0.550  1.00  0.00    -0.000 A 
HETATM    6  C6  UNL     1      -3.158   2.650  -0.766  1.00  0.00    -0.000 A 
HETATM    7  C7  UNL     1      -0.460   0.370   0.117  1.00  0.00     0.022 C 
HETATM    8  C8  UNL     1      -0.322  -0.971   0.176  1.00  0.00     0.011 C 
HETATM    9  C9  UNL     1      -1.472  -1.935   0.292  1.00  0.00     0.283 C 
HETATM   10  C10 UNL     1      -2.781  -1.250   0.645  1.00  0.00     0.067 C 
HETATM   11  N1  UNL     1      -1.512  -2.733  -0.923  1.00  0.00     0.342 N 
HETATM   12  C11 UNL     1      -0.260  -3.475  -1.111  1.00  0.00     0.295 C 
HETATM   13  C12 UNL     1       0.857  -3.082  -0.116  1.00  0.00     0.066 C 
HETATM   14  C13 UNL     1       0.875  -1.570   0.053  1.00  0.00     0.002 C 
HETATM   15  C14 UNL     1       2.022  -0.868   0.021  1.00  0.00     0.114 C 
HETATM   16  C15 UNL     1       1.909   0.477   0.113  1.00  0.00     0.138 C 
HETATM   17  C16 UNL     1       0.696   1.077   0.235  1.00  0.00     0.118 C 
ENDROOT
BRANCH  15  18
HETATM   18  O3  UNL     1       3.204  -1.575  -0.065  1.00  0.00    -0.326 OA
HETATM   19  C19 UNL     1       4.356  -1.143   0.620  1.00  0.00     0.181 C 
ENDBRANCH  15  18
BRANCH  16  20
HETATM   20  O2  UNL     1       3.036   1.263   0.175  1.00  0.00    -0.324 OA
HETATM   21  C18 UNL     1       3.435   1.802  -1.067  1.00  0.00     0.182 C 
ENDBRANCH  16  20
BRANCH  17  22
HETATM   22  O1  UNL     1       0.718   2.450   0.342  1.00  0.00    -0.326 OA
HETATM   23  C17 UNL     1       0.595   2.913   1.668  1.00  0.00     0.181 C 
ENDBRANCH  17  22
TORSDOF 3
