REMARK  8 active torsions:
REMARK  status: ('A' for Active; 'I' for Inactive)
REMARK    1  A    between atoms: C6_6  and  C7_7 
REMARK    2  A    between atoms: C7_7  and  C8_8 
REMARK       I    between atoms: N1_9  and  C25_28 
REMARK    3  A    between atoms: C25_28  and  C26_30 
REMARK       I    between atoms: N3_40  and  C35_41 
REMARK    4  A    between atoms: C35_41  and  C36_42 
REMARK    5  A    between atoms: C37_43  and  O3_44 
REMARK    6  A    between atoms: C37_43  and  C45_54 
REMARK    7  A    between atoms: O3_44  and  C38_45 
REMARK    8  A    between atoms: C38_45  and  C39_46 
ROOT
HETATM    1  C1  UNL     1      -3.469  -1.435   0.153  1.00  0.00     0.000 C 
HETATM    2  C2  UNL     1      -3.388  -2.661   1.075  1.00  0.00     0.002 C 
HETATM    3  C3  UNL     1      -3.097  -3.941   0.268  1.00  0.00     0.022 C 
HETATM    4  C4  UNL     1      -1.841  -3.847  -0.632  1.00  0.00     0.084 C 
HETATM    5  C5  UNL     1      -2.069  -2.610  -1.552  1.00  0.00     0.021 C 
HETATM    6  C6  UNL     1      -2.210  -1.296  -0.736  1.00  0.00     0.004 C 
HETATM    7  C32 UNL     1      -1.000  -2.625  -2.649  1.00  0.00     0.004 C 
HETATM    8  C33 UNL     1       0.377  -2.556  -1.995  1.00  0.00     0.024 C 
HETATM    9  C34 UNL     1       0.575  -3.722  -1.027  1.00  0.00     0.104 C 
HETATM   10  N3  UNL     1      -0.484  -3.920  -0.031  1.00  0.00    -0.319 N 
HETATM   11  C35 UNL     1      -0.248  -4.170   1.315  1.00  0.00     0.259 C 
HETATM   12  O5  UNL     1      -1.177  -4.241   2.089  1.00  0.00    -0.267 OA
HETATM   13  C51 UNL     1      -4.674  -2.817   1.904  1.00  0.00     0.000 C 
ENDROOT
BRANCH   6  14
HETATM   14  C7  UNL     1      -2.329   0.031  -1.534  1.00  0.00     0.022 C 
BRANCH  14  15
HETATM   15  C8  UNL     1      -1.059   0.698  -2.122  1.00  0.00     0.084 C 
HETATM   16  N1  UNL     1      -0.267   1.560  -1.233  1.00  0.00    -0.318 N 
HETATM   17  C9  UNL     1      -0.786   2.939  -1.031  1.00  0.00     0.112 C 
HETATM   18  C25 UNL     1       0.675   0.998  -0.397  1.00  0.00     0.257 C 
HETATM   19  C10 UNL     1      -1.076   3.664  -2.362  1.00  0.00     0.147 C 
HETATM   20  C17 UNL     1       0.058   3.771  -0.032  1.00  0.00     0.025 C 
HETATM   21  C11 UNL     1      -1.982   2.766  -3.223  1.00  0.00     0.034 C 
HETATM   22  C13 UNL     1      -1.657   5.096  -2.310  1.00  0.00     0.063 C 
HETATM   23  O1  UNL     1       0.144   3.774  -3.057  1.00  0.00    -0.224 OA
HETATM   24  C12 UNL     1      -1.345   1.397  -3.463  1.00  0.00     0.025 C 
HETATM   25  C14 UNL     1      -0.785   6.103  -1.548  1.00  0.00     0.006 C 
HETATM   26  C22 UNL     1      -3.137   5.278  -1.905  1.00  0.00     0.253 C 
HETATM   27  C15 UNL     1      -1.109   6.120  -0.051  1.00  0.00     0.032 C 
HETATM   28  C16 UNL     1      -0.610   4.908   0.766  1.00  0.00     0.004 C 
HETATM   29  C21 UNL     1      -2.615   6.365   0.157  1.00  0.00     0.219 C 
HETATM   30  C18 UNL     1      -1.633   4.354   1.781  1.00  0.00     0.000 C 
HETATM   31  C19 UNL     1      -2.392   5.437   2.564  1.00  0.00     0.002 C 
HETATM   32  C20 UNL     1      -2.850   6.596   1.662  1.00  0.00     0.033 C 
HETATM   33  C24 UNL     1      -1.564   5.952   3.756  1.00  0.00     0.000 C 
HETATM   34  N2  UNL     1      -3.373   5.283  -0.468  1.00  0.00     0.137 N 
HETATM   35  C23 UNL     1      -4.799   5.368  -0.190  1.00  0.00     0.285 C 
HETATM   36  O2  UNL     1       0.338   0.165   0.411  1.00  0.00    -0.267 OA
BRANCH  18  37
HETATM   37  C26 UNL     1       1.961   1.452  -0.384  1.00  0.00     0.056 A 
HETATM   38  C27 UNL     1       2.775   1.157   0.650  1.00  0.00     0.005 A 
HETATM   39  C28 UNL     1       4.043   1.595   0.681  1.00  0.00     0.007 A 
HETATM   40  C29 UNL     1       4.524   2.330  -0.332  1.00  0.00     0.035 A 
HETATM   41  C30 UNL     1       3.735   2.613  -1.380  1.00  0.00     0.007 A 
HETATM   42 BR1  UNL     1       6.312   2.950  -0.297  1.00  0.00    -0.049 Br
HETATM   43  C31 UNL     1       2.469   2.168  -1.403  1.00  0.00     0.005 A 
ENDBRANCH  18  37
ENDBRANCH  14  15
ENDBRANCH   6  14
BRANCH  11  44
HETATM   44  C36 UNL     1       0.951  -4.120   1.970  1.00  0.00     0.085 C 
HETATM   45  C37 UNL     1       2.254  -4.387   1.698  1.00  0.00     0.108 C 
BRANCH  45  46
HETATM   46  O3  UNL     1       3.087  -3.797   2.636  1.00  0.00    -0.273 OA
BRANCH  46  47
HETATM   47  C38 UNL     1       4.409  -4.120   2.783  1.00  0.00     0.300 C 
HETATM   48  O4  UNL     1       5.220  -3.231   2.607  1.00  0.00    -0.259 OA
BRANCH  47  49
HETATM   49  C39 UNL     1       4.875  -5.356   3.139  1.00  0.00     0.064 A 
HETATM   50  C40 UNL     1       6.200  -5.580   3.245  1.00  0.00     0.006 A 
HETATM   51  C41 UNL     1       6.676  -6.790   3.578  1.00  0.00     0.007 A 
HETATM   52  C42 UNL     1       5.827  -7.802   3.810  1.00  0.00     0.035 A 
HETATM   53  C43 UNL     1       4.505  -7.593   3.717  1.00  0.00     0.007 A 
HETATM   54 BR2  UNL     1       6.493  -9.513   4.269  1.00  0.00    -0.049 Br
HETATM   55  C44 UNL     1       4.035  -6.378   3.388  1.00  0.00     0.006 A 
ENDBRANCH  47  49
ENDBRANCH  46  47
ENDBRANCH  45  46
BRANCH  45  56
HETATM   56  C45 UNL     1       2.682  -5.118   0.636  1.00  0.00     0.023 A 
HETATM   57  C46 UNL     1       3.934  -5.055   0.136  1.00  0.00     0.003 A 
HETATM   58  C47 UNL     1       4.349  -5.803  -0.898  1.00  0.00     0.007 A 
HETATM   59  C48 UNL     1       3.511  -6.678  -1.470  1.00  0.00     0.035 A 
HETATM   60  C49 UNL     1       2.266  -6.791  -0.986  1.00  0.00     0.007 A 
HETATM   61 BR3  UNL     1       4.080  -7.739  -2.928  1.00  0.00    -0.049 Br
HETATM   62  C50 UNL     1       1.873  -6.023   0.043  1.00  0.00     0.003 A 
ENDBRANCH  45  56
ENDBRANCH  11  44
TORSDOF 8
