REMARK  1 active torsions:
REMARK  status: ('A' for Active; 'I' for Inactive)
REMARK    1  A    between atoms: C13_16  and  C16_19 
ROOT
HETATM    1  C1  UNL     1      -2.500  -1.321   0.357  1.00  0.00     0.002 C 
HETATM    2  C2  UNL     1      -2.134  -2.724   0.863  1.00  0.00     0.013 C 
HETATM    3  C3  UNL     1      -0.776  -3.208   0.266  1.00  0.00     0.096 C 
HETATM    4  C4  UNL     1       0.059  -1.965   0.212  1.00  0.00    -0.007 A 
HETATM    5  C5  UNL     1      -0.072  -0.709   1.005  1.00  0.00     0.036 A 
HETATM    6  C6  UNL     1      -1.546  -0.251   0.923  1.00  0.00     0.008 C 
HETATM    7  C7  UNL     1       0.864   0.323   0.380  1.00  0.00    -0.016 A 
HETATM    8  C8  UNL     1       1.688   0.049  -0.654  1.00  0.00     0.037 A 
HETATM    9  C9  UNL     1       1.730  -1.180  -1.244  1.00  0.00     0.217 A 
HETATM   10  C10 UNL     1       0.886  -2.143  -0.798  1.00  0.00     0.135 A 
HETATM   11  O1  UNL     1       0.669  -3.268  -1.229  1.00  0.00    -0.274 OA
HETATM   12  C11 UNL     1      -0.670  -3.715  -1.342  1.00  0.00     0.279 C 
HETATM   13  O2  UNL     1      -1.813  -4.019  -1.114  1.00  0.00    -0.264 OA
HETATM   14  O3  UNL     1       2.462  -1.446  -2.172  1.00  0.00    -0.284 OA
HETATM   15  C12 UNL     1       2.488   1.022  -1.135  1.00  0.00     0.001 A 
HETATM   16  C13 UNL     1       2.503   2.273  -0.640  1.00  0.00     0.005 A 
HETATM   17  C14 UNL     1       1.674   2.528   0.386  1.00  0.00    -0.002 A 
HETATM   18  C15 UNL     1       0.879   1.571   0.883  1.00  0.00    -0.004 A 
HETATM   19  C19 UNL     1       0.388  -0.986   2.451  1.00  0.00     0.009 C 
HETATM   20  C20 UNL     1      -0.176  -4.314   1.160  1.00  0.00     0.014 C 
ENDROOT
BRANCH  16  21
HETATM   21  C16 UNL     1       3.417   3.329  -1.252  1.00  0.00     0.146 C 
HETATM   22  C17 UNL     1       3.472   4.665  -0.502  1.00  0.00     0.038 C 
HETATM   23  C18 UNL     1       3.005   3.599  -2.705  1.00  0.00     0.038 C 
HETATM   24  O4  UNL     1       4.735   2.817  -1.258  1.00  0.00    -0.222 OA
ENDBRANCH  16  21
TORSDOF 1
