REMARK  1 active torsions:
REMARK  status: ('A' for Active; 'I' for Inactive)
REMARK    1  A    between atoms: C3_3  and  C12_14 
ROOT
HETATM    1  C1  UNL     1       4.992   2.444   0.539  1.00  0.00     0.045 C 
HETATM    2  C2  UNL     1       5.148   0.933   0.431  1.00  0.00     0.097 C 
HETATM    3  C3  UNL     1       3.856   0.270   0.913  1.00  0.00     0.054 C 
HETATM    4  C4  UNL     1       2.645   0.895   0.228  1.00  0.00    -0.020 A 
HETATM    5  C5  UNL     1       2.711   2.087  -0.420  1.00  0.00    -0.024 A 
HETATM    6  C6  UNL     1       3.995   2.896  -0.522  1.00  0.00     0.029 C 
HETATM    7  C7  UNL     1       1.607   2.605  -0.996  1.00  0.00     0.022 A 
HETATM    8  C8  UNL     1       0.448   1.943  -0.912  1.00  0.00     0.119 A 
HETATM    9  C9  UNL     1       0.378   0.778  -0.264  1.00  0.00     0.119 A 
HETATM   10  C10 UNL     1       1.463   0.250   0.311  1.00  0.00     0.022 A 
HETATM   11  O1  UNL     1      -0.763   0.324  -0.284  1.00  0.00    -0.300 OA
HETATM   12  C11 UNL     1      -1.576   1.246  -1.012  1.00  0.00     0.304 A 
HETATM   13  O2  UNL     1      -0.644   2.269  -1.368  1.00  0.00    -0.300 OA
HETATM   14  C19 UNL     1       6.439   0.722   1.190  1.00  0.00     0.272 C 
HETATM   15  O5  UNL     1       7.173   1.867   1.092  1.00  0.00    -0.302 OA
HETATM   16  C20 UNL     1       6.443   2.883   0.445  1.00  0.00     0.153 C 
HETATM   17  O6  UNL     1       6.783  -0.293   1.754  1.00  0.00    -0.264 OA
ENDROOT
BRANCH   3  18
HETATM   18  C12 UNL     1       3.930  -1.238   0.736  1.00  0.00    -0.016 A 
HETATM   19  C13 UNL     1       4.058  -1.778  -0.492  1.00  0.00     0.022 A 
HETATM   20  C14 UNL     1       4.142  -3.109  -0.611  1.00  0.00     0.119 A 
HETATM   21  C15 UNL     1       4.089  -3.906   0.460  1.00  0.00     0.119 A 
HETATM   22  O4  UNL     1       4.270  -3.760  -1.645  1.00  0.00    -0.300 OA
HETATM   23  C16 UNL     1       3.950  -3.394   1.688  1.00  0.00     0.026 A 
HETATM   24  O3  UNL     1       4.181  -5.089   0.144  1.00  0.00    -0.300 OA
HETATM   25  C17 UNL     1       3.875  -2.057   1.807  1.00  0.00    -0.002 A 
HETATM   26  C18 UNL     1       4.318  -5.140  -1.276  1.00  0.00     0.304 A 
ENDBRANCH   3  18
TORSDOF 1
