REMARK  3 active torsions:
REMARK  status: ('A' for Active; 'I' for Inactive)
REMARK    1  A    between atoms: C17_18  and  O2_20 
REMARK    2  A    between atoms: O2_20  and  C19_21 
REMARK    3  A    between atoms: C20_23  and  C24_30 
ROOT
HETATM    1  C1  UNL     1       2.909   0.219  -1.035  1.00  0.00    -0.028 C 
HETATM    2  C2  UNL     1       2.999  -1.117  -1.166  1.00  0.00    -0.025 C 
HETATM    3  C3  UNL     1       4.099  -1.872  -1.305  1.00  0.00    -0.009 C 
HETATM    4  C4  UNL     1       5.400  -1.559  -1.315  1.00  0.00    -0.027 C 
HETATM    5  C5  UNL     1       6.080  -0.240  -1.065  1.00  0.00     0.025 C 
HETATM    6  C6  UNL     1       5.234   0.699  -0.174  1.00  0.00     0.026 C 
HETATM    7  C7  UNL     1       3.880   1.119  -0.758  1.00  0.00    -0.026 C 
HETATM    8  C8  UNL     1       3.582   2.423  -0.934  1.00  0.00    -0.005 C 
HETATM    9  C9  UNL     1       6.122   1.880   0.292  1.00  0.00     0.005 C 
HETATM   10  C10 UNL     1       6.936   2.506  -0.857  1.00  0.00     0.003 C 
HETATM   11  C11 UNL     1       7.560   1.454  -1.791  1.00  0.00     0.029 C 
HETATM   12  C12 UNL     1       6.446   0.539  -2.338  1.00  0.00     0.007 C 
HETATM   13  C13 UNL     1       8.471   0.457  -1.065  1.00  0.00     0.127 C 
HETATM   14  C14 UNL     1       7.482  -0.538  -0.443  1.00  0.00     0.035 C 
HETATM   15  C15 UNL     1       9.484   1.041  -0.086  1.00  0.00     0.033 C 
HETATM   16  O1  UNL     1       9.222  -0.219  -2.046  1.00  0.00    -0.226 OA
HETATM   17  C16 UNL     1       1.620  -1.766  -1.336  1.00  0.00     0.044 C 
HETATM   18  C17 UNL     1       0.661  -0.638  -0.897  1.00  0.00     0.126 C 
HETATM   19  C18 UNL     1       1.460   0.622  -1.250  1.00  0.00     0.056 C 
HETATM   20  C25 UNL     1       1.464  -3.073  -0.532  1.00  0.00     0.007 C 
HETATM   21  C26 UNL     1       1.385  -2.088  -2.828  1.00  0.00     0.007 C 
ENDROOT
BRANCH  18  22
HETATM   22  O2  UNL     1       0.441  -0.619   0.492  1.00  0.00    -0.331 OA
BRANCH  22  23
HETATM   23  C19 UNL     1      -0.748  -1.246   0.920  1.00  0.00     0.270 C 
HETATM   24  O3  UNL     1      -1.847  -0.383   0.724  1.00  0.00    -0.326 OA
HETATM   25  C20 UNL     1      -1.987   0.691   1.613  1.00  0.00     0.184 C 
HETATM   26  C21 UNL     1      -1.888   0.267   3.072  1.00  0.00     0.215 C 
HETATM   27  C22 UNL     1      -0.685  -0.608   3.363  1.00  0.00     0.220 C 
HETATM   28  O6  UNL     1      -3.048  -0.458   3.423  1.00  0.00    -0.218 OA
HETATM   29  C23 UNL     1      -0.625  -1.733   2.348  1.00  0.00     0.241 C 
HETATM   30  O5  UNL     1       0.500   0.148   3.313  1.00  0.00    -0.218 OA
HETATM   31  O4  UNL     1      -1.681  -2.631   2.605  1.00  0.00    -0.215 OA
BRANCH  25  32
HETATM   32  C24 UNL     1      -1.124   1.884   1.223  1.00  0.00     0.214 C 
HETATM   33  O7  UNL     1      -1.612   3.053   1.853  1.00  0.00    -0.218 OA
ENDBRANCH  25  32
ENDBRANCH  22  23
ENDBRANCH  18  22
TORSDOF 3
