REMARK  3 active torsions:
REMARK  status: ('A' for Active; 'I' for Inactive)
REMARK    1  A    between atoms: O1_1  and  C1_2 
REMARK    2  A    between atoms: O1_1  and  C7_13 
REMARK    3  A    between atoms: C2_4  and  C6_11 
ROOT
HETATM    1  C7  UNL     1      -0.487  -0.664  -0.580  1.00  0.00     0.125 C 
HETATM    2  C8  UNL     1      -1.156  -1.048   0.750  1.00  0.00     0.079 C 
HETATM    3  C9  UNL     1      -0.084  -1.405   1.779  1.00  0.00     0.180 C 
HETATM    4  C10 UNL     1       1.356  -0.931   1.557  1.00  0.00     0.181 C 
HETATM    5  C11 UNL     1       1.354   0.441   0.898  1.00  0.00     0.056 C 
HETATM    6  C12 UNL     1       0.567   0.442  -0.434  1.00  0.00     0.037 C 
HETATM    7  C13 UNL     1       2.748   1.039   0.805  1.00  0.00    -0.042 C 
HETATM    8  C14 UNL     1       3.879   0.586   1.725  1.00  0.00     0.018 C 
HETATM    9  C15 UNL     1       3.556  -0.475   2.816  1.00  0.00     0.009 C 
HETATM   10  C16 UNL     1       2.072  -0.851   2.903  1.00  0.00     0.038 C 
HETATM   11  C17 UNL     1       4.460  -1.724   2.684  1.00  0.00     0.003 C 
HETATM   12  C18 UNL     1       5.835  -1.117   2.997  1.00  0.00     0.028 C 
HETATM   13  C19 UNL     1       6.287  -0.318   1.761  1.00  0.00     0.003 C 
HETATM   14  C20 UNL     1       5.114   0.175   0.895  1.00  0.00     0.004 C 
HETATM   15  C21 UNL     1       5.543  -0.305   4.274  1.00  0.00     0.127 C 
HETATM   16  C22 UNL     1       4.045   0.023   4.203  1.00  0.00     0.031 C 
HETATM   17  C23 UNL     1       6.407   0.928   4.522  1.00  0.00     0.033 C 
HETATM   18  O7  UNL     1       5.749  -1.162   5.372  1.00  0.00    -0.226 OA
HETATM   19  C24 UNL     1       2.963   2.090  -0.009  1.00  0.00    -0.009 C 
HETATM   20  O8  UNL     1       2.037  -1.827   0.710  1.00  0.00    -0.218 OA
HETATM   21  O9  UNL     1      -0.388  -2.034   2.769  1.00  0.00    -0.293 OA
HETATM   22  C25 UNL     1      -2.066  -2.284   0.557  1.00  0.00     0.010 C 
HETATM   23  C26 UNL     1      -2.017   0.095   1.325  1.00  0.00     0.010 C 
ENDROOT
BRANCH   1  24
HETATM   24  O1  UNL     1      -1.505  -0.324  -1.482  1.00  0.00    -0.331 OA
BRANCH  24  25
HETATM   25  C1  UNL     1      -1.113  -0.151  -2.827  1.00  0.00     0.270 C 
HETATM   26  O2  UNL     1      -1.008   1.245  -3.007  1.00  0.00    -0.326 OA
HETATM   27  C2  UNL     1      -0.709   1.607  -4.331  1.00  0.00     0.184 C 
HETATM   28  C3  UNL     1      -1.802   1.107  -5.269  1.00  0.00     0.215 C 
HETATM   29  C4  UNL     1      -1.954  -0.393  -5.137  1.00  0.00     0.220 C 
HETATM   30  O5  UNL     1      -1.493   1.389  -6.611  1.00  0.00    -0.218 OA
HETATM   31  C5  UNL     1      -2.230  -0.703  -3.685  1.00  0.00     0.241 C 
HETATM   32  O4  UNL     1      -3.029  -0.829  -5.928  1.00  0.00    -0.218 OA
HETATM   33  O3  UNL     1      -2.307  -2.096  -3.519  1.00  0.00    -0.215 OA
BRANCH  27  34
HETATM   34  C6  UNL     1      -0.579   3.122  -4.395  1.00  0.00     0.214 C 
HETATM   35  O6  UNL     1       0.503   3.547  -3.590  1.00  0.00    -0.218 OA
ENDBRANCH  27  34
ENDBRANCH  24  25
ENDBRANCH   1  24
TORSDOF 3
