REMARK  5 active torsions:
REMARK  status: ('A' for Active; 'I' for Inactive)
REMARK    1  A    between atoms: C21_22  and  C22_23 
REMARK    2  A    between atoms: C22_23  and  C23_24 
REMARK    3  A    between atoms: C22_23  and  C24_27 
REMARK    4  A    between atoms: C24_27  and  C25_28 
REMARK    5  A    between atoms: C25_28  and  C26_29 
ROOT
HETATM    1  C1  UNL     1       5.022   0.900  -0.623  1.00  0.00     0.006 C 
HETATM    2  C2  UNL     1       4.987  -0.657  -0.671  1.00  0.00     0.017 C 
HETATM    3  C3  UNL     1       3.706  -1.174  -0.045  1.00  0.00    -0.053 C 
HETATM    4  C4  UNL     1       2.542  -0.537  -0.289  1.00  0.00    -0.053 C 
HETATM    5  C5  UNL     1       2.510   0.804  -1.004  1.00  0.00     0.021 C 
HETATM    6  C6  UNL     1       3.850   1.390  -1.483  1.00  0.00     0.005 C 
HETATM    7  C7  UNL     1       1.214  -1.086   0.248  1.00  0.00     0.015 C 
HETATM    8  C8  UNL     1       1.296  -2.640   0.248  1.00  0.00     0.010 C 
HETATM    9  C9  UNL     1       2.453  -3.079   1.157  1.00  0.00     0.005 C 
HETATM   10  C10 UNL     1       3.788  -2.507   0.663  1.00  0.00     0.021 C 
HETATM   11  C11 UNL     1      -0.052  -3.406   0.428  1.00  0.00     0.052 C 
HETATM   12  C12 UNL     1      -1.200  -2.448   0.741  1.00  0.00     0.150 C 
HETATM   13  C13 UNL     1      -1.325  -1.181  -0.080  1.00  0.00     0.065 C 
HETATM   14  C14 UNL     1       0.015  -0.699  -0.647  1.00  0.00     0.011 C 
HETATM   15  O1  UNL     1      -2.030  -2.686   1.591  1.00  0.00    -0.296 OA
HETATM   16  C15 UNL     1      -0.454  -4.116  -0.889  1.00  0.00     0.007 C 
HETATM   17  C16 UNL     1      -0.019  -4.498   1.522  1.00  0.00     0.007 C 
HETATM   18  C17 UNL     1       1.035  -0.468   1.654  1.00  0.00     0.004 C 
HETATM   19  C18 UNL     1       4.996  -1.310  -2.083  1.00  0.00     0.004 C 
HETATM   20  C19 UNL     1       6.327  -1.007   0.001  1.00  0.00     0.037 C 
HETATM   21  C20 UNL     1       7.286   0.111  -0.435  1.00  0.00     0.153 C 
HETATM   22  C21 UNL     1       6.454   1.193  -1.144  1.00  0.00     0.041 C 
HETATM   23  O4  UNL     1       8.274  -0.390  -1.301  1.00  0.00    -0.223 OA
HETATM   24  C30 UNL     1       4.855   1.460   0.810  1.00  0.00     0.000 C 
ENDROOT
BRANCH  22  25
HETATM   25  C22 UNL     1       7.046   2.624  -1.194  1.00  0.00     0.090 C 
BRANCH  25  26
HETATM   26  C23 UNL     1       6.049   3.646  -1.734  1.00  0.00     0.185 C 
HETATM   27  O2  UNL     1       5.751   3.754  -2.904  1.00  0.00    -0.647 OA
HETATM   28  O3  UNL     1       5.511   4.405  -0.757  1.00  0.00    -0.647 OA
ENDBRANCH  25  26
BRANCH  25  29
HETATM   29  C24 UNL     1       7.882   3.132   0.003  1.00  0.00     0.015 C 
BRANCH  29  30
HETATM   30  C25 UNL     1       9.386   2.800  -0.102  1.00  0.00     0.026 C 
BRANCH  30  31
HETATM   31  C26 UNL     1      10.215   3.427   0.992  1.00  0.00    -0.035 C 
HETATM   32  C27 UNL     1      11.471   3.076   1.325  1.00  0.00    -0.048 C 
HETATM   33  C28 UNL     1      12.248   1.962   0.664  1.00  0.00     0.026 C 
HETATM   34  C29 UNL     1      12.229   3.808   2.409  1.00  0.00     0.026 C 
ENDBRANCH  30  31
ENDBRANCH  29  30
ENDBRANCH  25  29
ENDBRANCH  22  25
TORSDOF 5
