REMARK  5 active torsions:
REMARK  status: ('A' for Active; 'I' for Inactive)
REMARK    1  A    between atoms: C21_22  and  C22_23 
REMARK    2  A    between atoms: C22_23  and  C23_24 
REMARK    3  A    between atoms: C22_23  and  C24_26 
REMARK    4  A    between atoms: C24_26  and  C25_27 
REMARK    5  A    between atoms: C25_27  and  C26_28 
ROOT
HETATM    1  C1  UNL     1       4.702   0.965   0.369  1.00  0.00     0.010 C 
HETATM    2  C2  UNL     1       4.874  -0.424  -0.309  1.00  0.00     0.047 C 
HETATM    3  C3  UNL     1       3.566  -1.205  -0.219  1.00  0.00    -0.029 C 
HETATM    4  C4  UNL     1       2.384  -0.559  -0.345  1.00  0.00    -0.031 C 
HETATM    5  C5  UNL     1       2.392   0.779  -0.521  1.00  0.00    -0.031 C 
HETATM    6  C6  UNL     1       3.604   1.675  -0.432  1.00  0.00     0.026 C 
HETATM    7  C7  UNL     1       1.032  -1.297  -0.337  1.00  0.00     0.019 C 
HETATM    8  C8  UNL     1       1.167  -2.689   0.330  1.00  0.00     0.015 C 
HETATM    9  C9  UNL     1       2.397  -3.433  -0.196  1.00  0.00     0.026 C 
HETATM   10  C10 UNL     1       3.604  -2.546  -0.150  1.00  0.00    -0.031 C 
HETATM   11  C11 UNL     1      -0.118  -3.564   0.353  1.00  0.00     0.052 C 
HETATM   12  C12 UNL     1      -1.335  -2.643   0.405  1.00  0.00     0.150 C 
HETATM   13  C13 UNL     1      -1.133  -1.323   1.120  1.00  0.00     0.065 C 
HETATM   14  C14 UNL     1      -0.007  -0.489   0.491  1.00  0.00     0.012 C 
HETATM   15  O1  UNL     1      -2.416  -2.951  -0.043  1.00  0.00    -0.296 OA
HETATM   16  C15 UNL     1      -0.254  -4.532  -0.843  1.00  0.00     0.007 C 
HETATM   17  C16 UNL     1      -0.164  -4.430   1.634  1.00  0.00     0.007 C 
HETATM   18  C17 UNL     1       0.572  -1.377  -1.809  1.00  0.00     0.004 C 
HETATM   19  C18 UNL     1       5.199  -0.376  -1.824  1.00  0.00     0.007 C 
HETATM   20  C19 UNL     1       6.094  -0.946   0.457  1.00  0.00     0.156 C 
HETATM   21  C20 UNL     1       7.006   0.280   0.554  1.00  0.00     0.033 C 
HETATM   22  C21 UNL     1       6.140   1.564   0.517  1.00  0.00     0.006 C 
HETATM   23  O3  UNL     1       6.777  -1.990  -0.195  1.00  0.00    -0.223 OA
HETATM   24  C30 UNL     1       4.159   0.843   1.830  1.00  0.00     0.001 C 
ENDROOT
BRANCH  22  25
HETATM   25  C22 UNL     1       6.683   2.672  -0.430  1.00  0.00     0.034 C 
BRANCH  25  26
HETATM   26  C23 UNL     1       5.767   3.914  -0.492  1.00  0.00     0.182 C 
HETATM   27  O2  UNL     1       5.244   4.083  -1.795  1.00  0.00    -0.221 OA
ENDBRANCH  25  26
BRANCH  25  28
HETATM   28  C24 UNL     1       8.087   3.228  -0.052  1.00  0.00     0.007 C 
BRANCH  28  29
HETATM   29  C25 UNL     1       9.312   2.301  -0.091  1.00  0.00     0.025 C 
BRANCH  29  30
HETATM   30  C26 UNL     1      10.611   3.049   0.110  1.00  0.00    -0.035 C 
HETATM   31  C27 UNL     1      11.787   2.501   0.465  1.00  0.00    -0.048 C 
HETATM   32  C28 UNL     1      11.998   1.025   0.701  1.00  0.00     0.026 C 
HETATM   33  C29 UNL     1      13.020   3.352   0.661  1.00  0.00     0.026 C 
ENDBRANCH  29  30
ENDBRANCH  28  29
ENDBRANCH  25  28
ENDBRANCH  22  25
TORSDOF 5
