REMARK  7 active torsions:
REMARK  status: ('A' for Active; 'I' for Inactive)
REMARK    1  A    between atoms: C1_2  and  C2_4 
REMARK    2  A    between atoms: C2_4  and  C3_5 
REMARK    3  A    between atoms: C3_5  and  C4_6 
REMARK    4  A    between atoms: C4_6  and  C5_7 
REMARK       I    between atoms: C5_7  and  N1_8 
REMARK    5  A    between atoms: C6_9  and  C7_10 
REMARK    6  A    between atoms: C7_10  and  C8_11 
REMARK    7  A    between atoms: C7_10  and  C9_13 
ROOT
HETATM    1  C5  UNL     1       2.807  -0.934   0.148  1.00  0.00     0.286 C 
HETATM    2  N1  UNL     1       3.615   0.143  -0.047  1.00  0.00    -0.208 NA
HETATM    3  C6  UNL     1       4.957   0.187   0.021  1.00  0.00     0.100 C 
HETATM    4  O4  UNL     1       3.226  -2.042   0.382  1.00  0.00    -0.267 OA
ENDROOT
BRANCH   1   5
HETATM    5  C4  UNL     1       1.323  -0.605   0.071  1.00  0.00     0.235 C 
HETATM    6  O5  UNL     1       1.106   0.447  -0.853  1.00  0.00    -0.213 OA
BRANCH   5   7
HETATM    7  C3  UNL     1       0.457  -1.810  -0.299  1.00  0.00     0.093 C 
BRANCH   7   8
HETATM    8  C2  UNL     1      -1.057  -1.546  -0.229  1.00  0.00     0.390 C 
HETATM    9  N2  UNL     1      -1.481  -1.236   1.145  1.00  0.00     0.628 N 
BRANCH   8  10
HETATM   10  C1  UNL     1      -1.847  -2.742  -0.733  1.00  0.00     0.224 C 
HETATM   11  O1  UNL     1      -2.428  -2.791  -1.793  1.00  0.00    -0.646 OA
HETATM   12  O2  UNL     1      -1.829  -3.735   0.180  1.00  0.00    -0.646 OA
ENDBRANCH   8  10
ENDBRANCH   7   8
ENDBRANCH   5   7
ENDBRANCH   1   5
BRANCH   3  13
HETATM   13  C7  UNL     1       5.686   1.301  -0.189  1.00  0.00     0.030 C 
BRANCH  13  14
HETATM   14  C8  UNL     1       4.959   2.588  -0.529  1.00  0.00     0.210 C 
HETATM   15  O3  UNL     1       3.985   2.902   0.459  1.00  0.00    -0.215 OA
ENDBRANCH  13  14
BRANCH  13  16
HETATM   16  C9  UNL     1       7.029   1.210  -0.087  1.00  0.00    -0.000 C 
HETATM   17  C10 UNL     1       7.929   2.190  -0.266  1.00  0.00    -0.000 C 
ENDBRANCH  13  16
ENDBRANCH   3  13
TORSDOF 7
