REMARK  2 active torsions:
REMARK  status: ('A' for Active; 'I' for Inactive)
REMARK    1  A    between atoms: C10_11  and  C13_16 
REMARK    2  A    between atoms: C14_20  and  C17_24 
ROOT
HETATM    1  C1  UNL     1       0.006  -1.530  -0.842  1.00  0.00     0.094 A 
HETATM    2  C2  UNL     1      -0.006  -2.810  -1.219  1.00  0.00     0.051 A 
HETATM    3  C3  UNL     1       1.147  -3.492  -1.358  1.00  0.00     0.138 A 
HETATM    4  C4  UNL     1       2.320  -2.850  -1.117  1.00  0.00     0.087 A 
HETATM    5  C5  UNL     1       2.348  -1.549  -0.748  1.00  0.00     0.103 A 
HETATM    6  C6  UNL     1       1.169  -0.920  -0.617  1.00  0.00     0.026 A 
HETATM    7  C7  UNL     1       0.932   0.515  -0.251  1.00  0.00     0.063 C 
HETATM    8  C8  UNL     1      -0.586   0.390   0.006  1.00  0.00     0.161 C 
HETATM    9  O1  UNL     1      -0.976  -0.813  -0.663  1.00  0.00    -0.330 OA
HETATM   10  C9  UNL     1      -1.468   1.587  -0.374  1.00  0.00     0.185 C 
HETATM   11  C10 UNL     1      -1.939   2.235   0.941  1.00  0.00     0.099 C 
HETATM   12  C11 UNL     1      -1.112   1.552   2.030  1.00  0.00     0.190 C 
HETATM   13  C12 UNL     1      -0.930   0.157   1.481  1.00  0.00     0.210 C 
HETATM   14  O2  UNL     1       0.073  -0.550   2.162  1.00  0.00    -0.218 OA
HETATM   15  O3  UNL     1      -1.788   1.512   3.260  1.00  0.00    -0.221 OA
HETATM   16  O5  UNL     1      -0.773   2.517  -1.165  1.00  0.00    -0.221 OA
HETATM   17  O6  UNL     1       3.488  -0.841  -0.508  1.00  0.00    -0.307 OA
HETATM   18  C14 UNL     1       4.682  -1.486  -0.669  1.00  0.00     0.103 A 
HETATM   19  C15 UNL     1       4.664  -2.784  -1.026  1.00  0.00     0.067 A 
HETATM   20  C16 UNL     1       3.520  -3.482  -1.251  1.00  0.00     0.202 A 
HETATM   21  O7  UNL     1       3.635  -4.643  -1.574  1.00  0.00    -0.286 OA
HETATM   22  O9  UNL     1       1.032  -4.804  -1.717  1.00  0.00    -0.190 OA
ENDROOT
BRANCH  11  23
HETATM   23  C13 UNL     1      -1.841   3.756   1.012  1.00  0.00     0.188 C 
HETATM   24  O4  UNL     1      -2.504   4.326  -0.098  1.00  0.00    -0.221 OA
ENDBRANCH  11  23
BRANCH  18  25
HETATM   25  C17 UNL     1       5.839  -0.801  -0.473  1.00  0.00     0.023 A 
HETATM   26  C18 UNL     1       5.781   0.505  -0.132  1.00  0.00     0.004 A 
HETATM   27  C19 UNL     1       6.881   1.248   0.067  1.00  0.00     0.028 A 
HETATM   28  C20 UNL     1       8.111   0.727  -0.061  1.00  0.00     0.131 A 
HETATM   29  C21 UNL     1       8.184  -0.570  -0.396  1.00  0.00     0.028 A 
HETATM   30  O8  UNL     1       9.224   1.481   0.138  1.00  0.00    -0.190 OA
HETATM   31  C22 UNL     1       7.082  -1.310  -0.596  1.00  0.00     0.004 A 
ENDBRANCH  18  25
TORSDOF 2
