REMARK  10 active torsions:
REMARK  status: ('A' for Active; 'I' for Inactive)
REMARK    1  A    between atoms: C2_2  and  C13_15 
REMARK    2  A    between atoms: C5_5  and  O2_9 
REMARK    3  A    between atoms: C6_6  and  O1_7 
REMARK    4  A    between atoms: O2_9  and  C8_10 
REMARK    5  A    between atoms: C8_10  and  C9_11 
REMARK    6  A    between atoms: C18_22  and  C19_23 
REMARK    7  A    between atoms: C21_25  and  O6_35 
REMARK    8  A    between atoms: C22_26  and  O5_29 
REMARK    9  A    between atoms: O5_29  and  C25_30 
REMARK   10  A    between atoms: C25_30  and  C26_31 
ROOT
HETATM    1  C13 UNL     1       8.485  -1.001   1.035  1.00  0.00     0.140 C 
HETATM    2  O3  UNL     1       9.636  -1.732   0.626  1.00  0.00    -0.352 OA
HETATM    3  C14 UNL     1      10.746  -0.845   0.576  1.00  0.00     0.145 C 
HETATM    4  C15 UNL     1      10.251   0.402   1.286  1.00  0.00     0.066 C 
HETATM    5  C16 UNL     1       8.856   0.419   0.650  1.00  0.00     0.066 C 
HETATM    6  C17 UNL     1       8.382   1.731   1.230  1.00  0.00     0.145 C 
HETATM    7  O4  UNL     1       9.474   2.583   0.938  1.00  0.00    -0.352 OA
HETATM    8  C18 UNL     1      10.671   1.865   1.204  1.00  0.00     0.140 C 
ENDROOT
BRANCH   1   9
HETATM    9  C2  UNL     1       7.194  -1.611   0.539  1.00  0.00     0.007 A 
HETATM   10  C1  UNL     1       7.005  -2.936   0.632  1.00  0.00     0.024 A 
HETATM   11  C6  UNL     1       5.869  -3.580   0.295  1.00  0.00     0.116 A 
HETATM   12  C5  UNL     1       4.826  -2.830  -0.146  1.00  0.00     0.117 A 
HETATM   13  C4  UNL     1       5.014  -1.497  -0.244  1.00  0.00     0.026 A 
HETATM   14  C3  UNL     1       6.166  -0.888   0.077  1.00  0.00     0.000 A 
BRANCH  11  15
HETATM   15  O1  UNL     1       5.880  -4.944   0.506  1.00  0.00    -0.326 OA
HETATM   16  C7  UNL     1       4.690  -5.688   0.601  1.00  0.00     0.181 C 
ENDBRANCH  11  15
BRANCH  12  17
HETATM   17  O2  UNL     1       3.619  -3.422  -0.427  1.00  0.00    -0.324 OA
BRANCH  17  18
HETATM   18  C8  UNL     1       2.435  -2.651  -0.431  1.00  0.00     0.174 C 
BRANCH  18  19
HETATM   19  C9  UNL     1       1.228  -3.558  -0.376  1.00  0.00    -0.002 C 
HETATM   20  C10 UNL     1      -0.053  -3.150  -0.359  1.00  0.00    -0.045 C 
HETATM   21  C11 UNL     1      -0.472  -1.701  -0.421  1.00  0.00     0.026 C 
HETATM   22  C12 UNL     1      -1.192  -4.138  -0.267  1.00  0.00     0.026 C 
ENDBRANCH  18  19
ENDBRANCH  17  18
ENDBRANCH  12  17
ENDBRANCH   1   9
BRANCH   8  23
HETATM   23  C19 UNL     1      11.871   2.278   0.378  1.00  0.00     0.007 A 
HETATM   24  C20 UNL     1      12.957   1.495   0.281  1.00  0.00     0.024 A 
HETATM   25  C21 UNL     1      14.101   1.843  -0.342  1.00  0.00     0.116 A 
HETATM   26  C22 UNL     1      14.160   3.073  -0.912  1.00  0.00     0.117 A 
HETATM   27  C23 UNL     1      13.071   3.862  -0.818  1.00  0.00     0.026 A 
HETATM   28  C24 UNL     1      11.945   3.487  -0.198  1.00  0.00     0.000 A 
BRANCH  25  29
HETATM   29  O6  UNL     1      15.177   0.993  -0.444  1.00  0.00    -0.326 OA
HETATM   30  C30 UNL     1      14.992  -0.388  -0.231  1.00  0.00     0.181 C 
ENDBRANCH  25  29
BRANCH  26  31
HETATM   31  O5  UNL     1      15.278   3.605  -1.520  1.00  0.00    -0.324 OA
BRANCH  31  32
HETATM   32  C25 UNL     1      16.545   3.307  -0.960  1.00  0.00     0.174 C 
BRANCH  32  33
HETATM   33  C26 UNL     1      17.545   4.413  -1.200  1.00  0.00    -0.002 C 
HETATM   34  C27 UNL     1      18.843   4.358  -0.851  1.00  0.00    -0.045 C 
HETATM   35  C28 UNL     1      19.485   3.161  -0.190  1.00  0.00     0.026 C 
HETATM   36  C29 UNL     1      19.775   5.523  -1.087  1.00  0.00     0.026 C 
ENDBRANCH  32  33
ENDBRANCH  31  32
ENDBRANCH  26  31
ENDBRANCH   8  23
TORSDOF 10
