REMARK  1 active torsions:
REMARK  status: ('A' for Active; 'I' for Inactive)
REMARK    1  A    between atoms: C2_2  and  O3_21 
ROOT
HETATM    1  C1  UNL     1       3.028  -2.605   0.325  1.00  0.00     0.153 A 
HETATM    2  C2  UNL     1       1.802  -2.060   0.181  1.00  0.00     0.119 A 
HETATM    3  C3  UNL     1       1.642  -0.703   0.134  1.00  0.00     0.026 A 
HETATM    4  C4  UNL     1       2.775   0.060   0.129  1.00  0.00     0.021 A 
HETATM    5  C5  UNL     1       4.003  -0.497   0.206  1.00  0.00     0.047 A 
HETATM    6  C6  UNL     1       4.111  -1.826   0.320  1.00  0.00     0.033 A 
HETATM    7  C7  UNL     1       5.163   0.220   0.194  1.00  0.00     0.251 A 
HETATM    8  C8  UNL     1       5.091   1.561   0.094  1.00  0.00     0.300 A 
HETATM    9  N1  UNL     1       3.862   2.156   0.057  1.00  0.00    -0.291 N 
HETATM   10  C9  UNL     1       2.730   1.407   0.057  1.00  0.00     0.063 A 
HETATM   11  C10 UNL     1       1.529   1.996  -0.014  1.00  0.00     0.017 A 
HETATM   12  C11 UNL     1       0.394   1.286  -0.002  1.00  0.00     0.002 A 
HETATM   13  C12 UNL     1       0.433  -0.065   0.079  1.00  0.00     0.002 A 
HETATM   14  C13 UNL     1      -0.799  -0.627   0.095  1.00  0.00     0.000 A 
HETATM   15  C14 UNL     1      -1.955   0.052   0.026  1.00  0.00     0.000 A 
HETATM   16  C15 UNL     1      -1.945   1.384  -0.062  1.00  0.00     0.000 A 
HETATM   17  C16 UNL     1      -0.754   1.990  -0.072  1.00  0.00     0.000 A 
HETATM   18  C17 UNL     1       3.819   3.626   0.008  1.00  0.00     0.134 C 
HETATM   19  O1  UNL     1       6.111   2.217   0.061  1.00  0.00    -0.263 OA
HETATM   20  O2  UNL     1       6.244  -0.328   0.264  1.00  0.00    -0.281 OA
HETATM   21  O4  UNL     1       3.187  -3.954   0.463  1.00  0.00    -0.188 OA
ENDROOT
BRANCH   2  22
HETATM   22  O3  UNL     1       0.787  -2.983   0.226  1.00  0.00    -0.326 OA
HETATM   23  C18 UNL     1       0.428  -3.503  -1.038  1.00  0.00     0.181 C 
ENDBRANCH   2  22
TORSDOF 1
