REMARK  10 active torsions:
REMARK  status: ('A' for Active; 'I' for Inactive)
REMARK    1  A    between atoms: O1_2  and  C2_3 
REMARK    2  A    between atoms: C2_3  and  C3_5 
REMARK    3  A    between atoms: C6_9  and  C9_12 
REMARK    4  A    between atoms: C9_12  and  C10_13 
REMARK    5  A    between atoms: C9_12  and  C14_17 
REMARK    6  A    between atoms: C15_18  and  O4_19 
REMARK    7  A    between atoms: C19_23  and  C21_26 
REMARK    8  A    between atoms: C21_26  and  C22_27 
REMARK    9  A    between atoms: C22_27  and  C23_28 
REMARK   10  A    between atoms: C23_28  and  C24_29 
ROOT
HETATM    1  C14 UNL     1      -0.781   0.204   1.773  1.00  0.00     0.048 A 
HETATM    2  C15 UNL     1      -0.853   0.414   3.105  1.00  0.00     0.098 A 
HETATM    3  C17 UNL     1      -0.438  -0.585   3.897  1.00  0.00     0.052 A 
HETATM    4  C18 UNL     1       0.117  -1.720   3.450  1.00  0.00     0.138 A 
HETATM    5  C19 UNL     1       0.247  -1.900   2.115  1.00  0.00     0.086 A 
HETATM    6  C20 UNL     1      -0.209  -0.925   1.290  1.00  0.00     0.138 A 
HETATM    7  O5  UNL     1      -0.051  -0.979  -0.059  1.00  0.00    -0.190 OA
HETATM    8  O7  UNL     1       0.500  -2.630   4.392  1.00  0.00    -0.190 OA
ENDROOT
BRANCH   1   9
HETATM    9  C9  UNL     1      -1.313   1.276   0.814  1.00  0.00     0.005 C 
BRANCH   9  10
HETATM   10  C6  UNL     1      -0.442   2.500   0.563  1.00  0.00     0.025 A 
HETATM   11  C5  UNL     1       0.898   2.529   0.705  1.00  0.00     0.131 A 
HETATM   12  C4  UNL     1       1.560   3.673   0.449  1.00  0.00     0.033 A 
HETATM   13  O3  UNL     1       1.608   1.418   1.038  1.00  0.00    -0.190 OA
HETATM   14  C3  UNL     1       0.974   4.827   0.063  1.00  0.00     0.065 A 
HETATM   15  C8  UNL     1      -0.362   4.770  -0.066  1.00  0.00     0.005 A 
HETATM   16  C7  UNL     1      -1.043   3.640   0.177  1.00  0.00     0.002 A 
BRANCH  14  17
HETATM   17  C2  UNL     1       1.751   5.934  -0.172  1.00  0.00     0.296 C 
HETATM   18  O2  UNL     1       2.945   5.782   0.013  1.00  0.00    -0.259 OA
BRANCH  17  19
HETATM   19  O1  UNL     1       1.422   7.204  -0.584  1.00  0.00    -0.296 OA
HETATM   20  C1  UNL     1       0.130   7.651  -0.895  1.00  0.00     0.185 C 
ENDBRANCH  17  19
ENDBRANCH  14  17
ENDBRANCH   9  10
BRANCH   9  21
HETATM   21  C10 UNL     1      -2.056   0.731  -0.391  1.00  0.00    -0.008 C 
HETATM   22  C11 UNL     1      -1.711   0.728  -1.693  1.00  0.00    -0.044 C 
HETATM   23  C12 UNL     1      -2.635   0.131  -2.732  1.00  0.00     0.026 C 
HETATM   24  C13 UNL     1      -0.431   1.274  -2.276  1.00  0.00     0.026 C 
ENDBRANCH   9  21
ENDBRANCH   1   9
BRANCH   2  25
HETATM   25  O4  UNL     1      -1.447   1.518   3.666  1.00  0.00    -0.328 OA
HETATM   26  C16 UNL     1      -0.539   2.478   4.161  1.00  0.00     0.181 C 
ENDBRANCH   2  25
BRANCH   5  27
HETATM   27  C21 UNL     1       0.807  -3.072   1.672  1.00  0.00     0.177 C 
HETATM   28  O6  UNL     1       1.242  -3.907   2.436  1.00  0.00    -0.291 OA
BRANCH  27  29
HETATM   29  C22 UNL     1       0.918  -3.485   0.204  1.00  0.00     0.074 C 
BRANCH  29  30
HETATM   30  C23 UNL     1       1.280  -4.960  -0.054  1.00  0.00     0.035 C 
BRANCH  30  31
HETATM   31  C24 UNL     1       1.349  -5.386  -1.512  1.00  0.00    -0.022 A 
HETATM   32  C25 UNL     1       1.050  -4.570  -2.541  1.00  0.00    -0.004 A 
HETATM   33  C26 UNL     1       1.121  -4.996  -3.812  1.00  0.00    -0.000 A 
HETATM   34  C27 UNL     1       1.498  -6.255  -4.082  1.00  0.00    -0.000 A 
HETATM   35  C28 UNL     1       1.802  -7.081  -3.071  1.00  0.00    -0.000 A 
HETATM   36  C29 UNL     1       1.725  -6.646  -1.804  1.00  0.00    -0.004 A 
ENDBRANCH  30  31
ENDBRANCH  29  30
ENDBRANCH  27  29
ENDBRANCH   5  27
TORSDOF 10
