REMARK  7 active torsions:
REMARK  status: ('A' for Active; 'I' for Inactive)
REMARK    1  A    between atoms: C4_4  and  C7_7 
REMARK    2  A    between atoms: C7_7  and  O1_8 
REMARK    3  A    between atoms: O1_8  and  C8_9 
REMARK    4  A    between atoms: C11_12  and  C14_17 
REMARK    5  A    between atoms: C14_17  and  O4_18 
REMARK    6  A    between atoms: O4_18  and  C15_19 
REMARK    7  A    between atoms: C15_19  and  C16_20 
ROOT
HETATM    1  C8  UNL     1      -1.280  -1.401   1.161  1.00  0.00     0.179 C 
HETATM    2  C9  UNL     1      -2.284  -0.275   1.036  1.00  0.00     0.004 C 
HETATM    3  C10 UNL     1      -1.951   1.023   0.990  1.00  0.00     0.006 C 
HETATM    4  C11 UNL     1      -0.528   1.526   0.975  1.00  0.00     0.203 C 
HETATM    5  C12 UNL     1       0.458   0.413   1.312  1.00  0.00     0.219 C 
HETATM    6  C13 UNL     1       0.092  -0.927   0.697  1.00  0.00     0.217 C 
HETATM    7  O2  UNL     1       0.075  -0.807  -0.705  1.00  0.00    -0.218 OA
HETATM    8  O3  UNL     1       0.467   0.256   2.714  1.00  0.00    -0.217 OA
HETATM    9  O6  UNL     1      -0.383   2.511   1.977  1.00  0.00    -0.216 OA
ENDROOT
BRANCH   4  10
HETATM   10  C14 UNL     1      -0.249   2.223  -0.360  1.00  0.00     0.189 C 
BRANCH  10  11
HETATM   11  O4  UNL     1      -0.956   3.428  -0.362  1.00  0.00    -0.295 OA
BRANCH  11  12
HETATM   12  C15 UNL     1      -1.132   4.273  -1.432  1.00  0.00     0.296 C 
HETATM   13  O5  UNL     1      -1.847   5.223  -1.170  1.00  0.00    -0.259 OA
BRANCH  12  14
HETATM   14  C16 UNL     1      -0.649   4.230  -2.716  1.00  0.00     0.063 A 
HETATM   15  C17 UNL     1      -1.019   5.197  -3.587  1.00  0.00     0.005 A 
HETATM   16  C18 UNL     1      -0.598   5.219  -4.862  1.00  0.00     0.000 A 
HETATM   17  C19 UNL     1       0.223   4.263  -5.315  1.00  0.00     0.000 A 
HETATM   18  C20 UNL     1       0.616   3.299  -4.473  1.00  0.00     0.000 A 
HETATM   19  C21 UNL     1       0.188   3.289  -3.200  1.00  0.00     0.005 A 
ENDBRANCH  12  14
ENDBRANCH  11  12
ENDBRANCH  10  11
ENDBRANCH   4  10
BRANCH   1  20
HETATM   20  O1  UNL     1      -1.684  -2.496   0.384  1.00  0.00    -0.294 OA
BRANCH  20  21
HETATM   21  C7  UNL     1      -1.472  -3.832   0.636  1.00  0.00     0.296 C 
HETATM   22  O7  UNL     1      -2.023  -4.553  -0.175  1.00  0.00    -0.259 OA
BRANCH  21  23
HETATM   23  C4  UNL     1      -0.757  -4.490   1.606  1.00  0.00     0.063 A 
HETATM   24  C3  UNL     1      -0.778  -5.843   1.626  1.00  0.00     0.005 A 
HETATM   25  C2  UNL     1      -0.116  -6.566   2.544  1.00  0.00     0.000 A 
HETATM   26  C1  UNL     1       0.609  -5.953   3.487  1.00  0.00     0.000 A 
HETATM   27  C6  UNL     1       0.662  -4.615   3.487  1.00  0.00     0.000 A 
HETATM   28  C5  UNL     1      -0.008  -3.906   2.563  1.00  0.00     0.005 A 
ENDBRANCH  21  23
ENDBRANCH  20  21
ENDBRANCH   1  20
TORSDOF 7
