REMARK  7 active torsions:
REMARK  status: ('A' for Active; 'I' for Inactive)
REMARK    1  A    between atoms: C5_5  and  C7_7 
REMARK    2  A    between atoms: C7_7  and  O1_8 
REMARK    3  A    between atoms: O1_8  and  C8_9 
REMARK    4  A    between atoms: C8_9  and  C9_10 
REMARK    5  A    between atoms: C13_14  and  O3_17 
REMARK    6  A    between atoms: O3_17  and  C15_18 
REMARK    7  A    between atoms: C15_18  and  C16_20 
ROOT
HETATM    1  C9  UNL     1       2.353   0.452  -0.313  1.00  0.00     0.016 C 
HETATM    2  C10 UNL     1       1.863   1.628   0.112  1.00  0.00     0.005 C 
HETATM    3  C11 UNL     1       2.646   2.911   0.139  1.00  0.00     0.206 C 
HETATM    4  C12 UNL     1       3.890   2.845  -0.727  1.00  0.00     0.217 C 
HETATM    5  C13 UNL     1       4.643   1.548  -0.484  1.00  0.00     0.192 C 
HETATM    6  C14 UNL     1       3.773   0.337  -0.826  1.00  0.00     0.203 C 
HETATM    7  O2  UNL     1       4.431  -0.792  -0.274  1.00  0.00    -0.216 OA
HETATM    8  O5  UNL     1       3.523   2.898  -2.086  1.00  0.00    -0.218 OA
HETATM    9  O6  UNL     1       3.022   3.186   1.474  1.00  0.00    -0.216 OA
ENDROOT
BRANCH   1  10
HETATM   10  C8  UNL     1       1.430  -0.753  -0.394  1.00  0.00     0.177 C 
BRANCH  10  11
HETATM   11  O1  UNL     1       2.156  -1.952  -0.427  1.00  0.00    -0.294 OA
BRANCH  11  12
HETATM   12  C7  UNL     1       1.653  -3.228  -0.455  1.00  0.00     0.296 C 
HETATM   13  O7  UNL     1       2.528  -4.074  -0.469  1.00  0.00    -0.259 OA
BRANCH  12  14
HETATM   14  C5  UNL     1       0.364  -3.698  -0.471  1.00  0.00     0.063 A 
HETATM   15  C4  UNL     1       0.155  -5.034  -0.483  1.00  0.00     0.005 A 
HETATM   16  C3  UNL     1      -1.075  -5.570  -0.493  1.00  0.00     0.000 A 
HETATM   17  C2  UNL     1      -2.154  -4.777  -0.493  1.00  0.00     0.000 A 
HETATM   18  C1  UNL     1      -1.978  -3.449  -0.487  1.00  0.00     0.000 A 
HETATM   19  C6  UNL     1      -0.741  -2.925  -0.478  1.00  0.00     0.005 A 
ENDBRANCH  12  14
ENDBRANCH  11  12
ENDBRANCH  10  11
ENDBRANCH   1  10
BRANCH   5  20
HETATM   20  O3  UNL     1       5.786   1.519  -1.286  1.00  0.00    -0.295 OA
BRANCH  20  21
HETATM   21  C15 UNL     1       7.078   1.451  -0.817  1.00  0.00     0.296 C 
HETATM   22  O4  UNL     1       7.867   0.974  -1.612  1.00  0.00    -0.259 OA
BRANCH  21  23
HETATM   23  C16 UNL     1       7.622   1.880   0.368  1.00  0.00     0.063 A 
HETATM   24  C17 UNL     1       8.910   1.584   0.650  1.00  0.00     0.005 A 
HETATM   25  C18 UNL     1       9.496   1.962   1.797  1.00  0.00     0.000 A 
HETATM   26  C19 UNL     1       8.809   2.670   2.703  1.00  0.00     0.000 A 
HETATM   27  C20 UNL     1       7.540   3.006   2.433  1.00  0.00     0.000 A 
HETATM   28  C21 UNL     1       6.965   2.621   1.282  1.00  0.00     0.005 A 
ENDBRANCH  21  23
ENDBRANCH  20  21
ENDBRANCH   5  20
TORSDOF 7
