REMARK  2 active torsions:
REMARK  status: ('A' for Active; 'I' for Inactive)
REMARK    1  A    between atoms: C13_14  and  O3_20 
REMARK    2  A    between atoms: C14_15  and  O2_18 
ROOT
HETATM    1  C1  UNL     1      -0.695  -0.173   0.094  1.00  0.00     0.000 A 
HETATM    2  C2  UNL     1      -1.816  -0.910   0.108  1.00  0.00     0.000 A 
HETATM    3  C3  UNL     1      -1.738  -2.244   0.086  1.00  0.00     0.000 A 
HETATM    4  C4  UNL     1      -0.527  -2.814   0.070  1.00  0.00     0.000 A 
HETATM    5  C5  UNL     1       0.596  -2.070   0.058  1.00  0.00     0.002 A 
HETATM    6  C6  UNL     1       0.543  -0.709   0.042  1.00  0.00     0.002 A 
HETATM    7  C7  UNL     1       1.697   0.011   0.010  1.00  0.00     0.029 A 
HETATM    8  C8  UNL     1       2.828  -0.692   0.050  1.00  0.00     0.026 A 
HETATM    9  C9  UNL     1       2.889  -2.022   0.086  1.00  0.00     0.085 A 
HETATM   10  C10 UNL     1       1.767  -2.738   0.077  1.00  0.00     0.019 A 
HETATM   11  N1  UNL     1       4.108  -2.363   0.117  1.00  0.00    -0.208 NA
HETATM   12  C11 UNL     1       4.848  -1.335   0.105  1.00  0.00     0.281 A 
HETATM   13  C12 UNL     1       4.074  -0.216   0.054  1.00  0.00     0.084 A 
HETATM   14  C13 UNL     1       4.309   1.111   0.011  1.00  0.00     0.123 A 
HETATM   15  C14 UNL     1       3.181   1.879  -0.059  1.00  0.00     0.142 A 
HETATM   16  C15 UNL     1       1.928   1.341  -0.056  1.00  0.00     0.155 A 
HETATM   17  O1  UNL     1       0.889   2.214  -0.181  1.00  0.00    -0.188 OA
HETATM   18  O4  UNL     1       6.044  -1.470   0.132  1.00  0.00    -0.265 OA
ENDROOT
BRANCH  14  19
HETATM   19  O3  UNL     1       5.525   1.748   0.003  1.00  0.00    -0.326 OA
HETATM   20  C17 UNL     1       6.760   1.087   0.009  1.00  0.00     0.181 C 
ENDBRANCH  14  19
BRANCH  15  21
HETATM   21  O2  UNL     1       3.162   3.263  -0.140  1.00  0.00    -0.324 OA
HETATM   22  C16 UNL     1       4.316   4.066  -0.150  1.00  0.00     0.182 C 
ENDBRANCH  15  21
TORSDOF 2
