REMARK  17 active torsions:
REMARK  status: ('A' for Active; 'I' for Inactive)
REMARK    1  A    between atoms: C1_1  and  C2_2 
REMARK    2  A    between atoms: C1_1  and  C18_20 
REMARK    3  A    between atoms: C2_2  and  C3_3 
REMARK    4  A    between atoms: C3_3  and  C4_4 
REMARK    5  A    between atoms: C4_4  and  C5_5 
REMARK    6  A    between atoms: C5_5  and  C6_6 
REMARK    7  A    between atoms: C6_6  and  C7_7 
REMARK    8  A    between atoms: C8_8  and  C9_9 
REMARK    9  A    between atoms: C10_10  and  C11_11 
REMARK       I    between atoms: C11_11  and  N1_12 
REMARK   10  A    between atoms: N1_12  and  C12_13 
REMARK   11  A    between atoms: C12_13  and  C13_14 
REMARK   12  A    between atoms: C13_14  and  C14_15 
REMARK   13  A    between atoms: C14_15  and  C15_16 
REMARK   14  A    between atoms: C19_21  and  C20_22 
REMARK   15  A    between atoms: C20_22  and  C21_23 
REMARK   16  A    between atoms: C21_23  and  C22_24 
REMARK   17  A    between atoms: C22_24  and  C23_25 
ROOT
HETATM    1  C6  UNL     1      10.636   1.501  -0.062  1.00  0.00     0.026 C 
ENDROOT
BRANCH   1   2
HETATM    2  C5  UNL     1       9.261   0.811  -0.070  1.00  0.00     0.005 C 
BRANCH   2   3
HETATM    3  C4  UNL     1       8.093   1.811  -0.069  1.00  0.00     0.000 C 
BRANCH   3   4
HETATM    4  C3  UNL     1       6.737   1.084  -0.071  1.00  0.00     0.000 C 
BRANCH   4   5
HETATM    5  C2  UNL     1       5.536   2.045  -0.072  1.00  0.00     0.005 C 
BRANCH   5   6
HETATM    6  C1  UNL     1       4.212   1.263  -0.073  1.00  0.00     0.026 C 
BRANCH   6   7
HETATM    7  C18 UNL     1       2.984   2.139  -0.073  1.00  0.00    -0.031 C 
HETATM    8  C19 UNL     1       1.729   1.658  -0.072  1.00  0.00    -0.031 C 
BRANCH   8   9
HETATM    9  C20 UNL     1       1.399   0.186  -0.072  1.00  0.00     0.026 C 
BRANCH   9  10
HETATM   10  C21 UNL     1      -0.110  -0.103  -0.072  1.00  0.00     0.005 C 
BRANCH  10  11
HETATM   11  C22 UNL     1      -0.392  -1.616  -0.072  1.00  0.00     0.000 C 
BRANCH  11  12
HETATM   12  C23 UNL     1      -1.897  -1.926  -0.072  1.00  0.00     0.000 C 
HETATM   13  C24 UNL     1      -2.168  -3.437  -0.072  1.00  0.00     0.000 C 
ENDBRANCH  11  12
ENDBRANCH  10  11
ENDBRANCH   9  10
ENDBRANCH   8   9
ENDBRANCH   6   7
ENDBRANCH   5   6
ENDBRANCH   4   5
ENDBRANCH   3   4
ENDBRANCH   2   3
ENDBRANCH   1   2
BRANCH   1  14
HETATM   14  C7  UNL     1      11.766   0.499  -0.064  1.00  0.00    -0.026 C 
HETATM   15  C8  UNL     1      13.064   0.843  -0.091  1.00  0.00    -0.004 C 
BRANCH  15  16
HETATM   16  C9  UNL     1      14.051  -0.071  -0.089  1.00  0.00     0.005 C 
HETATM   17  C10 UNL     1      15.357   0.249  -0.113  1.00  0.00     0.062 C 
BRANCH  17  18
HETATM   18  C11 UNL     1      16.338  -0.690  -0.110  1.00  0.00     0.275 C 
HETATM   19  N1  UNL     1      17.603  -0.171  -0.135  1.00  0.00    -0.234 NA
HETATM   20  O1  UNL     1      16.137  -1.882  -0.087  1.00  0.00    -0.266 OA
BRANCH  19  21
HETATM   21  C12 UNL     1      18.792  -1.028  -0.146  1.00  0.00     0.129 C 
BRANCH  21  22
HETATM   22  C13 UNL     1      20.068  -0.179  -0.031  1.00  0.00     0.026 C 
BRANCH  22  23
HETATM   23  C14 UNL     1      21.325  -1.065   0.003  1.00  0.00     0.002 C 
BRANCH  23  24
HETATM   24  C15 UNL     1      22.656  -0.288  -0.011  1.00  0.00     0.000 C 
HETATM   25  C16 UNL     1      22.826   0.615   1.221  1.00  0.00     0.000 C 
HETATM   26  C17 UNL     1      23.836  -1.273  -0.100  1.00  0.00     0.000 C 
ENDBRANCH  23  24
ENDBRANCH  22  23
ENDBRANCH  21  22
ENDBRANCH  19  21
ENDBRANCH  17  18
ENDBRANCH  15  16
ENDBRANCH   1  14
TORSDOF 17
