REMARK  3 active torsions:
REMARK  status: ('A' for Active; 'I' for Inactive)
REMARK    1  A    between atoms: C4_4  and  C6_7 
REMARK    2  A    between atoms: C6_7  and  C7_8 
REMARK    3  A    between atoms: C7_8  and  O2_9 
ROOT
HETATM    1  C1  UNL     1      -2.022   0.068  -0.559  1.00  0.00     0.207 C 
HETATM    2  C2  UNL     1      -1.712  -1.357  -0.293  1.00  0.00     0.033 A 
HETATM    3  C3  UNL     1      -0.423  -1.594  -0.105  1.00  0.00     0.006 A 
HETATM    4  C4  UNL     1       0.444  -0.383  -0.196  1.00  0.00     0.068 C 
HETATM    5  C5  UNL     1      -0.595   0.575  -0.850  1.00  0.00     0.191 C 
HETATM    6  O1  UNL     1      -0.409   0.519  -2.248  1.00  0.00    -0.220 OA
HETATM    7  C9  UNL     1      -0.342  -2.906   0.117  1.00  0.00     0.118 A 
HETATM    8  O4  UNL     1      -1.468  -3.416   0.066  1.00  0.00    -0.304 OA
HETATM    9  C10 UNL     1      -2.310  -2.542  -0.176  1.00  0.00     0.121 A 
HETATM   10  O5  UNL     1      -2.866   0.220  -1.679  1.00  0.00    -0.216 OA
ENDROOT
BRANCH   4  11
HETATM   11  C6  UNL     1       0.896   0.075   1.197  1.00  0.00     0.103 C 
BRANCH  11  12
HETATM   12  C7  UNL     1       1.761   1.323   1.151  1.00  0.00     0.272 C 
HETATM   13  O3  UNL     1       1.416   2.409   1.559  1.00  0.00    -0.264 OA
BRANCH  12  14
HETATM   14  O2  UNL     1       2.978   1.042   0.614  1.00  0.00    -0.299 OA
HETATM   15  C8  UNL     1       3.891   2.111   0.539  1.00  0.00     0.184 C 
ENDBRANCH  12  14
ENDBRANCH  11  12
ENDBRANCH   4  11
TORSDOF 3
