REMARK  3 active torsions:
REMARK  status: ('A' for Active; 'I' for Inactive)
REMARK    1  A    between atoms: O1_1  and  C1_2 
REMARK    2  A    between atoms: C2_3  and  O2_4 
REMARK    3  A    between atoms: C8_10  and  C14_19 
ROOT
HETATM    1  C1  UNL     1       1.750   1.517   2.168  1.00  0.00     0.116 A 
HETATM    2  C2  UNL     1       2.649   2.465   1.807  1.00  0.00     0.116 A 
HETATM    3  C4  UNL     1       3.182   2.350   0.575  1.00  0.00     0.026 A 
HETATM    4  C5  UNL     1       2.839   1.399  -0.311  1.00  0.00     0.002 A 
HETATM    5  C6  UNL     1       1.872   0.505  -0.013  1.00  0.00     0.002 A 
HETATM    6  C7  UNL     1       1.405   0.592   1.248  1.00  0.00     0.026 A 
HETATM    7  C8  UNL     1       1.485  -0.452  -0.900  1.00  0.00     0.005 A 
HETATM    8  C9  UNL     1       2.147  -0.462  -2.077  1.00  0.00     0.064 A 
HETATM    9  C10 UNL     1       3.130   0.396  -2.356  1.00  0.00     0.042 A 
HETATM   10  C11 UNL     1       3.484   1.346  -1.490  1.00  0.00     0.001 A 
HETATM   11  C12 UNL     1       3.681   0.155  -3.726  1.00  0.00     0.299 A 
HETATM   12  O3  UNL     1       2.858  -0.886  -4.227  1.00  0.00    -0.266 OA
HETATM   13  C13 UNL     1       1.985  -1.197  -3.211  1.00  0.00     0.298 A 
HETATM   14  O4  UNL     1       1.126  -2.031  -3.396  1.00  0.00    -0.259 OA
HETATM   15  O5  UNL     1       4.959  -0.469  -3.701  1.00  0.00    -0.184 OA
ENDROOT
BRANCH   7  16
HETATM   16  C14 UNL     1       0.484  -1.330  -0.657  1.00  0.00     0.002 A 
HETATM   17  C15 UNL     1      -0.707  -0.926  -0.158  1.00  0.00     0.002 A 
HETATM   18  C16 UNL     1      -1.722  -1.776   0.075  1.00  0.00     0.026 A 
HETATM   19  C17 UNL     1      -1.533  -3.071  -0.197  1.00  0.00     0.119 A 
HETATM   20  C18 UNL     1      -0.363  -3.499  -0.680  1.00  0.00     0.119 A 
HETATM   21  O7  UNL     1      -2.328  -3.997  -0.058  1.00  0.00    -0.300 OA
HETATM   22  C19 UNL     1       0.644  -2.647  -0.910  1.00  0.00     0.026 A 
HETATM   23  O6  UNL     1      -0.371  -4.715  -0.853  1.00  0.00    -0.300 OA
HETATM   24  C20 UNL     1      -1.666  -5.190  -0.479  1.00  0.00     0.304 A 
ENDBRANCH   7  16
BRANCH   1  25
HETATM   25  O1  UNL     1       1.104   1.419   3.384  1.00  0.00    -0.326 OA
HETATM   26  C21 UNL     1       1.093   2.485   4.301  1.00  0.00     0.181 C 
ENDBRANCH   1  25
BRANCH   2  27
HETATM   27  O2  UNL     1       3.022   3.449   2.692  1.00  0.00    -0.326 OA
HETATM   28  C3  UNL     1       3.994   4.401   2.328  1.00  0.00     0.181 C 
ENDBRANCH   2  27
TORSDOF 3
