REMARK  5 active torsions:
REMARK  status: ('A' for Active; 'I' for Inactive)
REMARK    1  A    between atoms: C2_2  and  O4_17 
REMARK    2  A    between atoms: C5_5  and  C9_9 
REMARK    3  A    between atoms: C10_10  and  C11_11 
REMARK    4  A    between atoms: O4_17  and  C14_18 
REMARK    5  A    between atoms: C18_22  and  C19_24 
ROOT
HETATM    1  C1  UNL     1       1.137   1.645  -0.489  1.00  0.00     0.033 C 
HETATM    2  C2  UNL     1       1.212   0.136  -0.231  1.00  0.00     0.121 C 
HETATM    3  C3  UNL     1       2.063  -0.134   1.014  1.00  0.00     0.063 C 
HETATM    4  C4  UNL     1       3.470   0.471   0.929  1.00  0.00     0.158 C 
HETATM    5  C5  UNL     1       3.400   1.970   0.595  1.00  0.00     0.171 C 
HETATM    6  C6  UNL     1       2.518   2.332  -0.631  1.00  0.00     0.034 C 
HETATM    7  C7  UNL     1       2.288   3.866  -0.675  1.00  0.00     0.003 C 
HETATM    8  C8  UNL     1       3.115   1.973  -2.012  1.00  0.00     0.003 C 
HETATM    9  O2  UNL     1       2.770   2.562   1.719  1.00  0.00    -0.219 OA
HETATM   10  C13 UNL     1       4.378  -0.389   0.042  1.00  0.00     0.036 C 
HETATM   11  O3  UNL     1       4.033   0.387   2.218  1.00  0.00    -0.223 OA
ENDROOT
BRANCH   2  12
HETATM   12  O4  UNL     1      -0.099  -0.322  -0.030  1.00  0.00    -0.332 OA
BRANCH  12  13
HETATM   13  C14 UNL     1      -0.256  -1.719  -0.165  1.00  0.00     0.270 C 
HETATM   14  C15 UNL     1      -1.328  -2.168   0.795  1.00  0.00     0.241 C 
HETATM   15  C16 UNL     1      -1.568  -3.649   0.612  1.00  0.00     0.220 C 
HETATM   16  O9  UNL     1      -0.898  -1.928   2.112  1.00  0.00    -0.215 OA
HETATM   17  C17 UNL     1      -1.901  -3.925  -0.845  1.00  0.00     0.215 C 
HETATM   18  O8  UNL     1      -2.627  -4.025   1.459  1.00  0.00    -0.218 OA
HETATM   19  C18 UNL     1      -0.884  -3.281  -1.787  1.00  0.00     0.184 C 
HETATM   20  O7  UNL     1      -1.893  -5.321  -1.049  1.00  0.00    -0.218 OA
HETATM   21  O5  UNL     1      -0.695  -1.923  -1.489  1.00  0.00    -0.326 OA
BRANCH  19  22
HETATM   22  C19 UNL     1      -1.317  -3.364  -3.246  1.00  0.00     0.214 C 
HETATM   23  O6  UNL     1      -1.540  -4.710  -3.613  1.00  0.00    -0.218 OA
ENDBRANCH  19  22
ENDBRANCH  12  13
ENDBRANCH   2  12
BRANCH   5  24
HETATM   24  C9  UNL     1       4.796   2.561   0.529  1.00  0.00     0.009 C 
HETATM   25  C10 UNL     1       5.469   3.030   1.594  1.00  0.00     0.035 C 
BRANCH  25  26
HETATM   26  C11 UNL     1       6.721   3.553   1.516  1.00  0.00     0.173 C 
HETATM   27  C12 UNL     1       7.334   4.046   2.817  1.00  0.00     0.077 C 
HETATM   28  O1  UNL     1       7.337   3.644   0.478  1.00  0.00    -0.291 OA
ENDBRANCH  25  26
ENDBRANCH   5  24
TORSDOF 5
