REMARK  1 active torsions:
REMARK  status: ('A' for Active; 'I' for Inactive)
REMARK    1  A    between atoms: C11_13  and  C12_14 
ROOT
HETATM    1  C1  UNL     1       1.725   1.378  -0.089  1.00  0.00     0.003 C 
HETATM    2  C2  UNL     1       1.621   0.084  -1.015  1.00  0.00     0.031 C 
HETATM    3  C3  UNL     1       2.450   0.560  -2.213  1.00  0.00     0.003 C 
HETATM    4  C4  UNL     1       3.592   1.399  -1.589  1.00  0.00     0.000 C 
HETATM    5  C5  UNL     1       3.215   1.716  -0.121  1.00  0.00     0.000 C 
HETATM    6  C6  UNL     1       3.544   3.150   0.307  1.00  0.00     0.000 C 
HETATM    7  C7  UNL     1       0.092   0.002  -1.064  1.00  0.00     0.033 C 
HETATM    8  C8  UNL     1      -0.783  -0.386   0.140  1.00  0.00     0.127 C 
HETATM    9  C9  UNL     1      -0.613   0.881   1.071  1.00  0.00     0.030 C 
HETATM   10  C10 UNL     1       0.886   1.354   1.234  1.00  0.00     0.003 C 
HETATM   11  O1  UNL     1      -0.181  -1.522   0.817  1.00  0.00    -0.226 OA
HETATM   12  O2  UNL     1       0.805  -2.205  -0.117  1.00  0.00    -0.224 OA
HETATM   13  C11 UNL     1       1.956  -1.414  -0.516  1.00  0.00     0.152 C 
HETATM   14  C15 UNL     1      -2.235  -0.680  -0.208  1.00  0.00     0.033 C 
ENDROOT
BRANCH  13  15
HETATM   15  C12 UNL     1       3.203  -1.742   0.320  1.00  0.00     0.030 C 
HETATM   16  C13 UNL     1       3.614  -3.219   0.117  1.00  0.00     0.003 C 
HETATM   17  C14 UNL     1       3.069  -1.499   1.831  1.00  0.00     0.003 C 
ENDBRANCH  13  15
TORSDOF 1
