REMARK  7 active torsions:
REMARK  status: ('A' for Active; 'I' for Inactive)
REMARK    1  A    between atoms: C3_3  and  C19_23 
REMARK    2  A    between atoms: C6_6  and  O1_7 
REMARK    3  A    between atoms: O1_7  and  C7_8 
REMARK    4  A    between atoms: C14_16  and  C16_18 
REMARK    5  A    between atoms: C16_18  and  O3_19 
REMARK    6  A    between atoms: C19_23  and  O5_24 
REMARK    7  A    between atoms: O5_24  and  C20_25 
ROOT
HETATM    1  C1  UNL     1      -1.662   1.954   2.395  1.00  0.00     0.056 C 
HETATM    2  C2  UNL     1      -2.037   0.507   2.292  1.00  0.00    -0.030 C 
HETATM    3  C3  UNL     1      -1.752  -0.280   1.241  1.00  0.00    -0.018 C 
HETATM    4  C4  UNL     1      -1.013   0.241   0.013  1.00  0.00     0.027 C 
HETATM    5  C5  UNL     1      -0.715   1.769   0.067  1.00  0.00     0.050 C 
HETATM    6  C6  UNL     1      -0.475   2.280   1.496  1.00  0.00     0.133 C 
HETATM    7  C9  UNL     1       0.396   2.155  -0.907  1.00  0.00    -0.042 C 
HETATM    8  C10 UNL     1       0.121   1.938  -2.381  1.00  0.00     0.022 C 
HETATM    9  C11 UNL     1       0.095   0.433  -2.696  1.00  0.00     0.005 C 
HETATM   10  C12 UNL     1       0.876  -0.377  -1.664  1.00  0.00     0.010 A 
HETATM   11  C13 UNL     1       0.266  -0.552  -0.283  1.00  0.00     0.014 A 
HETATM   12  C14 UNL     1       0.396  -1.744  -1.235  1.00  0.00     0.078 A 
HETATM   13  C15 UNL     1      -0.843  -2.347  -1.889  1.00  0.00     0.010 C 
HETATM   14  C18 UNL     1       1.618   2.575  -0.532  1.00  0.00    -0.009 C 
ENDROOT
BRANCH   3  15
HETATM   15  C19 UNL     1      -2.287  -1.702   1.240  1.00  0.00     0.174 C 
BRANCH  15  16
HETATM   16  O5  UNL     1      -1.249  -2.656   1.181  1.00  0.00    -0.297 OA
BRANCH  16  17
HETATM   17  C20 UNL     1      -1.509  -3.994   1.244  1.00  0.00     0.273 C 
HETATM   18  O6  UNL     1      -0.649  -4.835   1.090  1.00  0.00    -0.264 OA
HETATM   19  C21 UNL     1      -2.946  -4.392   1.536  1.00  0.00     0.106 C 
ENDBRANCH  16  17
ENDBRANCH  15  16
ENDBRANCH   3  15
BRANCH   6  20
HETATM   20  O1  UNL     1      -0.305   3.671   1.456  1.00  0.00    -0.304 OA
BRANCH  20  21
HETATM   21  C7  UNL     1       0.316   4.276   2.504  1.00  0.00     0.272 C 
HETATM   22  C8  UNL     1       0.417   5.767   2.254  1.00  0.00     0.106 C 
HETATM   23  O2  UNL     1       0.733   3.713   3.490  1.00  0.00    -0.264 OA
ENDBRANCH  20  21
ENDBRANCH   6  20
BRANCH  12  24
HETATM   24  C16 UNL     1       1.454  -2.704  -0.861  1.00  0.00     0.271 C 
HETATM   25  O4  UNL     1       1.764  -2.881   0.298  1.00  0.00    -0.264 OA
BRANCH  24  26
HETATM   26  O3  UNL     1       2.120  -3.328  -1.877  1.00  0.00    -0.299 OA
HETATM   27  C17 UNL     1       1.794  -3.141  -3.233  1.00  0.00     0.184 C 
ENDBRANCH  24  26
ENDBRANCH  12  24
TORSDOF 7
