REMARK  4 active torsions:
REMARK  status: ('A' for Active; 'I' for Inactive)
REMARK    1  A    between atoms: C4_4  and  O3_9 
REMARK    2  A    between atoms: C5_6  and  C6_7 
REMARK    3  A    between atoms: O3_9  and  C7_10 
REMARK    4  A    between atoms: C13_16  and  C15_19 
ROOT
HETATM    1  C7  UNL     1       0.838   0.918   0.672  1.00  0.00     0.244 C 
HETATM    2  C8  UNL     1       0.069   1.386   1.900  1.00  0.00     0.089 C 
HETATM    3  C9  UNL     1      -1.430   1.007   1.931  1.00  0.00     0.008 C 
HETATM    4  C10 UNL     1      -2.179   2.158   1.227  1.00  0.00     0.003 C 
HETATM    5  C11 UNL     1      -1.150   3.280   1.021  1.00  0.00     0.035 C 
HETATM    6  C12 UNL     1       0.012   2.915   1.940  1.00  0.00     0.155 C 
HETATM    7  C13 UNL     1       1.317   3.547   1.535  1.00  0.00     0.072 C 
HETATM    8  C14 UNL     1       2.263   2.814   0.927  1.00  0.00     0.120 C 
HETATM    9  O4  UNL     1       2.120   1.501   0.590  1.00  0.00    -0.304 OA
HETATM   10  O6  UNL     1      -0.309   3.324   3.254  1.00  0.00    -0.221 OA
HETATM   11  C16 UNL     1      -1.825  -0.369   1.385  1.00  0.00     0.000 C 
ENDROOT
BRANCH   1  12
HETATM   12  O3  UNL     1       1.130  -0.462   0.796  1.00  0.00    -0.304 OA
BRANCH  12  13
HETATM   13  C4  UNL     1       1.566  -1.069  -0.402  1.00  0.00     0.272 C 
HETATM   14  C3  UNL     1       2.327  -2.318  -0.035  1.00  0.00     0.241 C 
HETATM   15  C2  UNL     1       2.734  -3.044  -1.298  1.00  0.00     0.220 C 
HETATM   16  O7  UNL     1       3.481  -1.962   0.684  1.00  0.00    -0.215 OA
HETATM   17  C1  UNL     1       1.500  -3.309  -2.144  1.00  0.00     0.215 C 
HETATM   18  O8  UNL     1       3.364  -4.245  -0.923  1.00  0.00    -0.218 OA
HETATM   19  C5  UNL     1       0.661  -2.045  -2.327  1.00  0.00     0.184 C 
HETATM   20  O9  UNL     1       1.919  -3.768  -3.410  1.00  0.00    -0.218 OA
HETATM   21  O1  UNL     1       0.395  -1.422  -1.099  1.00  0.00    -0.326 OA
BRANCH  19  22
HETATM   22  C6  UNL     1      -0.688  -2.337  -2.975  1.00  0.00     0.214 C 
HETATM   23  O2  UNL     1      -0.506  -3.023  -4.196  1.00  0.00    -0.218 OA
ENDBRANCH  19  22
ENDBRANCH  12  13
ENDBRANCH   1  12
BRANCH   7  24
HETATM   24  C15 UNL     1       1.542   4.858   1.804  1.00  0.00     0.234 C 
HETATM   25  O5  UNL     1       0.712   5.533   2.365  1.00  0.00    -0.283 OA
ENDBRANCH   7  24
TORSDOF 4
