REMARK  5 active torsions:
REMARK  status: ('A' for Active; 'I' for Inactive)
REMARK    1  A    between atoms: C4_4  and  C7_8 
REMARK    2  A    between atoms: C7_8  and  O2_9 
REMARK    3  A    between atoms: O2_9  and  C8_10 
REMARK    4  A    between atoms: C8_10  and  C9_11 
REMARK    5  A    between atoms: C21_23  and  C23_25 
ROOT
HETATM    1  C9  UNL     1      -1.056  -0.368  -0.745  1.00  0.00     0.035 C 
HETATM    2  C10 UNL     1      -2.340   0.245  -0.143  1.00  0.00     0.008 C 
HETATM    3  C11 UNL     1      -2.353   1.769  -0.234  1.00  0.00     0.026 C 
HETATM    4  C12 UNL     1      -1.002   2.409  -0.062  1.00  0.00    -0.030 C 
HETATM    5  C13 UNL     1       0.187   1.780   0.044  1.00  0.00    -0.021 C 
HETATM    6  C14 UNL     1       0.164   0.246   0.018  1.00  0.00     0.039 C 
HETATM    7  C15 UNL     1       1.435  -0.247  -0.615  1.00  0.00    -0.023 C 
HETATM    8  C16 UNL     1       2.527   0.520  -0.651  1.00  0.00    -0.004 C 
HETATM    9  C17 UNL     1       2.510   1.792  -0.214  1.00  0.00     0.001 A 
HETATM   10  C18 UNL     1       1.376   2.434   0.150  1.00  0.00     0.023 A 
HETATM   11  C19 UNL     1       1.511   3.713   0.584  1.00  0.00     0.155 A 
HETATM   12  C20 UNL     1       2.708   4.337   0.618  1.00  0.00     0.152 A 
HETATM   13  C21 UNL     1       3.819   3.710   0.192  1.00  0.00     0.005 A 
HETATM   14  C22 UNL     1       3.690   2.437  -0.212  1.00  0.00    -0.002 A 
HETATM   15  O3  UNL     1       2.762   5.614   1.090  1.00  0.00    -0.188 OA
HETATM   16  O4  UNL     1       0.472   4.420   1.107  1.00  0.00    -0.188 OA
HETATM   17  C26 UNL     1       0.241  -0.133   1.522  1.00  0.00     0.009 C 
HETATM   18  C27 UNL     1      -0.984   0.021  -2.244  1.00  0.00     0.003 C 
ENDROOT
BRANCH   1  19
HETATM   19  C8  UNL     1      -1.159  -1.914  -0.582  1.00  0.00     0.153 C 
BRANCH  19  20
HETATM   20  O2  UNL     1      -1.028  -2.589  -1.798  1.00  0.00    -0.298 OA
BRANCH  20  21
HETATM   21  C7  UNL     1      -0.955  -3.956  -1.949  1.00  0.00     0.296 C 
HETATM   22  O5  UNL     1      -0.780  -4.301  -3.104  1.00  0.00    -0.259 OA
BRANCH  21  23
HETATM   23  C4  UNL     1      -1.046  -4.982  -1.040  1.00  0.00     0.065 A 
HETATM   24  C3  UNL     1      -0.907  -6.256  -1.467  1.00  0.00     0.008 A 
HETATM   25  C2  UNL     1      -0.980  -7.301  -0.629  1.00  0.00     0.030 A 
HETATM   26  C1  UNL     1      -1.201  -7.134   0.683  1.00  0.00     0.156 A 
HETATM   27  C6  UNL     1      -1.345  -5.879   1.141  1.00  0.00     0.156 A 
HETATM   28  O6  UNL     1      -1.269  -8.194   1.534  1.00  0.00    -0.188 OA
HETATM   29  C5  UNL     1      -1.270  -4.846   0.282  1.00  0.00     0.035 A 
HETATM   30  O1  UNL     1      -1.579  -5.668   2.466  1.00  0.00    -0.188 OA
ENDBRANCH  21  23
ENDBRANCH  20  21
ENDBRANCH  19  20
ENDBRANCH   1  19
BRANCH  13  31
HETATM   31  C23 UNL     1       5.196   4.367   0.183  1.00  0.00     0.024 C 
HETATM   32  C24 UNL     1       5.259   5.593  -0.745  1.00  0.00     0.005 C 
HETATM   33  C25 UNL     1       5.699   4.693   1.599  1.00  0.00     0.005 C 
ENDBRANCH  13  31
TORSDOF 5
