REMARK  2 active torsions:
REMARK  status: ('A' for Active; 'I' for Inactive)
REMARK    1  A    between atoms: C9_10  and  C19_21 
REMARK    2  A    between atoms: C19_21  and  O1_22 
ROOT
HETATM    1  C1  UNL     1      -1.963   1.943  -1.688  1.00  0.00     0.000 A 
HETATM    2  C2  UNL     1      -2.030   0.599  -1.701  1.00  0.00     0.002 A 
HETATM    3  C3  UNL     1      -0.938  -0.153  -1.479  1.00  0.00     0.017 A 
HETATM    4  C4  UNL     1       0.228   0.469  -1.267  1.00  0.00     0.060 A 
HETATM    5  C5  UNL     1       0.291   1.817  -1.266  1.00  0.00     0.013 A 
HETATM    6  C6  UNL     1      -0.797   2.571  -1.460  1.00  0.00     0.001 A 
HETATM    7  C7  UNL     1       1.557   2.150  -0.982  1.00  0.00    -0.005 A 
HETATM    8  C8  UNL     1       2.247   1.013  -0.903  1.00  0.00     0.065 A 
HETATM    9  N1  UNL     1       1.406   0.075  -0.998  1.00  0.00    -0.322 N 
HETATM   10  C9  UNL     1       1.865  -1.282  -0.653  1.00  0.00     0.176 C 
HETATM   11  C10 UNL     1       3.140  -1.192   0.243  1.00  0.00     0.053 C 
HETATM   12  C11 UNL     1       4.225  -0.381  -0.469  1.00  0.00     0.046 C 
HETATM   13  C12 UNL     1       3.688   1.046  -0.533  1.00  0.00     0.257 C 
HETATM   14  N2  UNL     1       3.703   1.716   0.747  1.00  0.00     0.145 N 
HETATM   15  C13 UNL     1       3.274   3.118   0.548  1.00  0.00     0.256 C 
HETATM   16  C14 UNL     1       2.259   3.417  -0.608  1.00  0.00     0.063 C 
HETATM   17  C15 UNL     1       2.856   0.993   1.702  1.00  0.00     0.273 C 
HETATM   18  C16 UNL     1       2.968  -0.535   1.613  1.00  0.00    -0.013 C 
HETATM   19  C17 UNL     1       2.852  -1.245   2.752  1.00  0.00    -0.032 C 
HETATM   20  C18 UNL     1       2.847  -2.742   2.924  1.00  0.00     0.030 C 
ENDROOT
BRANCH  10  21
HETATM   21  C19 UNL     1       0.803  -2.086   0.112  1.00  0.00     0.293 C 
HETATM   22  O2  UNL     1       0.208  -1.608   1.057  1.00  0.00    -0.262 OA
BRANCH  21  23
HETATM   23  O1  UNL     1       0.578  -3.374  -0.279  1.00  0.00    -0.298 OA
HETATM   24  C20 UNL     1       1.248  -3.965  -1.365  1.00  0.00     0.185 C 
ENDBRANCH  21  23
ENDBRANCH  10  21
TORSDOF 2
