REMARK  3 active torsions:
REMARK  status: ('A' for Active; 'I' for Inactive)
REMARK    1  A    between atoms: C10_10  and  O1_11 
REMARK    2  A    between atoms: O1_11  and  C11_12 
REMARK    3  A    between atoms: C12_14  and  C16_21 
ROOT
HETATM    1  C1  UNL     1       4.455  -0.413  -4.319  1.00  0.00     0.002 A 
HETATM    2  C2  UNL     1       3.648   0.614  -4.043  1.00  0.00     0.028 A 
HETATM    3  C3  UNL     1       2.919   0.660  -2.914  1.00  0.00     0.133 A 
HETATM    4  C4  UNL     1       3.009  -0.360  -2.022  1.00  0.00     0.050 A 
HETATM    5  C5  UNL     1       3.833  -1.404  -2.292  1.00  0.00     0.029 A 
HETATM    6  C6  UNL     1       4.543  -1.415  -3.438  1.00  0.00     0.002 A 
HETATM    7  C7  UNL     1       3.968  -2.443  -1.441  1.00  0.00     0.127 A 
HETATM    8  C8  UNL     1       3.265  -2.432  -0.296  1.00  0.00     0.005 A 
HETATM    9  C9  UNL     1       2.449  -1.401  -0.042  1.00  0.00     0.022 A 
HETATM   10  C10 UNL     1       2.279  -0.360  -0.878  1.00  0.00     0.099 A 
HETATM   11  C17 UNL     1       3.392  -3.578   0.686  1.00  0.00     0.033 C 
HETATM   12  O7  UNL     1       4.790  -3.502  -1.689  1.00  0.00    -0.191 OA
HETATM   13  O8  UNL     1       2.154   1.777  -2.734  1.00  0.00    -0.190 OA
ENDROOT
BRANCH  10  14
HETATM   14  O1  UNL     1       1.423   0.674  -0.596  1.00  0.00    -0.304 OA
BRANCH  14  15
HETATM   15  C11 UNL     1       0.745   0.781   0.635  1.00  0.00     0.274 C 
HETATM   16  O2  UNL     1       0.428   2.160   0.636  1.00  0.00    -0.326 OA
HETATM   17  C12 UNL     1      -0.292   2.572   1.768  1.00  0.00     0.184 C 
HETATM   18  C13 UNL     1      -1.605   1.803   1.858  1.00  0.00     0.215 C 
HETATM   19  C14 UNL     1      -1.401   0.302   1.786  1.00  0.00     0.220 C 
HETATM   20  O5  UNL     1      -2.297   2.087   3.049  1.00  0.00    -0.218 OA
HETATM   21  C15 UNL     1      -0.511  -0.061   0.619  1.00  0.00     0.241 C 
HETATM   22  O4  UNL     1      -2.654  -0.313   1.603  1.00  0.00    -0.218 OA
HETATM   23  O3  UNL     1      -1.222   0.181  -0.572  1.00  0.00    -0.215 OA
BRANCH  17  24
HETATM   24  C16 UNL     1       0.578   2.542   3.020  1.00  0.00     0.214 C 
HETATM   25  O6  UNL     1       0.138   3.517   3.946  1.00  0.00    -0.218 OA
ENDBRANCH  17  24
ENDBRANCH  14  15
ENDBRANCH  10  14
TORSDOF 3
