REMARK  2 active torsions:
REMARK  status: ('A' for Active; 'I' for Inactive)
REMARK    1  A    between atoms: C8_8  and  C10_12 
REMARK    2  A    between atoms: C27_32  and  C28_33 
ROOT
HETATM    1  C10 UNL     1       4.554  -0.203  -0.694  1.00  0.00     0.008 C 
HETATM    2  C11 UNL     1       5.529   0.712   0.024  1.00  0.00     0.145 C 
HETATM    3  O3  UNL     1       4.841   1.939  -0.090  1.00  0.00    -0.350 OA
HETATM    4  C12 UNL     1       4.687   1.906  -1.495  1.00  0.00     0.142 C 
HETATM    5  C13 UNL     1       4.062   0.549  -1.685  1.00  0.00    -0.001 C 
HETATM    6  C14 UNL     1       6.164   1.883  -1.934  1.00  0.00     0.065 C 
HETATM    7  C15 UNL     1       6.633   3.296  -1.689  1.00  0.00    -0.028 C 
HETATM    8  C16 UNL     1       7.359   3.671  -0.626  1.00  0.00    -0.031 C 
HETATM    9  C17 UNL     1       7.980   2.725   0.384  1.00  0.00     0.027 C 
HETATM   10  C18 UNL     1       8.123   1.335  -0.295  1.00  0.00     0.043 C 
HETATM   11  C19 UNL     1       6.765   0.905  -0.902  1.00  0.00     0.115 C 
HETATM   12  C20 UNL     1       7.173  -0.485  -1.350  1.00  0.00     0.274 C 
HETATM   13  O4  UNL     1       7.913  -1.002  -0.334  1.00  0.00    -0.302 OA
HETATM   14  C21 UNL     1       8.357   0.042   0.506  1.00  0.00     0.153 C 
HETATM   15  O5  UNL     1       6.852  -1.061  -2.365  1.00  0.00    -0.264 OA
HETATM   16  C22 UNL     1       9.287   1.391  -1.334  1.00  0.00     0.006 C 
HETATM   17  C23 UNL     1      10.613   1.974  -0.789  1.00  0.00     0.027 C 
HETATM   18  C24 UNL     1      10.386   3.367  -0.199  1.00  0.00     0.093 C 
HETATM   19  C25 UNL     1       9.331   3.266   0.920  1.00  0.00     0.029 C 
HETATM   20  C26 UNL     1       9.480   4.706   1.457  1.00  0.00     0.037 C 
HETATM   21  C27 UNL     1      11.003   4.913   1.316  1.00  0.00     0.139 C 
HETATM   22  O7  UNL     1      11.491   3.872   0.482  1.00  0.00    -0.357 OA
HETATM   23  C32 UNL     1       9.740   2.398   2.147  1.00  0.00     0.003 C 
HETATM   24  C33 UNL     1      10.155   4.328  -1.390  1.00  0.00     0.030 C 
ENDROOT
BRANCH   1  25
HETATM   25  C8  UNL     1       4.346  -1.678  -0.473  1.00  0.00     0.145 C 
HETATM   26  C7  UNL     1       2.885  -2.100  -0.592  1.00  0.00     0.039 C 
HETATM   27  C6  UNL     1       2.673  -3.584  -0.227  1.00  0.00     0.027 C 
HETATM   28  C1  UNL     1       3.149  -3.663   1.238  1.00  0.00     0.090 C 
HETATM   29  C5  UNL     1       1.214  -4.050  -0.186  1.00  0.00    -0.042 C 
HETATM   30  C34 UNL     1       3.503  -4.451  -1.195  1.00  0.00     0.005 C 
HETATM   31  C2  UNL     1       2.856  -5.033   1.890  1.00  0.00     0.011 C 
HETATM   32  C9  UNL     1       4.577  -3.176   1.449  1.00  0.00     0.272 C 
HETATM   33  C3  UNL     1       1.382  -5.478   1.745  1.00  0.00     0.007 C 
HETATM   34  C4  UNL     1       0.952  -5.481   0.262  1.00  0.00     0.056 C 
HETATM   35  C38 UNL     1      -0.519  -5.790  -0.027  1.00  0.00     0.114 C 
HETATM   36  C40 UNL     1       1.486  -6.754  -0.412  1.00  0.00     0.156 C 
HETATM   37  C37 UNL     1      -1.432  -4.750   0.519  1.00  0.00    -0.016 C 
HETATM   38  C39 UNL     1      -0.624  -7.257   0.286  1.00  0.00     0.276 C 
HETATM   39  C36 UNL     1      -1.040  -3.477   0.370  1.00  0.00    -0.005 C 
HETATM   40  C35 UNL     1       0.201  -3.164  -0.049  1.00  0.00    -0.009 C 
HETATM   41  O8  UNL     1       0.576  -7.785  -0.081  1.00  0.00    -0.301 OA
HETATM   42  O9  UNL     1      -1.579  -7.869   0.708  1.00  0.00    -0.264 OA
HETATM   43  O1  UNL     1       4.984  -2.112   0.703  1.00  0.00    -0.300 OA
HETATM   44  O2  UNL     1       5.278  -3.639   2.325  1.00  0.00    -0.264 OA
ENDBRANCH   1  25
BRANCH  21  45
HETATM   45  C28 UNL     1      11.412   6.279   0.832  1.00  0.00     0.031 A 
HETATM   46  C29 UNL     1      12.458   6.592   0.056  1.00  0.00     0.121 A 
HETATM   47  O6  UNL     1      12.517   7.800  -0.170  1.00  0.00    -0.303 OA
HETATM   48  C30 UNL     1      11.575   8.342   0.407  1.00  0.00     0.122 A 
HETATM   49  C31 UNL     1      10.820   7.457   1.071  1.00  0.00     0.027 A 
ENDBRANCH  21  45
TORSDOF 2
