REMARK  0 active torsions:
REMARK  status: ('A' for Active; 'I' for Inactive)
ROOT
HETATM    1  C1  UNL     1      -0.098  -3.444  -1.143  1.00  0.00     0.000 C 
HETATM    2  C2  UNL     1      -0.168  -2.248  -2.102  1.00  0.00     0.000 C 
HETATM    3  C3  UNL     1      -0.766  -0.982  -1.454  1.00  0.00     0.002 C 
HETATM    4  C4  UNL     1      -0.543  -0.869   0.083  1.00  0.00     0.024 C 
HETATM    5  C5  UNL     1       0.780  -1.626   0.401  1.00  0.00     0.002 C 
HETATM    6  C6  UNL     1       0.774  -3.153   0.106  1.00  0.00     0.000 C 
HETATM    7  C7  UNL     1       0.274  -4.005   1.293  1.00  0.00     0.000 C 
HETATM    8  C8  UNL     1       2.219  -3.625  -0.205  1.00  0.00     0.000 C 
HETATM    9  C9  UNL     1       1.501  -1.173   1.691  1.00  0.00     0.000 C 
HETATM   10  C10 UNL     1       0.585  -0.482   2.700  1.00  0.00     0.002 C 
HETATM   11  C11 UNL     1      -0.187   0.709   2.092  1.00  0.00     0.026 C 
HETATM   12  C12 UNL     1      -0.378   0.612   0.550  1.00  0.00     0.102 A 
HETATM   13  C13 UNL     1      -1.518   1.563   0.082  1.00  0.00     0.058 A 
HETATM   14  C14 UNL     1      -0.698   2.612  -0.605  1.00  0.00     0.028 A 
HETATM   15  C15 UNL     1       0.583   2.230  -0.613  1.00  0.00     0.090 A 
HETATM   16  O1  UNL     1       0.802   1.156  -0.062  1.00  0.00    -0.336 OA
HETATM   17  C16 UNL     1       1.488   3.020  -1.193  1.00  0.00     0.035 A 
HETATM   18  C17 UNL     1       1.078   4.168  -1.732  1.00  0.00     0.066 A 
HETATM   19  C18 UNL     1      -0.202   4.563  -1.727  1.00  0.00     0.032 A 
HETATM   20  C19 UNL     1      -1.125   3.767  -1.150  1.00  0.00     0.129 A 
HETATM   21  O2  UNL     1      -2.439   4.114  -1.115  1.00  0.00    -0.190 OA
HETATM   22  C20 UNL     1       2.177   4.776  -2.236  1.00  0.00     0.296 A 
HETATM   23  O3  UNL     1       3.339   4.065  -2.049  1.00  0.00    -0.293 OA
HETATM   24  C21 UNL     1       2.970   2.873  -1.357  1.00  0.00     0.181 A 
HETATM   25  O4  UNL     1       2.152   5.849  -2.798  1.00  0.00    -0.259 OA
HETATM   26  C22 UNL     1       0.452   2.040   2.537  1.00  0.00     0.002 C 
HETATM   27  C23 UNL     1      -1.813  -1.435   0.768  1.00  0.00     0.002 C 
ENDROOT
TORSDOF 0
