REMARK  0 active torsions:
REMARK  status: ('A' for Active; 'I' for Inactive)
ROOT
HETATM    1  C1  UNL     1      -0.107   0.969   0.387  1.00  0.00    -0.044 C 
HETATM    2  C2  UNL     1       0.203  -0.360  -0.308  1.00  0.00     0.034 C 
HETATM    3  C3  UNL     1       1.191  -1.214   0.502  1.00  0.00     0.032 C 
HETATM    4  C4  UNL     1       2.596  -0.681   0.470  1.00  0.00    -0.015 C 
HETATM    5  C5  UNL     1       2.881   0.532   1.212  1.00  0.00     0.147 C 
HETATM    6  C6  UNL     1       2.277   1.793   0.608  1.00  0.00     0.056 C 
HETATM    7  C7  UNL     1       0.778   1.908   0.777  1.00  0.00    -0.048 C 
HETATM    8  C8  UNL     1       0.344   3.224   1.389  1.00  0.00     0.026 C 
HETATM    9  O1  UNL     1       4.249   0.499   0.986  1.00  0.00    -0.297 OA
HETATM   10  C9  UNL     1       4.947  -0.338   0.143  1.00  0.00     0.291 C 
HETATM   11  C10 UNL     1       3.734  -1.070  -0.137  1.00  0.00     0.036 C 
HETATM   12  C11 UNL     1       3.519  -2.300  -1.077  1.00  0.00     0.036 C 
HETATM   13  O2  UNL     1       5.287  -1.185  -0.639  1.00  0.00    -0.260 OA
HETATM   14  C12 UNL     1      -1.169  -1.014  -0.312  1.00  0.00    -0.045 C 
HETATM   15  C13 UNL     1      -2.126  -0.198   0.143  1.00  0.00    -0.030 C 
HETATM   16  C14 UNL     1      -1.602   1.138   0.563  1.00  0.00     0.047 C 
HETATM   17  C15 UNL     1      -1.422  -2.410  -0.809  1.00  0.00     0.026 C 
HETATM   18  C16 UNL     1       0.644  -0.137  -1.764  1.00  0.00     0.008 C 
ENDROOT
TORSDOF 0
