REMARK  2 active torsions:
REMARK  status: ('A' for Active; 'I' for Inactive)
REMARK    1  A    between atoms: C15_17  and  C18_20 
REMARK    2  A    between atoms: C21_23  and  C22_25 
ROOT
HETATM    1  C1  UNL     1      -0.551  -2.188  -3.422  1.00  0.00     0.066 C 
HETATM    2  C2  UNL     1      -1.421  -3.049  -2.518  1.00  0.00     0.155 C 
HETATM    3  C3  UNL     1      -0.574  -3.833  -1.495  1.00  0.00     0.028 C 
HETATM    4  C4  UNL     1       0.694  -3.008  -1.097  1.00  0.00     0.005 C 
HETATM    5  C5  UNL     1       0.578  -1.453  -1.177  1.00  0.00     0.029 C 
HETATM    6  C6  UNL     1       0.194  -1.096  -2.646  1.00  0.00     0.155 C 
HETATM    7  O1  UNL     1      -0.574   0.086  -2.699  1.00  0.00    -0.223 OA
HETATM    8  C7  UNL     1       1.990  -0.832  -0.850  1.00  0.00     0.005 C 
HETATM    9  C8  UNL     1       2.740  -1.316   0.436  1.00  0.00     0.000 C 
HETATM   10  C9  UNL     1       2.754  -2.863   0.415  1.00  0.00     0.000 C 
HETATM   11  C10 UNL     1       1.366  -3.491   0.205  1.00  0.00     0.000 C 
HETATM   12  C11 UNL     1       4.211  -0.744   0.415  1.00  0.00     0.002 C 
HETATM   13  C12 UNL     1       4.185   0.811   0.356  1.00  0.00     0.033 C 
HETATM   14  C13 UNL     1       3.568   1.204  -0.984  1.00  0.00     0.152 C 
HETATM   15  C14 UNL     1       2.120   0.697  -1.045  1.00  0.00     0.033 C 
HETATM   16  O2  UNL     1       3.554   2.597  -1.163  1.00  0.00    -0.224 OA
HETATM   17  C15 UNL     1       5.578   1.323   0.811  1.00  0.00     0.028 C 
HETATM   18  C16 UNL     1       6.189   0.097   1.549  1.00  0.00     0.002 C 
HETATM   19  C17 UNL     1       5.057  -0.931   1.693  1.00  0.00     0.000 C 
HETATM   20  C26 UNL     1       5.080  -1.348  -0.730  1.00  0.00     0.000 C 
HETATM   21  C27 UNL     1       2.013  -0.888   1.738  1.00  0.00     0.000 C 
HETATM   22  C28 UNL     1      -0.514  -0.910  -0.225  1.00  0.00     0.003 C 
HETATM   23  C29 UNL     1      -1.476  -4.197  -0.293  1.00  0.00     0.003 C 
HETATM   24  C30 UNL     1      -0.114  -5.181  -2.116  1.00  0.00     0.003 C 
HETATM   25  O5  UNL     1      -2.203  -3.910  -3.315  1.00  0.00    -0.223 OA
ENDROOT
BRANCH  17  26
HETATM   26  C18 UNL     1       5.661   2.590   1.715  1.00  0.00     0.093 C 
HETATM   27  C19 UNL     1       5.437   3.933   1.017  1.00  0.00     0.030 C 
HETATM   28  C20 UNL     1       6.771   4.168   0.308  1.00  0.00     0.035 C 
HETATM   29  C21 UNL     1       7.745   3.385   1.193  1.00  0.00     0.143 C 
HETATM   30  O3  UNL     1       6.974   2.741   2.173  1.00  0.00    -0.359 OA
HETATM   31  C25 UNL     1       4.752   2.506   2.951  1.00  0.00     0.030 C 
BRANCH  29  32
HETATM   32  C22 UNL     1       8.852   4.202   1.865  1.00  0.00     0.152 C 
HETATM   33  O4  UNL     1       9.619   3.318   2.645  1.00  0.00    -0.224 OA
HETATM   34  C23 UNL     1       8.316   5.289   2.803  1.00  0.00     0.035 C 
HETATM   35  C24 UNL     1       9.802   4.814   0.831  1.00  0.00     0.035 C 
ENDBRANCH  29  32
ENDBRANCH  17  26
TORSDOF 2
