REMARK  1 active torsions:
REMARK  status: ('A' for Active; 'I' for Inactive)
REMARK    1  A    between atoms: C12_14  and  C14_16 
ROOT
HETATM    1  C1  UNL     1      -1.393   1.623  -1.022  1.00  0.00     0.143 A 
HETATM    2  C2  UNL     1      -1.429   0.365  -1.877  1.00  0.00     0.042 C 
HETATM    3  C3  UNL     1      -0.116  -0.389  -2.174  1.00  0.00     0.091 C 
HETATM    4  C4  UNL     1       1.177   0.434  -2.072  1.00  0.00     0.039 C 
HETATM    5  C5  UNL     1       1.103   1.385  -0.850  1.00  0.00     0.033 C 
HETATM    6  C6  UNL     1      -0.177   2.194  -0.637  1.00  0.00     0.142 A 
HETATM    7  O1  UNL     1      -0.833   2.755  -1.901  1.00  0.00    -0.354 OA
HETATM    8  C7  UNL     1       1.506   0.763   0.537  1.00  0.00     0.014 C 
HETATM    9  C8  UNL     1       2.306  -0.540   0.394  1.00  0.00     0.087 C 
HETATM   10  C9  UNL     1       3.277  -0.435  -0.777  1.00  0.00     0.010 C 
HETATM   11  C10 UNL     1       2.441  -0.486  -2.061  1.00  0.00     0.004 C 
HETATM   12  C11 UNL     1       2.906  -0.966   1.714  1.00  0.00     0.272 C 
HETATM   13  O2  UNL     1       2.010  -1.014   2.734  1.00  0.00    -0.300 OA
HETATM   14  C12 UNL     1       0.698  -0.496   2.656  1.00  0.00     0.148 C 
HETATM   15  C13 UNL     1       0.313   0.275   1.384  1.00  0.00     0.035 C 
HETATM   16  O4  UNL     1       4.064  -1.303   1.840  1.00  0.00    -0.264 OA
HETATM   17  C18 UNL     1       2.284   1.831   1.345  1.00  0.00     0.001 C 
HETATM   18  C19 UNL     1       1.175   1.062  -3.479  1.00  0.00     0.152 C 
HETATM   19  O5  UNL     1       0.637   0.086  -4.335  1.00  0.00    -0.302 OA
HETATM   20  C20 UNL     1      -0.095  -0.817  -3.632  1.00  0.00     0.272 C 
HETATM   21  O6  UNL     1      -0.665  -1.777  -4.100  1.00  0.00    -0.264 OA
ENDROOT
BRANCH  14  22
HETATM   22  C14 UNL     1      -0.303  -1.593   2.912  1.00  0.00     0.032 A 
HETATM   23  C15 UNL     1      -0.426  -2.751   2.248  1.00  0.00     0.121 A 
HETATM   24  O3  UNL     1      -1.350  -3.434   2.687  1.00  0.00    -0.303 OA
HETATM   25  C16 UNL     1      -1.872  -2.819   3.616  1.00  0.00     0.122 A 
HETATM   26  C17 UNL     1      -1.277  -1.639   3.832  1.00  0.00     0.027 A 
ENDBRANCH  14  22
TORSDOF 1
