REMARK  9 active torsions:
REMARK  status: ('A' for Active; 'I' for Inactive)
REMARK    1  A    between atoms: C1_1  and  C2_2 
REMARK    2  A    between atoms: C2_2  and  C3_3 
REMARK    3  A    between atoms: C3_3  and  C5_5 
REMARK    4  A    between atoms: C5_5  and  C6_6 
REMARK    5  A    between atoms: C6_6  and  C7_7 
REMARK    6  A    between atoms: C8_8  and  C10_10 
REMARK    7  A    between atoms: C11_11  and  C12_12 
REMARK    8  A    between atoms: C12_12  and  C13_13 
REMARK    9  A    between atoms: C13_13  and  C14_14 
ROOT
HETATM    1  C7  UNL     1      -0.471   0.481  -1.275  1.00  0.00    -0.022 C 
HETATM    2  C8  UNL     1      -0.287  -0.727  -0.703  1.00  0.00    -0.026 C 
HETATM    3  C9  UNL     1      -1.374  -1.377   0.129  1.00  0.00     0.031 C 
ENDROOT
BRANCH   2   4
HETATM    4  C10 UNL     1       0.904  -1.335  -0.884  1.00  0.00    -0.008 C 
HETATM    5  C11 UNL     1       1.283  -2.511  -0.355  1.00  0.00    -0.009 C 
BRANCH   5   6
HETATM    6  C12 UNL     1       2.670  -3.092  -0.535  1.00  0.00     0.119 C 
HETATM    7 CL2  UNL     1       2.512  -4.695  -1.324  1.00  0.00    -0.109 Cl
BRANCH   6   8
HETATM    8  C13 UNL     1       3.495  -3.121   0.769  1.00  0.00     0.104 C 
HETATM    9  C16 UNL     1       2.914  -4.070   1.825  1.00  0.00     0.022 C 
HETATM   10 CL1  UNL     1       3.499  -1.454   1.457  1.00  0.00    -0.110 Cl
BRANCH   8  11
HETATM   11  C14 UNL     1       4.943  -3.495   0.494  1.00  0.00    -0.003 C 
HETATM   12  C15 UNL     1       5.924  -3.448   1.407  1.00  0.00     0.037 C 
HETATM   13 BR1  UNL     1       7.713  -3.915   1.052  1.00  0.00    -0.049 Br
ENDBRANCH   8  11
ENDBRANCH   6   8
ENDBRANCH   5   6
ENDBRANCH   2   4
BRANCH   1  14
HETATM   14  C6  UNL     1      -1.680   1.374  -1.128  1.00  0.00     0.095 C 
BRANCH  14  15
HETATM   15  C5  UNL     1      -1.319   2.843  -1.338  1.00  0.00     0.174 C 
HETATM   16  O1  UNL     1      -1.769   3.413  -2.308  1.00  0.00    -0.291 OA
BRANCH  15  17
HETATM   17  C3  UNL     1      -0.510   3.521  -0.477  1.00  0.00     0.024 C 
HETATM   18  C4  UNL     1       0.000   2.940   0.624  1.00  0.00    -0.001 C 
BRANCH  17  19
HETATM   19  C2  UNL     1      -0.187   4.974  -0.778  1.00  0.00     0.127 C 
BRANCH  19  20
HETATM   20  C1  UNL     1      -1.382   5.905  -0.680  1.00  0.00     0.190 C 
HETATM   21  O2  UNL     1      -2.282   5.477   0.225  1.00  0.00    -0.647 OA
HETATM   22  O3  UNL     1      -1.552   6.924  -1.306  1.00  0.00    -0.647 OA
ENDBRANCH  19  20
ENDBRANCH  17  19
ENDBRANCH  15  17
ENDBRANCH  14  15
ENDBRANCH   1  14
TORSDOF 9
