REMARK  9 active torsions:
REMARK  status: ('A' for Active; 'I' for Inactive)
REMARK    1  A    between atoms: C3_3  and  C30_40 
REMARK    2  A    between atoms: C10_10  and  O6_29 
REMARK    3  A    between atoms: C12_12  and  O4_25 
REMARK    4  A    between atoms: C14_14  and  O1_15 
REMARK    5  A    between atoms: C19_22  and  O3_23 
REMARK    6  A    between atoms: O4_25  and  C21_26 
REMARK    7  A    between atoms: O6_29  and  C23_30 
REMARK    8  A    between atoms: C23_30  and  C24_31 
REMARK    9  A    between atoms: C30_40  and  O10_41 
ROOT
HETATM    1  C1  UNL     1      -1.888   0.930   0.455  1.00  0.00     0.000 C 
HETATM    2  C2  UNL     1      -2.333  -0.524   0.581  1.00  0.00     0.004 C 
HETATM    3  C3  UNL     1      -1.166  -1.554   0.743  1.00  0.00     0.052 C 
HETATM    4  C4  UNL     1       0.232  -0.860   0.757  1.00  0.00     0.036 C 
HETATM    5  C5  UNL     1       0.337   0.148  -0.440  1.00  0.00     0.049 C 
HETATM    6  C6  UNL     1      -0.924   0.993  -0.722  1.00  0.00     0.004 C 
HETATM    7  C7  UNL     1       1.545   1.122  -0.398  1.00  0.00     0.136 C 
HETATM    8  C8  UNL     1       1.777   1.984  -1.667  1.00  0.00     0.066 C 
HETATM    9  C9  UNL     1       3.298   2.026  -1.940  1.00  0.00     0.182 C 
HETATM   10  C10 UNL     1       3.839   1.739  -0.549  1.00  0.00     0.160 C 
HETATM   11  C11 UNL     1       2.952   0.539  -0.206  1.00  0.00     0.087 C 
HETATM   12  C12 UNL     1       3.154  -0.729  -1.080  1.00  0.00     0.140 C 
HETATM   13  C13 UNL     1       1.843  -1.581  -0.954  1.00  0.00     0.077 C 
HETATM   14  C14 UNL     1       1.475  -1.776   0.534  1.00  0.00     0.120 C 
HETATM   15  C16 UNL     1       0.560  -0.923  -1.512  1.00  0.00     0.105 C 
HETATM   16  N1  UNL     1      -0.594  -1.826  -1.680  1.00  0.00    -0.297 NA
HETATM   17  C17 UNL     1      -1.153  -2.480  -0.494  1.00  0.00     0.122 C 
HETATM   18  C18 UNL     1       3.416  -0.421  -2.572  1.00  0.00     0.207 C 
HETATM   19  O2  UNL     1       4.265  -1.355  -3.199  1.00  0.00    -0.218 OA
HETATM   20  C19 UNL     1       3.757   1.012  -2.988  1.00  0.00     0.178 C 
HETATM   21  O8  UNL     1       3.671   3.320  -2.335  1.00  0.00    -0.221 OA
HETATM   22  O9  UNL     1       1.310   1.987   0.691  1.00  0.00    -0.226 OA
ENDROOT
BRANCH  10  23
HETATM   23  O6  UNL     1       5.201   1.467  -0.491  1.00  0.00    -0.298 OA
BRANCH  23  24
HETATM   24  C23 UNL     1       6.078   2.239   0.239  1.00  0.00     0.296 C 
HETATM   25  O7  UNL     1       7.202   2.320  -0.221  1.00  0.00    -0.259 OA
BRANCH  24  26
HETATM   26  C24 UNL     1       5.884   2.871   1.441  1.00  0.00     0.063 A 
HETATM   27  C25 UNL     1       4.787   2.704   2.205  1.00  0.00     0.005 A 
HETATM   28  C26 UNL     1       4.627   3.350   3.372  1.00  0.00     0.000 A 
HETATM   29  C27 UNL     1       5.576   4.183   3.819  1.00  0.00     0.000 A 
HETATM   30  C28 UNL     1       6.691   4.343   3.093  1.00  0.00     0.000 A 
HETATM   31  C29 UNL     1       6.841   3.690   1.930  1.00  0.00     0.005 A 
ENDBRANCH  24  26
ENDBRANCH  23  24
ENDBRANCH  10  23
BRANCH  20  32
HETATM   32  O3  UNL     1       5.137   1.119  -3.224  1.00  0.00    -0.349 OA
HETATM   33  C20 UNL     1       5.472   1.656  -4.484  1.00  0.00     0.174 C 
ENDBRANCH  20  32
BRANCH  12  34
HETATM   34  O4  UNL     1       4.128  -1.527  -0.454  1.00  0.00    -0.304 OA
BRANCH  34  35
HETATM   35  C21 UNL     1       5.449  -1.576  -0.760  1.00  0.00     0.272 C 
HETATM   36  C22 UNL     1       6.136  -2.647   0.063  1.00  0.00     0.106 C 
HETATM   37  O5  UNL     1       6.032  -0.888  -1.563  1.00  0.00    -0.264 OA
ENDBRANCH  34  35
ENDBRANCH  12  34
BRANCH  14  38
HETATM   38  O1  UNL     1       1.302  -3.140   0.785  1.00  0.00    -0.354 OA
HETATM   39  C15 UNL     1       2.297  -3.718   1.603  1.00  0.00     0.174 C 
ENDBRANCH  14  38
BRANCH   3  40
HETATM   40  C30 UNL     1      -1.556  -2.295   2.051  1.00  0.00     0.144 C 
BRANCH  40  41
HETATM   41  O10 UNL     1      -0.699  -3.341   2.418  1.00  0.00    -0.351 OA
HETATM   42  C31 UNL     1      -1.125  -4.018   3.582  1.00  0.00     0.174 C 
ENDBRANCH  40  41
ENDBRANCH   3  40
TORSDOF 9
