REMARK  9 active torsions:
REMARK  status: ('A' for Active; 'I' for Inactive)
REMARK    1  A    between atoms: C1_1  and  C2_2 
REMARK    2  A    between atoms: C2_2  and  C3_3 
REMARK    3  A    between atoms: C3_3  and  C5_5 
REMARK    4  A    between atoms: C5_5  and  C6_6 
REMARK    5  A    between atoms: C6_6  and  C7_7 
REMARK    6  A    between atoms: C8_8  and  C10_10 
REMARK    7  A    between atoms: C11_11  and  C12_12 
REMARK    8  A    between atoms: C12_12  and  C13_13 
REMARK    9  A    between atoms: C13_13  and  C14_14 
ROOT
HETATM    1  C7  UNL     1       2.388   0.384  -1.552  1.00  0.00    -0.027 C 
HETATM    2  C8  UNL     1       3.532   0.826  -0.987  1.00  0.00    -0.026 C 
HETATM    3  C9  UNL     1       4.888   0.517  -1.588  1.00  0.00     0.031 C 
ENDROOT
BRANCH   2   4
HETATM    4  C10 UNL     1       3.431   1.578   0.130  1.00  0.00    -0.008 C 
HETATM    5  C11 UNL     1       4.448   2.097   0.841  1.00  0.00    -0.009 C 
BRANCH   5   6
HETATM    6  C12 UNL     1       4.241   2.934   2.087  1.00  0.00     0.119 C 
HETATM    7 CL2  UNL     1       5.049   4.517   1.831  1.00  0.00    -0.109 Cl
BRANCH   6   8
HETATM    8  C13 UNL     1       4.658   2.230   3.394  1.00  0.00     0.103 C 
HETATM    9  C16 UNL     1       6.165   1.954   3.468  1.00  0.00     0.022 C 
HETATM   10 CL1  UNL     1       3.797   0.647   3.463  1.00  0.00    -0.110 Cl
BRANCH   8  11
HETATM   11  C14 UNL     1       4.230   3.039   4.607  1.00  0.00    -0.010 C 
HETATM   12  C15 UNL     1       4.294   2.611   5.877  1.00  0.00    -0.004 C 
ENDBRANCH   8  11
ENDBRANCH   6   8
ENDBRANCH   5   6
ENDBRANCH   2   4
BRANCH   1  13
HETATM   13  C6  UNL     1       2.244  -0.447  -2.806  1.00  0.00     0.063 C 
BRANCH  13  14
HETATM   14  C5  UNL     1       1.007  -1.355  -2.808  1.00  0.00     0.175 C 
HETATM   15  O1  UNL     1       0.621  -1.555  -4.159  1.00  0.00    -0.219 OA
BRANCH  14  16
HETATM   16  C3  UNL     1       1.177  -2.696  -2.113  1.00  0.00    -0.003 C 
HETATM   17  C4  UNL     1       1.989  -2.854  -1.055  1.00  0.00    -0.006 C 
BRANCH  16  18
HETATM   18  C2  UNL     1       0.382  -3.876  -2.636  1.00  0.00     0.122 C 
BRANCH  18  19
HETATM   19  C1  UNL     1      -1.108  -3.595  -2.657  1.00  0.00     0.190 C 
HETATM   20  O2  UNL     1      -1.802  -4.425  -1.858  1.00  0.00    -0.647 OA
HETATM   21  O3  UNL     1      -1.650  -2.741  -3.316  1.00  0.00    -0.647 OA
ENDBRANCH  18  19
ENDBRANCH  16  18
ENDBRANCH  14  16
ENDBRANCH  13  14
ENDBRANCH   1  13
TORSDOF 9
