REMARK  2 active torsions:
REMARK  status: ('A' for Active; 'I' for Inactive)
REMARK    1  A    between atoms: C7_7  and  C12_13 
REMARK    2  A    between atoms: C8_8  and  C11_11 
ROOT
HETATM    1  C1  UNL     1      -1.524   0.583  -1.996  1.00  0.00     0.000 C 
HETATM    2  C2  UNL     1      -2.318  -0.326  -1.058  1.00  0.00     0.000 C 
HETATM    3  C3  UNL     1      -1.398  -1.360  -0.371  1.00  0.00     0.000 C 
HETATM    4  C4  UNL     1       0.027  -0.768  -0.131  1.00  0.00     0.005 C 
HETATM    5  C5  UNL     1       0.150   0.776  -0.005  1.00  0.00     0.014 C 
HETATM    6  C6  UNL     1      -0.585   1.482  -1.183  1.00  0.00     0.001 C 
HETATM    7  C7  UNL     1       1.663   1.172  -0.043  1.00  0.00     0.113 C 
HETATM    8  C8  UNL     1       2.604   0.226   0.691  1.00  0.00     0.026 C 
HETATM    9  C9  UNL     1       2.184  -0.959   1.164  1.00  0.00    -0.027 C 
HETATM   10  C10 UNL     1       0.785  -1.479   1.002  1.00  0.00     0.026 C 
HETATM   11  C13 UNL     1      -0.459   1.269   1.330  1.00  0.00     0.001 C 
HETATM   12  C14 UNL     1      -2.108  -1.859   0.909  1.00  0.00     0.000 C 
HETATM   13  C15 UNL     1      -1.277  -2.597  -1.300  1.00  0.00     0.000 C 
ENDROOT
BRANCH   7  14
HETATM   14  C12 UNL     1       1.850   2.660   0.274  1.00  0.00     0.189 C 
HETATM   15  O2  UNL     1       1.668   3.556  -0.522  1.00  0.00    -0.647 OA
HETATM   16  O3  UNL     1       2.174   2.870   1.568  1.00  0.00    -0.647 OA
ENDBRANCH   7  14
BRANCH   8  17
HETATM   17  C11 UNL     1       3.916   0.544   0.852  1.00  0.00     0.230 C 
HETATM   18  O1  UNL     1       4.373   1.588   0.456  1.00  0.00    -0.283 OA
ENDBRANCH   8  17
TORSDOF 2
