REMARK  5 active torsions:
REMARK  status: ('A' for Active; 'I' for Inactive)
REMARK    1  A    between atoms: C15_15  and  C18_18 
REMARK    2  A    between atoms: C18_18  and  C19_19 
REMARK    3  A    between atoms: C19_19  and  C20_20 
REMARK    4  A    between atoms: C20_20  and  C21_21 
REMARK    5  A    between atoms: C21_21  and  C22_22 
ROOT
HETATM    1  C1  UNL     1      -2.171  -0.917  -1.661  1.00  0.00     0.182 C 
HETATM    2  C2  UNL     1      -2.073  -2.132  -2.565  1.00  0.00     0.182 C 
HETATM    3  C3  UNL     1      -0.718  -2.824  -2.446  1.00  0.00     0.036 C 
HETATM    4  C4  UNL     1      -0.482  -3.264  -0.988  1.00  0.00     0.007 C 
HETATM    5  C5  UNL     1      -0.508  -2.073   0.004  1.00  0.00     0.006 C 
HETATM    6  C6  UNL     1      -1.826  -1.283  -0.216  1.00  0.00     0.036 C 
HETATM    7  C7  UNL     1       0.776  -1.204  -0.171  1.00  0.00     0.020 C 
HETATM    8  C8  UNL     1       2.043  -2.043  -0.181  1.00  0.00    -0.022 C 
HETATM    9  C9  UNL     1       2.022  -3.342  -0.521  1.00  0.00    -0.032 C 
HETATM   10  C10 UNL     1       0.778  -4.128  -0.822  1.00  0.00     0.025 C 
HETATM   11  C11 UNL     1       3.349  -1.293  -0.023  1.00  0.00     0.141 C 
HETATM   12  C12 UNL     1       3.320  -0.307   1.168  1.00  0.00     0.032 C 
HETATM   13  C13 UNL     1       2.200   0.709   0.893  1.00  0.00     0.003 C 
HETATM   14  C14 UNL     1       0.832   0.012   0.784  1.00  0.00     0.004 C 
HETATM   15  C15 UNL     1       4.777   0.235   1.131  1.00  0.00     0.033 C 
HETATM   16  C16 UNL     1       5.593  -1.063   0.900  1.00  0.00     0.005 C 
HETATM   17  C17 UNL     1       4.634  -2.082   0.245  1.00  0.00     0.035 C 
HETATM   18  C26 UNL     1       3.005  -1.084   2.471  1.00  0.00     0.003 C 
HETATM   19  O3  UNL     1       3.558  -0.613  -1.251  1.00  0.00    -0.222 OA
HETATM   20  C27 UNL     1      -0.571  -2.656   1.441  1.00  0.00     0.000 C 
HETATM   21  O4  UNL     1      -2.329  -1.777  -3.903  1.00  0.00    -0.221 OA
HETATM   22  O5  UNL     1      -1.329   0.114  -2.119  1.00  0.00    -0.221 OA
ENDROOT
BRANCH  15  23
HETATM   23  C18 UNL     1       5.384   1.228   2.153  1.00  0.00     0.155 C 
HETATM   24  O2  UNL     1       6.780   1.028   2.141  1.00  0.00    -0.223 OA
HETATM   25  C25 UNL     1       4.997   0.964   3.613  1.00  0.00     0.036 C 
BRANCH  23  26
HETATM   26  C19 UNL     1       5.182   2.724   1.824  1.00  0.00     0.180 C 
HETATM   27  O1  UNL     1       3.911   3.151   2.258  1.00  0.00    -0.221 OA
BRANCH  26  28
HETATM   28  C20 UNL     1       5.355   3.223   0.381  1.00  0.00     0.035 C 
BRANCH  28  29
HETATM   29  C21 UNL     1       6.745   2.995  -0.232  1.00  0.00     0.003 C 
BRANCH  29  30
HETATM   30  C22 UNL     1       6.877   3.412  -1.711  1.00  0.00     0.000 C 
HETATM   31  C23 UNL     1       6.473   4.873  -1.968  1.00  0.00     0.000 C 
HETATM   32  C24 UNL     1       8.322   3.177  -2.190  1.00  0.00     0.000 C 
ENDBRANCH  29  30
ENDBRANCH  28  29
ENDBRANCH  26  28
ENDBRANCH  23  26
ENDBRANCH  15  23
TORSDOF 5
