REMARK  5 active torsions:
REMARK  status: ('A' for Active; 'I' for Inactive)
REMARK    1  A    between atoms: C4_5  and  O10_33 
REMARK    2  A    between atoms: C8_10  and  C10_12 
REMARK    3  A    between atoms: C14_16  and  O3_18 
REMARK    4  A    between atoms: O3_18  and  C16_19 
REMARK    5  A    between atoms: C20_23  and  C21_25 
ROOT
HETATM    1  C10 UNL     1       5.730  -1.479   0.435  1.00  0.00     0.059 A 
HETATM    2  C11 UNL     1       7.060  -1.762   0.227  1.00  0.00     0.010 A 
HETATM    3  C12 UNL     1       8.020  -0.753   0.135  1.00  0.00     0.003 A 
HETATM    4  C13 UNL     1       7.720   0.605   0.233  1.00  0.00     0.032 A 
HETATM    5  C14 UNL     1       6.437   1.029   0.466  1.00  0.00     0.131 A 
HETATM    6  C15 UNL     1       6.162  -0.247   0.443  1.00  0.00    -0.075 A 
ENDROOT
BRANCH   1   7
HETATM    7  C8  UNL     1       4.572  -2.156   0.532  1.00  0.00     0.110 A 
HETATM    8  O2  UNL     1       3.410  -1.476   0.758  1.00  0.00    -0.306 OA
HETATM    9  C7  UNL     1       2.268  -2.216   0.717  1.00  0.00     0.105 A 
HETATM   10  C2  UNL     1       2.239  -3.549   0.519  1.00  0.00     0.064 A 
HETATM   11  C6  UNL     1       1.073  -1.636   0.885  1.00  0.00     0.050 A 
HETATM   12  C1  UNL     1       3.417  -4.213   0.350  1.00  0.00     0.200 A 
HETATM   13  C3  UNL     1       1.066  -4.218   0.477  1.00  0.00     0.031 A 
HETATM   14  O1  UNL     1       3.476  -5.411   0.175  1.00  0.00    -0.286 OA
HETATM   15  C9  UNL     1       4.566  -3.489   0.355  1.00  0.00     0.067 A 
HETATM   16  C4  UNL     1      -0.140  -3.629   0.637  1.00  0.00     0.117 A 
HETATM   17  C5  UNL     1      -0.086  -2.301   0.841  1.00  0.00     0.124 A 
HETATM   18  O9  UNL     1      -1.040  -1.542   1.017  1.00  0.00    -0.303 OA
HETATM   19  C23 UNL     1      -0.601  -0.404   1.185  1.00  0.00     0.123 A 
HETATM   20  C22 UNL     1       0.736  -0.363   1.124  1.00  0.00     0.031 A 
BRANCH  16  21
HETATM   21  O10 UNL     1      -1.361  -4.256   0.576  1.00  0.00    -0.326 OA
HETATM   22  C24 UNL     1      -1.413  -5.596   0.142  1.00  0.00     0.181 C 
ENDBRANCH  16  21
ENDBRANCH   1   7
BRANCH   5  23
HETATM   23  O3  UNL     1       5.837   2.250   0.517  1.00  0.00    -0.296 OA
BRANCH  23  24
HETATM   24  C16 UNL     1       4.480   2.342   0.123  1.00  0.00     0.275 C 
HETATM   25  C17 UNL     1       4.295   2.114  -1.365  1.00  0.00     0.241 C 
HETATM   26  C18 UNL     1       2.863   2.432  -1.758  1.00  0.00     0.220 C 
HETATM   27  O8  UNL     1       4.595   0.792  -1.742  1.00  0.00    -0.215 OA
HETATM   28  C19 UNL     1       2.497   3.824  -1.278  1.00  0.00     0.215 C 
HETATM   29  O7  UNL     1       1.973   1.535  -1.138  1.00  0.00    -0.218 OA
HETATM   30  C20 UNL     1       2.861   4.040   0.189  1.00  0.00     0.184 C 
HETATM   31  O6  UNL     1       1.105   3.965  -1.449  1.00  0.00    -0.218 OA
HETATM   32  O4  UNL     1       4.200   3.695   0.422  1.00  0.00    -0.326 OA
BRANCH  30  33
HETATM   33  C21 UNL     1       2.687   5.494   0.610  1.00  0.00     0.214 C 
HETATM   34  O5  UNL     1       1.337   5.886   0.460  1.00  0.00    -0.218 OA
ENDBRANCH  30  33
ENDBRANCH  23  24
ENDBRANCH   5  23
TORSDOF 5
