REMARK  1 active torsions:
REMARK  status: ('A' for Active; 'I' for Inactive)
REMARK    1  A    between atoms: C3_4  and  C6_8 
ROOT
HETATM    1  C1  UNL     1       0.415  -1.765   0.074  1.00  0.00     0.062 A 
HETATM    2  C2  UNL     1       0.504  -0.419   0.078  1.00  0.00     0.105 A 
HETATM    3  O1  UNL     1       1.683   0.262   0.037  1.00  0.00    -0.307 OA
HETATM    4  C3  UNL     1       2.837  -0.476   0.004  1.00  0.00     0.103 A 
HETATM    5  C4  UNL     1       2.745  -1.821  -0.001  1.00  0.00     0.067 A 
HETATM    6  C5  UNL     1       1.563  -2.492   0.031  1.00  0.00     0.200 A 
HETATM    7  O2  UNL     1       1.565  -3.705   0.025  1.00  0.00    -0.286 OA
HETATM    8  C13 UNL     1      -0.663   0.241   0.124  1.00  0.00     0.048 A 
HETATM    9  C14 UNL     1      -1.856  -0.363   0.166  1.00  0.00     0.102 A 
HETATM   10  C15 UNL     1      -1.935  -1.698   0.162  1.00  0.00     0.025 A 
HETATM   11  C16 UNL     1      -0.783  -2.388   0.114  1.00  0.00     0.007 A 
HETATM   12  O5  UNL     1      -2.779   0.449   0.205  1.00  0.00    -0.305 OA
HETATM   13  C17 UNL     1      -2.288   1.578   0.192  1.00  0.00     0.123 A 
HETATM   14  C18 UNL     1      -0.949   1.548   0.140  1.00  0.00     0.031 A 
ENDROOT
BRANCH   4  15
HETATM   15  C6  UNL     1       4.032   0.173  -0.021  1.00  0.00     0.025 A 
HETATM   16  C7  UNL     1       4.036   1.528  -0.012  1.00  0.00     0.004 A 
HETATM   17  C8  UNL     1       5.160   2.267  -0.029  1.00  0.00     0.026 A 
HETATM   18  C9  UNL     1       6.332   1.627  -0.056  1.00  0.00     0.119 A 
HETATM   19  C10 UNL     1       6.365   0.293  -0.067  1.00  0.00     0.119 A 
HETATM   20  O4  UNL     1       7.460   2.110  -0.074  1.00  0.00    -0.300 OA
HETATM   21  C11 UNL     1       5.240  -0.434  -0.051  1.00  0.00     0.028 A 
HETATM   22  O3  UNL     1       7.523  -0.118  -0.093  1.00  0.00    -0.300 OA
HETATM   23  C12 UNL     1       8.385   1.022  -0.100  1.00  0.00     0.304 A 
ENDBRANCH   4  15
TORSDOF 1
