REMARK  6 active torsions:
REMARK  status: ('A' for Active; 'I' for Inactive)
REMARK    1  A    between atoms: C1_2  and  C2_3 
REMARK    2  A    between atoms: C1_2  and  C15_19 
REMARK    3  A    between atoms: C3_4  and  O4_17 
REMARK    4  A    between atoms: C6_7  and  O2_9 
REMARK    5  A    between atoms: C15_19  and  C16_20 
REMARK    6  A    between atoms: C16_20  and  C17_22 
ROOT
HETATM    1  C2  UNL     1       3.889   1.159  -0.000  1.00  0.00     0.059 A 
HETATM    2  C3  UNL     1       2.835   1.917  -0.394  1.00  0.00     0.099 A 
HETATM    3  C4  UNL     1       1.587   1.398  -0.264  1.00  0.00     0.046 A 
HETATM    4  C5  UNL     1       1.354   0.210   0.339  1.00  0.00     0.118 A 
HETATM    5  C6  UNL     1       2.408  -0.551   0.696  1.00  0.00     0.117 A 
HETATM    6  C7  UNL     1       3.641  -0.039   0.556  1.00  0.00     0.031 A 
HETATM    7  O3  UNL     1       0.100  -0.309   0.548  1.00  0.00    -0.330 OA
HETATM    8  C9  UNL     1      -0.946   0.143  -0.260  1.00  0.00     0.117 C 
HETATM    9  C10 UNL     1      -0.718   1.569  -0.675  1.00  0.00     0.001 C 
HETATM   10  C11 UNL     1       0.514   2.089  -0.698  1.00  0.00     0.002 C 
HETATM   11  C12 UNL     1      -2.245   0.023   0.543  1.00  0.00     0.035 C 
HETATM   12  C13 UNL     1      -1.012  -0.738  -1.513  1.00  0.00     0.035 C 
ENDROOT
BRANCH   1  13
HETATM   13  C1  UNL     1       5.184   1.585  -0.128  1.00  0.00     0.183 C 
HETATM   14  O1  UNL     1       5.505   2.651  -0.606  1.00  0.00    -0.291 OA
BRANCH  13  15
HETATM   15  C15 UNL     1       6.382   0.762   0.377  1.00  0.00     0.138 C 
BRANCH  15  16
HETATM   16  C16 UNL     1       6.729  -0.460  -0.474  1.00  0.00     0.181 C 
HETATM   17  O5  UNL     1       6.002  -0.685  -1.417  1.00  0.00    -0.291 OA
BRANCH  16  18
HETATM   18  C17 UNL     1       7.802  -1.250  -0.181  1.00  0.00     0.035 A 
HETATM   19  C18 UNL     1       8.605  -1.008   0.874  1.00  0.00     0.003 A 
HETATM   20  C19 UNL     1       9.657  -1.800   1.139  1.00  0.00     0.000 A 
HETATM   21  C20 UNL     1       9.927  -2.851   0.352  1.00  0.00     0.000 A 
HETATM   22  C21 UNL     1       9.136  -3.105  -0.700  1.00  0.00     0.000 A 
HETATM   23  C22 UNL     1       8.085  -2.312  -0.962  1.00  0.00     0.003 A 
ENDBRANCH  16  18
ENDBRANCH  15  16
ENDBRANCH  13  15
ENDBRANCH   1  13
BRANCH   2  24
HETATM   24  O4  UNL     1       3.011   3.125  -1.034  1.00  0.00    -0.328 OA
HETATM   25  C14 UNL     1       3.023   4.242  -0.168  1.00  0.00     0.181 C 
ENDBRANCH   2  24
BRANCH   5  26
HETATM   26  O2  UNL     1       2.233  -1.762   1.323  1.00  0.00    -0.326 OA
HETATM   27  C8  UNL     1       2.108  -2.849   0.433  1.00  0.00     0.181 C 
ENDBRANCH   5  26
TORSDOF 6
