REMARK  0 active torsions:
REMARK  status: ('A' for Active; 'I' for Inactive)
ROOT
HETATM    1  C1  UNL     1       2.850  -2.612  -0.505  1.00  0.00     0.083 A 
HETATM    2  C2  UNL     1       1.668  -3.240  -0.583  1.00  0.00     0.038 A 
HETATM    3  C3  UNL     1       0.455  -2.680  -0.447  1.00  0.00     0.083 A 
HETATM    4  C4  UNL     1      -0.702  -3.355  -0.539  1.00  0.00     0.021 A 
HETATM    5  C5  UNL     1      -1.674  -2.456  -0.352  1.00  0.00     0.021 A 
HETATM    6  C6  UNL     1      -1.060  -1.278  -0.154  1.00  0.00     0.083 A 
HETATM    7  C7  UNL     1      -1.704  -0.121   0.069  1.00  0.00     0.038 A 
HETATM    8  C8  UNL     1      -1.140   1.080   0.268  1.00  0.00     0.083 A 
HETATM    9  C9  UNL     1      -1.802   2.228   0.485  1.00  0.00     0.021 A 
HETATM   10  C10 UNL     1      -0.882   3.192   0.633  1.00  0.00     0.021 A 
HETATM   11  C11 UNL     1       0.322   2.611   0.504  1.00  0.00     0.083 A 
HETATM   12  C12 UNL     1       1.504   3.238   0.588  1.00  0.00     0.038 A 
HETATM   13  C13 UNL     1       2.717   2.678   0.458  1.00  0.00     0.083 A 
HETATM   14  C14 UNL     1       3.874   3.352   0.554  1.00  0.00     0.021 A 
HETATM   15  C15 UNL     1       4.846   2.453   0.364  1.00  0.00     0.021 A 
HETATM   16  C16 UNL     1       4.233   1.276   0.161  1.00  0.00     0.083 A 
HETATM   17  C17 UNL     1       4.876   0.120  -0.070  1.00  0.00     0.038 A 
HETATM   18  C18 UNL     1       4.312  -1.080  -0.273  1.00  0.00     0.083 A 
HETATM   19  C19 UNL     1       4.974  -2.226  -0.503  1.00  0.00     0.021 A 
HETATM   20  C20 UNL     1       4.054  -3.190  -0.648  1.00  0.00     0.021 A 
HETATM   21  N1  UNL     1       3.078  -1.381  -0.289  1.00  0.00    -0.245 NA
HETATM   22  N2  UNL     1       2.981   1.460   0.228  1.00  0.00    -0.245 NA
HETATM   23  N3  UNL     1       0.094   1.380   0.292  1.00  0.00    -0.245 NA
HETATM   24  N4  UNL     1       0.191  -1.462  -0.219  1.00  0.00    -0.245 NA
ENDROOT
TORSDOF 0
