REMARK  3 active torsions:
REMARK  status: ('A' for Active; 'I' for Inactive)
REMARK    1  A    between atoms: C10_12  and  O3_13 
REMARK    2  A    between atoms: O3_13  and  C11_14 
REMARK    3  A    between atoms: C12_16  and  C16_23 
ROOT
HETATM    1  C1  UNL     1       1.091   2.957  -1.317  1.00  0.00     0.024 A 
HETATM    2  C2  UNL     1       2.327   3.428  -1.117  1.00  0.00     0.004 A 
HETATM    3  C3  UNL     1       3.357   2.575  -1.008  1.00  0.00     0.023 A 
HETATM    4  C4  UNL     1       3.145   1.244  -1.072  1.00  0.00     0.104 A 
HETATM    5  O1  UNL     1       4.181   0.356  -0.967  1.00  0.00    -0.273 OA
HETATM    6  C5  UNL     1       5.435   0.874  -0.836  1.00  0.00     0.300 A 
HETATM    7  C6  UNL     1       5.651   2.210  -0.768  1.00  0.00     0.069 A 
HETATM    8  C7  UNL     1       4.606   3.046  -0.847  1.00  0.00     0.007 A 
HETATM    9  O2  UNL     1       6.386   0.122  -0.776  1.00  0.00    -0.259 OA
HETATM   10  C8  UNL     1       1.883   0.792  -1.257  1.00  0.00     0.055 A 
HETATM   11  C9  UNL     1       1.626  -0.702  -1.327  1.00  0.00     0.208 C 
HETATM   12  C10 UNL     1       0.139  -1.005  -1.155  1.00  0.00     0.178 C 
HETATM   13  C17 UNL     1      -0.655  -0.060  -2.067  1.00  0.00     0.126 C 
HETATM   14  O9  UNL     1      -0.450   1.247  -1.637  1.00  0.00    -0.333 OA
HETATM   15  C18 UNL     1       0.840   1.639  -1.389  1.00  0.00     0.094 A 
HETATM   16  C19 UNL     1      -2.171  -0.302  -2.022  1.00  0.00     0.033 C 
HETATM   17  C20 UNL     1      -0.234  -0.183  -3.543  1.00  0.00     0.033 C 
HETATM   18  O10 UNL     1       2.344  -1.390  -0.315  1.00  0.00    -0.216 OA
ENDROOT
BRANCH  12  19
HETATM   19  O3  UNL     1      -0.130  -0.766   0.199  1.00  0.00    -0.326 OA
BRANCH  19  20
HETATM   20  C11 UNL     1      -1.180  -1.486   0.790  1.00  0.00     0.270 C 
HETATM   21  O4  UNL     1      -1.886  -0.520   1.542  1.00  0.00    -0.326 OA
HETATM   22  C12 UNL     1      -1.211  -0.002   2.659  1.00  0.00     0.184 C 
HETATM   23  C13 UNL     1      -0.706  -1.110   3.573  1.00  0.00     0.215 C 
HETATM   24  C14 UNL     1       0.084  -2.185   2.845  1.00  0.00     0.220 C 
HETATM   25  O7  UNL     1      -1.823  -1.724   4.184  1.00  0.00    -0.218 OA
HETATM   26  C15 UNL     1      -0.689  -2.647   1.626  1.00  0.00     0.241 C 
HETATM   27  O6  UNL     1       1.362  -1.722   2.466  1.00  0.00    -0.218 OA
HETATM   28  O5  UNL     1      -1.810  -3.387   2.057  1.00  0.00    -0.215 OA
BRANCH  22  29
HETATM   29  C16 UNL     1      -0.147   1.037   2.315  1.00  0.00     0.214 C 
HETATM   30  O8  UNL     1      -0.618   1.911   1.308  1.00  0.00    -0.218 OA
ENDBRANCH  22  29
ENDBRANCH  19  20
ENDBRANCH  12  19
TORSDOF 3
