REMARK  8 active torsions:
REMARK  status: ('A' for Active; 'I' for Inactive)
REMARK    1  A    between atoms: C1_1  and  O11_38 
REMARK    2  A    between atoms: C7_7  and  O6_26 
REMARK    3  A    between atoms: C10_10  and  O1_11 
REMARK    4  A    between atoms: O1_11  and  C11_12 
REMARK    5  A    between atoms: C13_15  and  O4_21 
REMARK    6  A    between atoms: O4_21  and  C18_22 
REMARK    7  A    between atoms: O6_26  and  C21_27 
REMARK    8  A    between atoms: O11_38  and  C27_39 
ROOT
HETATM    1  C1  UNL     1       1.339   0.989   1.645  1.00  0.00     0.196 C 
HETATM    2  C2  UNL     1       2.685   1.269   0.954  1.00  0.00     0.099 C 
HETATM    3  C3  UNL     1       3.790   0.254   1.065  1.00  0.00     0.016 C 
HETATM    4  C4  UNL     1       4.521  -0.009  -0.225  1.00  0.00     0.134 C 
HETATM    5  C5  UNL     1       3.512  -0.086  -1.381  1.00  0.00     0.171 C 
HETATM    6  C6  UNL     1       2.434   1.008  -1.412  1.00  0.00     0.159 C 
HETATM    7  C7  UNL     1       0.927   0.588  -1.421  1.00  0.00     0.155 C 
HETATM    8  C8  UNL     1       0.446  -0.851  -1.096  1.00  0.00     0.062 C 
HETATM    9  C9  UNL     1       0.561  -1.401   0.366  1.00  0.00     0.059 C 
HETATM   10  C10 UNL     1       0.478  -0.308   1.491  1.00  0.00     0.160 C 
HETATM   11  C13 UNL     1      -0.609  -2.471   0.539  1.00  0.00     0.127 C 
HETATM   12  C14 UNL     1      -1.092  -3.178  -0.743  1.00  0.00     0.033 C 
HETATM   13  C15 UNL     1       0.003  -3.324  -1.803  1.00  0.00     0.032 C 
HETATM   14  C16 UNL     1       0.548  -1.950  -2.170  1.00  0.00     0.123 A 
HETATM   15  C17 UNL     1       1.305  -1.795  -3.380  1.00  0.00     0.169 A 
HETATM   16  O3  UNL     1      -0.053  -1.499  -3.591  1.00  0.00    -0.354 OA
HETATM   17  C20 UNL     1       1.842  -2.239   0.615  1.00  0.00     0.005 C 
HETATM   18  C23 UNL     1       2.897   1.802  -2.671  1.00  0.00     0.117 C 
HETATM   19  C24 UNL     1       4.013   1.008  -3.314  1.00  0.00     0.274 C 
HETATM   20  O8  UNL     1       4.232  -0.099  -2.580  1.00  0.00    -0.300 OA
HETATM   21  O9  UNL     1       4.587   1.279  -4.346  1.00  0.00    -0.264 OA
HETATM   22  C25 UNL     1       3.311   3.269  -2.462  1.00  0.00     0.013 C 
HETATM   23  O10 UNL     1       2.615   1.864  -0.323  1.00  0.00    -0.332 OA
HETATM   24 CL1  UNL     1       5.756   1.282  -0.397  1.00  0.00    -0.108 Cl
HETATM   25  C26 UNL     1       4.134  -0.331   2.224  1.00  0.00    -0.002 C 
ENDROOT
BRANCH   1  26
HETATM   26  O11 UNL     1       0.497   2.113   1.495  1.00  0.00    -0.295 OA
BRANCH  26  27
HETATM   27  C27 UNL     1       0.712   3.236   2.233  1.00  0.00     0.273 C 
HETATM   28  C28 UNL     1      -0.286   4.307   1.839  1.00  0.00     0.106 C 
HETATM   29  O12 UNL     1       1.576   3.369   3.068  1.00  0.00    -0.264 OA
ENDBRANCH  26  27
ENDBRANCH   1  26
BRANCH  10  30
HETATM   30  O1  UNL     1       0.493  -1.006   2.716  1.00  0.00    -0.301 OA
BRANCH  30  31
HETATM   31  C11 UNL     1      -0.218  -0.524   3.771  1.00  0.00     0.272 C 
HETATM   32  C12 UNL     1      -0.016  -1.414   4.979  1.00  0.00     0.106 C 
HETATM   33  O2  UNL     1      -0.909   0.469   3.748  1.00  0.00    -0.264 OA
ENDBRANCH  30  31
ENDBRANCH  10  30
BRANCH  11  34
HETATM   34  O4  UNL     1      -1.747  -1.920   1.155  1.00  0.00    -0.304 OA
BRANCH  34  35
HETATM   35  C18 UNL     1      -2.388  -2.628   2.127  1.00  0.00     0.272 C 
HETATM   36  C19 UNL     1      -3.550  -1.828   2.680  1.00  0.00     0.106 C 
HETATM   37  O5  UNL     1      -2.071  -3.728   2.520  1.00  0.00    -0.264 OA
ENDBRANCH  34  35
ENDBRANCH  11  34
BRANCH   7  38
HETATM   38  O6  UNL     1       0.231   1.023  -2.564  1.00  0.00    -0.302 OA
BRANCH  38  39
HETATM   39  C21 UNL     1      -0.216   2.308  -2.643  1.00  0.00     0.272 C 
HETATM   40  C22 UNL     1      -0.865   2.548  -3.991  1.00  0.00     0.106 C 
HETATM   41  O7  UNL     1      -0.098   3.143  -1.777  1.00  0.00    -0.264 OA
ENDBRANCH  38  39
ENDBRANCH   7  38
TORSDOF 8
