REMARK  17 active torsions:
REMARK  status: ('A' for Active; 'I' for Inactive)
REMARK    1  A    between atoms: C1_1  and  O15_34 
REMARK    2  A    between atoms: C2_3  and  C6_10 
REMARK    3  A    between atoms: C6_10  and  O5_11 
REMARK    4  A    between atoms: O5_11  and  C7_12 
REMARK    5  A    between atoms: C8_14  and  C13_21 
REMARK    6  A    between atoms: C13_21  and  O9_22 
REMARK    7  A    between atoms: O9_22  and  C14_23 
REMARK    8  A    between atoms: C15_25  and  C19_32 
REMARK    9  A    between atoms: O15_34  and  C20_35 
REMARK   10  A    between atoms: C20_35  and  C21_36 
REMARK   11  A    between atoms: C20_35  and  C26_42 
REMARK   12  A    between atoms: C22_37  and  C23_38 
REMARK   13  A    between atoms: C23_38  and  C24_39 
REMARK   14  A    between atoms: C24_39  and  C25_40 
REMARK   15  A    between atoms: C26_42  and  C27_44 
REMARK   16  A    between atoms: C28_45  and  C29_46 
REMARK   17  A    between atoms: C30_47  and  C31_48 
ROOT
HETATM    1  C1  UNL     1       1.172  -1.577  -2.464  1.00  0.00     0.270 C 
HETATM    2  O1  UNL     1       0.780  -0.298  -2.008  1.00  0.00    -0.326 OA
HETATM    3  C2  UNL     1      -0.137  -0.251  -0.949  1.00  0.00     0.180 C 
HETATM    4  C3  UNL     1      -1.353  -1.135  -1.180  1.00  0.00     0.215 C 
HETATM    5  C4  UNL     1      -0.987  -2.551  -1.570  1.00  0.00     0.220 C 
HETATM    6  C5  UNL     1       0.005  -2.509  -2.716  1.00  0.00     0.241 C 
HETATM    7  O2  UNL     1      -0.670  -2.068  -3.873  1.00  0.00    -0.215 OA
HETATM    8  O3  UNL     1      -0.430  -3.227  -0.469  1.00  0.00    -0.218 OA
HETATM    9  O4  UNL     1      -2.143  -0.571  -2.205  1.00  0.00    -0.218 OA
ENDROOT
BRANCH   3  10
HETATM   10  C6  UNL     1       0.502  -0.406   0.429  1.00  0.00     0.177 C 
BRANCH  10  11
HETATM   11  O5  UNL     1       1.402   0.653   0.666  1.00  0.00    -0.326 OA
BRANCH  11  12
HETATM   12  C7  UNL     1       1.821   0.734   2.009  1.00  0.00     0.267 C 
HETATM   13  O6  UNL     1       0.757   1.216   2.797  1.00  0.00    -0.329 OA
HETATM   14  C8  UNL     1       0.424   2.574   2.716  1.00  0.00     0.151 C 
HETATM   15  C9  UNL     1       1.654   3.455   2.932  1.00  0.00     0.182 C 
HETATM   16  C12 UNL     1      -0.563   2.775   3.893  1.00  0.00     0.035 C 
HETATM   17  C10 UNL     1       2.832   3.048   2.060  1.00  0.00     0.074 C 
HETATM   18  O8  UNL     1       2.092   3.384   4.272  1.00  0.00    -0.221 OA
HETATM   19  C11 UNL     1       3.081   1.553   2.175  1.00  0.00     0.211 C 
HETATM   20  O7  UNL     1       3.621   1.286   3.449  1.00  0.00    -0.218 OA
BRANCH  14  21
HETATM   21  C13 UNL     1      -0.404   2.916   1.457  1.00  0.00     0.175 C 
BRANCH  21  22
HETATM   22  O9  UNL     1       0.340   3.333   0.333  1.00  0.00    -0.326 OA
BRANCH  22  23
HETATM   23  C14 UNL     1      -0.479   3.688  -0.766  1.00  0.00     0.270 C 
HETATM   24  O10 UNL     1       0.038   3.115  -1.948  1.00  0.00    -0.326 OA
HETATM   25  C15 UNL     1       1.193   3.695  -2.493  1.00  0.00     0.184 C 
HETATM   26  C16 UNL     1       1.113   5.213  -2.603  1.00  0.00     0.215 C 
HETATM   27  C17 UNL     1       0.577   5.883  -1.351  1.00  0.00     0.220 C 
HETATM   28  O13 UNL     1       0.262   5.543  -3.678  1.00  0.00    -0.218 OA
HETATM   29  C18 UNL     1      -0.678   5.180  -0.883  1.00  0.00     0.241 C 
HETATM   30  O12 UNL     1       1.540   5.867  -0.322  1.00  0.00    -0.218 OA
HETATM   31  O11 UNL     1      -1.720   5.418  -1.804  1.00  0.00    -0.215 OA
BRANCH  25  32
HETATM   32  C19 UNL     1       2.466   3.182  -1.838  1.00  0.00     0.214 C 
HETATM   33  O14 UNL     1       3.566   3.362  -2.709  1.00  0.00    -0.218 OA
ENDBRANCH  25  32
ENDBRANCH  22  23
ENDBRANCH  21  22
ENDBRANCH  14  21
ENDBRANCH  11  12
ENDBRANCH  10  11
ENDBRANCH   3  10
BRANCH   1  34
HETATM   34  O15 UNL     1       2.083  -2.129  -1.541  1.00  0.00    -0.323 OA
BRANCH  34  35
HETATM   35  C20 UNL     1       3.400  -1.634  -1.662  1.00  0.00     0.182 C 
BRANCH  35  36
HETATM   36  C21 UNL     1       4.053  -1.561  -0.299  1.00  0.00     0.002 C 
HETATM   37  C22 UNL     1       5.135  -0.813  -0.034  1.00  0.00    -0.028 C 
BRANCH  37  38
HETATM   38  C23 UNL     1       5.875  -0.854   1.279  1.00  0.00     0.029 C 
BRANCH  38  39
HETATM   39  C24 UNL     1       7.176  -1.654   1.115  1.00  0.00     0.040 C 
BRANCH  39  40
HETATM   40  C25 UNL     1       7.954  -1.758   2.422  1.00  0.00     0.183 C 
HETATM   41  O16 UNL     1       9.143  -2.489   2.204  1.00  0.00    -0.221 OA
ENDBRANCH  39  40
ENDBRANCH  38  39
ENDBRANCH  37  38
ENDBRANCH  35  36
BRANCH  35  42
HETATM   42  C26 UNL     1       4.216  -2.567  -2.560  1.00  0.00     0.247 C 
HETATM   43  O17 UNL     1       5.294  -1.844  -3.130  1.00  0.00    -0.206 OA
BRANCH  42  44
HETATM   44  C27 UNL     1       4.766  -3.743  -1.851  1.00  0.00    -0.043 C 
HETATM   45  C28 UNL     1       5.295  -4.590  -1.161  1.00  0.00    -0.011 C 
BRANCH  45  46
HETATM   46  C29 UNL     1       5.846  -5.393  -0.439  1.00  0.00    -0.009 C 
HETATM   47  C30 UNL     1       6.413  -6.164   0.306  1.00  0.00    -0.051 C 
BRANCH  47  48
HETATM   48  C31 UNL     1       7.041  -6.973   1.131  1.00  0.00     0.045 C 
HETATM   49  C32 UNL     1       7.356  -8.231   0.787  1.00  0.00    -0.017 C 
HETATM   50  C33 UNL     1       8.079  -9.189   1.697  1.00  0.00     0.031 C 
ENDBRANCH  47  48
ENDBRANCH  45  46
ENDBRANCH  42  44
ENDBRANCH  35  42
ENDBRANCH  34  35
ENDBRANCH   1  34
TORSDOF 17
