REMARK  8 active torsions:
REMARK  status: ('A' for Active; 'I' for Inactive)
REMARK    1  A    between atoms: C2_2  and  O2_24 
REMARK    2  A    between atoms: C15_15  and  C18_18 
REMARK    3  A    between atoms: O2_24  and  C23_25 
REMARK    4  A    between atoms: C24_26  and  O11_45 
REMARK    5  A    between atoms: C26_28  and  O5_33 
REMARK    6  A    between atoms: C27_29  and  C28_31 
REMARK    7  A    between atoms: O5_33  and  C29_34 
REMARK    8  A    between atoms: O11_45  and  C35_46 
ROOT
HETATM    1  C23 UNL     1       5.409  -1.115  -0.693  1.00  0.00     0.267 C 
HETATM    2  C24 UNL     1       5.025  -0.765   0.740  1.00  0.00     0.207 C 
HETATM    3  C25 UNL     1       3.823  -1.590   1.187  1.00  0.00     0.214 C 
HETATM    4  C26 UNL     1       2.702  -1.635   0.160  1.00  0.00     0.180 C 
HETATM    5  C27 UNL     1       3.296  -2.008  -1.194  1.00  0.00     0.181 C 
HETATM    6  O3  UNL     1       4.271  -1.060  -1.526  1.00  0.00    -0.326 OA
HETATM    7  O10 UNL     1       3.292  -1.052   2.378  1.00  0.00    -0.218 OA
ENDROOT
BRANCH   1   8
HETATM    8  O2  UNL     1       6.260  -0.114  -1.223  1.00  0.00    -0.331 OA
BRANCH   8   9
HETATM    9  C2  UNL     1       6.833  -0.381  -2.479  1.00  0.00     0.122 C 
HETATM   10  C1  UNL     1       7.163   0.938  -3.202  1.00  0.00     0.030 C 
HETATM   11  C6  UNL     1       8.665   1.260  -3.344  1.00  0.00     0.006 C 
HETATM   12  C5  UNL     1       9.505   0.910  -2.097  1.00  0.00     0.015 C 
HETATM   13  C4  UNL     1       9.345  -0.594  -1.893  1.00  0.00    -0.047 C 
HETATM   14  C7  UNL     1      11.018   1.246  -2.310  1.00  0.00     0.004 C 
HETATM   15  C22 UNL     1       8.941   1.669  -0.874  1.00  0.00     0.004 C 
HETATM   16  C3  UNL     1       8.069  -1.266  -2.355  1.00  0.00     0.051 C 
HETATM   17  C10 UNL     1      10.357  -1.383  -1.492  1.00  0.00    -0.035 C 
HETATM   18  C9  UNL     1      11.769  -0.919  -1.278  1.00  0.00     0.025 C 
HETATM   19  C8  UNL     1      11.863   0.608  -1.180  1.00  0.00     0.005 C 
HETATM   20  C11 UNL     1      13.310   1.130  -1.151  1.00  0.00     0.008 C 
HETATM   21  C12 UNL     1      13.300   2.684  -1.003  1.00  0.00     0.022 C 
HETATM   22  C17 UNL     1      14.159   0.681   0.062  1.00  0.00     0.026 C 
HETATM   23  C21 UNL     1      14.093   0.661  -2.413  1.00  0.00     0.001 C 
HETATM   24  C13 UNL     1      12.755   3.250  -2.322  1.00  0.00     0.004 C 
HETATM   25  C15 UNL     1      14.744   2.902  -0.574  1.00  0.00     0.008 C 
HETATM   26  C20 UNL     1      12.458   3.234   0.179  1.00  0.00     0.004 C 
HETATM   27  C14 UNL     1      11.323   2.740  -2.599  1.00  0.00     0.001 C 
HETATM   28  C16 UNL     1      15.171   1.798   0.065  1.00  0.00    -0.028 C 
BRANCH  25  29
HETATM   29  C18 UNL     1      15.546   3.994  -0.671  1.00  0.00     0.169 C 
HETATM   30  C19 UNL     1      15.051   5.264  -1.337  1.00  0.00     0.077 C 
HETATM   31  O1  UNL     1      16.676   3.991  -0.234  1.00  0.00    -0.292 OA
ENDBRANCH  25  29
ENDBRANCH   8   9
ENDBRANCH   1   8
BRANCH   2  32
HETATM   32  O11 UNL     1       6.048  -1.072   1.652  1.00  0.00    -0.324 OA
BRANCH  32  33
HETATM   33  C35 UNL     1       7.085  -0.124   1.761  1.00  0.00     0.270 C 
HETATM   34  C36 UNL     1       7.057   0.489   3.146  1.00  0.00     0.241 C 
HETATM   35  C37 UNL     1       8.342   1.242   3.425  1.00  0.00     0.220 C 
HETATM   36  O15 UNL     1       5.975   1.387   3.223  1.00  0.00    -0.215 OA
HETATM   37  C38 UNL     1       9.549   0.379   3.080  1.00  0.00     0.212 C 
HETATM   38  O14 UNL     1       8.334   2.406   2.632  1.00  0.00    -0.218 OA
HETATM   39  C39 UNL     1       9.124  -0.991   2.560  1.00  0.00     0.151 C 
HETATM   40  O13 UNL     1      10.362   0.217   4.219  1.00  0.00    -0.218 OA
HETATM   41  O12 UNL     1       8.280  -0.822   1.456  1.00  0.00    -0.329 OA
HETATM   42  C40 UNL     1      10.328  -1.832   2.137  1.00  0.00     0.035 C 
ENDBRANCH  32  33
ENDBRANCH   2  32
BRANCH   5  43
HETATM   43  C28 UNL     1       2.285  -2.028  -2.333  1.00  0.00     0.214 C 
HETATM   44  O4  UNL     1       1.416  -3.133  -2.205  1.00  0.00    -0.218 OA
ENDBRANCH   5  43
BRANCH   4  45
HETATM   45  O5  UNL     1       1.804  -2.612   0.612  1.00  0.00    -0.326 OA
BRANCH  45  46
HETATM   46  C29 UNL     1       0.446  -2.234   0.600  1.00  0.00     0.270 C 
HETATM   47  C30 UNL     1      -0.369  -3.494   0.772  1.00  0.00     0.241 C 
HETATM   48  C31 UNL     1      -1.836  -3.170   0.950  1.00  0.00     0.220 C 
HETATM   49  O9  UNL     1      -0.224  -4.298  -0.376  1.00  0.00    -0.215 OA
HETATM   50  C32 UNL     1      -2.010  -2.099   2.013  1.00  0.00     0.212 C 
HETATM   51  O8  UNL     1      -2.336  -2.729  -0.288  1.00  0.00    -0.218 OA
HETATM   52  C33 UNL     1      -1.021  -0.943   1.898  1.00  0.00     0.151 C 
HETATM   53  O7  UNL     1      -1.839  -2.711   3.272  1.00  0.00    -0.218 OA
HETATM   54  O6  UNL     1       0.296  -1.391   1.719  1.00  0.00    -0.329 OA
HETATM   55  C34 UNL     1      -1.407   0.119   0.865  1.00  0.00     0.035 C 
ENDBRANCH  45  46
ENDBRANCH   4  45
TORSDOF 8
