REMARK  17 active torsions:
REMARK  status: ('A' for Active; 'I' for Inactive)
REMARK    1  A    between atoms: C1_1  and  O2_3 
REMARK    2  A    between atoms: C1_1  and  C28_40 
REMARK    3  A    between atoms: O2_3  and  C2_4 
REMARK    4  A    between atoms: C3_5  and  C4_6 
REMARK    5  A    between atoms: C4_6  and  C5_7 
REMARK    6  A    between atoms: C5_7  and  C6_8 
REMARK    7  A    between atoms: C7_9  and  C9_11 
REMARK    8  A    between atoms: C9_11  and  C10_12 
REMARK    9  A    between atoms: C10_12  and  O3_13 
REMARK   10  A    between atoms: O3_13  and  C11_14 
REMARK   11  A    between atoms: C11_14  and  C12_15 
REMARK   12  A    between atoms: C15_18  and  O5_21 
REMARK   13  A    between atoms: O5_21  and  C17_22 
REMARK   14  A    between atoms: C18_24  and  C22_31 
REMARK   15  A    between atoms: C30_43  and  O14_44 
REMARK   16  A    between atoms: O14_44  and  C31_45 
REMARK   17  A    between atoms: C32_47  and  C36_54 
ROOT
HETATM    1  C5  UNL     1       3.681   3.558  -0.116  1.00  0.00     0.030 C 
ENDROOT
BRANCH   1   2
HETATM    2  C4  UNL     1       2.643   2.759  -0.920  1.00  0.00     0.029 C 
BRANCH   2   3
HETATM    3  C3  UNL     1       1.757   1.963   0.017  1.00  0.00    -0.019 C 
HETATM    4  C2  UNL     1       1.726   0.619   0.013  1.00  0.00     0.117 C 
HETATM    5  C27 UNL     1       0.922   2.759   0.992  1.00  0.00     0.029 C 
BRANCH   4   6
HETATM    6  O2  UNL     1       2.413  -0.128  -0.900  1.00  0.00    -0.272 OA
BRANCH   6   7
HETATM    7  C1  UNL     1       2.635  -1.450  -0.608  1.00  0.00     0.298 C 
HETATM    8  O1  UNL     1       3.745  -1.772  -0.231  1.00  0.00    -0.259 OA
BRANCH   7   9
HETATM    9  C28 UNL     1       1.673  -2.418  -0.671  1.00  0.00     0.066 C 
HETATM   10  C29 UNL     1       1.993  -3.701  -0.405  1.00  0.00     0.120 C 
HETATM   11  O13 UNL     1       1.060  -4.696  -0.302  1.00  0.00    -0.304 OA
HETATM   12  C30 UNL     1      -0.209  -4.244   0.131  1.00  0.00     0.244 C 
HETATM   13  C37 UNL     1      -0.749  -3.221  -0.854  1.00  0.00     0.089 C 
HETATM   14  C38 UNL     1       0.249  -2.062  -1.061  1.00  0.00     0.037 C 
HETATM   15  C41 UNL     1      -1.116  -3.743  -2.264  1.00  0.00     0.132 C 
HETATM   16  C39 UNL     1       0.180  -1.755  -2.567  1.00  0.00     0.007 C 
HETATM   17  C40 UNL     1      -0.066  -3.131  -3.193  1.00  0.00     0.031 C 
HETATM   18  C42 UNL     1      -1.250  -5.252  -2.448  1.00  0.00     0.033 C 
HETATM   19  O20 UNL     1      -2.358  -3.189  -2.630  1.00  0.00    -0.226 OA
BRANCH  12  20
HETATM   20  O14 UNL     1       0.148  -3.764   1.416  1.00  0.00    -0.304 OA
BRANCH  20  21
HETATM   21  C31 UNL     1      -0.836  -3.157   2.212  1.00  0.00     0.272 C 
HETATM   22  O15 UNL     1      -0.265  -1.943   2.663  1.00  0.00    -0.326 OA
HETATM   23  C32 UNL     1       0.735  -2.054   3.645  1.00  0.00     0.184 C 
HETATM   24  C33 UNL     1       0.253  -2.862   4.842  1.00  0.00     0.215 C 
HETATM   25  C34 UNL     1      -0.316  -4.215   4.460  1.00  0.00     0.220 C 
HETATM   26  O18 UNL     1      -0.758  -2.133   5.504  1.00  0.00    -0.218 OA
HETATM   27  C35 UNL     1      -1.325  -4.040   3.340  1.00  0.00     0.241 C 
HETATM   28  O17 UNL     1       0.709  -5.095   4.065  1.00  0.00    -0.218 OA
HETATM   29  O16 UNL     1      -2.479  -3.444   3.892  1.00  0.00    -0.215 OA
BRANCH  23  30
HETATM   30  C36 UNL     1       2.099  -2.497   3.118  1.00  0.00     0.214 C 
HETATM   31  O19 UNL     1       2.558  -1.594   2.133  1.00  0.00    -0.218 OA
ENDBRANCH  23  30
ENDBRANCH  20  21
ENDBRANCH  12  20
ENDBRANCH   7   9
ENDBRANCH   6   7
ENDBRANCH   4   6
ENDBRANCH   2   3
ENDBRANCH   1   2
BRANCH   1  32
HETATM   32  C6  UNL     1       4.936   3.825  -0.907  1.00  0.00    -0.034 C 
HETATM   33  C7  UNL     1       5.341   4.981  -1.464  1.00  0.00    -0.046 C 
HETATM   34  C8  UNL     1       4.513   6.245  -1.462  1.00  0.00     0.026 C 
BRANCH  33  35
HETATM   35  C9  UNL     1       6.703   5.133  -2.125  1.00  0.00     0.054 C 
BRANCH  35  36
HETATM   36  C10 UNL     1       7.601   3.894  -2.063  1.00  0.00     0.157 C 
BRANCH  36  37
HETATM   37  O3  UNL     1       8.885   4.199  -2.525  1.00  0.00    -0.298 OA
BRANCH  37  38
HETATM   38  C11 UNL     1       9.954   3.363  -2.295  1.00  0.00     0.294 C 
HETATM   39  O12 UNL     1      11.037   3.916  -2.297  1.00  0.00    -0.259 OA
BRANCH  38  40
HETATM   40  C12 UNL     1       9.981   2.022  -2.003  1.00  0.00     0.065 C 
HETATM   41  C13 UNL     1       8.763   1.109  -1.988  1.00  0.00     0.041 C 
HETATM   42  C14 UNL     1       9.077  -0.334  -1.531  1.00  0.00     0.082 C 
HETATM   43  C25 UNL     1       8.225   0.894  -3.419  1.00  0.00     0.042 C 
HETATM   44  C15 UNL     1      10.257  -0.343  -0.589  1.00  0.00     0.246 C 
HETATM   45  C23 UNL     1       9.303  -1.118  -2.801  1.00  0.00    -0.009 C 
HETATM   46  O4  UNL     1      11.368   0.205  -1.248  1.00  0.00    -0.303 OA
HETATM   47  C16 UNL     1      11.186   1.466  -1.742  1.00  0.00     0.120 C 
HETATM   48  C24 UNL     1       9.071  -0.238  -3.993  1.00  0.00     0.171 C 
HETATM   49  C26 UNL     1       9.660  -2.407  -2.858  1.00  0.00    -0.006 C 
HETATM   50  O11 UNL     1       8.378  -0.916  -5.021  1.00  0.00    -0.219 OA
BRANCH  44  51
HETATM   51  O5  UNL     1       9.961   0.508   0.498  1.00  0.00    -0.304 OA
BRANCH  51  52
HETATM   52  C17 UNL     1      10.888   0.539   1.559  1.00  0.00     0.272 C 
HETATM   53  O6  UNL     1      10.107   0.572   2.738  1.00  0.00    -0.326 OA
HETATM   54  C18 UNL     1       9.394   1.762   2.963  1.00  0.00     0.184 C 
HETATM   55  C19 UNL     1      10.286   2.998   2.892  1.00  0.00     0.215 C 
HETATM   56  C20 UNL     1      11.185   3.049   1.668  1.00  0.00     0.220 C 
HETATM   57  O9  UNL     1      11.116   3.014   4.036  1.00  0.00    -0.218 OA
HETATM   58  C21 UNL     1      11.860   1.700   1.499  1.00  0.00     0.241 C 
HETATM   59  O8  UNL     1      10.454   3.392   0.514  1.00  0.00    -0.218 OA
HETATM   60  O7  UNL     1      12.801   1.540   2.538  1.00  0.00    -0.215 OA
BRANCH  54  61
HETATM   61  C22 UNL     1       8.113   1.848   2.140  1.00  0.00     0.214 C 
HETATM   62  O10 UNL     1       7.216   2.770   2.729  1.00  0.00    -0.218 OA
ENDBRANCH  54  61
ENDBRANCH  51  52
ENDBRANCH  44  51
ENDBRANCH  38  40
ENDBRANCH  37  38
ENDBRANCH  36  37
ENDBRANCH  35  36
ENDBRANCH  33  35
ENDBRANCH   1  32
TORSDOF 17
