REMARK  3 active torsions:
REMARK  status: ('A' for Active; 'I' for Inactive)
REMARK    1  A    between atoms: C7_7  and  C8_8 
REMARK    2  A    between atoms: C8_8  and  C9_9 
REMARK    3  A    between atoms: C9_9  and  C10_10 
ROOT
HETATM    1  C1  UNL     1       1.297   1.092  -0.607  1.00  0.00    -0.001 C 
HETATM    2  C2  UNL     1       1.360  -0.144  -1.134  1.00  0.00     0.018 A 
HETATM    3  C3  UNL     1       0.288  -0.605  -1.818  1.00  0.00     0.092 A 
HETATM    4  C4  UNL     1       0.322  -1.864  -2.312  1.00  0.00     0.026 A 
HETATM    5  C5  UNL     1       1.399  -2.654  -2.153  1.00  0.00     0.129 A 
HETATM    6  C6  UNL     1       2.454  -2.151  -1.497  1.00  0.00     0.023 A 
HETATM    7  C7  UNL     1       2.466  -0.908  -0.989  1.00  0.00    -0.018 A 
HETATM    8  O3  UNL     1       1.454  -3.925  -2.638  1.00  0.00    -0.190 OA
HETATM    9  C16 UNL     1      -0.890  -2.386  -3.062  1.00  0.00     0.035 C 
HETATM   10  O4  UNL     1      -0.860   0.117  -2.034  1.00  0.00    -0.332 OA
HETATM   11  C17 UNL     1      -1.041   1.358  -1.412  1.00  0.00     0.117 C 
HETATM   12  C18 UNL     1       0.197   1.843  -0.713  1.00  0.00     0.001 C 
HETATM   13  C19 UNL     1      -2.173   1.215  -0.388  1.00  0.00     0.035 C 
HETATM   14  C20 UNL     1      -1.432   2.374  -2.491  1.00  0.00     0.035 C 
ENDROOT
BRANCH   7  15
HETATM   15  C8  UNL     1       3.734  -0.452  -0.279  1.00  0.00     0.031 C 
BRANCH  15  16
HETATM   16  C9  UNL     1       3.644  -0.671   1.241  1.00  0.00     0.033 C 
BRANCH  16  17
HETATM   17  C10 UNL     1       4.768  -0.055   2.059  1.00  0.00     0.006 A 
HETATM   18  C11 UNL     1       4.518   0.448   3.287  1.00  0.00     0.152 A 
HETATM   19  C12 UNL     1       5.509   1.000   4.014  1.00  0.00     0.156 A 
HETATM   20  O2  UNL     1       3.269   0.413   3.831  1.00  0.00    -0.188 OA
HETATM   21  C13 UNL     1       6.753   1.048   3.511  1.00  0.00     0.029 A 
HETATM   22  O1  UNL     1       5.250   1.505   5.249  1.00  0.00    -0.188 OA
HETATM   23  C14 UNL     1       7.017   0.546   2.298  1.00  0.00     0.002 A 
HETATM   24  C15 UNL     1       6.026  -0.003   1.583  1.00  0.00    -0.002 A 
ENDBRANCH  16  17
ENDBRANCH  15  16
ENDBRANCH   7  15
TORSDOF 3
