REMARK  9 active torsions:
REMARK  status: ('A' for Active; 'I' for Inactive)
REMARK    1  A    between atoms: C2_2  and  O4_31 
REMARK    2  A    between atoms: O4_31  and  C28_32 
REMARK    3  A    between atoms: C30_34  and  O8_41 
REMARK    4  A    between atoms: C32_36  and  C33_38 
REMARK    5  A    between atoms: O8_41  and  C34_42 
REMARK    6  A    between atoms: C37_45  and  O11_50 
REMARK    7  A    between atoms: C38_46  and  C39_48 
REMARK    8  A    between atoms: O11_50  and  C40_51 
REMARK    9  A    between atoms: C44_55  and  C45_57 
ROOT
HETATM    1  C28 UNL     1       1.774  -1.050  -0.505  1.00  0.00     0.270 C 
HETATM    2  C29 UNL     1       2.560  -0.721   0.754  1.00  0.00     0.238 C 
HETATM    3  C30 UNL     1       1.839  -0.388   2.054  1.00  0.00     0.186 C 
HETATM    4  C31 UNL     1       0.488   0.241   1.742  1.00  0.00     0.211 C 
HETATM    5  C32 UNL     1      -0.213  -0.495   0.607  1.00  0.00     0.184 C 
HETATM    6  O5  UNL     1       0.548  -0.353  -0.560  1.00  0.00    -0.326 OA
HETATM    7  O7  UNL     1      -0.308   0.222   2.905  1.00  0.00    -0.218 OA
HETATM    8  O19 UNL     1       3.432  -1.802   1.002  1.00  0.00    -0.215 OA
ENDROOT
BRANCH   1   9
HETATM    9  O4  UNL     1       2.482  -0.519  -1.620  1.00  0.00    -0.329 OA
BRANCH   9  10
HETATM   10  C2  UNL     1       2.931  -1.406  -2.605  1.00  0.00     0.148 C 
HETATM   11  C1  UNL     1       3.397  -0.602  -3.818  1.00  0.00     0.179 C 
HETATM   12  C6  UNL     1       4.703   0.202  -3.661  1.00  0.00     0.036 C 
HETATM   13  O20 UNL     1       3.543  -1.499  -4.899  1.00  0.00    -0.221 OA
HETATM   14  C5  UNL     1       5.592  -0.143  -2.437  1.00  0.00     0.005 C 
HETATM   15  C4  UNL     1       5.508  -1.686  -2.251  1.00  0.00     0.033 C 
HETATM   16  C7  UNL     1       7.094   0.225  -2.691  1.00  0.00     0.000 C 
HETATM   17  C27 UNL     1       5.104   0.676  -1.216  1.00  0.00     0.000 C 
HETATM   18  C3  UNL     1       4.088  -2.291  -2.132  1.00  0.00     0.035 C 
HETATM   19  C10 UNL     1       6.491  -2.298  -1.237  1.00  0.00     0.152 C 
HETATM   20  C9  UNL     1       7.913  -1.760  -1.381  1.00  0.00     0.033 C 
HETATM   21  O1  UNL     1       6.065  -2.109   0.092  1.00  0.00    -0.224 OA
HETATM   22  C8  UNL     1       7.939  -0.225  -1.479  1.00  0.00     0.003 C 
HETATM   23  C11 UNL     1       9.367   0.336  -1.412  1.00  0.00     0.003 C 
HETATM   24  C12 UNL     1       9.495   1.845  -1.731  1.00  0.00     0.003 C 
HETATM   25  C17 UNL     1      10.428  -0.331  -2.307  1.00  0.00     0.030 C 
HETATM   26  C13 UNL     1       8.811   2.096  -3.089  1.00  0.00     0.000 C 
HETATM   27  C15 UNL     1      11.038   1.968  -1.698  1.00  0.00     0.032 C 
HETATM   28  C26 UNL     1       8.873   2.726  -0.629  1.00  0.00     0.000 C 
HETATM   29  C14 UNL     1       7.329   1.692  -3.108  1.00  0.00     0.000 C 
HETATM   30  C16 UNL     1      11.568   0.692  -2.340  1.00  0.00     0.118 C 
HETATM   31  C19 UNL     1      11.870   3.025  -2.425  1.00  0.00     0.054 C 
HETATM   32  O2  UNL     1      11.963   1.005  -3.642  1.00  0.00    -0.337 OA
HETATM   33  C18 UNL     1      12.250   2.382  -3.760  1.00  0.00     0.187 C 
HETATM   34  O3  UNL     1      11.415   2.893  -4.769  1.00  0.00    -0.335 OA
HETATM   35  C24 UNL     1      13.718   2.623  -4.122  1.00  0.00     0.056 C 
HETATM   36  C21 UNL     1      11.548   2.252  -6.017  1.00  0.00     0.145 C 
HETATM   37  C22 UNL     1      13.002   2.113  -6.481  1.00  0.00     0.030 C 
HETATM   38  C23 UNL     1      13.915   2.973  -5.602  1.00  0.00     0.007 C 
HETATM   39  C25 UNL     1      13.474   0.649  -6.539  1.00  0.00     0.003 C 
HETATM   40  C20 UNL     1      11.339   4.460  -2.462  1.00  0.00     0.005 C 
ENDBRANCH   9  10
ENDBRANCH   1   9
BRANCH   3  41
HETATM   41  O8  UNL     1       2.568   0.538   2.836  1.00  0.00    -0.326 OA
BRANCH  41  42
HETATM   42  C34 UNL     1       3.900   0.183   3.142  1.00  0.00     0.270 C 
HETATM   43  C35 UNL     1       4.675   1.393   3.581  1.00  0.00     0.241 C 
HETATM   44  C36 UNL     1       6.100   0.932   3.793  1.00  0.00     0.217 C 
HETATM   45  O18 UNL     1       4.657   2.355   2.554  1.00  0.00    -0.215 OA
HETATM   46  C37 UNL     1       6.196  -0.257   4.756  1.00  0.00     0.181 C 
HETATM   47  O17 UNL     1       6.844   2.030   4.263  1.00  0.00    -0.218 OA
HETATM   48  C38 UNL     1       5.117  -1.323   4.458  1.00  0.00     0.181 C 
HETATM   49  O9  UNL     1       3.867  -0.725   4.208  1.00  0.00    -0.326 OA
BRANCH  46  50
HETATM   50  O11 UNL     1       7.505  -0.733   4.569  1.00  0.00    -0.326 OA
BRANCH  50  51
HETATM   51  C40 UNL     1       8.055  -1.528   5.593  1.00  0.00     0.270 C 
HETATM   52  C41 UNL     1       9.264  -0.895   6.246  1.00  0.00     0.241 C 
HETATM   53  C42 UNL     1      10.409  -0.748   5.269  1.00  0.00     0.220 C 
HETATM   54  O16 UNL     1       8.961   0.372   6.774  1.00  0.00    -0.215 OA
HETATM   55  C43 UNL     1      10.701  -2.089   4.630  1.00  0.00     0.215 C 
HETATM   56  O15 UNL     1      11.547  -0.307   5.966  1.00  0.00    -0.218 OA
HETATM   57  C44 UNL     1       9.427  -2.663   4.024  1.00  0.00     0.184 C 
HETATM   58  O14 UNL     1      11.222  -2.949   5.615  1.00  0.00    -0.218 OA
HETATM   59  O12 UNL     1       8.397  -2.756   4.976  1.00  0.00    -0.326 OA
BRANCH  57  60
HETATM   60  C45 UNL     1       9.646  -4.038   3.409  1.00  0.00     0.214 C 
HETATM   61  O13 UNL     1       8.598  -4.332   2.505  1.00  0.00    -0.218 OA
ENDBRANCH  57  60
ENDBRANCH  50  51
ENDBRANCH  46  50
BRANCH  48  62
HETATM   62  C39 UNL     1       4.830  -2.317   5.585  1.00  0.00     0.214 C 
HETATM   63  O10 UNL     1       5.668  -3.450   5.517  1.00  0.00    -0.218 OA
ENDBRANCH  48  62
ENDBRANCH  41  42
ENDBRANCH   3  41
BRANCH   5  64
HETATM   64  C33 UNL     1      -1.600   0.078   0.339  1.00  0.00     0.214 C 
HETATM   65  O6  UNL     1      -2.262  -0.700  -0.639  1.00  0.00    -0.218 OA
ENDBRANCH   5  64
TORSDOF 9
