REMARK  1 active torsions:
REMARK  status: ('A' for Active; 'I' for Inactive)
REMARK    1  A    between atoms: C15_16  and  C18_19 
ROOT
HETATM    1  C1  UNL     1      -1.624  -0.991  -2.408  1.00  0.00     0.000 C 
HETATM    2  C2  UNL     1      -2.370  -2.001  -1.533  1.00  0.00     0.000 C 
HETATM    3  C3  UNL     1      -1.418  -2.828  -0.652  1.00  0.00     0.000 C 
HETATM    4  C4  UNL     1      -0.032  -2.181  -0.425  1.00  0.00     0.003 C 
HETATM    5  C5  UNL     1      -0.076  -0.641  -0.304  1.00  0.00     0.000 C 
HETATM    6  C6  UNL     1      -0.696  -0.058  -1.609  1.00  0.00     0.000 C 
HETATM    7  C7  UNL     1       1.361  -0.051  -0.064  1.00  0.00     0.005 C 
HETATM    8  C8  UNL     1       2.519  -1.036  -0.368  1.00  0.00     0.059 C 
HETATM    9  C9  UNL     1       2.206  -1.802  -1.654  1.00  0.00     0.154 C 
HETATM   10  C10 UNL     1       0.977  -2.693  -1.474  1.00  0.00     0.033 C 
HETATM   11  O1  UNL     1       3.275  -2.627  -2.061  1.00  0.00    -0.223 OA
HETATM   12  C11 UNL     1       3.908  -0.365  -0.340  1.00  0.00     0.129 C 
HETATM   13  C12 UNL     1       4.194   0.452   0.939  1.00  0.00     0.029 C 
HETATM   14  C13 UNL     1       2.987   1.346   1.288  1.00  0.00     0.003 C 
HETATM   15  C14 UNL     1       1.649   0.591   1.310  1.00  0.00     0.000 C 
HETATM   16  C15 UNL     1       5.413   1.298   0.495  1.00  0.00     0.023 C 
HETATM   17  C16 UNL     1       5.104   1.712  -0.951  1.00  0.00     0.007 C 
HETATM   18  C17 UNL     1       4.191   0.602  -1.504  1.00  0.00     0.031 C 
HETATM   19  C22 UNL     1       4.542  -0.417   2.166  1.00  0.00     0.003 C 
HETATM   20  O4  UNL     1       4.872  -1.387  -0.426  1.00  0.00    -0.226 OA
HETATM   21  C23 UNL     1      -1.013  -0.273   0.877  1.00  0.00     0.000 C 
ENDROOT
BRANCH  16  22
HETATM   22  C18 UNL     1       5.841   2.404   1.418  1.00  0.00    -0.009 A 
HETATM   23  C19 UNL     1       6.705   2.279   2.432  1.00  0.00     0.062 A 
HETATM   24  C20 UNL     1       6.802   3.495   3.018  1.00  0.00     0.296 A 
HETATM   25  O2  UNL     1       6.029   4.467   2.446  1.00  0.00    -0.294 OA
HETATM   26  O3  UNL     1       7.516   3.701   3.975  1.00  0.00    -0.259 OA
HETATM   27  C21 UNL     1       5.354   3.828   1.369  1.00  0.00     0.175 A 
ENDBRANCH  16  22
TORSDOF 1
