REMARK  5 active torsions:
REMARK  status: ('A' for Active; 'I' for Inactive)
REMARK    1  A    between atoms: C2_3  and  C31_43 
REMARK    2  A    between atoms: C7_9  and  C25_34 
REMARK    3  A    between atoms: C9_11  and  C10_12 
REMARK    4  A    between atoms: C16_20  and  C19_24 
REMARK    5  A    between atoms: C32_45  and  C36_52 
ROOT
HETATM    1  O1  UNL     1       1.811   1.784  -1.903  1.00  0.00    -0.190 OA
HETATM    2  C1  UNL     1       2.893   0.978  -1.752  1.00  0.00     0.133 A 
HETATM    3  C2  UNL     1       2.834  -0.358  -1.567  1.00  0.00     0.058 A 
HETATM    4  C3  UNL     1       3.995  -1.044  -1.436  1.00  0.00     0.130 A 
HETATM    5  C4  UNL     1       5.190  -0.416  -1.496  1.00  0.00     0.032 A 
HETATM    6  C5  UNL     1       5.263   0.903  -1.757  1.00  0.00     0.095 A 
HETATM    7  C6  UNL     1       4.098   1.560  -1.854  1.00  0.00     0.051 A 
HETATM    8  O2  UNL     1       6.432   1.611  -1.867  1.00  0.00    -0.326 OA
HETATM    9  C7  UNL     1       7.529   1.101  -1.161  1.00  0.00     0.174 C 
HETATM   10  C8  UNL     1       7.733  -0.362  -1.506  1.00  0.00     0.192 C 
HETATM   11  C9  UNL     1       6.469  -1.218  -1.327  1.00  0.00     0.086 C 
HETATM   12  O9  UNL     1       8.793  -0.880  -0.739  1.00  0.00    -0.220 OA
HETATM   13  O12 UNL     1       3.968  -2.400  -1.278  1.00  0.00    -0.191 OA
ENDROOT
BRANCH  11  14
HETATM   14  C10 UNL     1       6.460  -2.080  -0.052  1.00  0.00     0.032 A 
HETATM   15  C11 UNL     1       6.614  -3.415  -0.153  1.00  0.00     0.131 A 
HETATM   16  O3  UNL     1       6.730  -4.034  -1.358  1.00  0.00    -0.190 OA
HETATM   17  C12 UNL     1       6.649  -4.151   0.967  1.00  0.00     0.054 A 
HETATM   18  C13 UNL     1       6.542  -3.615   2.191  1.00  0.00     0.131 A 
HETATM   19  C14 UNL     1       6.360  -2.285   2.285  1.00  0.00     0.028 A 
HETATM   20  O8  UNL     1       6.619  -4.406   3.296  1.00  0.00    -0.190 OA
HETATM   21  C15 UNL     1       6.283  -1.528   1.169  1.00  0.00     0.091 A 
HETATM   22  C18 UNL     1       6.249  -1.642   3.659  1.00  0.00     0.066 C 
HETATM   23  O4  UNL     1       6.116  -0.181   1.258  1.00  0.00    -0.327 OA
HETATM   24  C16 UNL     1       6.666   0.426   2.395  1.00  0.00     0.174 C 
HETATM   25  C17 UNL     1       5.959  -0.143   3.601  1.00  0.00     0.188 C 
HETATM   26  O5  UNL     1       6.445   0.513   4.746  1.00  0.00    -0.220 OA
BRANCH  24  27
HETATM   27  C19 UNL     1       6.548   1.933   2.275  1.00  0.00     0.010 A 
HETATM   28  C20 UNL     1       7.611   2.727   2.488  1.00  0.00     0.028 A 
HETATM   29  C21 UNL     1       7.557   4.056   2.303  1.00  0.00     0.156 A 
HETATM   30  C22 UNL     1       6.403   4.618   1.902  1.00  0.00     0.156 A 
HETATM   31  O7  UNL     1       8.652   4.842   2.489  1.00  0.00    -0.188 OA
HETATM   32  C23 UNL     1       5.330   3.835   1.708  1.00  0.00     0.029 A 
HETATM   33  O6  UNL     1       6.335   5.960   1.692  1.00  0.00    -0.188 OA
HETATM   34  C24 UNL     1       5.397   2.508   1.891  1.00  0.00     0.000 A 
ENDBRANCH  24  27
ENDBRANCH  11  14
BRANCH   9  35
HETATM   35  C25 UNL     1       8.787   1.934  -1.323  1.00  0.00     0.010 A 
HETATM   36  C26 UNL     1       9.700   1.963  -0.337  1.00  0.00     0.028 A 
HETATM   37  C27 UNL     1      10.810   2.714  -0.401  1.00  0.00     0.156 A 
HETATM   38  C28 UNL     1      11.019   3.478  -1.488  1.00  0.00     0.156 A 
HETATM   39  O11 UNL     1      11.710   2.735   0.619  1.00  0.00    -0.188 OA
HETATM   40  C29 UNL     1      10.118   3.450  -2.484  1.00  0.00     0.029 A 
HETATM   41  O10 UNL     1      12.125   4.263  -1.562  1.00  0.00    -0.188 OA
HETATM   42  C30 UNL     1       9.017   2.687  -2.411  1.00  0.00     0.000 A 
ENDBRANCH   9  35
BRANCH   3  43
HETATM   43  C31 UNL     1       1.534  -1.176  -1.506  1.00  0.00     0.174 C 
HETATM   44  O13 UNL     1       1.415  -1.792  -0.239  1.00  0.00    -0.347 OA
HETATM   45  C32 UNL     1       0.468  -2.830  -0.182  1.00  0.00     0.181 C 
HETATM   46  C33 UNL     1      -0.913  -2.300  -0.542  1.00  0.00     0.214 C 
HETATM   47  C34 UNL     1      -0.910  -1.537  -1.852  1.00  0.00     0.218 C 
HETATM   48  O16 UNL     1      -1.867  -3.329  -0.645  1.00  0.00    -0.218 OA
HETATM   49  C35 UNL     1       0.209  -0.516  -1.862  1.00  0.00     0.216 C 
HETATM   50  O15 UNL     1      -2.137  -0.856  -1.972  1.00  0.00    -0.218 OA
HETATM   51  O14 UNL     1      -0.135   0.458  -0.907  1.00  0.00    -0.218 OA
BRANCH  45  52
HETATM   52  C36 UNL     1       0.924  -4.057  -0.966  1.00  0.00     0.214 C 
HETATM   53  O17 UNL     1       0.356  -5.232  -0.420  1.00  0.00    -0.218 OA
ENDBRANCH  45  52
ENDBRANCH   3  43
TORSDOF 5
