REMARK  2 active torsions:
REMARK  status: ('A' for Active; 'I' for Inactive)
REMARK    1  A    between atoms: C15_15  and  C17_17 
REMARK    2  A    between atoms: C25_28  and  O4_29 
ROOT
HETATM    1  C1  UNL     1      -1.293  -0.652  -2.728  1.00  0.00     0.065 C 
HETATM    2  C2  UNL     1      -1.010  -2.077  -3.147  1.00  0.00     0.150 C 
HETATM    3  C3  UNL     1      -0.369  -3.008  -2.111  1.00  0.00     0.051 C 
HETATM    4  C4  UNL     1      -0.949  -2.775  -0.672  1.00  0.00     0.007 C 
HETATM    5  C5  UNL     1      -1.351  -1.330  -0.236  1.00  0.00     0.003 C 
HETATM    6  C6  UNL     1      -2.116  -0.719  -1.446  1.00  0.00     0.008 C 
HETATM    7  C7  UNL     1      -0.090  -0.528   0.267  1.00  0.00     0.032 C 
HETATM    8  C8  UNL     1       0.846  -1.230   1.307  1.00  0.00     0.006 C 
HETATM    9  C9  UNL     1       1.043  -2.720   0.946  1.00  0.00     0.000 C 
HETATM   10  C10 UNL     1      -0.201  -3.476   0.478  1.00  0.00     0.000 C 
HETATM   11  C11 UNL     1       2.234  -0.492   1.381  1.00  0.00     0.019 C 
HETATM   12  C12 UNL     1       2.123   1.017   1.299  1.00  0.00    -0.047 C 
HETATM   13  C13 UNL     1       3.402   1.810   1.521  1.00  0.00     0.019 C 
HETATM   14  C14 UNL     1       4.559   1.262   0.655  1.00  0.00     0.021 C 
HETATM   15  C15 UNL     1       4.714  -0.267   0.734  1.00  0.00     0.088 C 
HETATM   16  C16 UNL     1       3.376  -0.979   0.469  1.00  0.00     0.015 C 
HETATM   17  C18 UNL     1       4.417   1.716  -0.807  1.00  0.00     0.065 C 
HETATM   18  C19 UNL     1       4.409   3.228  -0.909  1.00  0.00     0.150 C 
HETATM   19  C20 UNL     1       3.369   3.955  -0.065  1.00  0.00     0.052 C 
HETATM   20  C21 UNL     1       3.356   3.349   1.361  1.00  0.00     0.011 C 
HETATM   21  C22 UNL     1       3.732   5.455   0.029  1.00  0.00     0.007 C 
HETATM   22  C23 UNL     1       2.033   3.858  -0.828  1.00  0.00     0.007 C 
HETATM   23  O3  UNL     1       5.161   3.804  -1.663  1.00  0.00    -0.296 OA
HETATM   24  C24 UNL     1       0.930   1.607   1.147  1.00  0.00    -0.006 C 
HETATM   25  C25 UNL     1      -0.348   0.924   0.723  1.00  0.00     0.137 C 
HETATM   26  C27 UNL     1       0.291  -1.190   2.760  1.00  0.00     0.000 C 
HETATM   27  C28 UNL     1      -2.473  -1.386   0.842  1.00  0.00     0.000 C 
HETATM   28  C29 UNL     1      -0.660  -4.464  -2.562  1.00  0.00     0.007 C 
HETATM   29  C30 UNL     1       1.146  -2.797  -2.317  1.00  0.00     0.007 C 
HETATM   30  O5  UNL     1      -1.242  -2.429  -4.282  1.00  0.00    -0.296 OA
ENDROOT
BRANCH  15  31
HETATM   31  C17 UNL     1       5.361  -0.717   2.041  1.00  0.00     0.185 C 
HETATM   32  O1  UNL     1       6.379  -1.574   1.835  1.00  0.00    -0.647 OA
HETATM   33  O2  UNL     1       5.060  -0.374   3.159  1.00  0.00    -0.647 OA
ENDBRANCH  15  31
BRANCH  25  34
HETATM   34  O4  UNL     1      -0.876   1.678  -0.350  1.00  0.00    -0.350 OA
HETATM   35  C26 UNL     1      -1.709   2.745   0.053  1.00  0.00     0.175 C 
ENDBRANCH  25  34
TORSDOF 2
