REMARK  4 active torsions:
REMARK  status: ('A' for Active; 'I' for Inactive)
REMARK    1  A    between atoms: C2_2  and  O5_37 
REMARK    2  A    between atoms: C19_20  and  O2_26 
REMARK    3  A    between atoms: O2_26  and  C25_27 
REMARK    4  A    between atoms: O5_37  and  C33_38 
ROOT
HETATM    1  C1  UNL     1       0.256   0.100  -2.134  1.00  0.00     0.030 C 
HETATM    2  C2  UNL     1      -0.598  -0.954  -1.434  1.00  0.00     0.118 C 
HETATM    3  C3  UNL     1       0.286  -2.207  -1.202  1.00  0.00     0.025 C 
HETATM    4  C4  UNL     1       1.787  -1.864  -0.872  1.00  0.00     0.003 C 
HETATM    5  C5  UNL     1       2.106  -0.423  -0.358  1.00  0.00     0.004 C 
HETATM    6  C6  UNL     1       1.319   0.651  -1.174  1.00  0.00     0.003 C 
HETATM    7  C7  UNL     1       3.634  -0.099  -0.511  1.00  0.00     0.022 C 
HETATM    8  C8  UNL     1       4.664  -1.247  -0.349  1.00  0.00     0.006 C 
HETATM    9  C9  UNL     1       4.288  -2.342  -1.384  1.00  0.00     0.000 C 
HETATM   10  C10 UNL     1       2.843  -2.263  -1.929  1.00  0.00     0.000 C 
HETATM   11  C11 UNL     1       6.122  -0.645  -0.580  1.00  0.00     0.029 C 
HETATM   12  C12 UNL     1       6.484   0.373   0.547  1.00  0.00     0.111 C 
HETATM   13  C13 UNL     1       5.319   1.333   0.707  1.00  0.00    -0.004 C 
HETATM   14  C14 UNL     1       4.077   1.130   0.244  1.00  0.00    -0.029 C 
HETATM   15  C15 UNL     1       7.844   1.076   0.333  1.00  0.00     0.036 C 
HETATM   16  C16 UNL     1       8.776  -0.104   0.660  1.00  0.00     0.084 C 
HETATM   17  C17 UNL     1       8.642  -1.245  -0.376  1.00  0.00     0.157 C 
HETATM   18  C18 UNL     1       7.210  -1.749  -0.609  1.00  0.00     0.036 C 
HETATM   19  O1  UNL     1       9.210  -0.904  -1.617  1.00  0.00    -0.223 OA
HETATM   20  C19 UNL     1      10.237   0.314   0.942  1.00  0.00     0.129 C 
HETATM   21  C20 UNL     1      10.346   1.498   1.915  1.00  0.00     0.030 C 
HETATM   22  C21 UNL     1       9.509   2.727   1.499  1.00  0.00     0.003 C 
HETATM   23  C22 UNL     1       8.050   2.290   1.270  1.00  0.00     0.003 C 
HETATM   24  C23 UNL     1       9.552   3.755   2.655  1.00  0.00     0.000 C 
HETATM   25  C24 UNL     1      10.058   3.437   0.243  1.00  0.00     0.000 C 
HETATM   26  C27 UNL     1       8.056  -0.598   1.923  1.00  0.00     0.147 C 
HETATM   27  O4  UNL     1       6.689  -0.320   1.754  1.00  0.00    -0.355 OA
HETATM   28  C28 UNL     1       6.197   0.093  -1.953  1.00  0.00     0.003 C 
HETATM   29  C29 UNL     1       4.521  -1.900   1.054  1.00  0.00     0.000 C 
HETATM   30  C30 UNL     1       1.704  -0.295   1.139  1.00  0.00     0.000 C 
HETATM   31  C31 UNL     1       0.140  -3.088  -2.474  1.00  0.00     0.002 C 
HETATM   32  C32 UNL     1      -0.302  -3.096  -0.070  1.00  0.00     0.002 C 
ENDROOT
BRANCH   2  33
HETATM   33  O5  UNL     1      -1.049  -0.377  -0.242  1.00  0.00    -0.332 OA
BRANCH  33  34
HETATM   34  C33 UNL     1      -2.402  -0.556   0.102  1.00  0.00     0.270 C 
HETATM   35  O6  UNL     1      -3.193   0.280  -0.715  1.00  0.00    -0.326 OA
HETATM   36  C34 UNL     1      -3.010   1.656  -0.493  1.00  0.00     0.181 C 
HETATM   37  C35 UNL     1      -3.286   2.037   0.950  1.00  0.00     0.215 C 
HETATM   38  C36 UNL     1      -2.439   1.224   1.905  1.00  0.00     0.220 C 
HETATM   39  O9  UNL     1      -2.961   3.395   1.140  1.00  0.00    -0.218 OA
HETATM   40  C37 UNL     1      -2.568  -0.253   1.579  1.00  0.00     0.241 C 
HETATM   41  O8  UNL     1      -1.105   1.653   1.764  1.00  0.00    -0.218 OA
HETATM   42  O7  UNL     1      -3.831  -0.705   2.009  1.00  0.00    -0.215 OA
ENDBRANCH  33  34
ENDBRANCH   2  33
BRANCH  20  43
HETATM   43  O2  UNL     1      10.942   0.718  -0.198  1.00  0.00    -0.304 OA
BRANCH  43  44
HETATM   44  C25 UNL     1      11.692  -0.171  -0.896  1.00  0.00     0.272 C 
HETATM   45  C26 UNL     1      12.566   0.557  -1.897  1.00  0.00     0.106 C 
HETATM   46  O3  UNL     1      11.661  -1.371  -0.752  1.00  0.00    -0.264 OA
ENDBRANCH  43  44
ENDBRANCH  20  43
TORSDOF 4
