REMARK  12 active torsions:
REMARK  status: ('A' for Active; 'I' for Inactive)
REMARK    1  A    between atoms: C2_2  and  O4_34 
REMARK    2  A    between atoms: C3_3  and  C29_31 
REMARK    3  A    between atoms: C16_16  and  C25_26 
REMARK    4  A    between atoms: O4_34  and  C31_35 
REMARK    5  A    between atoms: C33_38  and  O13_54 
REMARK    6  A    between atoms: C35_40  and  O6_41 
REMARK    7  A    between atoms: O6_41  and  C36_42 
REMARK    8  A    between atoms: C37_44  and  C41_51 
REMARK    9  A    between atoms: O13_54  and  C42_55 
REMARK   10  A    between atoms: C43_57  and  C52_73 
REMARK   11  A    between atoms: C46_60  and  O15_61 
REMARK   12  A    between atoms: O15_61  and  C47_62 
ROOT
HETATM    1  C31 UNL     1       2.832  -2.180  -0.697  1.00  0.00     0.267 C 
HETATM    2  O5  UNL     1       1.524  -1.826  -1.094  1.00  0.00    -0.326 OA
HETATM    3  C32 UNL     1       0.889  -0.897  -0.253  1.00  0.00     0.177 C 
HETATM    4  C33 UNL     1       0.836  -1.325   1.211  1.00  0.00     0.180 C 
HETATM    5  C34 UNL     1       2.212  -1.776   1.690  1.00  0.00     0.214 C 
HETATM    6  C35 UNL     1       2.839  -2.761   0.709  1.00  0.00     0.207 C 
HETATM    7  O12 UNL     1       3.058  -0.661   1.866  1.00  0.00    -0.218 OA
ENDROOT
BRANCH   1   8
HETATM    8  O4  UNL     1       3.612  -1.004  -0.701  1.00  0.00    -0.332 OA
BRANCH   8   9
HETATM    9  C2  UNL     1       4.583  -0.823  -1.703  1.00  0.00     0.120 C 
HETATM   10  C1  UNL     1       4.501   0.672  -2.049  1.00  0.00     0.030 C 
HETATM   11  C6  UNL     1       5.657   1.222  -2.897  1.00  0.00     0.003 C 
HETATM   12  C5  UNL     1       7.062   0.920  -2.304  1.00  0.00     0.004 C 
HETATM   13  C4  UNL     1       7.090  -0.634  -2.154  1.00  0.00     0.005 C 
HETATM   14  C7  UNL     1       8.168   1.362  -3.320  1.00  0.00     0.022 C 
HETATM   15  C28 UNL     1       7.216   1.726  -0.993  1.00  0.00     0.000 C 
HETATM   16  C3  UNL     1       6.001  -1.268  -1.221  1.00  0.00     0.056 C 
HETATM   17  C10 UNL     1       8.518  -1.196  -1.982  1.00  0.00     0.000 C 
HETATM   18  C30 UNL     1       6.198  -0.907   0.271  1.00  0.00     0.005 C 
HETATM   19  C9  UNL     1       9.533  -0.680  -3.016  1.00  0.00     0.001 C 
HETATM   20  C8  UNL     1       9.615   0.857  -3.058  1.00  0.00     0.007 C 
HETATM   21  C11 UNL     1      10.537   1.408  -4.209  1.00  0.00     0.021 C 
HETATM   22  C27 UNL     1      10.198   1.346  -1.705  1.00  0.00     0.001 C 
HETATM   23  C12 UNL     1      10.575   2.929  -4.028  1.00  0.00    -0.027 C 
HETATM   24  C18 UNL     1      11.938   0.752  -4.255  1.00  0.00     0.037 C 
HETATM   25  C26 UNL     1       9.937   1.168  -5.630  1.00  0.00     0.004 C 
HETATM   26  C13 UNL     1       9.370   3.519  -3.874  1.00  0.00    -0.009 C 
HETATM   27  C15 UNL     1      11.722   3.653  -4.038  1.00  0.00    -0.026 C 
HETATM   28  C14 UNL     1       8.236   2.848  -3.606  1.00  0.00    -0.027 C 
HETATM   29  C16 UNL     1      13.102   3.014  -4.117  1.00  0.00     0.077 C 
HETATM   30  C22 UNL     1      11.703   5.176  -3.956  1.00  0.00    -0.031 C 
HETATM   31  C17 UNL     1      13.038   1.649  -4.822  1.00  0.00     0.159 C 
HETATM   32  C19 UNL     1      14.015   3.976  -4.909  1.00  0.00     0.009 C 
HETATM   33  O1  UNL     1      12.879   1.815  -6.210  1.00  0.00    -0.223 OA
HETATM   34  C20 UNL     1      14.284   5.283  -4.157  1.00  0.00     0.004 C 
HETATM   35  C21 UNL     1      12.990   6.011  -3.732  1.00  0.00     0.018 C 
HETATM   36  C23 UNL     1      12.870   7.316  -4.561  1.00  0.00     0.004 C 
HETATM   37  C24 UNL     1      13.080   6.466  -2.253  1.00  0.00     0.004 C 
BRANCH  16  38
HETATM   38  C29 UNL     1       6.077  -2.812  -1.329  1.00  0.00     0.184 C 
HETATM   39  O3  UNL     1       7.122  -3.378  -0.559  1.00  0.00    -0.221 OA
ENDBRANCH  16  38
BRANCH  29  40
HETATM   40  C25 UNL     1      13.649   2.792  -2.693  1.00  0.00     0.189 C 
HETATM   41  O2  UNL     1      14.990   2.346  -2.730  1.00  0.00    -0.220 OA
ENDBRANCH  29  40
ENDBRANCH   8   9
ENDBRANCH   1   8
BRANCH   6  42
HETATM   42  O6  UNL     1       2.120  -3.959   0.789  1.00  0.00    -0.324 OA
BRANCH  42  43
HETATM   43  C36 UNL     1       2.770  -5.088   0.250  1.00  0.00     0.270 C 
HETATM   44  O7  UNL     1       1.855  -5.722  -0.617  1.00  0.00    -0.326 OA
HETATM   45  C37 UNL     1       0.795  -6.391   0.010  1.00  0.00     0.184 C 
HETATM   46  C38 UNL     1       1.304  -7.399   1.031  1.00  0.00     0.215 C 
HETATM   47  C39 UNL     1       2.268  -6.804   2.041  1.00  0.00     0.220 C 
HETATM   48  O10 UNL     1       1.984  -8.428   0.342  1.00  0.00    -0.218 OA
HETATM   49  C40 UNL     1       3.334  -6.008   1.312  1.00  0.00     0.241 C 
HETATM   50  O9  UNL     1       1.591  -5.981   2.960  1.00  0.00    -0.218 OA
HETATM   51  O8  UNL     1       4.213  -6.915   0.683  1.00  0.00    -0.215 OA
BRANCH  45  52
HETATM   52  C41 UNL     1      -0.286  -5.440   0.511  1.00  0.00     0.214 C 
HETATM   53  O11 UNL     1      -1.471  -6.162   0.783  1.00  0.00    -0.218 OA
ENDBRANCH  45  52
ENDBRANCH  42  43
ENDBRANCH   6  42
BRANCH   4  54
HETATM   54  O13 UNL     1       0.371  -0.203   1.908  1.00  0.00    -0.326 OA
BRANCH  54  55
HETATM   55  C42 UNL     1       0.114  -0.347   3.285  1.00  0.00     0.267 C 
HETATM   56  O14 UNL     1      -1.266  -0.579   3.460  1.00  0.00    -0.326 OA
HETATM   57  C43 UNL     1      -2.133   0.475   3.136  1.00  0.00     0.184 C 
HETATM   58  C44 UNL     1      -1.704   1.814   3.726  1.00  0.00     0.215 C 
HETATM   59  C45 UNL     1      -0.222   2.104   3.571  1.00  0.00     0.217 C 
HETATM   60  O21 UNL     1      -2.030   1.855   5.101  1.00  0.00    -0.218 OA
HETATM   61  C46 UNL     1       0.598   0.898   4.005  1.00  0.00     0.207 C 
HETATM   62  O20 UNL     1       0.085   2.446   2.238  1.00  0.00    -0.218 OA
BRANCH  57  63
HETATM   63  C52 UNL     1      -2.459   0.516   1.645  1.00  0.00     0.214 C 
HETATM   64  O22 UNL     1      -3.681   1.199   1.440  1.00  0.00    -0.218 OA
ENDBRANCH  57  63
BRANCH  61  65
HETATM   65  O15 UNL     1       0.477   0.795   5.395  1.00  0.00    -0.324 OA
BRANCH  65  66
HETATM   66  C47 UNL     1       1.299  -0.160   6.027  1.00  0.00     0.270 C 
HETATM   67  O16 UNL     1       0.488  -1.256   6.395  1.00  0.00    -0.326 OA
HETATM   68  C48 UNL     1      -0.518  -0.942   7.329  1.00  0.00     0.181 C 
HETATM   69  C49 UNL     1       0.043  -0.338   8.607  1.00  0.00     0.215 C 
HETATM   70  C50 UNL     1       0.967   0.829   8.312  1.00  0.00     0.220 C 
HETATM   71  O19 UNL     1       0.753  -1.325   9.316  1.00  0.00    -0.218 OA
HETATM   72  C51 UNL     1       1.968   0.438   7.242  1.00  0.00     0.241 C 
HETATM   73  O18 UNL     1       0.192   1.918   7.863  1.00  0.00    -0.218 OA
HETATM   74  O17 UNL     1       2.863  -0.517   7.766  1.00  0.00    -0.215 OA
ENDBRANCH  65  66
ENDBRANCH  61  65
ENDBRANCH  54  55
ENDBRANCH   4  54
TORSDOF 12
