REMARK  7 active torsions:
REMARK  status: ('A' for Active; 'I' for Inactive)
REMARK    1  A    between atoms: C16_16  and  C25_26 
REMARK    2  A    between atoms: C25_26  and  O2_27 
REMARK    3  A    between atoms: O2_27  and  C26_28 
REMARK    4  A    between atoms: C27_29  and  O7_38 
REMARK    5  A    between atoms: C30_32  and  C31_34 
REMARK    6  A    between atoms: O7_38  and  C32_39 
REMARK    7  A    between atoms: C36_43  and  C37_45 
ROOT
HETATM    1  C1  UNL     1       1.074  -3.786  -2.794  1.00  0.00     0.130 C 
HETATM    2  C2  UNL     1       1.172  -4.401  -0.962  1.00  0.00     0.129 C 
HETATM    3  C3  UNL     1      -0.439  -3.947   0.158  1.00  0.00     0.044 C 
HETATM    4  C4  UNL     1      -1.642  -3.212  -0.891  1.00  0.00     0.006 C 
HETATM    5  C5  UNL     1      -1.130  -2.193  -2.051  1.00  0.00     0.007 C 
HETATM    6  C6  UNL     1      -0.310  -2.903  -3.268  1.00  0.00     0.056 C 
HETATM    7  C7  UNL     1       0.104  -1.439  -1.546  1.00  0.00     0.005 C 
HETATM    8  C8  UNL     1       0.721  -2.668  -0.860  1.00  0.00     0.007 C 
HETATM    9  C9  UNL     1      -0.430  -4.181  -1.631  1.00  0.00     0.001 C 
HETATM   10  C10 UNL     1      -1.988  -4.375  -1.721  1.00  0.00     0.000 C 
HETATM   11  C11 UNL     1       2.540  -1.909  -0.918  1.00  0.00     0.033 C 
HETATM   12  C12 UNL     1       2.659  -0.278  -0.799  1.00  0.00    -0.043 C 
HETATM   13  C13 UNL     1       1.539   0.475  -0.890  1.00  0.00    -0.034 C 
HETATM   14  C14 UNL     1       0.118   0.001  -1.061  1.00  0.00     0.025 C 
HETATM   15  C15 UNL     1       4.044   0.611  -0.721  1.00  0.00     0.059 C 
HETATM   16  C16 UNL     1       5.021   0.385   0.484  1.00  0.00     0.102 C 
HETATM   17  C17 UNL     1       5.052  -1.183   0.399  1.00  0.00    -0.021 C 
HETATM   18  C18 UNL     1       3.842  -2.191   0.126  1.00  0.00    -0.027 C 
HETATM   19  C19 UNL     1       6.454   1.024   0.273  1.00  0.00     0.014 C 
HETATM   20  C20 UNL     1       6.585   2.037  -0.868  1.00  0.00     0.003 C 
HETATM   21  C21 UNL     1       6.261   1.393  -2.191  1.00  0.00     0.029 C 
HETATM   22  C22 UNL     1       4.870   0.709  -2.084  1.00  0.00     0.131 C 
HETATM   23  C23 UNL     1       3.993   1.287  -3.203  1.00  0.00     0.033 C 
HETATM   24  O1  UNL     1       5.217  -0.576  -2.462  1.00  0.00    -0.226 OA
HETATM   25  C24 UNL     1       7.509   0.561  -2.594  1.00  0.00     0.003 C 
HETATM   26  C38 UNL     1       3.261  -2.309  -2.201  1.00  0.00     0.008 C 
HETATM   27  C39 UNL     1       1.103  -2.615   0.779  1.00  0.00     0.001 C 
HETATM   28  C40 UNL     1      -2.320  -1.300  -2.376  1.00  0.00     0.000 C 
HETATM   29  C41 UNL     1      -0.793  -5.144   1.111  1.00  0.00     0.007 C 
HETATM   30  C42 UNL     1      -1.147  -2.637   1.083  1.00  0.00     0.007 C 
HETATM   31  O14 UNL     1       2.505  -4.469  -0.452  1.00  0.00    -0.193 OA
HETATM   32  O15 UNL     1       1.963  -3.260  -3.771  1.00  0.00    -0.193 OA
ENDROOT
BRANCH  16  33
HETATM   33  C25 UNL     1       4.972   0.883   1.992  1.00  0.00     0.277 C 
HETATM   34  O13 UNL     1       5.532   0.212   2.837  1.00  0.00    -0.264 OA
BRANCH  33  35
HETATM   35  O2  UNL     1       4.350   2.043   2.402  1.00  0.00    -0.273 OA
BRANCH  35  36
HETATM   36  C26 UNL     1       4.408   3.187   1.606  1.00  0.00     0.273 C 
HETATM   37  C27 UNL     1       3.188   4.061   1.417  1.00  0.00     0.207 C 
HETATM   38  C28 UNL     1       3.611   5.009   0.299  1.00  0.00     0.217 C 
HETATM   39  C29 UNL     1       4.854   5.790   0.719  1.00  0.00     0.215 C 
HETATM   40  O6  UNL     1       2.543   5.863  -0.018  1.00  0.00    -0.218 OA
HETATM   41  C30 UNL     1       5.946   4.855   1.225  1.00  0.00     0.184 C 
HETATM   42  O5  UNL     1       5.351   6.465  -0.414  1.00  0.00    -0.218 OA
HETATM   43  O3  UNL     1       5.444   3.957   2.172  1.00  0.00    -0.326 OA
BRANCH  37  44
HETATM   44  O7  UNL     1       2.041   3.378   0.998  1.00  0.00    -0.324 OA
BRANCH  44  45
HETATM   45  C32 UNL     1       1.415   2.672   2.043  1.00  0.00     0.270 C 
HETATM   46  C33 UNL     1      -0.080   2.682   1.892  1.00  0.00     0.241 C 
HETATM   47  C34 UNL     1      -0.710   1.682   2.848  1.00  0.00     0.220 C 
HETATM   48  O12 UNL     1      -0.517   3.993   2.148  1.00  0.00    -0.215 OA
HETATM   49  C35 UNL     1       0.036   0.360   2.836  1.00  0.00     0.215 C 
HETATM   50  O11 UNL     1      -2.042   1.445   2.455  1.00  0.00    -0.218 OA
HETATM   51  C36 UNL     1       1.531   0.528   2.890  1.00  0.00     0.184 C 
HETATM   52  O10 UNL     1      -0.388  -0.483   3.885  1.00  0.00    -0.218 OA
HETATM   53  O8  UNL     1       1.841   1.363   1.822  1.00  0.00    -0.326 OA
BRANCH  51  54
HETATM   54  C37 UNL     1       2.431  -0.656   2.642  1.00  0.00     0.214 C 
HETATM   55  O9  UNL     1       2.579  -1.690   3.595  1.00  0.00    -0.218 OA
ENDBRANCH  51  54
ENDBRANCH  44  45
ENDBRANCH  37  44
BRANCH  41  56
HETATM   56  C31 UNL     1       7.248   5.468   1.714  1.00  0.00     0.214 C 
HETATM   57  O4  UNL     1       8.313   4.945   0.938  1.00  0.00    -0.218 OA
ENDBRANCH  41  56
ENDBRANCH  35  36
ENDBRANCH  33  35
ENDBRANCH  16  33
TORSDOF 7
