REMARK  4 active torsions:
REMARK  status: ('A' for Active; 'I' for Inactive)
REMARK    1  A    between atoms: C15_15  and  C18_18 
REMARK    2  A    between atoms: C18_18  and  C19_19 
REMARK    3  A    between atoms: C19_19  and  C20_20 
REMARK    4  A    between atoms: C22_23  and  C24_25 
ROOT
HETATM    1  C1  UNL     1      -1.966   0.011  -2.467  1.00  0.00     0.065 C 
HETATM    2  C2  UNL     1      -1.838  -1.270  -3.266  1.00  0.00     0.150 C 
HETATM    3  C3  UNL     1      -0.692  -2.234  -2.942  1.00  0.00     0.052 C 
HETATM    4  C4  UNL     1      -0.440  -2.302  -1.405  1.00  0.00     0.011 C 
HETATM    5  C5  UNL     1      -0.540  -0.988  -0.579  1.00  0.00     0.004 C 
HETATM    6  C6  UNL     1      -1.850  -0.266  -0.968  1.00  0.00     0.008 C 
HETATM    7  C7  UNL     1       0.716  -0.094  -0.793  1.00  0.00     0.018 C 
HETATM    8  C8  UNL     1       2.017  -0.878  -0.720  1.00  0.00    -0.049 C 
HETATM    9  C9  UNL     1       2.040  -2.215  -0.843  1.00  0.00    -0.035 C 
HETATM   10  C10 UNL     1       0.822  -3.082  -0.992  1.00  0.00     0.026 C 
HETATM   11  C11 UNL     1       3.299  -0.059  -0.704  1.00  0.00     0.015 C 
HETATM   12  C12 UNL     1       3.235   1.012   0.423  1.00  0.00     0.003 C 
HETATM   13  C13 UNL     1       2.067   1.955   0.082  1.00  0.00     0.001 C 
HETATM   14  C14 UNL     1       0.727   1.199   0.053  1.00  0.00     0.004 C 
HETATM   15  C15 UNL     1       4.669   1.612   0.407  1.00  0.00     0.001 C 
HETATM   16  C16 UNL     1       5.544   0.360   0.136  1.00  0.00     0.000 C 
HETATM   17  C17 UNL     1       4.615  -0.774  -0.342  1.00  0.00     0.004 C 
HETATM   18  C26 UNL     1       2.978   0.378   1.815  1.00  0.00     0.000 C 
HETATM   19  C27 UNL     1       3.484   0.464  -2.153  1.00  0.00     0.004 C 
HETATM   20  C28 UNL     1      -0.677  -1.360   0.924  1.00  0.00     0.000 C 
HETATM   21  C29 UNL     1      -1.117  -3.634  -3.465  1.00  0.00     0.007 C 
HETATM   22  C30 UNL     1       0.520  -1.797  -3.790  1.00  0.00     0.007 C 
HETATM   23  O4  UNL     1      -2.607  -1.475  -4.179  1.00  0.00    -0.296 OA
ENDROOT
BRANCH  15  24
HETATM   24  C18 UNL     1       5.150   2.494   1.591  1.00  0.00     0.006 C 
HETATM   25  C25 UNL     1       4.528   3.905   1.548  1.00  0.00     0.000 C 
BRANCH  24  26
HETATM   26  C19 UNL     1       6.691   2.645   1.653  1.00  0.00     0.051 C 
BRANCH  26  27
HETATM   27  C20 UNL     1       7.400   1.743   2.634  1.00  0.00     0.078 A 
HETATM   28  O1  UNL     1       6.863   0.837   3.277  1.00  0.00    -0.309 OA
HETATM   29  C21 UNL     1       7.699   0.311   4.012  1.00  0.00     0.128 A 
HETATM   30  C22 UNL     1       8.893   0.895   3.871  1.00  0.00     0.091 A 
HETATM   31  C23 UNL     1       8.701   1.849   2.952  1.00  0.00     0.028 A 
BRANCH  30  32
HETATM   32  C24 UNL     1      10.036   0.583   4.525  1.00  0.00     0.213 C 
HETATM   33  O2  UNL     1      10.099  -0.407   5.440  1.00  0.00    -0.644 OA
HETATM   34  O3  UNL     1      11.057   1.196   4.307  1.00  0.00    -0.644 OA
ENDBRANCH  30  32
ENDBRANCH  26  27
ENDBRANCH  24  26
ENDBRANCH  15  24
TORSDOF 4
