REMARK  5 active torsions:
REMARK  status: ('A' for Active; 'I' for Inactive)
REMARK    1  A    between atoms: C5_5  and  O5_24 
REMARK    2  A    between atoms: C11_11  and  C13_15 
REMARK    3  A    between atoms: C14_16  and  C15_17 
REMARK    4  A    between atoms: C16_18  and  C17_19 
REMARK    5  A    between atoms: O5_24  and  C20_25 
ROOT
HETATM    1  C1  UNL     1      -1.139   0.160   0.769  1.00  0.00    -0.022 C 
HETATM    2  C2  UNL     1      -0.624   1.386   0.622  1.00  0.00    -0.008 C 
HETATM    3  C3  UNL     1       0.627   1.716   0.257  1.00  0.00    -0.011 C 
HETATM    4  C4  UNL     1       1.816   0.928  -0.419  1.00  0.00     0.142 C 
HETATM    5  C5  UNL     1       2.531  -0.739   0.278  1.00  0.00     0.141 C 
HETATM    6  C6  UNL     1       1.235  -0.937   1.193  1.00  0.00     0.002 C 
HETATM    7  C7  UNL     1      -0.311  -0.870   1.026  1.00  0.00    -0.006 C 
HETATM    8  C8  UNL     1       4.380  -0.538   0.840  1.00  0.00     0.082 C 
HETATM    9  C9  UNL     1       3.947   0.647   0.296  1.00  0.00    -0.025 C 
HETATM   10  C10 UNL     1       2.670   1.099   0.672  1.00  0.00    -0.015 C 
HETATM   11  C11 UNL     1       5.626   0.769   0.088  1.00  0.00     0.126 C 
HETATM   12  O1  UNL     1       4.763   2.022  -0.747  1.00  0.00    -0.302 OA
HETATM   13  C12 UNL     1       3.143   2.263  -0.982  1.00  0.00     0.281 C 
HETATM   14  O2  UNL     1       2.718   3.353  -1.304  1.00  0.00    -0.263 OA
HETATM   15  C19 UNL     1       6.375   1.733   1.101  1.00  0.00     0.035 C 
HETATM   16  C22 UNL     1      -2.671  -0.011   0.709  1.00  0.00     0.031 C 
ENDROOT
BRANCH  11  17
HETATM   17  C13 UNL     1       6.816   0.011  -0.620  1.00  0.00     0.001 C 
HETATM   18  C14 UNL     1       8.091   0.459  -0.746  1.00  0.00    -0.002 C 
BRANCH  18  19
HETATM   19  C15 UNL     1       9.256  -0.223  -0.887  1.00  0.00     0.002 C 
HETATM   20  C16 UNL     1      10.499   0.349  -0.847  1.00  0.00     0.043 C 
HETATM   21  C18 UNL     1      10.664   1.859  -0.721  1.00  0.00     0.037 C 
BRANCH  20  22
HETATM   22  C17 UNL     1      11.677  -0.349  -0.879  1.00  0.00     0.207 C 
HETATM   23  O3  UNL     1      12.885   0.263  -0.865  1.00  0.00    -0.644 OA
HETATM   24  O4  UNL     1      11.687  -1.561  -0.909  1.00  0.00    -0.644 OA
ENDBRANCH  20  22
ENDBRANCH  18  19
ENDBRANCH  11  17
BRANCH   5  25
HETATM   25  O5  UNL     1       2.711  -1.898  -0.595  1.00  0.00    -0.301 OA
BRANCH  25  26
HETATM   26  C20 UNL     1       2.017  -3.067  -0.437  1.00  0.00     0.273 C 
HETATM   27  C21 UNL     1       2.910  -4.239  -0.038  1.00  0.00     0.106 C 
HETATM   28  O6  UNL     1       0.816  -3.217  -0.486  1.00  0.00    -0.264 OA
ENDBRANCH  25  26
ENDBRANCH   5  25
TORSDOF 5
