REMARK  2 active torsions:
REMARK  status: ('A' for Active; 'I' for Inactive)
REMARK    1  A    between atoms: C3_3  and  C20_22 
REMARK    2  A    between atoms: C15_15  and  C17_17 
ROOT
HETATM    1  C1  UNL     1      -1.950   0.097   2.170  1.00  0.00     0.000 C 
HETATM    2  C2  UNL     1      -1.854  -1.430   2.097  1.00  0.00     0.003 C 
HETATM    3  C3  UNL     1      -1.308  -1.976   0.752  1.00  0.00     0.031 C 
HETATM    4  C4  UNL     1       0.021  -1.220   0.434  1.00  0.00     0.003 C 
HETATM    5  C5  UNL     1      -0.008   0.343   0.464  1.00  0.00     0.000 C 
HETATM    6  C6  UNL     1      -0.609   0.765   1.834  1.00  0.00     0.000 C 
HETATM    7  C7  UNL     1       1.466   0.882   0.363  1.00  0.00     0.004 C 
HETATM    8  C8  UNL     1       2.357   0.245  -0.732  1.00  0.00     0.019 C 
HETATM    9  C9  UNL     1       2.254  -1.280  -0.766  1.00  0.00     0.004 C 
HETATM   10  C10 UNL     1       0.794  -1.744  -0.792  1.00  0.00     0.000 C 
HETATM   11  C11 UNL     1       2.124   0.908  -2.106  1.00  0.00     0.009 C 
HETATM   12  C12 UNL     1       2.793   2.280  -1.902  1.00  0.00     0.028 C 
HETATM   13  C13 UNL     1       1.901   3.114  -0.972  1.00  0.00     0.005 C 
HETATM   14  C14 UNL     1       1.657   2.425   0.389  1.00  0.00     0.001 C 
HETATM   15  C15 UNL     1       4.038   1.846  -1.173  1.00  0.00     0.038 C 
HETATM   16  C16 UNL     1       3.794   0.698  -0.526  1.00  0.00    -0.025 C 
HETATM   17  C18 UNL     1      -0.886   0.965  -0.644  1.00  0.00     0.000 C 
HETATM   18  C19 UNL     1      -2.390  -1.858  -0.342  1.00  0.00     0.003 C 
ENDROOT
BRANCH   3  19
HETATM   19  C20 UNL     1      -1.073  -3.490   0.997  1.00  0.00     0.182 C 
HETATM   20  O3  UNL     1      -1.027  -4.245  -0.198  1.00  0.00    -0.221 OA
ENDBRANCH   3  19
BRANCH  15  21
HETATM   21  C17 UNL     1       5.225   2.495  -1.133  1.00  0.00     0.206 C 
HETATM   22  O1  UNL     1       6.296   2.046  -0.445  1.00  0.00    -0.644 OA
HETATM   23  O2  UNL     1       5.359   3.535  -1.737  1.00  0.00    -0.644 OA
ENDBRANCH  15  21
TORSDOF 2
