REMARK  5 active torsions:
REMARK  status: ('A' for Active; 'I' for Inactive)
REMARK    1  A    between atoms: C5_5  and  O5_24 
REMARK    2  A    between atoms: C11_11  and  C13_15 
REMARK    3  A    between atoms: C14_16  and  C15_17 
REMARK    4  A    between atoms: C16_18  and  C17_19 
REMARK    5  A    between atoms: O5_24  and  C20_25 
ROOT
HETATM    1  C1  UNL     1      -0.073  -0.716  -0.158  1.00  0.00    -0.018 C 
HETATM    2  C2  UNL     1      -0.129   0.761   0.158  1.00  0.00     0.171 C 
HETATM    3  C3  UNL     1       1.127   1.485  -0.330  1.00  0.00     0.049 C 
HETATM    4  C4  UNL     1       2.447   1.346   0.469  1.00  0.00     0.104 C 
HETATM    5  C5  UNL     1       2.956  -0.091   0.738  1.00  0.00     0.116 C 
HETATM    6  C6  UNL     1       1.885  -0.989   1.376  1.00  0.00     0.054 C 
HETATM    7  C7  UNL     1       0.862  -1.500   0.399  1.00  0.00    -0.030 C 
HETATM    8  C8  UNL     1       4.065   0.317   1.734  1.00  0.00     0.056 C 
HETATM    9  C9  UNL     1       3.318   1.230   2.730  1.00  0.00     0.006 C 
HETATM   10  C10 UNL     1       2.371   2.046   1.845  1.00  0.00     0.012 C 
HETATM   11  C11 UNL     1       5.247   1.021   1.034  1.00  0.00     0.122 C 
HETATM   12  O1  UNL     1       4.826   1.891   0.018  1.00  0.00    -0.302 OA
HETATM   13  C12 UNL     1       3.528   2.123  -0.313  1.00  0.00     0.273 C 
HETATM   14  O2  UNL     1       3.243   2.933  -1.171  1.00  0.00    -0.264 OA
HETATM   15  C19 UNL     1       6.103   1.847   2.014  1.00  0.00     0.035 C 
HETATM   16  O7  UNL     1      -1.260   1.369  -0.447  1.00  0.00    -0.219 OA
HETATM   17  C22 UNL     1      -1.078  -1.272  -1.137  1.00  0.00     0.029 C 
ENDROOT
BRANCH  11  18
HETATM   18  C13 UNL     1       6.216  -0.011   0.456  1.00  0.00     0.001 C 
HETATM   19  C14 UNL     1       7.252   0.291  -0.346  1.00  0.00    -0.002 C 
BRANCH  19  20
HETATM   20  C15 UNL     1       8.144  -0.625  -0.765  1.00  0.00     0.002 C 
HETATM   21  C16 UNL     1       9.234  -0.359  -1.516  1.00  0.00     0.043 C 
HETATM   22  C18 UNL     1       9.555   1.048  -1.977  1.00  0.00     0.037 C 
BRANCH  21  23
HETATM   23  C17 UNL     1      10.080  -1.375  -1.854  1.00  0.00     0.207 C 
HETATM   24  O3  UNL     1      11.200  -1.186  -2.587  1.00  0.00    -0.644 OA
HETATM   25  O4  UNL     1       9.883  -2.519  -1.508  1.00  0.00    -0.644 OA
ENDBRANCH  21  23
ENDBRANCH  19  20
ENDBRANCH  11  18
BRANCH   5  26
HETATM   26  O5  UNL     1       3.437  -0.579  -0.476  1.00  0.00    -0.306 OA
BRANCH  26  27
HETATM   27  C20 UNL     1       3.682  -1.873  -0.828  1.00  0.00     0.272 C 
HETATM   28  C21 UNL     1       3.965  -2.883   0.269  1.00  0.00     0.106 C 
HETATM   29  O6  UNL     1       3.812  -2.197  -1.990  1.00  0.00    -0.264 OA
ENDBRANCH  26  27
ENDBRANCH   5  26
TORSDOF 5
