REMARK  2 active torsions:
REMARK  status: ('A' for Active; 'I' for Inactive)
REMARK    1  A    between atoms: C3_3  and  C20_22 
REMARK    2  A    between atoms: C15_15  and  C17_17 
ROOT
HETATM    1  C1  UNL     1      -1.954  -0.005   2.171  1.00  0.00     0.001 C 
HETATM    2  C2  UNL     1      -1.819  -1.532   2.117  1.00  0.00     0.010 C 
HETATM    3  C3  UNL     1      -1.268  -2.054   0.769  1.00  0.00     0.078 C 
HETATM    4  C4  UNL     1       0.037  -1.277   0.435  1.00  0.00     0.010 C 
HETATM    5  C5  UNL     1      -0.015   0.283   0.459  1.00  0.00     0.001 C 
HETATM    6  C6  UNL     1      -0.630   0.698   1.826  1.00  0.00     0.000 C 
HETATM    7  C7  UNL     1       1.457   0.823   0.355  1.00  0.00     0.004 C 
HETATM    8  C8  UNL     1       2.353   0.174  -0.732  1.00  0.00     0.019 C 
HETATM    9  C9  UNL     1       2.250  -1.353  -0.770  1.00  0.00     0.004 C 
HETATM   10  C10 UNL     1       0.788  -1.813  -0.798  1.00  0.00     0.001 C 
HETATM   11  C11 UNL     1       2.135   0.835  -2.109  1.00  0.00     0.009 C 
HETATM   12  C12 UNL     1       2.808   2.204  -1.903  1.00  0.00     0.028 C 
HETATM   13  C13 UNL     1       1.903   3.044  -0.993  1.00  0.00     0.005 C 
HETATM   14  C14 UNL     1       1.645   2.366   0.370  1.00  0.00     0.001 C 
HETATM   15  C15 UNL     1       4.043   1.771  -1.154  1.00  0.00     0.038 C 
HETATM   16  C16 UNL     1       3.788   0.625  -0.508  1.00  0.00    -0.025 C 
HETATM   17  C18 UNL     1      -0.899   0.895  -0.649  1.00  0.00     0.000 C 
HETATM   18  C19 UNL     1      -2.358  -1.976  -0.318  1.00  0.00     0.011 C 
ENDROOT
BRANCH   3  19
HETATM   19  C20 UNL     1      -0.882  -3.526   1.008  1.00  0.00     0.184 C 
HETATM   20  O3  UNL     1      -1.305  -4.373   0.050  1.00  0.00    -0.647 OA
HETATM   21  O4  UNL     1      -0.230  -3.948   1.935  1.00  0.00    -0.647 OA
ENDBRANCH   3  19
BRANCH  15  22
HETATM   22  C17 UNL     1       5.229   2.420  -1.094  1.00  0.00     0.206 C 
HETATM   23  O1  UNL     1       6.287   1.972  -0.386  1.00  0.00    -0.644 OA
HETATM   24  O2  UNL     1       5.375   3.459  -1.697  1.00  0.00    -0.644 OA
ENDBRANCH  15  22
TORSDOF 2
