REMARK  5 active torsions:
REMARK  status: ('A' for Active; 'I' for Inactive)
REMARK    1  A    between atoms: C2_2  and  O7_29 
REMARK    2  A    between atoms: C3_3  and  C20_24 
REMARK    3  A    between atoms: C20_24  and  O5_25 
REMARK    4  A    between atoms: O5_25  and  C21_26 
REMARK    5  A    between atoms: O7_29  and  C23_30 
ROOT
HETATM    1  C1  UNL     1      -1.104   0.899   1.766  1.00  0.00     0.030 C 
HETATM    2  C2  UNL     1      -1.040  -0.626   1.651  1.00  0.00     0.127 C 
HETATM    3  C3  UNL     1      -0.440  -1.112   0.301  1.00  0.00     0.054 C 
HETATM    4  C4  UNL     1       0.918  -0.371   0.085  1.00  0.00     0.007 C 
HETATM    5  C5  UNL     1       0.913   1.194   0.149  1.00  0.00     0.001 C 
HETATM    6  C6  UNL     1       0.250   1.579   1.502  1.00  0.00     0.003 C 
HETATM    7  C7  UNL     1       2.396   1.732   0.121  1.00  0.00     0.019 C 
HETATM    8  C8  UNL     1       3.297   1.119  -0.990  1.00  0.00     0.112 C 
HETATM    9  C9  UNL     1       3.224  -0.400  -0.874  1.00  0.00     0.161 C 
HETATM   10  C10 UNL     1       1.798  -0.901  -1.069  1.00  0.00     0.034 C 
HETATM   11  O1  UNL     1       4.143  -1.026  -1.733  1.00  0.00    -0.223 OA
HETATM   12  C11 UNL     1       3.038   1.785  -2.353  1.00  0.00     0.172 C 
HETATM   13  C12 UNL     1       3.670   3.156  -2.122  1.00  0.00     0.113 C 
HETATM   14  C13 UNL     1       2.808   3.942  -1.149  1.00  0.00     0.157 C 
HETATM   15  C14 UNL     1       2.557   3.272   0.193  1.00  0.00     0.066 C 
HETATM   16  O2  UNL     1       2.388   5.046  -1.414  1.00  0.00    -0.296 OA
HETATM   17  C15 UNL     1       4.949   2.721  -1.454  1.00  0.00     0.022 C 
HETATM   18  C16 UNL     1       4.759   1.546  -0.807  1.00  0.00     0.174 C 
HETATM   19  O3  UNL     1       5.584   0.870  -0.239  1.00  0.00    -0.291 OA
HETATM   20  C17 UNL     1       6.119   3.370  -1.504  1.00  0.00    -0.001 C 
HETATM   21  O4  UNL     1       3.742   1.141  -3.388  1.00  0.00    -0.222 OA
HETATM   22  C18 UNL     1       0.090   1.851  -0.982  1.00  0.00     0.000 C 
HETATM   23  C19 UNL     1      -1.467  -0.879  -0.831  1.00  0.00     0.005 C 
ENDROOT
BRANCH   3  24
HETATM   24  C20 UNL     1      -0.254  -2.656   0.417  1.00  0.00     0.154 C 
BRANCH  24  25
HETATM   25  O5  UNL     1      -0.256  -3.284  -0.839  1.00  0.00    -0.302 OA
BRANCH  25  26
HETATM   26  C21 UNL     1      -0.136  -4.637  -0.968  1.00  0.00     0.272 C 
HETATM   27  O6  UNL     1      -0.144  -5.184  -2.050  1.00  0.00    -0.264 OA
HETATM   28  C22 UNL     1      -0.009  -5.431   0.322  1.00  0.00     0.106 C 
ENDBRANCH  25  26
ENDBRANCH  24  25
ENDBRANCH   3  24
BRANCH   2  29
HETATM   29  O7  UNL     1      -0.269  -1.115   2.716  1.00  0.00    -0.304 OA
BRANCH  29  30
HETATM   30  C23 UNL     1      -0.777  -1.729   3.823  1.00  0.00     0.272 C 
HETATM   31  O8  UNL     1      -0.056  -2.170   4.693  1.00  0.00    -0.264 OA
HETATM   32  C24 UNL     1      -2.287  -1.837   3.930  1.00  0.00     0.106 C 
ENDBRANCH  29  30
ENDBRANCH   2  29
TORSDOF 5
