REMARK  5 active torsions:
REMARK  status: ('A' for Active; 'I' for Inactive)
REMARK    1  A    between atoms: C5_5  and  O5_24 
REMARK    2  A    between atoms: C11_11  and  C13_15 
REMARK    3  A    between atoms: C14_16  and  C15_17 
REMARK    4  A    between atoms: C16_18  and  C17_19 
REMARK    5  A    between atoms: O5_24  and  C20_25 
ROOT
HETATM    1  C1  UNL     1      -0.216  -0.645   0.355  1.00  0.00     0.017 C 
HETATM    2  C2  UNL     1       0.034   0.294  -0.594  1.00  0.00     0.188 C 
HETATM    3  C3  UNL     1       1.378   0.883  -0.985  1.00  0.00     0.027 C 
HETATM    4  C4  UNL     1       2.506   1.113   0.031  1.00  0.00     0.126 C 
HETATM    5  C5  UNL     1       3.093  -0.159   0.641  1.00  0.00     0.134 C 
HETATM    6  C6  UNL     1       2.160  -1.111   1.400  1.00  0.00     0.002 C 
HETATM    7  C7  UNL     1       0.679  -1.234   1.167  1.00  0.00    -0.003 C 
HETATM    8  C8  UNL     1       4.001   0.563   1.673  1.00  0.00     0.060 C 
HETATM    9  C9  UNL     1       3.058   1.603   2.325  1.00  0.00     0.006 C 
HETATM   10  C10 UNL     1       2.053   1.968   1.226  1.00  0.00     0.017 C 
HETATM   11  C11 UNL     1       5.231   1.199   1.002  1.00  0.00     0.122 C 
HETATM   12  O1  UNL     1       4.868   1.903  -0.152  1.00  0.00    -0.302 OA
HETATM   13  C12 UNL     1       3.617   1.917  -0.686  1.00  0.00     0.278 C 
HETATM   14  O2  UNL     1       3.394   2.556  -1.694  1.00  0.00    -0.264 OA
HETATM   15  C19 UNL     1       5.981   2.173   1.932  1.00  0.00     0.035 C 
HETATM   16  O7  UNL     1      -0.909   0.715  -1.232  1.00  0.00    -0.287 OA
HETATM   17  C22 UNL     1      -1.678  -1.056   0.498  1.00  0.00     0.034 C 
ENDROOT
BRANCH  11  18
HETATM   18  C13 UNL     1       6.266   0.125   0.657  1.00  0.00     0.001 C 
HETATM   19  C14 UNL     1       7.343   0.350  -0.116  1.00  0.00    -0.002 C 
BRANCH  19  20
HETATM   20  C15 UNL     1       8.282  -0.581  -0.363  1.00  0.00     0.002 C 
HETATM   21  C16 UNL     1       9.402  -0.371  -1.087  1.00  0.00     0.043 C 
HETATM   22  C18 UNL     1       9.710   0.984  -1.693  1.00  0.00     0.037 C 
BRANCH  21  23
HETATM   23  C17 UNL     1      10.286  -1.392  -1.271  1.00  0.00     0.207 C 
HETATM   24  O3  UNL     1      11.431  -1.253  -1.977  1.00  0.00    -0.644 OA
HETATM   25  O4  UNL     1      10.098  -2.496  -0.811  1.00  0.00    -0.644 OA
ENDBRANCH  21  23
ENDBRANCH  19  20
ENDBRANCH  11  18
BRANCH   5  26
HETATM   26  O5  UNL     1       3.878  -0.831  -0.295  1.00  0.00    -0.302 OA
BRANCH  26  27
HETATM   27  C20 UNL     1       3.365  -1.788  -1.112  1.00  0.00     0.273 C 
HETATM   28  C21 UNL     1       4.465  -2.362  -1.982  1.00  0.00     0.106 C 
HETATM   29  O6  UNL     1       2.206  -2.130  -1.157  1.00  0.00    -0.264 OA
ENDBRANCH  26  27
ENDBRANCH   5  26
TORSDOF 5
