REMARK  6 active torsions:
REMARK  status: ('A' for Active; 'I' for Inactive)
REMARK    1  A    between atoms: O1_1  and  C1_2 
REMARK    2  A    between atoms: O1_1  and  C12_22 
REMARK    3  A    between atoms: C2_4  and  C6_11 
REMARK    4  A    between atoms: C6_11  and  O6_12 
REMARK    5  A    between atoms: O6_12  and  C7_13 
REMARK    6  A    between atoms: C15_25  and  C18_28 
ROOT
HETATM    1  C1  UNL     1       3.492  -2.155   1.698  1.00  0.00     0.274 C 
HETATM    2  O2  UNL     1       2.886  -0.883   1.611  1.00  0.00    -0.326 OA
HETATM    3  C2  UNL     1       1.514  -0.926   1.900  1.00  0.00     0.180 C 
HETATM    4  C3  UNL     1       1.315  -1.372   3.343  1.00  0.00     0.215 C 
HETATM    5  C4  UNL     1       1.930  -2.744   3.530  1.00  0.00     0.220 C 
HETATM    6  C5  UNL     1       3.381  -2.682   3.113  1.00  0.00     0.241 C 
HETATM    7  O3  UNL     1       3.934  -3.972   3.178  1.00  0.00    -0.215 OA
HETATM    8  O4  UNL     1       1.836  -3.117   4.881  1.00  0.00    -0.218 OA
HETATM    9  O5  UNL     1      -0.051  -1.468   3.663  1.00  0.00    -0.218 OA
ENDROOT
BRANCH   3  10
HETATM   10  C6  UNL     1       0.921   0.449   1.617  1.00  0.00     0.177 C 
BRANCH  10  11
HETATM   11  O6  UNL     1       0.929   0.654   0.225  1.00  0.00    -0.326 OA
BRANCH  11  12
HETATM   12  C7  UNL     1       0.351   1.876  -0.176  1.00  0.00     0.270 C 
HETATM   13  O7  UNL     1      -1.041   1.744   0.021  1.00  0.00    -0.326 OA
HETATM   14  C8  UNL     1      -1.742   2.900  -0.371  1.00  0.00     0.181 C 
HETATM   15  C9  UNL     1      -1.535   3.168  -1.852  1.00  0.00     0.215 C 
HETATM   16  C10 UNL     1      -0.057   3.297  -2.153  1.00  0.00     0.220 C 
HETATM   17  O10 UNL     1      -2.172   4.365  -2.228  1.00  0.00    -0.218 OA
HETATM   18  C11 UNL     1       0.643   2.054  -1.650  1.00  0.00     0.241 C 
HETATM   19  O9  UNL     1       0.129   3.421  -3.540  1.00  0.00    -0.218 OA
HETATM   20  O8  UNL     1       2.029   2.187  -1.844  1.00  0.00    -0.215 OA
ENDBRANCH  11  12
ENDBRANCH  10  11
ENDBRANCH   3  10
BRANCH   1  21
HETATM   21  O1  UNL     1       4.862  -1.967   1.433  1.00  0.00    -0.304 OA
BRANCH  21  22
HETATM   22  C12 UNL     1       5.290  -1.585   0.186  1.00  0.00     0.097 A 
HETATM   23  C13 UNL     1       6.613  -1.444  -0.016  1.00  0.00     0.024 A 
HETATM   24  C14 UNL     1       7.132  -1.072  -1.195  1.00  0.00     0.002 A 
HETATM   25  C15 UNL     1       6.346  -0.810  -2.257  1.00  0.00     0.000 A 
HETATM   26  C16 UNL     1       5.021  -0.954  -2.069  1.00  0.00     0.002 A 
HETATM   27  C17 UNL     1       4.511  -1.335  -0.886  1.00  0.00     0.024 A 
BRANCH  25  28
HETATM   28  C18 UNL     1       6.917  -0.432  -3.418  1.00  0.00     0.000 C 
HETATM   29  C19 UNL     1       6.300  -0.126  -4.571  1.00  0.00     0.000 C 
ENDBRANCH  25  28
ENDBRANCH  21  22
ENDBRANCH   1  21
TORSDOF 6
