REMARK  3 active torsions:
REMARK  status: ('A' for Active; 'I' for Inactive)
REMARK    1  A    between atoms: C1_1  and  C2_2 
REMARK    2  A    between atoms: C1_1  and  C15_18 
REMARK    3  A    between atoms: C7_7  and  C8_8 
ROOT
HETATM    1  C2  UNL     1       1.393   0.382   0.064  1.00  0.00    -0.007 A 
HETATM    2  C3  UNL     1       2.534   1.131   0.061  1.00  0.00    -0.020 A 
HETATM    3  C4  UNL     1       3.725   0.504   0.033  1.00  0.00     0.029 A 
HETATM    4  C5  UNL     1       3.815  -0.825   0.007  1.00  0.00     0.010 A 
HETATM    5  C6  UNL     1       2.700  -1.558   0.017  1.00  0.00    -0.004 A 
HETATM    6  C7  UNL     1       1.486  -0.976   0.049  1.00  0.00     0.010 A 
HETATM    7  C9  UNL     1       5.218  -1.352  -0.032  1.00  0.00     0.181 A 
HETATM    8  C10 UNL     1       6.032  -0.046  -0.008  1.00  0.00     0.087 A 
HETATM    9  C11 UNL     1       4.965   1.057   0.026  1.00  0.00     0.174 A 
HETATM   10  O2  UNL     1       5.261   2.229   0.049  1.00  0.00    -0.291 OA
HETATM   11  C12 UNL     1       6.924   0.169  -1.243  1.00  0.00     0.011 C 
HETATM   12  C13 UNL     1       6.882   0.047   1.272  1.00  0.00     0.011 C 
HETATM   13  O3  UNL     1       5.438  -2.110  -1.206  1.00  0.00    -0.218 OA
HETATM   14  C14 UNL     1       2.533   2.653   0.088  1.00  0.00     0.031 C 
ENDROOT
BRANCH   1  15
HETATM   15  C1  UNL     1       0.076   1.165   0.085  1.00  0.00     0.009 C 
BRANCH  15  16
HETATM   16  C15 UNL     1      -1.324   0.559   0.052  1.00  0.00     0.209 C 
HETATM   17  O4  UNL     1      -2.274   1.610   0.049  1.00  0.00    -0.215 OA
ENDBRANCH  15  16
ENDBRANCH   1  15
BRANCH   6  18
HETATM   18  C8  UNL     1       0.288  -1.909   0.064  1.00  0.00     0.209 C 
HETATM   19  O1  UNL     1       0.609  -3.297   0.099  1.00  0.00    -0.215 OA
ENDBRANCH   6  18
TORSDOF 3
