REMARK  3 active torsions:
REMARK  status: ('A' for Active; 'I' for Inactive)
REMARK    1  A    between atoms: C1_1  and  C2_2 
REMARK    2  A    between atoms: C1_1  and  C14_17 
REMARK    3  A    between atoms: C3_3  and  C13_15 
ROOT
HETATM    1  C2  UNL     1       1.469   0.178  -0.095  1.00  0.00    -0.007 A 
HETATM    2  C3  UNL     1       2.617   0.930  -0.108  1.00  0.00     0.013 A 
HETATM    3  C4  UNL     1       3.810   0.288  -0.107  1.00  0.00     0.032 A 
HETATM    4  C5  UNL     1       3.861  -1.048  -0.101  1.00  0.00     0.010 A 
HETATM    5  C6  UNL     1       2.744  -1.774  -0.088  1.00  0.00    -0.006 A 
HETATM    6  C7  UNL     1       1.542  -1.177  -0.084  1.00  0.00    -0.022 A 
HETATM    7  C8  UNL     1       0.364  -2.130  -0.067  1.00  0.00     0.031 C 
HETATM    8  C9  UNL     1       5.232  -1.658  -0.115  1.00  0.00     0.182 A 
HETATM    9  C10 UNL     1       6.089  -0.399  -0.078  1.00  0.00     0.097 A 
HETATM   10  C11 UNL     1       5.087   0.759  -0.114  1.00  0.00     0.175 A 
HETATM   11  O1  UNL     1       5.540   1.877  -0.125  1.00  0.00    -0.291 OA
HETATM   12  C12 UNL     1       6.988  -0.340   1.164  1.00  0.00     0.011 C 
HETATM   13  O2  UNL     1       5.453  -2.383  -1.310  1.00  0.00    -0.218 OA
ENDROOT
BRANCH   1  14
HETATM   14  C1  UNL     1       0.132   0.938  -0.091  1.00  0.00     0.009 C 
BRANCH  14  15
HETATM   15  C14 UNL     1      -1.256   0.303  -0.105  1.00  0.00     0.209 C 
HETATM   16  O4  UNL     1      -2.229   1.334  -0.106  1.00  0.00    -0.215 OA
ENDBRANCH  14  15
ENDBRANCH   1  14
BRANCH   2  17
HETATM   17  C13 UNL     1       2.443   2.453  -0.123  1.00  0.00     0.209 C 
HETATM   18  O3  UNL     1       3.591   3.279  -0.076  1.00  0.00    -0.215 OA
ENDBRANCH   2  17
TORSDOF 3
