REMARK  4 active torsions:
REMARK  status: ('A' for Active; 'I' for Inactive)
REMARK    1  A    between atoms: C6_6  and  C7_7 
REMARK    2  A    between atoms: C8_9  and  C12_16 
REMARK    3  A    between atoms: C14_20  and  C15_22 
REMARK    4  A    between atoms: C15_22  and  C16_23 
ROOT
HETATM    1  C1  UNL     1       2.825  -1.369   0.210  1.00  0.00     0.103 A 
HETATM    2  C2  UNL     1       3.559  -2.453   0.481  1.00  0.00     0.025 A 
HETATM    3  C3  UNL     1       2.996  -3.616   0.809  1.00  0.00     0.004 A 
HETATM    4  C4  UNL     1       1.655  -3.636   0.844  1.00  0.00     0.028 A 
HETATM    5  C5  UNL     1       0.893  -2.555   0.574  1.00  0.00     0.135 A 
HETATM    6  C6  UNL     1       1.479  -1.375   0.259  1.00  0.00     0.069 A 
HETATM    7  O6  UNL     1      -0.454  -2.708   0.647  1.00  0.00    -0.190 OA
HETATM    8  C13 UNL     1       4.831  -2.065   0.348  1.00  0.00     0.023 A 
HETATM    9  C14 UNL     1       4.731  -0.772   0.002  1.00  0.00     0.082 A 
HETATM   10  O7  UNL     1       3.552  -0.415  -0.068  1.00  0.00    -0.311 OA
ENDROOT
BRANCH   6  11
HETATM   11  C7  UNL     1       0.759  -0.064  -0.061  1.00  0.00     0.108 C 
HETATM   12  O1  UNL     1       1.172   0.994   0.782  1.00  0.00    -0.329 OA
HETATM   13  C8  UNL     1       0.503   1.087   2.010  1.00  0.00     0.187 C 
HETATM   14  C9  UNL     1      -0.984   1.297   1.782  1.00  0.00     0.215 C 
HETATM   15  C10 UNL     1      -1.573   0.195   0.930  1.00  0.00     0.221 C 
HETATM   16  O4  UNL     1      -1.680   1.321   3.005  1.00  0.00    -0.218 OA
HETATM   17  C11 UNL     1      -0.744  -0.010  -0.324  1.00  0.00     0.229 C 
HETATM   18  O3  UNL     1      -2.879   0.573   0.564  1.00  0.00    -0.217 OA
HETATM   19  O2  UNL     1      -1.026   1.094  -1.158  1.00  0.00    -0.214 OA
BRANCH  13  20
HETATM   20  C12 UNL     1       0.851  -0.047   2.962  1.00  0.00     0.215 C 
HETATM   21  O5  UNL     1       0.477   0.313   4.279  1.00  0.00    -0.218 OA
ENDBRANCH  13  20
ENDBRANCH   6  11
BRANCH   9  22
HETATM   22  C15 UNL     1       5.891   0.154  -0.241  1.00  0.00     0.078 C 
BRANCH  22  23
HETATM   23  C16 UNL     1       5.665   1.030  -1.453  1.00  0.00    -0.016 A 
HETATM   24  C17 UNL     1       6.258   0.763  -2.630  1.00  0.00    -0.002 A 
HETATM   25  C18 UNL     1       6.059   1.552  -3.696  1.00  0.00     0.027 A 
HETATM   26  C19 UNL     1       5.258   2.630  -3.630  1.00  0.00     0.131 A 
HETATM   27  C20 UNL     1       4.662   2.890  -2.454  1.00  0.00     0.027 A 
HETATM   28  O8  UNL     1       5.056   3.434  -4.709  1.00  0.00    -0.190 OA
HETATM   29  C21 UNL     1       4.861   2.106  -1.384  1.00  0.00    -0.002 A 
ENDBRANCH  22  23
ENDBRANCH   9  22
TORSDOF 4
