REMARK  3 active torsions:
REMARK  status: ('A' for Active; 'I' for Inactive)
REMARK    1  A    between atoms: C1_1  and  O3_23 
REMARK    2  A    between atoms: O3_23  and  C21_24 
REMARK    3  A    between atoms: C22_26  and  C26_33 
ROOT
HETATM    1  C1  UNL     1       0.248   0.274  -0.499  1.00  0.00     0.118 C 
HETATM    2  C2  UNL     1       0.110  -1.222  -0.792  1.00  0.00     0.030 C 
HETATM    3  C3  UNL     1       0.909  -1.731  -2.012  1.00  0.00     0.002 C 
HETATM    4  C4  UNL     1       2.374  -1.210  -1.911  1.00  0.00     0.000 C 
HETATM    5  C5  UNL     1       2.601   0.299  -1.611  1.00  0.00     0.003 C 
HETATM    6  C6  UNL     1       1.730   0.644  -0.376  1.00  0.00     0.030 C 
HETATM    7  C7  UNL     1       4.130   0.611  -1.379  1.00  0.00     0.005 C 
HETATM    8  C8  UNL     1       5.089  -0.611  -1.440  1.00  0.00     0.060 C 
HETATM    9  C9  UNL     1       4.795  -1.421  -2.719  1.00  0.00     0.005 C 
HETATM   10  C10 UNL     1       3.316  -1.718  -3.009  1.00  0.00     0.000 C 
HETATM   11  C11 UNL     1       6.545  -0.093  -1.506  1.00  0.00     0.158 C 
HETATM   12  C12 UNL     1       6.756   0.496  -0.117  1.00  0.00     0.051 C 
HETATM   13  C13 UNL     1       5.956   1.800  -0.005  1.00  0.00     0.007 C 
HETATM   14  C14 UNL     1       4.451   1.540  -0.185  1.00  0.00     0.001 C 
HETATM   15  C15 UNL     1       6.130  -0.583   0.726  1.00  0.00    -0.012 C 
HETATM   16  C16 UNL     1       5.133  -1.364  -0.094  1.00  0.00     0.173 C 
HETATM   17  O1  UNL     1       5.625  -2.677  -0.275  1.00  0.00    -0.219 OA
HETATM   18  C17 UNL     1       6.395  -0.798   2.020  1.00  0.00    -0.007 C 
HETATM   19  O2  UNL     1       7.448  -1.160  -1.688  1.00  0.00    -0.223 OA
HETATM   20  C18 UNL     1       2.170   1.233  -2.772  1.00  0.00     0.000 C 
HETATM   21  C19 UNL     1       0.881  -3.284  -1.927  1.00  0.00     0.000 C 
HETATM   22  C20 UNL     1       0.175  -1.378  -3.322  1.00  0.00     0.000 C 
ENDROOT
BRANCH   1  23
HETATM   23  O3  UNL     1      -0.479   0.499   0.683  1.00  0.00    -0.332 OA
BRANCH  23  24
HETATM   24  C21 UNL     1      -0.458   1.808   1.199  1.00  0.00     0.270 C 
HETATM   25  O4  UNL     1       0.591   1.905   2.140  1.00  0.00    -0.326 OA
HETATM   26  C22 UNL     1       0.416   1.223   3.354  1.00  0.00     0.184 C 
HETATM   27  C23 UNL     1      -0.909   1.562   4.022  1.00  0.00     0.215 C 
HETATM   28  C24 UNL     1      -2.100   1.451   3.089  1.00  0.00     0.220 C 
HETATM   29  O7  UNL     1      -0.851   2.889   4.500  1.00  0.00    -0.218 OA
HETATM   30  C25 UNL     1      -1.798   2.186   1.797  1.00  0.00     0.241 C 
HETATM   31  O6  UNL     1      -2.398   0.102   2.821  1.00  0.00    -0.218 OA
HETATM   32  O5  UNL     1      -1.790   3.571   2.064  1.00  0.00    -0.215 OA
BRANCH  26  33
HETATM   33  C26 UNL     1       0.724  -0.268   3.251  1.00  0.00     0.214 C 
HETATM   34  O8  UNL     1       0.934  -0.808   4.540  1.00  0.00    -0.218 OA
ENDBRANCH  26  33
ENDBRANCH  23  24
ENDBRANCH   1  23
TORSDOF 3
