REMARK  3 active torsions:
REMARK  status: ('A' for Active; 'I' for Inactive)
REMARK    1  A    between atoms: C1_1  and  C2_2 
REMARK    2  A    between atoms: C7_7  and  C8_8 
REMARK    3  A    between atoms: C8_8  and  C9_9 
ROOT
HETATM    1  C2  UNL     1       0.248   1.103   0.145  1.00  0.00     0.010 A 
HETATM    2  C3  UNL     1       1.368   1.850   0.138  1.00  0.00    -0.006 A 
HETATM    3  C4  UNL     1       2.572   1.282   0.139  1.00  0.00    -0.019 A 
HETATM    4  C5  UNL     1       2.660  -0.048   0.149  1.00  0.00     0.027 A 
HETATM    5  C6  UNL     1       1.567  -0.842   0.161  1.00  0.00    -0.020 A 
HETATM    6  C7  UNL     1       0.332  -0.260   0.156  1.00  0.00    -0.007 A 
HETATM    7  C10 UNL     1       1.854  -2.331   0.175  1.00  0.00     0.031 C 
HETATM    8  C11 UNL     1       3.968  -0.417   0.143  1.00  0.00     0.172 A 
HETATM    9  C12 UNL     1       4.856   0.826   0.107  1.00  0.00     0.066 A 
HETATM   10  C13 UNL     1       3.881   2.015   0.124  1.00  0.00     0.034 A 
HETATM   11  C14 UNL     1       5.777   0.831  -1.120  1.00  0.00     0.009 C 
HETATM   12  O2  UNL     1       4.450  -1.525   0.148  1.00  0.00    -0.291 OA
ENDROOT
BRANCH   6  13
HETATM   13  C8  UNL     1      -1.003  -1.009   0.156  1.00  0.00     0.009 C 
BRANCH  13  14
HETATM   14  C9  UNL     1      -1.226  -2.518   0.145  1.00  0.00     0.209 C 
HETATM   15  O1  UNL     1      -2.618  -2.784   0.129  1.00  0.00    -0.215 OA
ENDBRANCH  13  14
ENDBRANCH   6  13
BRANCH   1  16
HETATM   16  C1  UNL     1      -1.002   1.988   0.136  1.00  0.00     0.209 C 
HETATM   17  O3  UNL     1      -2.289   1.393   0.164  1.00  0.00    -0.215 OA
ENDBRANCH   1  16
TORSDOF 3
