REMARK  0 active torsions:
REMARK  status: ('A' for Active; 'I' for Inactive)
ROOT
HETATM    1  C1  UNL     1      -2.232   0.759   0.724  1.00  0.00     0.152 C 
HETATM    2  C2  UNL     1      -2.352  -0.748   0.561  1.00  0.00     0.033 C 
HETATM    3  C3  UNL     1      -1.580  -1.323  -0.653  1.00  0.00     0.005 C 
HETATM    4  C4  UNL     1      -0.115  -0.773  -0.649  1.00  0.00     0.031 C 
HETATM    5  C5  UNL     1       0.088   0.760  -0.402  1.00  0.00     0.005 C 
HETATM    6  C6  UNL     1      -0.767   1.174   0.822  1.00  0.00     0.033 C 
HETATM    7  C7  UNL     1       1.613   1.117  -0.213  1.00  0.00     0.005 C 
HETATM    8  C8  UNL     1       2.622  -0.060  -0.252  1.00  0.00     0.063 C 
HETATM    9  C9  UNL     1       2.308  -0.998  -1.434  1.00  0.00     0.038 C 
HETATM   10  C10 UNL     1       0.831  -1.247  -1.757  1.00  0.00     0.152 C 
HETATM   11  O1  UNL     1       0.701  -2.623  -2.025  1.00  0.00    -0.224 OA
HETATM   12  C11 UNL     1       4.030   0.550  -0.480  1.00  0.00     0.159 C 
HETATM   13  C12 UNL     1       4.330   1.215   0.858  1.00  0.00     0.051 C 
HETATM   14  C13 UNL     1       3.449   2.462   1.000  1.00  0.00     0.007 C 
HETATM   15  C14 UNL     1       1.950   2.122   0.913  1.00  0.00     0.001 C 
HETATM   16  C15 UNL     1       3.893   0.123   1.795  1.00  0.00    -0.012 C 
HETATM   17  C16 UNL     1       2.871  -0.750   1.111  1.00  0.00     0.173 C 
HETATM   18  O2  UNL     1       1.737  -0.866   1.941  1.00  0.00    -0.219 OA
HETATM   19  C17 UNL     1       4.340  -0.048   3.045  1.00  0.00    -0.007 C 
HETATM   20  O3  UNL     1       4.988  -0.456  -0.725  1.00  0.00    -0.223 OA
HETATM   21  C18 UNL     1      -0.387   1.641  -1.592  1.00  0.00     0.000 C 
HETATM   22  C19 UNL     1      -1.634  -2.865  -0.442  1.00  0.00     0.000 C 
HETATM   23  C20 UNL     1      -2.355  -1.058  -1.961  1.00  0.00     0.000 C 
HETATM   24  O4  UNL     1      -2.894   1.148   1.908  1.00  0.00    -0.224 OA
ENDROOT
TORSDOF 0
