REMARK  1 active torsions:
REMARK  status: ('A' for Active; 'I' for Inactive)
REMARK    1  A    between atoms: C9_10  and  C11_12 
ROOT
HETATM    1  C1  UNL     1      -1.399   0.605  -2.875  1.00  0.00     0.037 C 
HETATM    2  C2  UNL     1      -2.196  -0.378  -2.014  1.00  0.00     0.025 C 
HETATM    3  C3  UNL     1      -1.318  -1.031  -0.970  1.00  0.00    -0.044 C 
HETATM    4  C4  UNL     1       0.037  -0.380  -0.739  1.00  0.00     0.021 C 
HETATM    5  C5  UNL     1      -0.141   1.158  -0.668  1.00  0.00     0.032 C 
HETATM    6  C6  UNL     1      -0.688   1.666  -2.029  1.00  0.00     0.153 C 
HETATM    7  O1  UNL     1      -1.552   2.764  -1.850  1.00  0.00    -0.223 OA
HETATM    8  C7  UNL     1       1.236   1.816  -0.416  1.00  0.00     0.003 C 
HETATM    9  C8  UNL     1       1.990   1.246   0.795  1.00  0.00     0.003 C 
HETATM   10  C9  UNL     1       2.209  -0.270   0.639  1.00  0.00     0.028 C 
HETATM   11  C10 UNL     1       0.843  -0.955   0.442  1.00  0.00     0.006 C 
HETATM   12  C14 UNL     1      -1.091   1.543   0.493  1.00  0.00     0.003 C 
HETATM   13  C15 UNL     1      -1.772  -2.107  -0.305  1.00  0.00    -0.009 C 
ENDROOT
BRANCH  10  14
HETATM   14  C11 UNL     1       3.060  -0.896   1.768  1.00  0.00     0.127 C 
HETATM   15  C12 UNL     1       3.671  -2.234   1.331  1.00  0.00     0.033 C 
HETATM   16  C13 UNL     1       2.301  -1.090   3.083  1.00  0.00     0.033 C 
HETATM   17  O2  UNL     1       4.143  -0.042   2.042  1.00  0.00    -0.226 OA
ENDBRANCH  10  14
TORSDOF 1
