REMARK  2 active torsions:
REMARK  status: ('A' for Active; 'I' for Inactive)
REMARK    1  A    between atoms: C1_1  and  C2_2 
REMARK    2  A    between atoms: C1_1  and  C14_16 
ROOT
HETATM    1  C2  UNL     1      -0.571   0.229  -0.265  1.00  0.00     0.003 A 
HETATM    2  C3  UNL     1       0.636   0.857  -0.278  1.00  0.00    -0.021 A 
HETATM    3  C4  UNL     1       1.746   0.092  -0.272  1.00  0.00     0.029 A 
HETATM    4  C5  UNL     1       1.689  -1.241  -0.247  1.00  0.00     0.010 A 
HETATM    5  C6  UNL     1       0.503  -1.853  -0.220  1.00  0.00    -0.006 A 
HETATM    6  C7  UNL     1      -0.628  -1.127  -0.227  1.00  0.00    -0.024 A 
HETATM    7  C8  UNL     1      -1.936  -1.897  -0.181  1.00  0.00     0.031 C 
HETATM    8  C9  UNL     1       3.025  -1.924  -0.240  1.00  0.00     0.182 A 
HETATM    9  C10 UNL     1       3.963  -0.713  -0.263  1.00  0.00     0.097 A 
HETATM   10  C11 UNL     1       3.039   0.506  -0.286  1.00  0.00     0.175 A 
HETATM   11  O1  UNL     1       3.475   1.633  -0.298  1.00  0.00    -0.291 OA
HETATM   12  C12 UNL     1       4.920  -0.685   0.935  1.00  0.00     0.011 C 
HETATM   13  O2  UNL     1       3.199  -2.720  -1.397  1.00  0.00    -0.218 OA
HETATM   14  C13 UNL     1       0.804   2.366  -0.293  1.00  0.00     0.031 C 
ENDROOT
BRANCH   1  15
HETATM   15  C1  UNL     1      -1.878   1.018  -0.285  1.00  0.00     0.207 C 
HETATM   16  O4  UNL     1      -1.937   1.956  -1.348  1.00  0.00    -0.216 OA
BRANCH  15  17
HETATM   17  C14 UNL     1      -2.183   1.706   1.035  1.00  0.00     0.220 C 
HETATM   18  O3  UNL     1      -3.247   2.610   0.818  1.00  0.00    -0.217 OA
ENDBRANCH  15  17
ENDBRANCH   1  15
TORSDOF 2
