REMARK  1 active torsions:
REMARK  status: ('A' for Active; 'I' for Inactive)
REMARK    1  A    between atoms: C3_3  and  C19_21 
ROOT
HETATM    1  C1  UNL     1      -2.200   0.840   0.848  1.00  0.00     0.152 C 
HETATM    2  C2  UNL     1      -2.343  -0.664   0.649  1.00  0.00     0.035 C 
HETATM    3  C3  UNL     1      -1.628  -1.197  -0.618  1.00  0.00     0.033 C 
HETATM    4  C4  UNL     1      -0.159  -0.661  -0.602  1.00  0.00     0.003 C 
HETATM    5  C5  UNL     1       0.081   0.863  -0.378  1.00  0.00     0.003 C 
HETATM    6  C6  UNL     1      -0.732   1.261   0.880  1.00  0.00     0.033 C 
HETATM    7  C7  UNL     1       1.617   1.200  -0.228  1.00  0.00     0.005 C 
HETATM    8  C8  UNL     1       2.585  -0.012  -0.307  1.00  0.00     0.060 C 
HETATM    9  C9  UNL     1       2.228  -0.843  -1.554  1.00  0.00     0.005 C 
HETATM   10  C10 UNL     1       0.751  -1.238  -1.694  1.00  0.00     0.000 C 
HETATM   11  C11 UNL     1       4.033   0.507  -0.463  1.00  0.00     0.158 C 
HETATM   12  C12 UNL     1       4.311   1.135   0.896  1.00  0.00     0.051 C 
HETATM   13  C13 UNL     1       3.499   2.431   1.023  1.00  0.00     0.007 C 
HETATM   14  C14 UNL     1       1.989   2.157   0.927  1.00  0.00     0.001 C 
HETATM   15  C15 UNL     1       3.764   0.051   1.786  1.00  0.00    -0.012 C 
HETATM   16  C16 UNL     1       2.699  -0.729   1.054  1.00  0.00     0.173 C 
HETATM   17  O1  UNL     1       3.150  -2.057   0.873  1.00  0.00    -0.219 OA
HETATM   18  C17 UNL     1       4.167  -0.191   3.039  1.00  0.00    -0.007 C 
HETATM   19  O2  UNL     1       4.929  -0.566  -0.652  1.00  0.00    -0.223 OA
HETATM   20  C18 UNL     1      -0.412   1.731  -1.564  1.00  0.00     0.000 C 
HETATM   21  C20 UNL     1      -2.458  -0.828  -1.867  1.00  0.00     0.003 C 
HETATM   22  O4  UNL     1      -2.801   1.195   2.073  1.00  0.00    -0.224 OA
ENDROOT
BRANCH   3  23
HETATM   23  C19 UNL     1      -1.665  -2.743  -0.499  1.00  0.00     0.182 C 
HETATM   24  O3  UNL     1      -1.496  -3.386  -1.748  1.00  0.00    -0.221 OA
ENDBRANCH   3  23
TORSDOF 1
