REMARK  4 active torsions:
REMARK  status: ('A' for Active; 'I' for Inactive)
REMARK    1  A    between atoms: C1_1  and  C2_2 
REMARK    2  A    between atoms: C1_1  and  C14_18 
REMARK    3  A    between atoms: C3_3  and  C13_16 
REMARK    4  A    between atoms: C7_7  and  C8_8 
ROOT
HETATM    1  C2  UNL     1       1.458   0.303  -0.095  1.00  0.00    -0.005 A 
HETATM    2  C3  UNL     1       2.607   1.052  -0.105  1.00  0.00     0.013 A 
HETATM    3  C4  UNL     1       3.799   0.408  -0.103  1.00  0.00     0.032 A 
HETATM    4  C5  UNL     1       3.845  -0.928  -0.101  1.00  0.00     0.011 A 
HETATM    5  C6  UNL     1       2.725  -1.650  -0.091  1.00  0.00    -0.004 A 
HETATM    6  C7  UNL     1       1.521  -1.055  -0.086  1.00  0.00     0.010 A 
HETATM    7  C9  UNL     1       5.213  -1.544  -0.116  1.00  0.00     0.182 A 
HETATM    8  C10 UNL     1       6.075  -0.288  -0.070  1.00  0.00     0.097 A 
HETATM    9  C11 UNL     1       5.078   0.874  -0.106  1.00  0.00     0.175 A 
HETATM   10  O2  UNL     1       5.536   1.990  -0.112  1.00  0.00    -0.291 OA
HETATM   11  C12 UNL     1       6.971  -0.236   1.175  1.00  0.00     0.011 C 
HETATM   12  O3  UNL     1       5.434  -2.259  -1.317  1.00  0.00    -0.218 OA
ENDROOT
BRANCH   1  13
HETATM   13  C1  UNL     1       0.126   1.077  -0.095  1.00  0.00     0.009 C 
BRANCH  13  14
HETATM   14  C14 UNL     1      -1.276   0.474  -0.098  1.00  0.00     0.209 C 
HETATM   15  O5  UNL     1      -2.225   1.527  -0.104  1.00  0.00    -0.215 OA
ENDBRANCH  13  14
ENDBRANCH   1  13
BRANCH   2  16
HETATM   16  C13 UNL     1       2.442   2.577  -0.116  1.00  0.00     0.209 C 
HETATM   17  O4  UNL     1       3.593   3.399  -0.082  1.00  0.00    -0.215 OA
ENDBRANCH   2  16
BRANCH   6  18
HETATM   18  C8  UNL     1       0.317  -1.980  -0.074  1.00  0.00     0.209 C 
HETATM   19  O1  UNL     1       0.628  -3.371  -0.056  1.00  0.00    -0.215 OA
ENDBRANCH   6  18
TORSDOF 4
