REMARK  8 active torsions:
REMARK  status: ('A' for Active; 'I' for Inactive)
REMARK    1  A    between atoms: C4_4  and  C7_7 
REMARK    2  A    between atoms: C7_7  and  C8_8 
REMARK    3  A    between atoms: C9_9  and  C12_14 
REMARK    4  A    between atoms: C17_19  and  O3_20 
REMARK    5  A    between atoms: O3_20  and  C18_21 
REMARK    6  A    between atoms: C19_23  and  C23_30 
REMARK    7  A    between atoms: C23_30  and  O8_31 
REMARK    8  A    between atoms: O8_31  and  C24_32 
ROOT
HETATM    1  O3  UNL     1      -1.032  -1.105   1.230  1.00  0.00    -0.304 OA
ENDROOT
BRANCH   1   2
HETATM    2  C17 UNL     1      -0.375  -2.121   0.579  1.00  0.00     0.099 A 
HETATM    3  C12 UNL     1       0.860  -2.581   0.905  1.00  0.00     0.021 A 
HETATM    4  C13 UNL     1       1.391  -3.527   0.101  1.00  0.00     0.004 A 
HETATM    5  C14 UNL     1       0.725  -4.072  -0.926  1.00  0.00     0.028 A 
HETATM    6  C15 UNL     1      -0.526  -3.687  -1.204  1.00  0.00     0.133 A 
HETATM    7  C16 UNL     1      -1.035  -2.711  -0.438  1.00  0.00     0.052 A 
HETATM    8  O13 UNL     1      -1.235  -4.231  -2.228  1.00  0.00    -0.190 OA
BRANCH   3   9
HETATM    9  C9  UNL     1       1.602  -2.168   1.962  1.00  0.00     0.013 A 
HETATM   10  C8  UNL     1       3.098  -2.431   2.136  1.00  0.00     0.151 A 
HETATM   11  O1  UNL     1       3.433  -1.893   3.404  1.00  0.00    -0.296 OA
HETATM   12  C11 UNL     1       2.278  -1.360   3.881  1.00  0.00     0.296 A 
HETATM   13  C10 UNL     1       1.210  -1.512   3.065  1.00  0.00     0.067 A 
HETATM   14  O2  UNL     1       2.204  -0.802   4.955  1.00  0.00    -0.259 OA
BRANCH  10  15
HETATM   15  C7  UNL     1       3.927  -1.709   1.062  1.00  0.00     0.061 C 
BRANCH  15  16
HETATM   16  C4  UNL     1       5.317  -2.296   0.943  1.00  0.00    -0.019 A 
HETATM   17  C3  UNL     1       5.647  -3.076  -0.102  1.00  0.00    -0.002 A 
HETATM   18  C2  UNL     1       6.874  -3.606  -0.208  1.00  0.00     0.027 A 
HETATM   19  C1  UNL     1       7.814  -3.382   0.726  1.00  0.00     0.131 A 
HETATM   20  C6  UNL     1       7.482  -2.600   1.767  1.00  0.00     0.027 A 
HETATM   21  O14 UNL     1       9.056  -3.926   0.626  1.00  0.00    -0.190 OA
HETATM   22  C5  UNL     1       6.257  -2.062   1.875  1.00  0.00    -0.002 A 
ENDBRANCH  15  16
ENDBRANCH  10  15
ENDBRANCH   3   9
ENDBRANCH   1   2
BRANCH   1  23
HETATM   23  C18 UNL     1      -0.495   0.181   0.988  1.00  0.00     0.274 C 
HETATM   24  O4  UNL     1      -0.289   0.284  -0.404  1.00  0.00    -0.326 OA
HETATM   25  C19 UNL     1       0.330   1.487  -0.776  1.00  0.00     0.180 C 
HETATM   26  C20 UNL     1      -0.568   2.651  -0.379  1.00  0.00     0.215 C 
HETATM   27  C21 UNL     1      -0.964   2.610   1.085  1.00  0.00     0.220 C 
HETATM   28  O7  UNL     1       0.050   3.888  -0.638  1.00  0.00    -0.218 OA
HETATM   29  C22 UNL     1      -1.459   1.232   1.476  1.00  0.00     0.241 C 
HETATM   30  O6  UNL     1      -2.000   3.538   1.295  1.00  0.00    -0.218 OA
HETATM   31  O5  UNL     1      -2.713   1.022   0.875  1.00  0.00    -0.215 OA
BRANCH  25  32
HETATM   32  C23 UNL     1       1.772   1.532  -0.272  1.00  0.00     0.177 C 
BRANCH  32  33
HETATM   33  O8  UNL     1       2.521   2.480  -0.990  1.00  0.00    -0.326 OA
BRANCH  33  34
HETATM   34  C24 UNL     1       3.905   2.406  -0.711  1.00  0.00     0.270 C 
HETATM   35  O9  UNL     1       4.384   1.394  -1.570  1.00  0.00    -0.329 OA
HETATM   36  C25 UNL     1       5.773   1.227  -1.494  1.00  0.00     0.151 C 
HETATM   37  C26 UNL     1       6.467   2.510  -1.929  1.00  0.00     0.212 C 
HETATM   38  C29 UNL     1       6.154   0.044  -2.384  1.00  0.00     0.035 C 
HETATM   39  C27 UNL     1       6.018   3.675  -1.071  1.00  0.00     0.220 C 
HETATM   40  O12 UNL     1       7.863   2.393  -1.798  1.00  0.00    -0.218 OA
HETATM   41  C28 UNL     1       4.509   3.753  -1.031  1.00  0.00     0.241 C 
HETATM   42  O11 UNL     1       6.521   4.865  -1.626  1.00  0.00    -0.218 OA
HETATM   43  O10 UNL     1       4.048   4.181  -2.289  1.00  0.00    -0.215 OA
ENDBRANCH  33  34
ENDBRANCH  32  33
ENDBRANCH  25  32
ENDBRANCH   1  23
TORSDOF 8
