REMARK  2 active torsions:
REMARK  status: ('A' for Active; 'I' for Inactive)
REMARK    1  A    between atoms: C7_8  and  O6_41 
REMARK    2  A    between atoms: C12_14  and  O4_38 
ROOT
HETATM    1  C1  UNL     1       7.316   0.021  -3.859  1.00  0.00     0.130 C 
HETATM    2  N1  UNL     1       7.707  -0.595  -2.578  1.00  0.00    -0.274 NA
HETATM    3  C2  UNL     1       6.844  -0.622  -1.649  1.00  0.00     0.058 C 
HETATM    4  C3  UNL     1       5.535  -0.319  -1.804  1.00  0.00     0.012 A 
HETATM    5  C4  UNL     1       5.005  -0.076  -3.016  1.00  0.00    -0.017 A 
HETATM    6  C5  UNL     1       5.864  -0.238  -4.241  1.00  0.00     0.053 C 
HETATM    7  C6  UNL     1       3.707   0.255  -3.142  1.00  0.00     0.022 A 
HETATM    8  C7  UNL     1       2.861   0.342  -2.098  1.00  0.00     0.116 A 
HETATM    9  C8  UNL     1       3.377   0.078  -0.878  1.00  0.00     0.122 A 
HETATM   10  C9  UNL     1       4.677  -0.254  -0.772  1.00  0.00     0.028 A 
HETATM   11  O1  UNL     1       2.600   0.120   0.249  1.00  0.00    -0.303 OA
HETATM   12  C10 UNL     1       2.136   1.319   0.728  1.00  0.00     0.128 A 
HETATM   13  C11 UNL     1       2.939   2.410   0.686  1.00  0.00     0.176 A 
HETATM   14  C12 UNL     1       2.552   3.613   1.154  1.00  0.00     0.121 A 
HETATM   15  C13 UNL     1       1.318   3.684   1.670  1.00  0.00     0.022 A 
HETATM   16  C14 UNL     1       0.514   2.615   1.749  1.00  0.00    -0.015 A 
HETATM   17  C15 UNL     1       0.891   1.411   1.267  1.00  0.00     0.035 A 
HETATM   18  C16 UNL     1       0.014   0.377   1.380  1.00  0.00     0.060 C 
HETATM   19  N2  UNL     1      -1.192   0.472   1.768  1.00  0.00    -0.274 NA
HETATM   20  C17 UNL     1      -1.794   1.805   1.889  1.00  0.00     0.130 C 
HETATM   21  C18 UNL     1      -0.800   2.796   2.464  1.00  0.00     0.053 C 
HETATM   22  C19 UNL     1       0.245  -1.086   1.002  1.00  0.00     0.072 C 
HETATM   23  C20 UNL     1       1.437  -1.833   1.560  1.00  0.00    -0.016 A 
HETATM   24  C21 UNL     1       1.876  -2.920   0.903  1.00  0.00    -0.002 A 
HETATM   25  C22 UNL     1       2.980  -3.568   1.295  1.00  0.00     0.024 A 
HETATM   26  C23 UNL     1       3.700  -3.159   2.357  1.00  0.00     0.100 A 
HETATM   27  C24 UNL     1       3.220  -2.103   3.041  1.00  0.00     0.024 A 
HETATM   28  C25 UNL     1       2.104  -1.457   2.664  1.00  0.00    -0.002 A 
HETATM   29  O2  UNL     1       4.880  -3.774   2.693  1.00  0.00    -0.305 OA
HETATM   30  C26 UNL     1       5.770  -3.708   1.649  1.00  0.00     0.125 A 
HETATM   31  C27 UNL     1       6.247  -2.518   1.239  1.00  0.00     0.023 A 
HETATM   32  C28 UNL     1       7.036  -2.374   0.161  1.00  0.00    -0.014 A 
HETATM   33  C29 UNL     1       7.482  -1.009  -0.318  1.00  0.00     0.072 C 
HETATM   34  C30 UNL     1       7.403  -3.486  -0.493  1.00  0.00    -0.002 A 
HETATM   35  C31 UNL     1       6.974  -4.686  -0.078  1.00  0.00     0.029 A 
HETATM   36  C32 UNL     1       6.154  -4.815   0.979  1.00  0.00     0.154 A 
HETATM   37  O3  UNL     1       5.705  -6.047   1.344  1.00  0.00    -0.188 OA
HETATM   38  O5  UNL     1       4.200   2.337   0.173  1.00  0.00    -0.186 OA
ENDROOT
BRANCH   8  39
HETATM   39  O6  UNL     1       1.534   0.691  -2.180  1.00  0.00    -0.326 OA
HETATM   40  C34 UNL     1       1.033   1.185  -3.400  1.00  0.00     0.181 C 
ENDBRANCH   8  39
BRANCH  14  41
HETATM   41  O4  UNL     1       3.409   4.681   1.037  1.00  0.00    -0.326 OA
HETATM   42  C33 UNL     1       2.868   5.981   1.024  1.00  0.00     0.181 C 
ENDBRANCH  14  41
TORSDOF 2
