REMARK  4 active torsions:
REMARK  status: ('A' for Active; 'I' for Inactive)
REMARK    1  A    between atoms: C16_18  and  C25_34 
REMARK    2  A    between atoms: C17_19  and  O2_22 
REMARK    3  A    between atoms: O2_22  and  C19_23 
REMARK    4  A    between atoms: C20_25  and  C24_32 
ROOT
HETATM    1  C1  UNL     1      -2.268   2.601  -1.183  1.00  0.00     0.000 A 
HETATM    2  C2  UNL     1      -2.317   1.262  -1.115  1.00  0.00     0.002 A 
HETATM    3  C3  UNL     1      -1.182   0.548  -1.146  1.00  0.00     0.019 A 
HETATM    4  C4  UNL     1       0.003   1.173  -1.247  1.00  0.00     0.084 A 
HETATM    5  C5  UNL     1       0.057   2.519  -1.319  1.00  0.00     0.056 A 
HETATM    6  C6  UNL     1      -1.086   3.228  -1.284  1.00  0.00     0.005 A 
HETATM    7  C7  UNL     1       1.263   3.142  -1.430  1.00  0.00     0.196 A 
HETATM    8  C8  UNL     1       2.354   2.340  -1.468  1.00  0.00     0.054 A 
HETATM    9  C9  UNL     1       2.226   1.008  -1.389  1.00  0.00     0.080 A 
HETATM   10  N1  UNL     1       1.075   0.492  -1.283  1.00  0.00    -0.248 NA
HETATM   11  C10 UNL     1       3.575   0.351  -1.478  1.00  0.00     0.125 A 
HETATM   12  N2  UNL     1       4.502   1.471  -1.505  1.00  0.00    -0.309 N 
HETATM   13  C11 UNL     1       3.797   2.740  -1.604  1.00  0.00     0.136 A 
HETATM   14  C12 UNL     1       5.850   1.310  -1.623  1.00  0.00     0.255 C 
HETATM   15  C13 UNL     1       6.295   0.072  -1.280  1.00  0.00     0.058 C 
HETATM   16  C14 UNL     1       5.482  -0.821  -0.360  1.00  0.00     0.040 C 
HETATM   17  C15 UNL     1       3.952  -0.626  -0.373  1.00  0.00     0.034 C 
HETATM   18  C16 UNL     1       5.971  -2.276  -0.453  1.00  0.00     0.083 C 
HETATM   19  C17 UNL     1       7.496  -2.303  -0.463  1.00  0.00     0.246 C 
HETATM   20  O1  UNL     1       8.014  -1.579  -1.552  1.00  0.00    -0.303 OA
HETATM   21  C18 UNL     1       7.455  -0.360  -1.806  1.00  0.00     0.119 C 
HETATM   22  O8  UNL     1       6.558   2.179  -2.074  1.00  0.00    -0.268 OA
HETATM   23  O9  UNL     1       1.403   4.341  -1.503  1.00  0.00    -0.287 OA
ENDROOT
BRANCH  19  24
HETATM   24  O2  UNL     1       7.985  -1.648   0.686  1.00  0.00    -0.303 OA
BRANCH  24  25
HETATM   25  C19 UNL     1       9.386  -1.606   0.843  1.00  0.00     0.272 C 
HETATM   26  O3  UNL     1       9.663  -2.029   2.161  1.00  0.00    -0.326 OA
HETATM   27  C20 UNL     1       9.233  -1.169   3.184  1.00  0.00     0.184 C 
HETATM   28  C21 UNL     1       9.650   0.284   2.966  1.00  0.00     0.215 C 
HETATM   29  C22 UNL     1       9.427   0.798   1.555  1.00  0.00     0.220 C 
HETATM   30  O6  UNL     1      11.028   0.408   3.252  1.00  0.00    -0.218 OA
HETATM   31  C23 UNL     1       9.949  -0.227   0.567  1.00  0.00     0.241 C 
HETATM   32  O5  UNL     1       8.060   1.048   1.317  1.00  0.00    -0.218 OA
HETATM   33  O4  UNL     1      11.355  -0.282   0.660  1.00  0.00    -0.215 OA
BRANCH  27  34
HETATM   34  C24 UNL     1       7.759  -1.369   3.523  1.00  0.00     0.214 C 
HETATM   35  O7  UNL     1       7.507  -0.920   4.840  1.00  0.00    -0.218 OA
ENDBRANCH  27  34
ENDBRANCH  24  25
ENDBRANCH  19  24
BRANCH  18  36
HETATM   36  C25 UNL     1       5.420  -2.987  -1.667  1.00  0.00    -0.021 C 
HETATM   37  C26 UNL     1       5.056  -4.277  -1.664  1.00  0.00    -0.005 C 
ENDBRANCH  18  36
TORSDOF 4
