REMARK  6 active torsions:
REMARK  status: ('A' for Active; 'I' for Inactive)
REMARK    1  A    between atoms: C10_13  and  C18_26 
REMARK    2  A    between atoms: C18_26  and  C19_28 
REMARK    3  A    between atoms: C19_28  and  O10_29 
REMARK    4  A    between atoms: C19_28  and  C27_41 
REMARK    5  A    between atoms: O10_29  and  C20_30 
REMARK    6  A    between atoms: C20_30  and  C21_32 
ROOT
HETATM    1  C1  UNL     1       4.177   4.249   1.761  1.00  0.00     0.181 C 
HETATM    2  C2  UNL     1       5.506   4.172   1.554  1.00  0.00     0.158 C 
HETATM    3  C3  UNL     1       6.115   2.964   1.539  1.00  0.00     0.035 C 
HETATM    4  C4  UNL     1       5.405   1.862   1.850  1.00  0.00     0.066 C 
HETATM    5  C5  UNL     1       4.066   1.942   1.851  1.00  0.00     0.043 C 
HETATM    6  C6  UNL     1       3.445   3.129   1.865  1.00  0.00     0.157 C 
HETATM    7  O1  UNL     1       2.093   3.193   1.989  1.00  0.00    -0.188 OA
HETATM    8  C7  UNL     1       3.276   0.669   1.799  1.00  0.00     0.207 C 
HETATM    9  C8  UNL     1       4.143  -0.353   1.070  1.00  0.00     0.189 C 
HETATM   10  O2  UNL     1       5.311  -0.539   1.808  1.00  0.00    -0.295 OA
HETATM   11  C9  UNL     1       5.992   0.630   1.978  1.00  0.00     0.296 C 
HETATM   12  O3  UNL     1       7.171   0.551   2.261  1.00  0.00    -0.259 OA
HETATM   13  C10 UNL     1       4.485   0.024  -0.416  1.00  0.00     0.188 C 
HETATM   14  O4  UNL     1       5.374   1.130  -0.502  1.00  0.00    -0.296 OA
HETATM   15  C11 UNL     1       6.754   1.083  -0.612  1.00  0.00     0.296 C 
HETATM   16  C12 UNL     1       7.654   1.888   0.071  1.00  0.00     0.067 A 
HETATM   17  C13 UNL     1       7.367   2.809   1.043  1.00  0.00     0.035 A 
HETATM   18  C14 UNL     1       8.355   3.563   1.577  1.00  0.00     0.158 A 
HETATM   19  C15 UNL     1       9.630   3.408   1.186  1.00  0.00     0.181 A 
HETATM   20  C16 UNL     1       9.942   2.492   0.260  1.00  0.00     0.158 A 
HETATM   21  C17 UNL     1       8.955   1.756  -0.270  1.00  0.00     0.035 A 
HETATM   22  O5  UNL     1      11.241   2.335  -0.116  1.00  0.00    -0.188 OA
HETATM   23  O6  UNL     1      10.614   4.160   1.750  1.00  0.00    -0.186 OA
HETATM   24  O7  UNL     1       8.135   4.460   2.580  1.00  0.00    -0.188 OA
HETATM   25  O8  UNL     1       7.223   0.191  -1.287  1.00  0.00    -0.259 OA
HETATM   26  O16 UNL     1       2.936   0.260   3.107  1.00  0.00    -0.216 OA
HETATM   27  O17 UNL     1       6.158   5.324   1.232  1.00  0.00    -0.188 OA
HETATM   28  O18 UNL     1       3.533   5.448   1.751  1.00  0.00    -0.186 OA
ENDROOT
BRANCH  13  29
HETATM   29  C18 UNL     1       4.800  -1.152  -1.352  1.00  0.00     0.212 C 
HETATM   30  O9  UNL     1       4.947  -0.606  -2.647  1.00  0.00    -0.218 OA
BRANCH  29  31
HETATM   31  C19 UNL     1       3.708  -2.244  -1.423  1.00  0.00     0.190 C 
BRANCH  31  32
HETATM   32  O10 UNL     1       3.296  -2.426  -2.745  1.00  0.00    -0.295 OA
BRANCH  32  33
HETATM   33  C20 UNL     1       2.045  -2.820  -3.171  1.00  0.00     0.296 C 
HETATM   34  O11 UNL     1       1.931  -2.785  -4.383  1.00  0.00    -0.259 OA
BRANCH  33  35
HETATM   35  C21 UNL     1       0.927  -3.240  -2.490  1.00  0.00     0.067 A 
HETATM   36  C22 UNL     1      -0.202  -3.508  -3.182  1.00  0.00     0.035 A 
HETATM   37  C23 UNL     1      -1.348  -3.910  -2.606  1.00  0.00     0.158 A 
HETATM   38  C24 UNL     1      -1.393  -4.064  -1.274  1.00  0.00     0.181 A 
HETATM   39  O14 UNL     1      -2.468  -4.162  -3.338  1.00  0.00    -0.188 OA
HETATM   40  C25 UNL     1      -0.293  -3.822  -0.544  1.00  0.00     0.158 A 
HETATM   41  O13 UNL     1      -2.537  -4.467  -0.660  1.00  0.00    -0.186 OA
HETATM   42  C26 UNL     1       0.834  -3.427  -1.159  1.00  0.00     0.035 A 
HETATM   43  O12 UNL     1      -0.331  -3.996   0.805  1.00  0.00    -0.188 OA
ENDBRANCH  33  35
ENDBRANCH  32  33
ENDBRANCH  31  32
BRANCH  31  44
HETATM   44  C27 UNL     1       4.211  -3.588  -0.897  1.00  0.00     0.215 C 
HETATM   45  O15 UNL     1       4.335  -3.543   0.508  1.00  0.00    -0.218 OA
ENDBRANCH  31  44
ENDBRANCH  29  31
ENDBRANCH  13  29
TORSDOF 6
