REMARK  9 active torsions:
REMARK  status: ('A' for Active; 'I' for Inactive)
REMARK    1  A    between atoms: C3_3  and  C7_9 
REMARK    2  A    between atoms: C7_9  and  O4_11 
REMARK    3  A    between atoms: O4_11  and  C8_12 
REMARK    4  A    between atoms: C8_12  and  C9_13 
REMARK    5  A    between atoms: C8_12  and  C18_29 
REMARK    6  A    between atoms: C9_13  and  C10_14 
REMARK    7  A    between atoms: C9_13  and  O7_17 
REMARK    8  A    between atoms: O7_17  and  C11_18 
REMARK    9  A    between atoms: C11_18  and  C12_20 
ROOT
HETATM    1  C8  UNL     1       0.616  -1.717   0.915  1.00  0.00     0.193 C 
ENDROOT
BRANCH   1   2
HETATM    2  O4  UNL     1      -0.720  -2.090   0.726  1.00  0.00    -0.295 OA
BRANCH   2   3
HETATM    3  C7  UNL     1      -1.684  -1.663  -0.157  1.00  0.00     0.296 C 
HETATM    4  O3  UNL     1      -2.720  -2.296  -0.057  1.00  0.00    -0.259 OA
BRANCH   3   5
HETATM    5  C3  UNL     1      -1.722  -0.671  -1.104  1.00  0.00     0.067 A 
HETATM    6  C2  UNL     1      -0.721   0.186  -1.362  1.00  0.00     0.035 A 
HETATM    7  C1  UNL     1      -0.779   1.131  -2.317  1.00  0.00     0.158 A 
HETATM    8  C6  UNL     1      -1.914   1.282  -3.017  1.00  0.00     0.181 A 
HETATM    9  O23 UNL     1       0.253   1.985  -2.558  1.00  0.00    -0.188 OA
HETATM   10  C5  UNL     1      -2.949   0.458  -2.789  1.00  0.00     0.158 A 
HETATM   11  O1  UNL     1      -1.995   2.237  -3.980  1.00  0.00    -0.186 OA
HETATM   12  C4  UNL     1      -2.834  -0.495  -1.849  1.00  0.00     0.035 A 
HETATM   13  O2  UNL     1      -4.088   0.607  -3.519  1.00  0.00    -0.188 OA
ENDBRANCH   3   5
ENDBRANCH   2   3
ENDBRANCH   1   2
BRANCH   1  14
HETATM   14  C9  UNL     1       0.781  -0.623   1.995  1.00  0.00     0.241 C 
BRANCH  14  15
HETATM   15  C10 UNL     1      -0.047  -0.988   3.237  1.00  0.00     0.217 C 
HETATM   16  O5  UNL     1       0.315  -1.686   4.155  1.00  0.00    -0.646 OA
HETATM   17  O6  UNL     1      -1.287  -0.466   3.194  1.00  0.00    -0.646 OA
ENDBRANCH  14  15
BRANCH  14  18
HETATM   18  O7  UNL     1       0.479   0.665   1.520  1.00  0.00    -0.287 OA
BRANCH  18  19
HETATM   19  C11 UNL     1       0.789   1.733   2.331  1.00  0.00     0.296 C 
HETATM   20  O8  UNL     1       0.914   1.545   3.522  1.00  0.00    -0.259 OA
BRANCH  19  21
HETATM   21  C12 UNL     1       1.098   2.964   1.830  1.00  0.00     0.067 A 
HETATM   22  C13 UNL     1       1.423   4.005   2.617  1.00  0.00     0.035 A 
HETATM   23  C14 UNL     1       1.744   5.201   2.093  1.00  0.00     0.158 A 
HETATM   24  C15 UNL     1       1.757   5.359   0.757  1.00  0.00     0.181 A 
HETATM   25  O11 UNL     1       2.070   6.256   2.888  1.00  0.00    -0.188 OA
HETATM   26  C16 UNL     1       1.424   4.337  -0.048  1.00  0.00     0.158 A 
HETATM   27  O10 UNL     1       2.102   6.553   0.209  1.00  0.00    -0.186 OA
HETATM   28  C17 UNL     1       1.094   3.163   0.504  1.00  0.00     0.035 A 
HETATM   29  O9  UNL     1       1.456   4.474  -1.400  1.00  0.00    -0.188 OA
ENDBRANCH  19  21
ENDBRANCH  18  19
ENDBRANCH  14  18
ENDBRANCH   1  14
BRANCH   1  30
HETATM   30  C18 UNL     1       1.575  -2.042  -0.254  1.00  0.00     0.188 C 
HETATM   31  O12 UNL     1       2.919  -1.658  -0.040  1.00  0.00    -0.296 OA
HETATM   32  C19 UNL     1       3.328  -0.340  -0.079  1.00  0.00     0.296 C 
HETATM   33  O13 UNL     1       2.456   0.456  -0.343  1.00  0.00    -0.259 OA
HETATM   34  C20 UNL     1       4.588   0.196   0.117  1.00  0.00     0.067 A 
HETATM   35  C21 UNL     1       4.663   1.545   0.079  1.00  0.00     0.035 A 
HETATM   36  C25 UNL     1       5.766  -0.468   0.298  1.00  0.00     0.035 A 
HETATM   37  C22 UNL     1       5.800   2.239   0.211  1.00  0.00     0.158 A 
HETATM   38  C23 UNL     1       6.940   1.561   0.391  1.00  0.00     0.181 A 
HETATM   39  O22 UNL     1       5.803   3.599   0.170  1.00  0.00    -0.188 OA
HETATM   40  C24 UNL     1       6.923   0.219   0.427  1.00  0.00     0.158 A 
HETATM   41  O21 UNL     1       8.105   2.246   0.531  1.00  0.00    -0.186 OA
HETATM   42  O20 UNL     1       8.115  -0.408   0.636  1.00  0.00    -0.188 OA
HETATM   43  C26 UNL     1       5.828  -1.817   0.279  1.00  0.00     0.030 C 
HETATM   44  C27 UNL     1       4.984  -2.482   1.079  1.00  0.00     0.010 C 
HETATM   45  C31 UNL     1       6.579  -2.501  -0.609  1.00  0.00     0.158 C 
HETATM   46  C28 UNL     1       4.623  -3.735   0.762  1.00  0.00     0.091 C 
HETATM   47  C29 UNL     1       5.301  -4.415  -0.181  1.00  0.00     0.163 C 
HETATM   48  C32 UNL     1       3.465  -4.191   1.319  1.00  0.00     0.298 C 
HETATM   49  C30 UNL     1       6.326  -3.808  -0.805  1.00  0.00     0.181 C 
HETATM   50  O16 UNL     1       5.017  -5.702  -0.525  1.00  0.00    -0.188 OA
HETATM   51  O15 UNL     1       7.028  -4.487  -1.753  1.00  0.00    -0.186 OA
HETATM   52  O17 UNL     1       2.921  -3.547   2.192  1.00  0.00    -0.259 OA
HETATM   53  O18 UNL     1       2.749  -5.174   0.707  1.00  0.00    -0.296 OA
HETATM   54  C33 UNL     1       1.464  -4.730   0.319  1.00  0.00     0.188 C 
HETATM   55  C34 UNL     1       1.502  -3.544  -0.685  1.00  0.00     0.212 C 
HETATM   56  O19 UNL     1       0.349  -3.660  -1.495  1.00  0.00    -0.218 OA
HETATM   57  O14 UNL     1       7.465  -1.909  -1.457  1.00  0.00    -0.188 OA
ENDBRANCH   1  30
TORSDOF 9
