REMARK  5 active torsions:
REMARK  status: ('A' for Active; 'I' for Inactive)
REMARK    1  A    between atoms: C5_5  and  C7_7 
REMARK    2  A    between atoms: C7_7  and  C8_8 
REMARK    3  A    between atoms: C8_8  and  C9_9 
REMARK    4  A    between atoms: C9_9  and  C10_10 
REMARK    5  A    between atoms: C11_11  and  O2_19 
ROOT
HETATM    1  C10 UNL     1       2.650  -1.263  -0.239  1.00  0.00     0.022 C 
HETATM    2  C11 UNL     1       3.851  -0.605  -0.239  1.00  0.00     0.093 C 
HETATM    3  C12 UNL     1       4.941  -1.333  -0.573  1.00  0.00     0.034 C 
HETATM    4  C13 UNL     1       4.921  -2.833  -0.531  1.00  0.00     0.168 C 
HETATM    5  C14 UNL     1       3.590  -3.329  -0.940  1.00  0.00     0.008 C 
HETATM    6  C15 UNL     1       2.540  -2.547  -0.653  1.00  0.00     0.000 C 
HETATM    7  O1  UNL     1       6.094  -3.173  -1.248  1.00  0.00    -0.322 OA
HETATM    8  C16 UNL     1       6.780  -2.159  -1.362  1.00  0.00     0.117 C 
HETATM    9  C17 UNL     1       6.191  -1.025  -0.954  1.00  0.00     0.027 C 
ENDROOT
BRANCH   1  10
HETATM   10  C9  UNL     1       1.531  -0.569   0.091  1.00  0.00     0.002 C 
BRANCH  10  11
HETATM   11  C8  UNL     1       0.252  -0.981   0.183  1.00  0.00     0.000 C 
BRANCH  11  12
HETATM   12  C7  UNL     1      -0.848  -0.287   0.542  1.00  0.00     0.000 C 
BRANCH  12  13
HETATM   13  C5  UNL     1      -1.115   1.028   0.713  1.00  0.00     0.000 A 
HETATM   14  C4  UNL     1      -2.285   1.363   1.302  1.00  0.00     0.000 A 
HETATM   15  C3  UNL     1      -2.639   2.639   1.525  1.00  0.00     0.000 A 
HETATM   16  C2  UNL     1      -1.836   3.638   1.136  1.00  0.00     0.000 A 
HETATM   17  C1  UNL     1      -0.690   3.337   0.510  1.00  0.00     0.000 A 
HETATM   18  C6  UNL     1      -0.348   2.055   0.299  1.00  0.00     0.000 A 
ENDBRANCH  12  13
ENDBRANCH  11  12
ENDBRANCH  10  11
ENDBRANCH   1  10
BRANCH   2  19
HETATM   19  O2  UNL     1       3.825   0.763  -0.053  1.00  0.00    -0.328 OA
HETATM   20  C18 UNL     1       4.917   1.591  -0.360  1.00  0.00     0.181 C 
ENDBRANCH   2  19
TORSDOF 5
