REMARK  13 active torsions:
REMARK  status: ('A' for Active; 'I' for Inactive)
REMARK    1  A    between atoms: C2_2  and  O6_34 
REMARK    2  A    between atoms: C5_5  and  C7_7 
REMARK    3  A    between atoms: C7_7  and  C8_8 
REMARK    4  A    between atoms: C8_8  and  C9_9 
REMARK       I    between atoms: C9_9  and  N1_11 
REMARK    5  A    between atoms: N1_11  and  C10_12 
REMARK    6  A    between atoms: C10_12  and  C11_13 
REMARK    7  A    between atoms: C11_13  and  C12_14 
REMARK    8  A    between atoms: C15_17  and  O2_21 
REMARK    9  A    between atoms: O2_21  and  C18_22 
REMARK   10  A    between atoms: C18_22  and  C19_23 
REMARK   11  A    between atoms: C19_23  and  C20_24 
REMARK   12  A    between atoms: C20_24  and  N2_25 
REMARK       I    between atoms: N2_25  and  C22_27 
REMARK   13  A    between atoms: C22_27  and  O4_29 
ROOT
HETATM    1  C12 UNL     1       6.715  -0.395  -0.036  1.00  0.00    -0.019 A 
HETATM    2  C13 UNL     1       5.747  -1.266   0.280  1.00  0.00     0.004 A 
HETATM    3  C14 UNL     1       4.450  -0.935   0.162  1.00  0.00     0.057 A 
HETATM    4  C15 UNL     1       4.021   0.271  -0.280  1.00  0.00     0.106 A 
HETATM    5  C16 UNL     1       5.011   1.147  -0.584  1.00  0.00     0.057 A 
HETATM    6  C17 UNL     1       6.311   0.810  -0.467  1.00  0.00     0.004 A 
HETATM    7 BR1  UNL     1       4.810   2.935  -1.227  1.00  0.00    -0.047 Br
HETATM    8 BR2  UNL     1       3.202  -2.293   0.654  1.00  0.00    -0.047 Br
ENDROOT
BRANCH   1   9
HETATM    9  C11 UNL     1       8.175  -0.796   0.106  1.00  0.00     0.053 C 
BRANCH   9  10
HETATM   10  C10 UNL     1       9.209   0.316  -0.131  1.00  0.00     0.134 C 
BRANCH  10  11
HETATM   11  N1  UNL     1      10.576  -0.173   0.079  1.00  0.00    -0.233 NA
HETATM   12  C9  UNL     1      11.601   0.672   0.410  1.00  0.00     0.291 C 
HETATM   13  O1  UNL     1      11.396   1.847   0.609  1.00  0.00    -0.264 OA
BRANCH  12  14
HETATM   14  C8  UNL     1      12.833   0.094   0.482  1.00  0.00     0.150 C 
HETATM   15  N3  UNL     1      13.900   0.713   0.774  1.00  0.00    -0.096 NA
HETATM   16  O5  UNL     1      13.982   2.001   1.038  1.00  0.00    -0.061 OA
BRANCH  14  17
HETATM   17  C7  UNL     1      13.034  -1.387   0.206  1.00  0.00     0.080 C 
BRANCH  17  18
HETATM   18  C5  UNL     1      14.480  -1.840   0.217  1.00  0.00    -0.015 A 
HETATM   19  C4  UNL     1      14.979  -2.593   1.210  1.00  0.00    -0.002 A 
HETATM   20  C3  UNL     1      16.263  -2.983   1.202  1.00  0.00     0.024 A 
HETATM   21  C2  UNL     1      17.123  -2.631   0.224  1.00  0.00     0.100 A 
HETATM   22  C1  UNL     1      16.601  -1.879  -0.769  1.00  0.00     0.057 A 
HETATM   23  C6  UNL     1      15.315  -1.492  -0.776  1.00  0.00     0.005 A 
HETATM   24 BR3  UNL     1      17.685  -1.318  -2.227  1.00  0.00    -0.047 Br
BRANCH  21  25
HETATM   25  O6  UNL     1      18.441  -3.025   0.171  1.00  0.00    -0.328 OA
HETATM   26  C24 UNL     1      18.885  -4.047   1.032  1.00  0.00     0.181 C 
ENDBRANCH  21  25
ENDBRANCH  17  18
ENDBRANCH  14  17
ENDBRANCH  12  14
ENDBRANCH  10  11
ENDBRANCH   9  10
ENDBRANCH   1   9
BRANCH   4  27
HETATM   27  O2  UNL     1       2.651   0.451  -0.335  1.00  0.00    -0.330 OA
BRANCH  27  28
HETATM   28  C18 UNL     1       2.046   1.691  -0.561  1.00  0.00     0.151 C 
BRANCH  28  29
HETATM   29  C19 UNL     1       0.522   1.546  -0.457  1.00  0.00     0.057 C 
BRANCH  29  30
HETATM   30  C20 UNL     1      -0.163   2.920  -0.578  1.00  0.00     0.109 C 
BRANCH  30  31
HETATM   31  N2  UNL     1      -1.618   2.990  -0.743  1.00  0.00    -0.295 N 
HETATM   32  C21 UNL     1      -2.096   4.298  -1.188  1.00  0.00     0.131 C 
HETATM   33  C22 UNL     1      -2.506   1.967  -0.500  1.00  0.00     0.365 C 
HETATM   34  O3  UNL     1      -3.690   2.154  -0.686  1.00  0.00    -0.238 OA
BRANCH  33  35
HETATM   35  O4  UNL     1      -2.091   0.754  -0.044  1.00  0.00    -0.282 OA
HETATM   36  C23 UNL     1      -3.082  -0.216   0.209  1.00  0.00     0.186 C 
ENDBRANCH  33  35
ENDBRANCH  30  31
ENDBRANCH  29  30
ENDBRANCH  28  29
ENDBRANCH  27  28
ENDBRANCH   4  27
TORSDOF 13
