REMARK  1 active torsions:
REMARK  status: ('A' for Active; 'I' for Inactive)
REMARK    1  A    between atoms: C4_4  and  O2_24 
ROOT
HETATM    1  C1  UNL     1      -0.831   0.370   2.129  1.00  0.00    -0.002 A 
HETATM    2  C2  UNL     1      -1.927  -0.377   2.304  1.00  0.00     0.002 A 
HETATM    3  C3  UNL     1      -1.905  -1.664   1.930  1.00  0.00     0.026 A 
HETATM    4  C4  UNL     1      -0.813  -2.271   1.419  1.00  0.00     0.109 A 
HETATM    5  C5  UNL     1       0.287  -1.504   1.214  1.00  0.00     0.075 A 
HETATM    6  C6  UNL     1       0.246  -0.204   1.580  1.00  0.00     0.003 A 
HETATM    7  C7  UNL     1       1.514   0.517   1.265  1.00  0.00     0.094 A 
HETATM    8  C8  UNL     1       2.434  -0.734   0.699  1.00  0.00     0.112 A 
HETATM    9  N1  UNL     1       1.422  -1.838   0.718  1.00  0.00    -0.344 N 
HETATM   10  C9  UNL     1       1.726  -3.203   0.249  1.00  0.00     0.126 C 
HETATM   11  C10 UNL     1       3.321  -0.513  -0.724  1.00  0.00     0.099 C 
HETATM   12  N2  UNL     1       4.168   0.535  -0.274  1.00  0.00    -0.366 N 
HETATM   13  C11 UNL     1       3.167   1.279   0.379  1.00  0.00     0.085 C 
HETATM   14  C12 UNL     1       1.524   0.851  -0.169  1.00  0.00     0.035 C 
HETATM   15  C13 UNL     1       2.699   2.589  -0.121  1.00  0.00     0.082 C 
HETATM   16  C14 UNL     1       1.692   2.141   1.099  1.00  0.00     0.157 C 
HETATM   17  O1  UNL     1       1.172   2.947   1.836  1.00  0.00    -0.296 OA
HETATM   18  C15 UNL     1       2.967   2.041  -1.651  1.00  0.00     0.030 C 
HETATM   19  C16 UNL     1       2.848   0.419  -2.013  1.00  0.00     0.028 C 
HETATM   20  C17 UNL     1       4.501   2.232  -1.819  1.00  0.00    -0.026 C 
HETATM   21  C18 UNL     1       5.239   1.245  -0.907  1.00  0.00     0.120 C 
HETATM   22  C19 UNL     1       5.070   3.103  -2.665  1.00  0.00    -0.032 C 
HETATM   23  C20 UNL     1       6.551   3.273  -2.866  1.00  0.00     0.030 C 
ENDROOT
BRANCH   4  24
HETATM   24  O2  UNL     1      -0.921  -3.580   1.018  1.00  0.00    -0.327 OA
HETATM   25  C21 UNL     1      -0.995  -4.516   2.072  1.00  0.00     0.181 C 
ENDBRANCH   4  24
TORSDOF 1
