REMARK  11 active torsions:
REMARK  status: ('A' for Active; 'I' for Inactive)
REMARK    1  A    between atoms: C2_2  and  O4_30 
REMARK    2  A    between atoms: C5_5  and  C7_7 
REMARK    3  A    between atoms: C7_7  and  C8_8 
REMARK    4  A    between atoms: C8_8  and  C9_9 
REMARK       I    between atoms: C9_9  and  N1_11 
REMARK    5  A    between atoms: N1_11  and  C10_12 
REMARK    6  A    between atoms: C10_12  and  C11_13 
REMARK    7  A    between atoms: C11_13  and  C12_14 
REMARK    8  A    between atoms: C12_14  and  O2_15 
REMARK    9  A    between atoms: O2_15  and  C13_16 
REMARK   10  A    between atoms: C16_19  and  C19_23 
REMARK   11  A    between atoms: C19_23  and  C20_24 
ROOT
HETATM    1  C9  UNL     1      10.377   1.003  -0.102  1.00  0.00     0.273 C 
HETATM    2  O1  UNL     1      10.018   1.847  -0.893  1.00  0.00    -0.266 OA
HETATM    3  N1  UNL     1       9.427   0.519   0.778  1.00  0.00    -0.314 N 
HETATM    4  C21 UNL     1       9.620  -0.545   1.759  1.00  0.00     0.129 C 
ENDROOT
BRANCH   3   5
HETATM    5  C10 UNL     1       8.053   1.038   0.761  1.00  0.00     0.107 C 
BRANCH   5   6
HETATM    6  C11 UNL     1       7.144   0.163  -0.118  1.00  0.00     0.057 C 
BRANCH   6   7
HETATM    7  C12 UNL     1       5.678   0.584  -0.022  1.00  0.00     0.151 C 
BRANCH   7   8
HETATM    8  O2  UNL     1       4.906  -0.280  -0.820  1.00  0.00    -0.330 OA
BRANCH   8   9
HETATM    9  C13 UNL     1       3.546  -0.172  -0.641  1.00  0.00     0.106 A 
HETATM   10  C14 UNL     1       2.882  -0.973   0.222  1.00  0.00     0.057 A 
HETATM   11  C15 UNL     1       1.548  -0.918   0.364  1.00  0.00     0.004 A 
HETATM   12 BR2  UNL     1       3.811  -2.217   1.324  1.00  0.00    -0.047 Br
HETATM   13  C16 UNL     1       0.806  -0.085  -0.384  1.00  0.00    -0.019 A 
HETATM   14  C17 UNL     1       1.445   0.673  -1.290  1.00  0.00     0.004 A 
HETATM   15  C18 UNL     1       2.780   0.616  -1.427  1.00  0.00     0.057 A 
HETATM   16 BR1  UNL     1       3.552   1.725  -2.766  1.00  0.00    -0.047 Br
BRANCH  13  17
HETATM   17  C19 UNL     1      -0.700  -0.023  -0.245  1.00  0.00     0.068 C 
BRANCH  17  18
HETATM   18  C20 UNL     1      -1.159   1.288   0.408  1.00  0.00     0.343 C 
HETATM   19  N2  UNL     1      -2.624   1.306   0.557  1.00  0.00     0.618 N 
ENDBRANCH  17  18
ENDBRANCH  13  17
ENDBRANCH   8   9
ENDBRANCH   7   8
ENDBRANCH   6   7
ENDBRANCH   5   6
ENDBRANCH   3   5
BRANCH   1  20
HETATM   20  C8  UNL     1      11.694   0.626  -0.167  1.00  0.00     0.148 C 
HETATM   21  N3  UNL     1      12.526   1.109  -0.997  1.00  0.00    -0.096 NA
HETATM   22  O3  UNL     1      12.298   2.031  -1.909  1.00  0.00    -0.061 OA
BRANCH  20  23
HETATM   23  C7  UNL     1      12.384  -0.404   0.713  1.00  0.00     0.080 C 
BRANCH  23  24
HETATM   24  C5  UNL     1      13.885  -0.538   0.523  1.00  0.00    -0.015 A 
HETATM   25  C4  UNL     1      14.412  -1.481  -0.275  1.00  0.00    -0.002 A 
HETATM   26  C3  UNL     1      15.740  -1.593  -0.431  1.00  0.00     0.024 A 
HETATM   27  C2  UNL     1      16.615  -0.775   0.189  1.00  0.00     0.100 A 
HETATM   28  C1  UNL     1      16.067   0.170   0.983  1.00  0.00     0.057 A 
HETATM   29  C6  UNL     1      14.739   0.291   1.147  1.00  0.00     0.005 A 
HETATM   30 BR3  UNL     1      17.174   1.397   1.922  1.00  0.00    -0.047 Br
BRANCH  27  31
HETATM   31  O4  UNL     1      17.982  -0.861   0.065  1.00  0.00    -0.328 OA
HETATM   32  C22 UNL     1      18.539  -1.889  -0.719  1.00  0.00     0.181 C 
ENDBRANCH  27  31
ENDBRANCH  23  24
ENDBRANCH  20  23
ENDBRANCH   1  20
TORSDOF 11
