REMARK  1 active torsions:
REMARK  status: ('A' for Active; 'I' for Inactive)
REMARK    1  A    between atoms: C22_23  and  C24_25 
ROOT
HETATM    1  C1  UNL     1       5.566   5.568  -3.932  1.00  0.00     0.024 A 
HETATM    2  C2  UNL     1       5.630   4.314  -4.405  1.00  0.00    -0.002 A 
HETATM    3  C3  UNL     1       6.503   3.992  -5.373  1.00  0.00    -0.022 A 
HETATM    4  C4  UNL     1       7.286   4.964  -5.871  1.00  0.00    -0.002 A 
HETATM    5  C5  UNL     1       7.211   6.216  -5.399  1.00  0.00     0.024 A 
HETATM    6  C6  UNL     1       6.359   6.545  -4.410  1.00  0.00     0.100 A 
HETATM    7  O1  UNL     1       6.325   7.810  -3.887  1.00  0.00    -0.305 OA
HETATM    8  C7  UNL     1       7.505   8.182  -3.296  1.00  0.00     0.125 A 
HETATM    9  C8  UNL     1       8.145   7.378  -2.425  1.00  0.00     0.023 A 
HETATM   10  C9  UNL     1       9.319   7.691  -1.853  1.00  0.00    -0.020 A 
HETATM   11  C10 UNL     1      10.053   6.748  -0.917  1.00  0.00     0.031 C 
HETATM   12  C11 UNL     1       9.202   5.801  -0.051  1.00  0.00     0.031 C 
HETATM   13  C12 UNL     1       8.546   4.617  -0.739  1.00  0.00    -0.020 A 
HETATM   14  C13 UNL     1       7.250   4.338  -0.529  1.00  0.00     0.023 A 
HETATM   15  C14 UNL     1       6.622   3.285  -1.081  1.00  0.00     0.131 A 
HETATM   16  C15 UNL     1       7.297   2.471  -1.928  1.00  0.00     0.025 A 
HETATM   17  C16 UNL     1       6.656   1.423  -2.504  1.00  0.00    -0.002 C 
HETATM   18  C17 UNL     1       6.737   1.061  -3.802  1.00  0.00    -0.020 C 
HETATM   19  C18 UNL     1       7.517   1.747  -4.915  1.00  0.00     0.031 C 
HETATM   20  C19 UNL     1       6.629   2.569  -5.869  1.00  0.00     0.031 C 
HETATM   21  C20 UNL     1       5.914   0.075  -4.200  1.00  0.00     0.023 C 
HETATM   22  C21 UNL     1       5.093  -0.626  -3.402  1.00  0.00     0.131 C 
HETATM   23  C22 UNL     1       5.104  -0.395  -2.070  1.00  0.00     0.027 C 
HETATM   24  C23 UNL     1       5.882   0.652  -1.706  1.00  0.00     0.002 C 
HETATM   25  O6  UNL     1       4.242  -1.490  -4.020  1.00  0.00    -0.190 OA
HETATM   26  C52 UNL     1       8.596   2.752  -2.146  1.00  0.00     0.002 A 
HETATM   27  C53 UNL     1       9.213   3.792  -1.562  1.00  0.00    -0.004 A 
HETATM   28  O7  UNL     1       5.286   3.152  -0.834  1.00  0.00    -0.190 OA
HETATM   29  C54 UNL     1       9.848   8.887  -2.166  1.00  0.00    -0.002 A 
HETATM   30  C55 UNL     1       9.226   9.711  -3.020  1.00  0.00     0.029 A 
HETATM   31  C56 UNL     1       8.061   9.372  -3.595  1.00  0.00     0.154 A 
HETATM   32  O8  UNL     1       7.444  10.198  -4.483  1.00  0.00    -0.188 OA
ENDROOT
BRANCH  23  33
HETATM   33  C24 UNL     1       4.414  -1.112  -1.134  1.00  0.00     0.029 A 
HETATM   34  C25 UNL     1       4.062  -0.534   0.038  1.00  0.00    -0.002 A 
HETATM   35  C26 UNL     1       3.437  -1.166   1.046  1.00  0.00    -0.020 A 
HETATM   36  C27 UNL     1       3.089  -2.441   0.844  1.00  0.00     0.023 A 
HETATM   37  C43 UNL     1       3.158  -0.479   2.372  1.00  0.00     0.031 C 
HETATM   38  C28 UNL     1       3.399  -3.087  -0.292  1.00  0.00     0.125 A 
HETATM   39  C29 UNL     1       4.081  -2.424  -1.254  1.00  0.00     0.154 A 
HETATM   40  O3  UNL     1       3.061  -4.402  -0.504  1.00  0.00    -0.305 OA
HETATM   41  O2  UNL     1       4.482  -3.199  -2.299  1.00  0.00    -0.188 OA
HETATM   42  C30 UNL     1       2.840  -5.181   0.598  1.00  0.00     0.100 A 
HETATM   43  C31 UNL     1       1.594  -5.503   0.993  1.00  0.00     0.024 A 
HETATM   44  C51 UNL     1       3.860  -5.658   1.335  1.00  0.00     0.024 A 
HETATM   45  C32 UNL     1       1.371  -6.256   2.082  1.00  0.00    -0.002 A 
HETATM   46  C33 UNL     1       2.396  -6.711   2.821  1.00  0.00    -0.022 A 
HETATM   47  C34 UNL     1       2.163  -7.528   4.074  1.00  0.00     0.031 C 
HETATM   48  C50 UNL     1       3.644  -6.405   2.427  1.00  0.00    -0.002 A 
HETATM   49  C35 UNL     1       1.960  -6.605   5.293  1.00  0.00     0.031 C 
HETATM   50  C36 UNL     1       0.478  -6.352   5.555  1.00  0.00    -0.020 A 
HETATM   51  C37 UNL     1      -0.241  -5.285   5.126  1.00  0.00    -0.002 A 
HETATM   52  C49 UNL     1      -0.161  -7.368   6.171  1.00  0.00     0.023 A 
HETATM   53  C38 UNL     1       0.251  -4.168   4.535  1.00  0.00     0.025 A 
HETATM   54  C46 UNL     1      -1.572  -5.321   5.359  1.00  0.00     0.002 A 
HETATM   55  C39 UNL     1       1.365  -3.568   4.998  1.00  0.00     0.002 A 
HETATM   56  C45 UNL     1      -0.387  -3.567   3.501  1.00  0.00     0.131 A 
HETATM   57  C40 UNL     1       1.838  -2.425   4.477  1.00  0.00    -0.004 A 
HETATM   58  C41 UNL     1       1.218  -1.832   3.446  1.00  0.00    -0.020 A 
HETATM   59  C42 UNL     1       1.701  -0.519   2.860  1.00  0.00     0.031 C 
HETATM   60  C44 UNL     1       0.117  -2.437   2.974  1.00  0.00     0.023 A 
HETATM   61  O4  UNL     1      -1.490  -4.099   2.900  1.00  0.00    -0.190 OA
HETATM   62  C47 UNL     1      -2.183  -6.337   5.982  1.00  0.00     0.027 A 
HETATM   63  C48 UNL     1      -1.480  -7.393   6.408  1.00  0.00     0.131 A 
HETATM   64  O5  UNL     1      -2.084  -8.435   7.040  1.00  0.00    -0.190 OA
ENDBRANCH  23  33
TORSDOF 1
