REMARK  6 active torsions:
REMARK  status: ('A' for Active; 'I' for Inactive)
REMARK    1  A    between atoms: C1_1  and  N2_25 
REMARK    2  A    between atoms: C2_2  and  O6_23 
REMARK    3  A    between atoms: C6_6  and  C7_7 
REMARK    4  A    between atoms: C7_7  and  O2_9 
REMARK    5  A    between atoms: C14_18  and  C15_19 
REMARK    6  A    between atoms: C15_19  and  O5_21 
ROOT
HETATM    1  C1  UNL     1       0.163  -2.428   0.181  1.00  0.00     0.086 C 
HETATM    2  C2  UNL     1       1.396  -3.016   0.250  1.00  0.00     0.112 C 
HETATM    3  C3  UNL     1       2.473  -2.221   0.148  1.00  0.00     0.052 C 
HETATM    4  C4  UNL     1       2.432  -0.896  -0.004  1.00  0.00     0.120 A 
HETATM    5  C5  UNL     1       1.233  -0.295   0.027  1.00  0.00     0.111 A 
HETATM    6  C6  UNL     1       0.112  -1.052   0.191  1.00  0.00     0.100 C 
HETATM    7  N1  UNL     1       1.311   0.978  -0.070  1.00  0.00    -0.241 NA
HETATM    8  C9  UNL     1       2.313   1.762  -0.195  1.00  0.00     0.109 A 
HETATM    9  C10 UNL     1       3.507   1.131  -0.215  1.00  0.00     0.118 A 
HETATM   10  O3  UNL     1       3.606  -0.222  -0.137  1.00  0.00    -0.304 OA
HETATM   11  C11 UNL     1       4.641   1.840  -0.323  1.00  0.00     0.026 A 
HETATM   12  C12 UNL     1       4.597   3.171  -0.407  1.00  0.00     0.002 A 
HETATM   13  C13 UNL     1       3.407   3.784  -0.390  1.00  0.00     0.007 A 
HETATM   14  C14 UNL     1       2.237   3.120  -0.288  1.00  0.00     0.083 A 
ENDROOT
BRANCH   6  15
HETATM   15  C7  UNL     1      -1.063  -0.381   0.455  1.00  0.00     0.299 C 
HETATM   16  O1  UNL     1      -2.010  -0.972   0.925  1.00  0.00    -0.259 OA
BRANCH  15  17
HETATM   17  O2  UNL     1      -1.219   0.973   0.413  1.00  0.00    -0.296 OA
HETATM   18  C8  UNL     1      -2.462   1.517   0.800  1.00  0.00     0.185 C 
ENDBRANCH  15  17
ENDBRANCH   6  15
BRANCH   1  19
HETATM   19  N2  UNL     1      -0.871  -3.197   0.071  1.00  0.00    -0.343 N 
HETATM   20  C18 UNL     1      -0.892  -4.649   0.412  1.00  0.00     0.126 C 
HETATM   21  C19 UNL     1      -2.100  -2.764  -0.668  1.00  0.00     0.126 C 
ENDBRANCH   1  19
BRANCH   2  22
HETATM   22  O6  UNL     1       1.586  -4.381   0.285  1.00  0.00    -0.327 OA
HETATM   23  C17 UNL     1       2.844  -4.958   0.014  1.00  0.00     0.181 C 
ENDBRANCH   2  22
BRANCH  14  24
HETATM   24  C15 UNL     1       1.040   3.797  -0.288  1.00  0.00     0.297 C 
HETATM   25  O4  UNL     1       0.043   3.106  -0.287  1.00  0.00    -0.259 OA
BRANCH  24  26
HETATM   26  O5  UNL     1       0.732   5.141  -0.316  1.00  0.00    -0.296 OA
HETATM   27  C16 UNL     1       1.627   6.217  -0.240  1.00  0.00     0.185 C 
ENDBRANCH  24  26
ENDBRANCH  14  24
TORSDOF 6
