REMARK  1 active torsions:
REMARK  status: ('A' for Active; 'I' for Inactive)
REMARK    1  A    between atoms: C12_12  and  C15_17 
ROOT
HETATM    1  C1  UNL     1      -2.274  -0.090  -0.196  1.00  0.00     0.173 C 
HETATM    2  C2  UNL     1      -2.336  -1.593  -0.336  1.00  0.00     0.070 C 
HETATM    3  C3  UNL     1      -1.000  -2.184  -0.817  1.00  0.00     0.014 C 
HETATM    4  C4  UNL     1       0.137  -1.606   0.070  1.00  0.00     0.038 C 
HETATM    5  C5  UNL     1       0.132  -0.070   0.091  1.00  0.00    -0.014 C 
HETATM    6  C6  UNL     1      -1.075   0.525  -0.029  1.00  0.00     0.034 C 
HETATM    7  C7  UNL     1       1.304   0.617   0.211  1.00  0.00     0.024 A 
HETATM    8  C8  UNL     1       2.468  -0.019  -0.065  1.00  0.00     0.001 A 
HETATM    9  C9  UNL     1       2.541  -1.314  -0.418  1.00  0.00    -0.004 C 
HETATM   10  C10 UNL     1       1.468  -2.105  -0.414  1.00  0.00    -0.023 C 
HETATM   11  C11 UNL     1       3.641   0.640  -0.046  1.00  0.00    -0.002 A 
HETATM   12  C12 UNL     1       3.733   1.938   0.267  1.00  0.00     0.005 A 
HETATM   13  C13 UNL     1       2.595   2.570   0.600  1.00  0.00     0.152 A 
HETATM   14  C14 UNL     1       1.409   1.924   0.567  1.00  0.00     0.155 A 
HETATM   15  O1  UNL     1       0.353   2.664   1.002  1.00  0.00    -0.188 OA
HETATM   16  O2  UNL     1       2.631   3.879   0.982  1.00  0.00    -0.188 OA
HETATM   17  C18 UNL     1       0.047  -2.045   1.552  1.00  0.00     0.009 C 
HETATM   18  C19 UNL     1      -1.146  -3.723  -0.764  1.00  0.00     0.001 C 
HETATM   19  C20 UNL     1      -0.767  -1.792  -2.297  1.00  0.00     0.001 C 
HETATM   20  O3  UNL     1      -3.300   0.551  -0.270  1.00  0.00    -0.291 OA
ENDROOT
BRANCH  12  21
HETATM   21  C15 UNL     1       5.071   2.668   0.302  1.00  0.00     0.024 C 
HETATM   22  C16 UNL     1       5.640   2.624   1.730  1.00  0.00     0.005 C 
HETATM   23  C17 UNL     1       6.115   2.159  -0.708  1.00  0.00     0.005 C 
ENDBRANCH  12  21
TORSDOF 1
