REMARK  1 active torsions:
REMARK  status: ('A' for Active; 'I' for Inactive)
REMARK    1  A    between atoms: C11_12  and  C13_15 
ROOT
HETATM    1  C1  UNL     1       0.133   2.476   0.602  1.00  0.00     0.277 C 
HETATM    2  O1  UNL     1       1.219   2.226   1.373  1.00  0.00    -0.275 OA
HETATM    3  C2  UNL     1       1.951   1.145   0.968  1.00  0.00     0.124 A 
HETATM    4  C3  UNL     1       1.343   0.020   0.539  1.00  0.00     0.006 A 
HETATM    5  C4  UNL     1      -0.173  -0.065   0.612  1.00  0.00     0.034 C 
HETATM    6  C5  UNL     1      -0.846   1.325   0.665  1.00  0.00     0.100 C 
HETATM    7  C6  UNL     1      -0.738  -0.969  -0.504  1.00  0.00     0.049 C 
HETATM    8  C7  UNL     1       0.016  -2.293  -0.563  1.00  0.00     0.186 C 
HETATM    9  C8  UNL     1       1.524  -2.181  -0.315  1.00  0.00     0.200 C 
HETATM   10  C9  UNL     1       2.087  -1.032   0.149  1.00  0.00     0.035 A 
HETATM   11  C10 UNL     1       3.426  -0.943   0.228  1.00  0.00     0.001 A 
HETATM   12  C11 UNL     1       4.051   0.164   0.667  1.00  0.00     0.005 A 
HETATM   13  C12 UNL     1       3.297   1.217   1.037  1.00  0.00     0.149 A 
HETATM   14  O2  UNL     1       3.857   2.380   1.474  1.00  0.00    -0.188 OA
HETATM   15  O3  UNL     1       2.187  -3.158  -0.591  1.00  0.00    -0.289 OA
HETATM   16  O4  UNL     1      -0.222  -2.814  -1.849  1.00  0.00    -0.296 OA
HETATM   17  C16 UNL     1      -0.614  -1.855  -2.719  1.00  0.00     0.271 C 
HETATM   18  C17 UNL     1      -0.780  -0.526  -1.986  1.00  0.00     0.081 C 
HETATM   19  C18 UNL     1      -2.139   0.053  -2.434  1.00  0.00     0.010 C 
HETATM   20  C19 UNL     1       0.359   0.401  -2.435  1.00  0.00     0.010 C 
HETATM   21  O5  UNL     1      -0.815  -2.043  -3.899  1.00  0.00    -0.264 OA
HETATM   22  C20 UNL     1      -0.455  -0.737   1.986  1.00  0.00     0.005 C 
HETATM   23  O6  UNL     1      -0.030   3.491  -0.038  1.00  0.00    -0.264 OA
ENDROOT
BRANCH  12  24
HETATM   24  C13 UNL     1       5.576   0.186   0.715  1.00  0.00     0.024 C 
HETATM   25  C14 UNL     1       6.159   1.123  -0.355  1.00  0.00     0.005 C 
HETATM   26  C15 UNL     1       6.140   0.492   2.113  1.00  0.00     0.005 C 
ENDBRANCH  12  24
TORSDOF 1
