REMARK  4 active torsions:
REMARK  status: ('A' for Active; 'I' for Inactive)
REMARK    1  A    between atoms: C1_1  and  O7_29 
REMARK    2  A    between atoms: C2_2  and  O6_27 
REMARK    3  A    between atoms: C3_3  and  O5_25 
REMARK    4  A    between atoms: C13_13  and  O3_20 
ROOT
HETATM    1  C1  UNL     1      -0.876   0.711   0.034  1.00  0.00     0.118 C 
HETATM    2  C2  UNL     1       0.015   1.515  -0.577  1.00  0.00     0.138 C 
HETATM    3  C3  UNL     1       1.340   1.200  -0.589  1.00  0.00     0.118 C 
HETATM    4  C4  UNL     1       1.818   0.044  -0.007  1.00  0.00     0.024 C 
HETATM    5  C5  UNL     1       0.838  -0.907  -0.048  1.00  0.00     0.009 C 
HETATM    6  C6  UNL     1      -0.448  -0.551   0.104  1.00  0.00     0.024 C 
HETATM    7  C7  UNL     1       0.918  -2.390  -0.450  1.00  0.00     0.138 C 
HETATM    8  C8  UNL     1       2.214  -2.930  -1.042  1.00  0.00     0.034 C 
HETATM    9  C9  UNL     1       2.695  -3.597   0.242  1.00  0.00     0.037 C 
HETATM   10  C10 UNL     1       3.015  -2.493   1.249  1.00  0.00     0.029 C 
HETATM   11  C11 UNL     1       3.751  -1.312   0.667  1.00  0.00    -0.018 C 
HETATM   12  C12 UNL     1       3.152  -0.136   0.306  1.00  0.00     0.022 C 
HETATM   13  C13 UNL     1       4.003   0.919   0.530  1.00  0.00     0.118 C 
HETATM   14  C14 UNL     1       5.336   0.728   0.495  1.00  0.00     0.141 A 
HETATM   15  C15 UNL     1       5.892  -0.479   0.491  1.00  0.00     0.121 A 
HETATM   16  C16 UNL     1       5.083  -1.517   0.667  1.00  0.00     0.022 C 
HETATM   17  O1  UNL     1       7.118  -0.447   0.495  1.00  0.00    -0.299 OA
HETATM   18  C17 UNL     1       7.486   0.930   0.456  1.00  0.00     0.304 A 
HETATM   19  O2  UNL     1       6.218   1.586   0.503  1.00  0.00    -0.298 OA
HETATM   20  C19 UNL     1       1.421  -4.269   0.734  1.00  0.00     0.143 C 
HETATM   21  O4  UNL     1       0.434  -3.288   0.532  1.00  0.00    -0.352 OA
HETATM   22  C20 UNL     1       2.031  -3.910  -2.215  1.00  0.00     0.003 C 
ENDROOT
BRANCH   1  23
HETATM   23  O7  UNL     1      -2.217   1.003   0.098  1.00  0.00    -0.326 OA
HETATM   24  C23 UNL     1      -2.596   1.606   1.314  1.00  0.00     0.181 C 
ENDBRANCH   1  23
BRANCH   2  25
HETATM   25  O6  UNL     1      -0.468   2.715  -1.043  1.00  0.00    -0.324 OA
HETATM   26  C22 UNL     1      -0.964   2.654  -2.362  1.00  0.00     0.182 C 
ENDBRANCH   2  25
BRANCH   3  27
HETATM   27  O5  UNL     1       2.218   2.052  -1.246  1.00  0.00    -0.326 OA
HETATM   28  C21 UNL     1       2.135   3.462  -1.145  1.00  0.00     0.181 C 
ENDBRANCH   3  27
BRANCH  13  29
HETATM   29  O3  UNL     1       3.588   2.216   0.706  1.00  0.00    -0.326 OA
HETATM   30  C18 UNL     1       3.825   2.752   1.990  1.00  0.00     0.181 C 
ENDBRANCH  13  29
TORSDOF 4
