REMARK  3 active torsions:
REMARK  status: ('A' for Active; 'I' for Inactive)
REMARK    1  A    between atoms: C13_15  and  C14_17 
REMARK    2  A    between atoms: C14_17  and  C15_18 
REMARK    3  A    between atoms: C15_18  and  C16_19 
ROOT
HETATM    1  C1  UNL     1       0.614  -0.258  -0.698  1.00  0.00     0.046 A 
HETATM    2  C2  UNL     1       1.834  -0.772  -0.385  1.00  0.00     0.218 A 
HETATM    3  C3  UNL     1       2.927   0.039  -0.457  1.00  0.00     0.136 A 
HETATM    4  C4  UNL     1       2.788   1.318  -0.855  1.00  0.00     0.064 A 
HETATM    5  C5  UNL     1       1.570   1.841  -1.161  1.00  0.00     0.198 A 
HETATM    6  C6  UNL     1       0.485   1.026  -1.077  1.00  0.00     0.042 A 
HETATM    7  C7  UNL     1      -0.741   1.498  -1.374  1.00  0.00     0.005 A 
HETATM    8  C8  UNL     1      -1.820   0.705  -1.295  1.00  0.00     0.028 A 
HETATM    9  C9  UNL     1      -1.709  -0.580  -0.920  1.00  0.00     0.131 A 
HETATM   10  C10 UNL     1      -0.481  -1.039  -0.626  1.00  0.00     0.031 A 
HETATM   11  O1  UNL     1      -2.798  -1.391  -0.838  1.00  0.00    -0.190 OA
HETATM   12  O2  UNL     1       1.455   2.998  -1.505  1.00  0.00    -0.286 OA
HETATM   13  C11 UNL     1       3.880   2.100  -0.914  1.00  0.00     0.003 C 
HETATM   14  C12 UNL     1       5.095   1.591  -0.679  1.00  0.00     0.001 C 
HETATM   15  C13 UNL     1       5.318   0.116  -0.452  1.00  0.00     0.117 C 
HETATM   16  O3  UNL     1       4.123  -0.537  -0.106  1.00  0.00    -0.328 OA
HETATM   17  C20 UNL     1       5.812  -0.498  -1.769  1.00  0.00     0.035 C 
HETATM   18  O4  UNL     1       1.959  -1.926  -0.035  1.00  0.00    -0.284 OA
ENDROOT
BRANCH  15  19
HETATM   19  C14 UNL     1       6.303  -0.130   0.705  1.00  0.00     0.037 C 
BRANCH  19  20
HETATM   20  C15 UNL     1       7.757   0.328   0.496  1.00  0.00     0.028 C 
BRANCH  20  21
HETATM   21  C16 UNL     1       8.559   0.128   1.761  1.00  0.00    -0.035 C 
HETATM   22  C17 UNL     1       9.633  -0.660   1.952  1.00  0.00    -0.048 C 
HETATM   23  C18 UNL     1      10.301  -0.735   3.308  1.00  0.00     0.026 C 
HETATM   24  C19 UNL     1      10.280  -1.533   0.903  1.00  0.00     0.026 C 
ENDBRANCH  20  21
ENDBRANCH  19  20
ENDBRANCH  15  19
TORSDOF 3
