REMARK  10 active torsions:
REMARK  status: ('A' for Active; 'I' for Inactive)
REMARK    1  A    between atoms: C1_1  and  C2_2 
REMARK    2  A    between atoms: C1_1  and  C10_17 
REMARK    3  A    between atoms: C2_2  and  C3_3 
REMARK       I    between atoms: C3_3  and  N1_4 
REMARK    4  A    between atoms: N1_4  and  C4_5 
REMARK    5  A    between atoms: C4_5  and  C5_6 
REMARK    6  A    between atoms: C4_5  and  C7_9 
REMARK    7  A    between atoms: C5_6  and  S1_7 
REMARK       I    between atoms: C7_9  and  N2_11 
REMARK    8  A    between atoms: N2_11  and  C8_12 
REMARK    9  A    between atoms: C8_12  and  C9_13 
REMARK   10  A    between atoms: C10_17  and  C11_18 
ROOT
HETATM    1  C4  UNL     1       1.460  -1.030   1.263  1.00  0.00     0.197 C 
ENDROOT
BRANCH   1   2
HETATM    2  N1  UNL     1       0.560  -1.399   0.158  1.00  0.00    -0.229 NA
HETATM    3  C3  UNL     1      -0.790  -1.173   0.204  1.00  0.00     0.252 C 
HETATM    4  O4  UNL     1      -1.346  -0.749   1.190  1.00  0.00    -0.271 OA
BRANCH   3   5
HETATM    5  C2  UNL     1      -1.514  -1.447  -1.103  1.00  0.00     0.092 C 
BRANCH   5   6
HETATM    6  C1  UNL     1      -2.896  -0.779  -1.207  1.00  0.00     0.060 C 
BRANCH   6   7
HETATM    7  C10 UNL     1      -2.843   0.753  -1.364  1.00  0.00     0.388 C 
HETATM    8  N3  UNL     1      -2.053   1.373  -0.287  1.00  0.00     0.628 N 
BRANCH   7   9
HETATM    9  C11 UNL     1      -4.202   1.426  -1.390  1.00  0.00     0.224 C 
HETATM   10  O5  UNL     1      -4.442   2.519  -0.935  1.00  0.00    -0.646 OA
HETATM   11  O6  UNL     1      -5.144   0.699  -2.014  1.00  0.00    -0.646 OA
ENDBRANCH   7   9
ENDBRANCH   6   7
ENDBRANCH   5   6
ENDBRANCH   3   5
ENDBRANCH   1   2
BRANCH   1  12
HETATM   12  C5  UNL     1       2.652  -2.007   1.317  1.00  0.00     0.092 C 
BRANCH  12  13
HETATM   13  S1  UNL     1       3.549  -1.820   2.896  1.00  0.00    -0.137 SA
HETATM   14  C6  UNL     1       4.886  -3.005   2.580  1.00  0.00     0.069 C 
ENDBRANCH  12  13
ENDBRANCH   1  12
BRANCH   1  15
HETATM   15  C7  UNL     1       1.849   0.436   1.095  1.00  0.00     0.275 C 
HETATM   16  O1  UNL     1       2.993   0.823   1.082  1.00  0.00    -0.268 OA
HETATM   17  N2  UNL     1       0.785   1.272   0.896  1.00  0.00    -0.225 NA
BRANCH  17  18
HETATM   18  C8  UNL     1       0.939   2.671   0.495  1.00  0.00     0.226 C 
BRANCH  18  19
HETATM   19  C9  UNL     1       0.919   2.751  -1.023  1.00  0.00     0.211 C 
HETATM   20  O2  UNL     1       0.790   4.020  -1.449  1.00  0.00    -0.646 OA
HETATM   21  O3  UNL     1       0.982   1.821  -1.792  1.00  0.00    -0.646 OA
ENDBRANCH  18  19
ENDBRANCH  17  18
ENDBRANCH   1  15
TORSDOF 10
