REMARK  4 active torsions:
REMARK  status: ('A' for Active; 'I' for Inactive)
REMARK    1  A    between atoms: C12_14  and  C24_29 
REMARK    2  A    between atoms: C15_19  and  C19_24 
REMARK    3  A    between atoms: C19_24  and  C20_25 
REMARK    4  A    between atoms: C24_29  and  C25_30 
ROOT
HETATM    1  C1  UNL     1      -6.185  -0.344  -1.801  1.00  0.00     0.117 C 
HETATM    2  C2  UNL     1      -6.062  -1.774  -1.346  1.00  0.00     0.001 C 
HETATM    3  C3  UNL     1      -4.878  -2.282  -0.984  1.00  0.00     0.002 C 
HETATM    4  C4  UNL     1      -3.783  -1.502  -0.911  1.00  0.00     0.048 A 
HETATM    5  C5  UNL     1      -3.953  -0.171  -1.046  1.00  0.00     0.098 A 
HETATM    6  O1  UNL     1      -5.162   0.439  -1.256  1.00  0.00    -0.331 OA
HETATM    7  C6  UNL     1      -2.850   0.590  -0.981  1.00  0.00     0.049 A 
HETATM    8  C7  UNL     1      -1.613   0.108  -0.784  1.00  0.00     0.101 A 
HETATM    9  C8  UNL     1      -1.483  -1.233  -0.609  1.00  0.00     0.087 A 
HETATM   10  C9  UNL     1      -2.567  -2.042  -0.665  1.00  0.00     0.138 A 
HETATM   11  O2  UNL     1      -2.478  -3.400  -0.536  1.00  0.00    -0.190 OA
HETATM   12  C10 UNL     1      -0.234  -1.747  -0.385  1.00  0.00     0.234 C 
HETATM   13  C11 UNL     1       0.886  -0.740  -0.522  1.00  0.00     0.306 C 
HETATM   14  C12 UNL     1       0.429   0.542   0.147  1.00  0.00     0.180 C 
HETATM   15  O3  UNL     1      -0.593   1.030  -0.658  1.00  0.00    -0.326 OA
HETATM   16  C13 UNL     1       1.801   1.151   0.091  1.00  0.00     0.030 A 
HETATM   17  C14 UNL     1       2.722   0.178   0.050  1.00  0.00     0.094 A 
HETATM   18  O4  UNL     1       2.218  -0.944  -0.057  1.00  0.00    -0.300 OA
HETATM   19  C15 UNL     1       4.036   0.454   0.118  1.00  0.00     0.030 A 
HETATM   20  C16 UNL     1       4.405   1.753   0.181  1.00  0.00     0.129 A 
HETATM   21  C17 UNL     1       3.461   2.715   0.207  1.00  0.00     0.027 A 
HETATM   22  C18 UNL     1       2.149   2.437   0.181  1.00  0.00     0.002 A 
HETATM   23  O5  UNL     1       5.716   2.122   0.204  1.00  0.00    -0.190 OA
HETATM   24  O6  UNL     1       1.085  -0.548  -1.925  1.00  0.00    -0.184 OA
HETATM   25  O7  UNL     1       0.068  -2.895  -0.160  1.00  0.00    -0.286 OA
HETATM   26  C29 UNL     1      -7.521   0.252  -1.349  1.00  0.00     0.035 C 
HETATM   27  C30 UNL     1      -6.074  -0.298  -3.330  1.00  0.00     0.035 C 
ENDROOT
BRANCH  14  28
HETATM   28  C24 UNL     1       0.005   0.412   1.627  1.00  0.00     0.063 C 
BRANCH  28  29
HETATM   29  C25 UNL     1      -1.186   1.271   1.979  1.00  0.00    -0.032 C 
HETATM   30  C26 UNL     1      -2.404   0.870   2.390  1.00  0.00    -0.048 C 
HETATM   31  C27 UNL     1      -3.500   1.879   2.649  1.00  0.00     0.026 C 
HETATM   32  C28 UNL     1      -2.827  -0.561   2.625  1.00  0.00     0.026 C 
ENDBRANCH  28  29
ENDBRANCH  14  28
BRANCH  19  33
HETATM   33  C19 UNL     1       5.052  -0.671   0.055  1.00  0.00     0.056 C 
BRANCH  33  34
HETATM   34  C20 UNL     1       6.239  -0.469   0.963  1.00  0.00    -0.030 C 
HETATM   35  C21 UNL     1       7.542  -0.519   0.629  1.00  0.00    -0.048 C 
HETATM   36  C22 UNL     1       8.618  -0.260   1.659  1.00  0.00     0.026 C 
HETATM   37  C23 UNL     1       8.078  -0.809  -0.753  1.00  0.00     0.026 C 
ENDBRANCH  33  34
ENDBRANCH  19  33
TORSDOF 4
