REMARK  6 active torsions:
REMARK  status: ('A' for Active; 'I' for Inactive)
REMARK    1  A    between atoms: C1_1  and  C2_2 
REMARK    2  A    between atoms: C1_1  and  C27_34 
REMARK    3  A    between atoms: C10_12  and  C22_27 
REMARK    4  A    between atoms: C13_17  and  C17_22 
REMARK    5  A    between atoms: C17_22  and  C18_23 
REMARK    6  A    between atoms: C22_27  and  C23_28 
ROOT
HETATM    1  C2  UNL     1      -3.983  -0.170  -0.629  1.00  0.00     0.033 A 
HETATM    2  C3  UNL     1      -4.023   1.122  -0.256  1.00  0.00     0.131 A 
HETATM    3  O1  UNL     1      -5.184   1.748   0.080  1.00  0.00    -0.190 OA
HETATM    4  C4  UNL     1      -2.864   1.786  -0.164  1.00  0.00     0.051 A 
HETATM    5  C5  UNL     1      -1.669   1.249  -0.459  1.00  0.00     0.101 A 
HETATM    6  C6  UNL     1      -1.655  -0.057  -0.835  1.00  0.00     0.087 A 
HETATM    7  C7  UNL     1      -2.804  -0.767  -0.907  1.00  0.00     0.134 A 
HETATM    8  O2  UNL     1      -2.811  -2.088  -1.250  1.00  0.00    -0.190 OA
HETATM    9  C8  UNL     1      -0.465  -0.654  -1.153  1.00  0.00     0.234 C 
HETATM   10  C9  UNL     1       0.670   0.342  -1.255  1.00  0.00     0.306 C 
HETATM   11  C10 UNL     1       0.594   1.261  -0.053  1.00  0.00     0.180 C 
HETATM   12  O3  UNL     1      -0.549   2.027  -0.242  1.00  0.00    -0.326 OA
HETATM   13  C11 UNL     1       1.936   1.875  -0.344  1.00  0.00     0.030 A 
HETATM   14  C12 UNL     1       2.687   1.005  -1.032  1.00  0.00     0.094 A 
HETATM   15  O4  UNL     1       2.051  -0.004  -1.357  1.00  0.00    -0.300 OA
HETATM   16  C13 UNL     1       3.979   1.251  -1.313  1.00  0.00     0.030 A 
HETATM   17  C14 UNL     1       4.492   2.437  -0.910  1.00  0.00     0.129 A 
HETATM   18  C15 UNL     1       3.710   3.304  -0.234  1.00  0.00     0.027 A 
HETATM   19  C16 UNL     1       2.432   3.041   0.074  1.00  0.00     0.002 A 
HETATM   20  O5  UNL     1       5.777   2.804  -1.166  1.00  0.00    -0.190 OA
HETATM   21  O6  UNL     1       0.406   1.114  -2.434  1.00  0.00    -0.184 OA
HETATM   22  O7  UNL     1      -0.276  -1.813  -1.447  1.00  0.00    -0.286 OA
ENDROOT
BRANCH   1  23
HETATM   23  C1  UNL     1      -5.266  -0.978  -0.747  1.00  0.00     0.056 C 
BRANCH  23  24
HETATM   24  C27 UNL     1      -5.365  -1.945   0.402  1.00  0.00    -0.030 C 
HETATM   25  C28 UNL     1      -5.746  -3.234   0.350  1.00  0.00    -0.048 C 
HETATM   26  C29 UNL     1      -5.785  -4.079   1.603  1.00  0.00     0.026 C 
HETATM   27  C30 UNL     1      -6.182  -3.962  -0.899  1.00  0.00     0.026 C 
ENDBRANCH  23  24
ENDBRANCH   1  23
BRANCH  11  28
HETATM   28  C22 UNL     1       0.679   0.642   1.353  1.00  0.00     0.063 C 
BRANCH  28  29
HETATM   29  C23 UNL     1      -0.541  -0.083   1.862  1.00  0.00    -0.032 C 
HETATM   30  C24 UNL     1      -1.535   0.433   2.609  1.00  0.00    -0.048 C 
HETATM   31  C25 UNL     1      -2.706  -0.418   3.041  1.00  0.00     0.026 C 
HETATM   32  C26 UNL     1      -1.605   1.867   3.076  1.00  0.00     0.026 C 
ENDBRANCH  28  29
ENDBRANCH  11  28
BRANCH  16  33
HETATM   33  C17 UNL     1       4.753   0.210  -2.099  1.00  0.00     0.056 C 
BRANCH  33  34
HETATM   34  C18 UNL     1       6.252   0.356  -2.130  1.00  0.00    -0.030 C 
HETATM   35  C19 UNL     1       7.112  -0.054  -1.180  1.00  0.00    -0.048 C 
HETATM   36  C20 UNL     1       8.600   0.170  -1.324  1.00  0.00     0.026 C 
HETATM   37  C21 UNL     1       6.701  -0.743   0.098  1.00  0.00     0.026 C 
ENDBRANCH  33  34
ENDBRANCH  16  33
TORSDOF 6
