REMARK  1 active torsions:
REMARK  status: ('A' for Active; 'I' for Inactive)
REMARK    1  A    between atoms: C3_3  and  C7_7 
ROOT
HETATM    1  C7  UNL     1       2.286   0.774  -0.531  1.00  0.00     0.009 C 
HETATM    2  C8  UNL     1       1.108   0.105  -0.380  1.00  0.00     0.045 A 
HETATM    3  C9  UNL     1       1.164  -1.247  -0.294  1.00  0.00     0.105 A 
HETATM    4  O1  UNL     1       2.332  -1.958  -0.333  1.00  0.00    -0.273 OA
HETATM    5  C10 UNL     1       3.454  -1.270  -0.625  1.00  0.00     0.300 C 
HETATM    6  C11 UNL     1       3.431   0.079  -0.699  1.00  0.00     0.069 C 
HETATM    7  O2  UNL     1       4.505  -1.864  -0.767  1.00  0.00    -0.259 OA
HETATM    8  C12 UNL     1       0.040  -1.977  -0.153  1.00  0.00     0.053 A 
HETATM    9  C13 UNL     1      -1.176  -1.409  -0.139  1.00  0.00     0.096 A 
HETATM   10  C14 UNL     1      -1.230  -0.070  -0.289  1.00  0.00     0.044 A 
HETATM   11  C15 UNL     1      -0.120   0.696  -0.417  1.00  0.00     0.098 A 
HETATM   12  O3  UNL     1      -0.244   2.051  -0.622  1.00  0.00    -0.332 OA
HETATM   13  C16 UNL     1      -1.412   2.701  -0.205  1.00  0.00     0.117 C 
HETATM   14  C17 UNL     1      -2.603   1.821  -0.431  1.00  0.00     0.001 C 
HETATM   15  C18 UNL     1      -2.451   0.495  -0.376  1.00  0.00     0.002 C 
HETATM   16  C19 UNL     1      -1.530   4.011  -0.988  1.00  0.00     0.035 C 
HETATM   17  C20 UNL     1      -1.344   2.995   1.300  1.00  0.00     0.035 C 
HETATM   18  O4  UNL     1      -2.323  -2.142   0.045  1.00  0.00    -0.333 OA
HETATM   19  C21 UNL     1      -2.196  -3.376   0.684  1.00  0.00     0.124 C 
HETATM   20  C22 UNL     1      -1.172  -4.218  -0.073  1.00  0.00     0.063 C 
HETATM   21  C23 UNL     1       0.166  -3.482  -0.021  1.00  0.00     0.180 C 
HETATM   22  O5  UNL     1       0.829  -3.734   1.204  1.00  0.00    -0.218 OA
HETATM   23  C24 UNL     1      -1.056  -5.662   0.439  1.00  0.00     0.005 C 
HETATM   24  C25 UNL     1      -3.587  -4.008   0.749  1.00  0.00     0.033 C 
ENDROOT
BRANCH   1  25
HETATM   25  C3  UNL     1       2.493   2.112  -0.468  1.00  0.00     0.000 A 
HETATM   26  C2  UNL     1       3.295   2.763  -1.338  1.00  0.00     0.000 A 
HETATM   27  C1  UNL     1       3.526   4.081  -1.240  1.00  0.00     0.000 A 
HETATM   28  C6  UNL     1       2.985   4.787  -0.238  1.00  0.00     0.000 A 
HETATM   29  C5  UNL     1       2.228   4.155   0.670  1.00  0.00     0.000 A 
HETATM   30  C4  UNL     1       2.000   2.837   0.556  1.00  0.00     0.000 A 
ENDBRANCH   1  25
TORSDOF 1
