REMARK  4 active torsions:
REMARK  status: ('A' for Active; 'I' for Inactive)
REMARK    1  A    between atoms: C21_21  and  O1_25 
REMARK    2  A    between atoms: O1_25  and  C25_26 
REMARK    3  A    between atoms: C29_31  and  O3_32 
REMARK    4  A    between atoms: O3_32  and  C30_33 
ROOT
HETATM    1  C1  UNL     1       2.963   6.369   0.490  1.00  0.00     0.005 C 
HETATM    2  C2  UNL     1       2.602   5.611  -0.826  1.00  0.00     0.009 C 
HETATM    3  C3  UNL     1       4.011   5.080  -1.168  1.00  0.00     0.049 C 
HETATM    4  C4  UNL     1       4.834   6.325  -1.010  1.00  0.00    -0.042 C 
HETATM    5  C5  UNL     1       4.369   6.979   0.269  1.00  0.00     0.022 C 
HETATM    6  C6  UNL     1       5.747   6.838  -1.844  1.00  0.00    -0.009 C 
HETATM    7  C7  UNL     1       4.048   4.242  -2.430  1.00  0.00     0.156 C 
HETATM    8  C8  UNL     1       3.165   3.010  -2.203  1.00  0.00     0.033 C 
HETATM    9  C9  UNL     1       1.689   3.284  -1.776  1.00  0.00     0.005 C 
HETATM   10  C10 UNL     1       1.648   4.391  -0.664  1.00  0.00     0.031 C 
HETATM   11  C11 UNL     1       0.196   4.721  -0.299  1.00  0.00     0.152 C 
HETATM   12  C12 UNL     1      -0.545   3.484   0.208  1.00  0.00     0.033 C 
HETATM   13  C13 UNL     1      -0.505   2.296  -0.776  1.00  0.00     0.003 C 
HETATM   14  C14 UNL     1       0.967   1.968  -1.216  1.00  0.00     0.000 C 
HETATM   15  C15 UNL     1       0.892   0.855  -2.294  1.00  0.00     0.000 C 
HETATM   16  C16 UNL     1       0.025  -0.362  -1.923  1.00  0.00     0.000 C 
HETATM   17  C17 UNL     1      -1.411   0.056  -1.560  1.00  0.00     0.002 C 
HETATM   18  C18 UNL     1      -1.427   1.080  -0.381  1.00  0.00     0.000 C 
HETATM   19  C19 UNL     1      -2.921   1.494  -0.271  1.00  0.00     0.003 C 
HETATM   20  C20 UNL     1      -3.911   0.336  -0.013  1.00  0.00     0.030 C 
HETATM   21  C21 UNL     1      -3.401  -1.081  -0.329  1.00  0.00     0.118 C 
HETATM   22  C22 UNL     1      -2.506  -1.068  -1.592  1.00  0.00     0.025 C 
HETATM   23  C23 UNL     1      -1.917  -2.474  -1.857  1.00  0.00     0.002 C 
HETATM   24  C24 UNL     1      -3.449  -0.824  -2.809  1.00  0.00     0.002 C 
HETATM   25  C36 UNL     1      -1.003   0.530   1.000  1.00  0.00     0.000 C 
HETATM   26  C37 UNL     1       1.785   1.337  -0.052  1.00  0.00     0.000 C 
HETATM   27  O10 UNL     1       0.136   5.694   0.716  1.00  0.00    -0.224 OA
HETATM   28  C38 UNL     1       1.005   3.779  -3.083  1.00  0.00     0.000 C 
HETATM   29  O11 UNL     1       5.374   3.810  -2.640  1.00  0.00    -0.223 OA
HETATM   30  C39 UNL     1       2.106   6.695  -1.812  1.00  0.00     0.001 C 
ENDROOT
BRANCH  21  31
HETATM   31  O1  UNL     1      -2.716  -1.560   0.796  1.00  0.00    -0.332 OA
BRANCH  31  32
HETATM   32  C25 UNL     1      -2.876  -2.913   1.156  1.00  0.00     0.267 C 
HETATM   33  O2  UNL     1      -4.101  -3.077   1.835  1.00  0.00    -0.326 OA
HETATM   34  C26 UNL     1      -4.151  -2.501   3.112  1.00  0.00     0.181 C 
HETATM   35  C27 UNL     1      -3.093  -3.115   4.006  1.00  0.00     0.214 C 
HETATM   36  C28 UNL     1      -1.716  -2.877   3.422  1.00  0.00     0.217 C 
HETATM   37  O9  UNL     1      -3.322  -4.501   4.109  1.00  0.00    -0.218 OA
HETATM   38  C29 UNL     1      -1.663  -3.350   1.972  1.00  0.00     0.207 C 
HETATM   39  O8  UNL     1      -1.420  -1.503   3.497  1.00  0.00    -0.218 OA
BRANCH  38  40
HETATM   40  O3  UNL     1      -1.516  -4.744   2.002  1.00  0.00    -0.324 OA
BRANCH  40  41
HETATM   41  C30 UNL     1      -1.012  -5.365   0.834  1.00  0.00     0.270 C 
HETATM   42  O4  UNL     1      -1.064  -6.747   1.145  1.00  0.00    -0.329 OA
HETATM   43  C31 UNL     1      -0.164  -7.157   2.144  1.00  0.00     0.151 C 
HETATM   44  C32 UNL     1       1.268  -6.832   1.747  1.00  0.00     0.212 C 
HETATM   45  C35 UNL     1      -0.361  -8.657   2.368  1.00  0.00     0.035 C 
HETATM   46  C33 UNL     1       1.412  -5.358   1.437  1.00  0.00     0.220 C 
HETATM   47  O7  UNL     1       2.162  -7.137   2.790  1.00  0.00    -0.218 OA
HETATM   48  C34 UNL     1       0.383  -4.946   0.410  1.00  0.00     0.241 C 
HETATM   49  O6  UNL     1       2.699  -5.133   0.915  1.00  0.00    -0.218 OA
HETATM   50  O5  UNL     1       0.720  -5.571  -0.808  1.00  0.00    -0.215 OA
ENDBRANCH  40  41
ENDBRANCH  38  40
ENDBRANCH  31  32
ENDBRANCH  21  31
TORSDOF 4
