REMARK  20 active torsions:
REMARK  status: ('A' for Active; 'I' for Inactive)
REMARK    1  A    between atoms: C1_1  and  O19_59 
REMARK    2  A    between atoms: C2_2  and  O17_55 
REMARK    3  A    between atoms: C3_3  and  O15_51 
REMARK    4  A    between atoms: C4_4  and  O2_8 
REMARK    5  A    between atoms: O2_8  and  C7_9 
REMARK    6  A    between atoms: C7_9  and  C8_10 
REMARK    7  A    between atoms: C9_11  and  O13_47 
REMARK    8  A    between atoms: C10_12  and  C32_43 
REMARK    9  A    between atoms: C11_13  and  O10_39 
REMARK   10  A    between atoms: C12_14  and  O4_16 
REMARK   11  A    between atoms: O4_16  and  C13_17 
REMARK   12  A    between atoms: C20_25  and  C22_28 
REMARK   13  A    between atoms: C25_31  and  O7_34 
REMARK   14  A    between atoms: O7_34  and  C28_35 
REMARK   15  A    between atoms: O10_39  and  C30_40 
REMARK   16  A    between atoms: C32_43  and  C33_44 
REMARK   17  A    between atoms: O13_47  and  C35_48 
REMARK   18  A    between atoms: O15_51  and  C37_52 
REMARK   19  A    between atoms: O17_55  and  C39_56 
REMARK   20  A    between atoms: O19_59  and  C41_60 
ROOT
HETATM    1  C8  UNL     1       1.554   2.955   1.392  1.00  0.00     0.175 C 
HETATM    2  C9  UNL     1       2.611   4.058   1.319  1.00  0.00     0.157 C 
HETATM    3  C10 UNL     1       3.700   3.764   0.270  1.00  0.00     0.071 C 
HETATM    4  C11 UNL     1       4.193   2.317   0.419  1.00  0.00     0.184 C 
HETATM    5  C12 UNL     1       3.046   1.317   0.563  1.00  0.00     0.269 C 
HETATM    6  O3  UNL     1       2.158   1.706   1.583  1.00  0.00    -0.326 OA
ENDROOT
BRANCH   5   7
HETATM    7  O4  UNL     1       3.614   0.086   0.963  1.00  0.00    -0.304 OA
BRANCH   7   8
HETATM    8  C13 UNL     1       2.901  -1.087   0.919  1.00  0.00     0.101 A 
HETATM    9  C14 UNL     1       3.540  -2.219   0.578  1.00  0.00     0.052 A 
HETATM   10  C15 UNL     1       2.958  -3.427   0.493  1.00  0.00     0.138 A 
HETATM   11  C16 UNL     1       1.638  -3.532   0.772  1.00  0.00     0.087 A 
HETATM   12  O9  UNL     1       3.755  -4.476   0.136  1.00  0.00    -0.190 OA
HETATM   13  C17 UNL     1       0.956  -2.425   1.113  1.00  0.00     0.107 A 
HETATM   14  C21 UNL     1       0.981  -4.730   0.710  1.00  0.00     0.201 A 
HETATM   15  C18 UNL     1       1.587  -1.237   1.156  1.00  0.00     0.049 A 
HETATM   16  O5  UNL     1      -0.366  -2.462   1.414  1.00  0.00    -0.305 OA
HETATM   17  C19 UNL     1      -0.967  -3.675   1.343  1.00  0.00     0.126 A 
HETATM   18  C20 UNL     1      -0.360  -4.829   0.991  1.00  0.00     0.064 A 
HETATM   19  O6  UNL     1       1.642  -5.685   0.380  1.00  0.00    -0.286 OA
BRANCH  18  20
HETATM   20  C22 UNL     1      -1.061  -6.003   0.927  1.00  0.00     0.005 A 
HETATM   21  C23 UNL     1      -2.393  -6.075   1.163  1.00  0.00     0.002 A 
HETATM   22  C24 UNL     1      -3.119  -7.202   1.092  1.00  0.00     0.025 A 
HETATM   23  C25 UNL     1      -2.583  -8.391   0.777  1.00  0.00     0.103 A 
HETATM   24  C26 UNL     1      -1.261  -8.355   0.544  1.00  0.00     0.025 A 
HETATM   25  C27 UNL     1      -0.549  -7.218   0.619  1.00  0.00     0.002 A 
BRANCH  23  26
HETATM   26  O7  UNL     1      -3.377  -9.508   0.711  1.00  0.00    -0.276 OA
BRANCH  26  27
HETATM   27  C28 UNL     1      -2.780 -10.693   0.408  1.00  0.00     0.277 C 
HETATM   28  O8  UNL     1      -2.206 -11.394   1.212  1.00  0.00    -0.264 OA
HETATM   29  C29 UNL     1      -2.942 -11.027  -1.063  1.00  0.00     0.107 C 
ENDBRANCH  26  27
ENDBRANCH  23  26
ENDBRANCH  18  20
ENDBRANCH   7   8
ENDBRANCH   5   7
BRANCH   4  30
HETATM   30  O10 UNL     1       5.033   2.206   1.539  1.00  0.00    -0.299 OA
BRANCH  30  31
HETATM   31  C30 UNL     1       6.294   2.707   1.445  1.00  0.00     0.273 C 
HETATM   32  C31 UNL     1       7.035   2.505   2.750  1.00  0.00     0.106 C 
HETATM   33  O11 UNL     1       6.756   3.244   0.463  1.00  0.00    -0.264 OA
ENDBRANCH  30  31
ENDBRANCH   4  30
BRANCH   3  34
HETATM   34  C32 UNL     1       3.318   4.107  -1.185  1.00  0.00     0.070 C 
BRANCH  34  35
HETATM   35  C33 UNL     1       4.513   4.377  -2.093  1.00  0.00     0.151 C 
HETATM   36  O12 UNL     1       4.793   3.608  -2.985  1.00  0.00    -0.296 OA
HETATM   37  C34 UNL     1       5.296   5.659  -1.878  1.00  0.00     0.072 C 
ENDBRANCH  34  35
ENDBRANCH   3  34
BRANCH   1  38
HETATM   38  C7  UNL     1       0.555   2.993   0.237  1.00  0.00     0.177 C 
BRANCH  38  39
HETATM   39  O2  UNL     1      -0.542   2.136   0.459  1.00  0.00    -0.326 OA
BRANCH  39  40
HETATM   40  C4  UNL     1      -1.561   2.326  -0.512  1.00  0.00     0.267 C 
HETATM   41  C3  UNL     1      -2.496   1.131  -0.565  1.00  0.00     0.210 C 
HETATM   42  C2  UNL     1      -3.681   1.442  -1.490  1.00  0.00     0.187 C 
HETATM   43  C1  UNL     1      -4.314   2.780  -1.100  1.00  0.00     0.181 C 
HETATM   44  C5  UNL     1      -3.278   3.888  -0.905  1.00  0.00     0.148 C 
HETATM   45  O1  UNL     1      -2.249   3.470  -0.055  1.00  0.00    -0.329 OA
HETATM   46  C6  UNL     1      -2.740   4.516  -2.194  1.00  0.00     0.035 C 
BRANCH  41  47
HETATM   47  O15 UNL     1      -1.788   0.021  -1.044  1.00  0.00    -0.296 OA
BRANCH  47  48
HETATM   48  C37 UNL     1      -2.308  -1.216  -0.819  1.00  0.00     0.273 C 
HETATM   49  C38 UNL     1      -1.542  -2.254  -1.617  1.00  0.00     0.106 C 
HETATM   50  O16 UNL     1      -3.271  -1.448  -0.124  1.00  0.00    -0.264 OA
ENDBRANCH  47  48
ENDBRANCH  41  47
BRANCH  42  51
HETATM   51  O17 UNL     1      -3.250   1.530  -2.821  1.00  0.00    -0.299 OA
BRANCH  51  52
HETATM   52  C39 UNL     1      -3.396   0.459  -3.648  1.00  0.00     0.273 C 
HETATM   53  C40 UNL     1      -2.793   0.762  -5.004  1.00  0.00     0.106 C 
HETATM   54  O18 UNL     1      -3.900  -0.598  -3.344  1.00  0.00    -0.264 OA
ENDBRANCH  51  52
ENDBRANCH  42  51
BRANCH  43  55
HETATM   55  O19 UNL     1      -5.039   2.638   0.095  1.00  0.00    -0.299 OA
BRANCH  55  56
HETATM   56  C41 UNL     1      -6.336   2.234   0.009  1.00  0.00     0.273 C 
HETATM   57  C42 UNL     1      -6.968   2.203   1.385  1.00  0.00     0.106 C 
HETATM   58  O20 UNL     1      -6.910   1.955  -1.020  1.00  0.00    -0.264 OA
ENDBRANCH  55  56
ENDBRANCH  43  55
ENDBRANCH  39  40
ENDBRANCH  38  39
ENDBRANCH   1  38
BRANCH   2  59
HETATM   59  O13 UNL     1       3.237   4.184   2.570  1.00  0.00    -0.302 OA
BRANCH  59  60
HETATM   60  C35 UNL     1       2.840   5.049   3.547  1.00  0.00     0.272 C 
HETATM   61  O14 UNL     1       3.420   5.120   4.610  1.00  0.00    -0.264 OA
HETATM   62  C36 UNL     1       1.643   5.933   3.248  1.00  0.00     0.106 C 
ENDBRANCH  59  60
ENDBRANCH   2  59
TORSDOF 20
