REMARK  9 active torsions:
REMARK  status: ('A' for Active; 'I' for Inactive)
REMARK    1  A    between atoms: C3_3  and  C17_21 
REMARK    2  A    between atoms: C5_5  and  O2_8 
REMARK    3  A    between atoms: O2_8  and  C7_9 
REMARK    4  A    between atoms: C10_12  and  C13_15 
REMARK    5  A    between atoms: C13_15  and  C14_16 
REMARK    6  A    between atoms: C14_16  and  C15_17 
REMARK    7  A    between atoms: C15_17  and  O3_18 
REMARK    8  A    between atoms: C18_22  and  C19_23 
REMARK    9  A    between atoms: C19_23  and  O5_24 
ROOT
HETATM    1  C1  UNL     1       2.886  -0.811  -0.175  1.00  0.00     0.029 A 
HETATM    2  C2  UNL     1       3.251  -2.076   0.069  1.00  0.00     0.002 A 
HETATM    3  C3  UNL     1       2.434  -2.912   0.735  1.00  0.00     0.002 A 
HETATM    4  C4  UNL     1       1.249  -2.401   1.119  1.00  0.00     0.027 A 
HETATM    5  C5  UNL     1       0.851  -1.133   0.885  1.00  0.00     0.125 A 
HETATM    6  C6  UNL     1       1.701  -0.319   0.223  1.00  0.00     0.154 A 
HETATM    7  O1  UNL     1       1.414   0.983  -0.051  1.00  0.00    -0.188 OA
ENDROOT
BRANCH   5   8
HETATM    8  O2  UNL     1      -0.379  -0.755   1.367  1.00  0.00    -0.305 OA
BRANCH   8   9
HETATM    9  C7  UNL     1      -1.015   0.328   0.825  1.00  0.00     0.100 A 
HETATM   10  C8  UNL     1      -1.624   0.279  -0.374  1.00  0.00     0.024 A 
HETATM   11  C9  UNL     1      -2.265   1.343  -0.883  1.00  0.00    -0.002 A 
HETATM   12  C10 UNL     1      -2.328   2.502  -0.205  1.00  0.00    -0.021 A 
HETATM   13  C11 UNL     1      -1.720   2.562   0.992  1.00  0.00    -0.002 A 
HETATM   14  C12 UNL     1      -1.084   1.494   1.494  1.00  0.00     0.024 A 
BRANCH  12  15
HETATM   15  C13 UNL     1      -3.079   3.693  -0.763  1.00  0.00     0.037 C 
BRANCH  15  16
HETATM   16  C14 UNL     1      -2.288   4.414  -1.866  1.00  0.00     0.101 C 
BRANCH  16  17
HETATM   17  C15 UNL     1      -3.013   5.636  -2.408  1.00  0.00     0.272 C 
HETATM   18  O4  UNL     1      -4.067   6.060  -1.989  1.00  0.00    -0.264 OA
BRANCH  17  19
HETATM   19  O3  UNL     1      -2.310   6.193  -3.431  1.00  0.00    -0.299 OA
HETATM   20  C16 UNL     1      -2.874   7.344  -4.016  1.00  0.00     0.184 C 
ENDBRANCH  17  19
ENDBRANCH  16  17
ENDBRANCH  15  16
ENDBRANCH  12  15
ENDBRANCH   8   9
ENDBRANCH   5   8
BRANCH   3  21
HETATM   21  C17 UNL     1       2.843  -4.175   0.984  1.00  0.00     0.005 C 
HETATM   22  C18 UNL     1       2.171  -5.141   1.638  1.00  0.00     0.068 C 
BRANCH  22  23
HETATM   23  C19 UNL     1       2.650  -6.396   1.865  1.00  0.00     0.296 C 
HETATM   24  O6  UNL     1       3.755  -6.702   1.470  1.00  0.00    -0.259 OA
BRANCH  23  25
HETATM   25  O5  UNL     1       1.891  -7.311   2.543  1.00  0.00    -0.296 OA
HETATM   26  C20 UNL     1       2.457  -8.582   2.765  1.00  0.00     0.185 C 
ENDBRANCH  23  25
ENDBRANCH  22  23
ENDBRANCH   3  21
TORSDOF 9
