REMARK  0 active torsions:
REMARK  status: ('A' for Active; 'I' for Inactive)
ROOT
HETATM    1  C1  UNL     1      -2.083   0.696   0.731  1.00  0.00     0.000 C 
HETATM    2  C2  UNL     1      -2.022  -0.842   0.731  1.00  0.00     0.000 C 
HETATM    3  C3  UNL     1      -0.897  -1.208  -0.249  1.00  0.00     0.000 C 
HETATM    4  C4  UNL     1       0.056   0.003  -0.224  1.00  0.00     0.007 A 
HETATM    5  C5  UNL     1      -0.971   1.154  -0.226  1.00  0.00     0.000 C 
HETATM    6  C6  UNL     1       1.014   0.046  -1.432  1.00  0.00     0.008 A 
HETATM    7  C7  UNL     1       2.458   0.078  -0.915  1.00  0.00     0.065 A 
HETATM    8  C8  UNL     1       2.363   0.087   0.592  1.00  0.00     0.151 A 
HETATM    9  C9  UNL     1       0.925   0.018   1.050  1.00  0.00     0.065 A 
HETATM   10  O1  UNL     1       3.315   0.138   1.335  1.00  0.00    -0.296 OA
ENDROOT
TORSDOF 0
