REMARK  2 active torsions:
REMARK  status: ('A' for Active; 'I' for Inactive)
REMARK    1  A    between atoms: N1_19  and  C19_21 
REMARK    2  A    between atoms: C19_21  and  C20_22 
ROOT
HETATM    1  C1  UNL     1      -3.052   1.675   0.771  1.00  0.00     0.001 C 
HETATM    2  C2  UNL     1      -3.586   0.295   1.198  1.00  0.00     0.006 C 
HETATM    3  C3  UNL     1      -2.523  -0.819   1.085  1.00  0.00     0.038 C 
HETATM    4  C4  UNL     1      -1.150  -0.165   1.153  1.00  0.00    -0.007 C 
HETATM    5  C5  UNL     1      -0.856   0.720  -0.070  1.00  0.00     0.036 C 
HETATM    6  C6  UNL     1      -2.084   1.585  -0.416  1.00  0.00     0.006 C 
HETATM    7  C7  UNL     1       0.444   1.613   0.104  1.00  0.00     0.006 C 
HETATM    8  C8  UNL     1       1.436   0.496   0.467  1.00  0.00     0.012 C 
HETATM    9  C9  UNL     1       1.130  -0.006   1.919  1.00  0.00     0.069 C 
HETATM   10  C10 UNL     1      -0.324   0.185   2.345  1.00  0.00     0.165 C 
HETATM   11  O1  UNL     1      -0.732   0.492   3.439  1.00  0.00    -0.292 OA
HETATM   12  C11 UNL     1       2.917   0.980   0.597  1.00  0.00     0.031 C 
HETATM   13  C12 UNL     1       3.481   1.745  -0.598  1.00  0.00     0.127 C 
HETATM   14  C13 UNL     1       2.408   1.552  -1.663  1.00  0.00     0.028 C 
HETATM   15  C14 UNL     1       1.089   2.292  -1.164  1.00  0.00     0.003 C 
HETATM   16  C15 UNL     1       2.237  -0.028  -1.810  1.00  0.00     0.004 C 
HETATM   17  C16 UNL     1       1.064  -0.363  -0.853  1.00  0.00     0.021 C 
HETATM   18  C17 UNL     1      -0.509  -0.410  -1.087  1.00  0.00     0.080 C 
HETATM   19  N1  UNL     1      -1.237  -1.685  -0.996  1.00  0.00    -0.367 N 
HETATM   20  C18 UNL     1      -2.531  -1.524  -0.314  1.00  0.00     0.101 C 
HETATM   21  O3  UNL     1       4.680   1.146  -1.031  1.00  0.00    -0.226 OA
HETATM   22  C21 UNL     1       3.844   3.200  -0.284  1.00  0.00     0.033 C 
HETATM   23  C22 UNL     1      -2.737  -1.868   2.196  1.00  0.00     0.006 C 
ENDROOT
BRANCH  19  24
HETATM   24  C19 UNL     1      -0.416  -2.836  -0.640  1.00  0.00     0.133 C 
BRANCH  24  25
HETATM   25  C20 UNL     1      -1.118  -4.172  -0.889  1.00  0.00     0.206 C 
HETATM   26  O2  UNL     1      -0.166  -5.217  -0.842  1.00  0.00    -0.219 OA
ENDBRANCH  24  25
ENDBRANCH  19  24
TORSDOF 2
