REMARK  4 active torsions:
REMARK  status: ('A' for Active; 'I' for Inactive)
REMARK    1  A    between atoms: C9_9  and  O3_15 
REMARK    2  A    between atoms: C10_10  and  O1_11 
REMARK    3  A    between atoms: O1_11  and  C11_12 
REMARK    4  A    between atoms: O3_15  and  C13_16 
ROOT
HETATM    1  C1  UNL     1      -2.920   1.570   1.748  1.00  0.00     0.001 C 
HETATM    2  C2  UNL     1      -3.469   0.145   1.598  1.00  0.00     0.009 C 
HETATM    3  C3  UNL     1      -2.498  -0.858   0.905  1.00  0.00     0.074 C 
HETATM    4  C4  UNL     1      -1.065  -0.251   0.910  1.00  0.00     0.043 C 
HETATM    5  C5  UNL     1      -1.072   1.037   0.020  1.00  0.00     0.048 C 
HETATM    6  C6  UNL     1      -2.220   1.996   0.458  1.00  0.00     0.004 C 
HETATM    7  C7  UNL     1       0.299   1.756   0.178  1.00  0.00     0.007 C 
HETATM    8  C8  UNL     1       1.589   0.905   0.026  1.00  0.00     0.028 C 
HETATM    9  C9  UNL     1       1.467  -0.398   0.834  1.00  0.00     0.152 C 
HETATM   10  C10 UNL     1       0.150  -1.160   0.610  1.00  0.00     0.152 C 
HETATM   11  C15 UNL     1       2.748   1.770   0.608  1.00  0.00     0.002 C 
HETATM   12  C16 UNL     1       2.957   3.033  -0.247  1.00  0.00     0.000 C 
HETATM   13  C17 UNL     1       1.832   3.143  -1.288  1.00  0.00     0.000 C 
HETATM   14  C18 UNL     1       0.473   3.096  -0.571  1.00  0.00     0.000 C 
HETATM   15  C19 UNL     1       1.919   1.956  -2.259  1.00  0.00     0.000 C 
HETATM   16  C20 UNL     1       2.005   0.657  -1.444  1.00  0.00     0.002 C 
HETATM   17  C21 UNL     1      -1.380   0.557  -1.405  1.00  0.00     0.203 C 
HETATM   18  N1  UNL     1      -2.551  -0.283  -1.492  1.00  0.00    -0.296 N 
HETATM   19  C22 UNL     1      -3.042  -1.097  -0.512  1.00  0.00     0.234 C 
HETATM   20  O5  UNL     1      -3.941  -1.875  -0.736  1.00  0.00    -0.272 OA
HETATM   21  C23 UNL     1      -3.123  -0.146  -2.816  1.00  0.00     0.138 C 
HETATM   22  C24 UNL     1      -2.264   0.967  -3.424  1.00  0.00     0.169 C 
HETATM   23  O6  UNL     1      -1.593   1.582  -2.348  1.00  0.00    -0.334 OA
HETATM   24  C25 UNL     1      -2.661  -2.196   1.663  1.00  0.00     0.009 C 
ENDROOT
BRANCH   9  25
HETATM   25  O3  UNL     1       2.554  -1.232   0.537  1.00  0.00    -0.302 OA
BRANCH  25  26
HETATM   26  C13 UNL     1       3.260  -1.806   1.549  1.00  0.00     0.272 C 
HETATM   27  C14 UNL     1       4.349  -2.693   0.980  1.00  0.00     0.106 C 
HETATM   28  O4  UNL     1       3.047  -1.657   2.730  1.00  0.00    -0.264 OA
ENDBRANCH  25  26
ENDBRANCH   9  25
BRANCH  10  29
HETATM   29  O1  UNL     1       0.173  -2.259   1.482  1.00  0.00    -0.302 OA
BRANCH  29  30
HETATM   30  C11 UNL     1       0.489  -3.490   0.991  1.00  0.00     0.272 C 
HETATM   31  C12 UNL     1       0.470  -4.516   2.105  1.00  0.00     0.106 C 
HETATM   32  O2  UNL     1       0.763  -3.738  -0.162  1.00  0.00    -0.264 OA
ENDBRANCH  29  30
ENDBRANCH  10  29
TORSDOF 4
