REMARK  5 active torsions:
REMARK  status: ('A' for Active; 'I' for Inactive)
REMARK    1  A    between atoms: C6_6  and  O1_7 
REMARK    2  A    between atoms: C12_15  and  O5_20 
REMARK    3  A    between atoms: O5_20  and  C16_21 
REMARK    4  A    between atoms: C16_21  and  C17_22 
REMARK    5  A    between atoms: C17_22  and  C18_23 
ROOT
HETATM    1  C1  UNL     1       0.047   2.926   0.934  1.00  0.00     0.048 A 
HETATM    2  C2  UNL     1       0.002   1.583   0.922  1.00  0.00     0.096 A 
HETATM    3  C3  UNL     1       1.178   0.929   0.875  1.00  0.00     0.056 A 
HETATM    4  C4  UNL     1       2.351   1.595   0.830  1.00  0.00     0.105 A 
HETATM    5  C5  UNL     1       2.336   2.945   0.833  1.00  0.00     0.045 A 
HETATM    6  C6  UNL     1       1.182   3.648   0.879  1.00  0.00     0.098 A 
HETATM    7  C8  UNL     1       3.518   3.591   0.795  1.00  0.00     0.009 A 
HETATM    8  C9  UNL     1       4.685   2.931   0.762  1.00  0.00     0.069 A 
HETATM    9  C10 UNL     1       4.679   1.577   0.762  1.00  0.00     0.300 A 
HETATM   10  O2  UNL     1       3.515   0.873   0.793  1.00  0.00    -0.273 OA
HETATM   11  O3  UNL     1       5.739   0.985   0.741  1.00  0.00    -0.259 OA
HETATM   12  C11 UNL     1       1.194  -0.583   0.876  1.00  0.00     0.208 C 
HETATM   13  C12 UNL     1      -0.202  -1.188   0.824  1.00  0.00     0.184 C 
HETATM   14  C13 UNL     1      -1.207  -0.321   1.587  1.00  0.00     0.127 C 
HETATM   15  O4  UNL     1      -1.212   0.955   1.029  1.00  0.00    -0.333 OA
HETATM   16  C14 UNL     1      -2.630  -0.891   1.456  1.00  0.00     0.033 C 
HETATM   17  C15 UNL     1      -0.893  -0.219   3.089  1.00  0.00     0.033 C 
HETATM   18  O7  UNL     1       1.885  -1.029   2.028  1.00  0.00    -0.216 OA
ENDROOT
BRANCH  13  19
HETATM   19  O5  UNL     1      -0.605  -1.284  -0.519  1.00  0.00    -0.299 OA
BRANCH  19  20
HETATM   20  C16 UNL     1      -0.596  -2.500  -1.131  1.00  0.00     0.272 C 
HETATM   21  O6  UNL     1      -0.206  -3.529  -0.628  1.00  0.00    -0.264 OA
BRANCH  20  22
HETATM   22  C17 UNL     1      -1.159  -2.382  -2.540  1.00  0.00     0.096 C 
BRANCH  22  23
HETATM   23  C18 UNL     1      -1.638  -3.716  -3.144  1.00  0.00     0.010 C 
HETATM   24  C19 UNL     1      -2.859  -4.272  -2.391  1.00  0.00     0.001 C 
HETATM   25  C20 UNL     1      -1.978  -3.542  -4.635  1.00  0.00     0.001 C 
ENDBRANCH  22  23
ENDBRANCH  20  22
ENDBRANCH  19  20
ENDBRANCH  13  19
BRANCH   6  26
HETATM   26  O1  UNL     1       1.216   5.025   0.884  1.00  0.00    -0.328 OA
HETATM   27  C7  UNL     1       0.010   5.750   0.930  1.00  0.00     0.181 C 
ENDBRANCH   6  26
TORSDOF 5
