REMARK  3 active torsions:
REMARK  status: ('A' for Active; 'I' for Inactive)
REMARK    1  A    between atoms: C7_8  and  C12_16 
REMARK    2  A    between atoms: C8_9  and  O3_12 
REMARK    3  A    between atoms: O3_12  and  C10_13 
ROOT
HETATM    1  C1  UNL     1      -2.057  -1.864   1.899  1.00  0.00     0.117 C 
HETATM    2  C2  UNL     1      -1.415  -3.168   1.513  1.00  0.00     0.108 C 
HETATM    3  C3  UNL     1      -0.241  -3.156   0.584  1.00  0.00     0.119 C 
HETATM    4  C4  UNL     1       0.424  -1.978   0.427  1.00  0.00     0.068 C 
HETATM    5  C5  UNL     1       0.015  -0.715   1.088  1.00  0.00     0.100 C 
HETATM    6  C6  UNL     1      -1.166  -0.679   1.758  1.00  0.00     0.048 C 
HETATM    7  O1  UNL     1       0.721   0.452   0.952  1.00  0.00    -0.326 OA
HETATM    8  C7  UNL     1       1.532   0.551  -0.192  1.00  0.00     0.177 C 
HETATM    9  C8  UNL     1       2.494  -0.629  -0.262  1.00  0.00     0.203 C 
HETATM   10  C9  UNL     1       1.692  -1.919  -0.403  1.00  0.00     0.142 C 
HETATM   11  O2  UNL     1       2.095  -2.878  -1.207  1.00  0.00    -0.192 OA
HETATM   12  O5  UNL     1       0.165  -4.338   0.046  1.00  0.00    -0.194 OA
HETATM   13  O6  UNL     1      -3.128  -1.823   2.732  1.00  0.00    -0.194 OA
ENDROOT
BRANCH   8  14
HETATM   14  C12 UNL     1       2.285   1.870  -0.181  1.00  0.00     0.008 A 
HETATM   15  C13 UNL     1       2.244   2.731  -1.285  1.00  0.00    -0.002 A 
HETATM   16  C14 UNL     1       2.963   3.927  -1.290  1.00  0.00    -0.000 A 
HETATM   17  C15 UNL     1       3.741   4.280  -0.187  1.00  0.00    -0.000 A 
HETATM   18  C16 UNL     1       3.794   3.430   0.919  1.00  0.00    -0.000 A 
HETATM   19  C17 UNL     1       3.071   2.236   0.918  1.00  0.00    -0.002 A 
ENDBRANCH   8  14
BRANCH   9  20
HETATM   20  O3  UNL     1       3.381  -0.424  -1.343  1.00  0.00    -0.295 OA
BRANCH  20  21
HETATM   21  C10 UNL     1       4.623  -0.974  -1.262  1.00  0.00     0.273 C 
HETATM   22  C11 UNL     1       5.450  -0.569  -2.466  1.00  0.00     0.106 C 
HETATM   23  O4  UNL     1       5.021  -1.655  -0.345  1.00  0.00    -0.264 OA
ENDBRANCH  20  21
ENDBRANCH   9  20
TORSDOF 3
