REMARK  4 active torsions:
REMARK  status: ('A' for Active; 'I' for Inactive)
REMARK    1  A    between atoms: C2_2  and  C7_7 
REMARK    2  A    between atoms: C8_8  and  C9_9 
REMARK    3  A    between atoms: C9_9  and  O2_11 
REMARK    4  A    between atoms: O2_11  and  C10_12 
ROOT
HETATM    1  C9  UNL     1       0.923  -0.501   0.250  1.00  0.00     0.296 C 
HETATM    2  O1  UNL     1       0.627  -1.199   1.216  1.00  0.00    -0.259 OA
ENDROOT
BRANCH   1   3
HETATM    3  C8  UNL     1       2.342  -0.415  -0.174  1.00  0.00     0.068 C 
HETATM    4  C7  UNL     1       3.353  -1.060   0.458  1.00  0.00     0.005 C 
BRANCH   4   5
HETATM    5  C2  UNL     1       4.771  -1.004   0.070  1.00  0.00     0.000 A 
HETATM    6  C1  UNL     1       5.721  -1.632   0.895  1.00  0.00     0.000 A 
HETATM    7  C6  UNL     1       7.079  -1.612   0.579  1.00  0.00     0.000 A 
HETATM    8  C5  UNL     1       7.519  -0.968  -0.580  1.00  0.00     0.000 A 
HETATM    9  C4  UNL     1       6.590  -0.353  -1.419  1.00  0.00     0.000 A 
HETATM   10  C3  UNL     1       5.230  -0.374  -1.099  1.00  0.00     0.000 A 
ENDBRANCH   4   5
ENDBRANCH   1   3
BRANCH   1  11
HETATM   11  O2  UNL     1      -0.033   0.154  -0.470  1.00  0.00    -0.301 OA
BRANCH  11  12
HETATM   12  C10 UNL     1      -1.379  -0.031  -0.141  1.00  0.00     0.129 C 
HETATM   13  C11 UNL     1      -2.231   0.369  -1.349  1.00  0.00     0.064 C 
HETATM   14  C12 UNL     1      -3.715   0.565  -0.978  1.00  0.00     0.222 C 
HETATM   15  C13 UNL     1      -4.290  -0.681  -0.277  1.00  0.00     0.035 C 
HETATM   16  N1  UNL     1      -3.795   1.623   0.019  1.00  0.00     0.135 N 
HETATM   17  C14 UNL     1      -4.006  -0.418   1.214  1.00  0.00     0.035 C 
HETATM   18  C15 UNL     1      -3.301   0.953   1.214  1.00  0.00     0.222 C 
HETATM   19  C16 UNL     1      -1.771   0.802   1.083  1.00  0.00     0.064 C 
HETATM   20  C17 UNL     1      -5.139   2.153   0.177  1.00  0.00     0.285 C 
ENDBRANCH  11  12
ENDBRANCH   1  11
TORSDOF 4
