REMARK  13 active torsions:
REMARK  status: ('A' for Active; 'I' for Inactive)
REMARK    1  A    between atoms: C2_2  and  C4_11 
REMARK    2  A    between atoms: C2_2  and  C5_12 
REMARK    3  A    between atoms: O1_3  and  C6_13 
REMARK    4  A    between atoms: C3_4  and  O3_8 
REMARK    5  A    between atoms: C3_4  and  C6_13 
REMARK    6  A    between atoms: N1_5  and  C4_11 
REMARK    7  A    between atoms: S1_6  and  C4_11 
REMARK    8  A    between atoms: O2_7  and  O4_10 
REMARK    9  A    between atoms: O3_8  and  N2_9 
REMARK   10  A    between atoms: O3_8  and  C4_11 
REMARK   11  A    between atoms: C4_11  and  C6_13 
REMARK   12  A    between atoms: C5_12  and  C6_13 
REMARK   13  A    between atoms: C5_12  and  O5_14 
ROOT
HETATM    1  C1  UNL     1       0.715   2.062   0.000  1.00  0.00     0.003 A 
HETATM    2  C2  UNL     1       0.715   1.238   0.000  1.00  0.00     0.021 A 
HETATM    3  O1  UNL     1       1.429   0.825   0.000  1.00  0.00     0.000 OA
HETATM    4  C3  UNL     1       1.429  -0.000   0.000  1.00  0.00     0.065 A 
HETATM    5  N1  UNL     1       2.143  -0.412   0.000  1.00  0.00     0.000 N 
HETATM    6  S1  UNL     1       2.143  -1.238   0.000  1.00  0.00     0.115 SA
HETATM    7  O2  UNL     1       2.968  -1.238   0.000  1.00  0.00     0.000 OA
HETATM    8  O3  UNL     1       1.318  -1.238   0.000  1.00  0.00     0.000 OA
HETATM    9  N2  UNL     1       2.143  -2.062   0.000  1.00  0.00     0.688 N 
HETATM   10  O4  UNL     1       2.858  -2.475   0.000  1.00  0.00     0.000 OA
HETATM   11  C4  UNL     1       0.715  -0.412   0.000  1.00  0.00     0.065 A 
HETATM   12  C5  UNL     1       0.000   0.000   0.000  1.00  0.00     0.022 A 
HETATM   13  C6  UNL     1       0.000   0.825   0.000  1.00  0.00     0.021 A 
HETATM   14  O5  UNL     1      -0.715   1.238   0.000  1.00  0.00     0.000 OA
ENDROOT
TORSDOF 13
