REMARK  19 active torsions:
REMARK  status: ('A' for Active; 'I' for Inactive)
REMARK    1  A    between atoms: C3_4  and  C7_11 
REMARK    2  A    between atoms: N2_5  and  N7_25 
REMARK    3  A    between atoms: N3_7  and  N4_10 
REMARK    4  A    between atoms: N4_10  and  N7_25 
REMARK    5  A    between atoms: C7_11  and  N7_25 
REMARK    6  A    between atoms: N5_12  and  C11_16 
REMARK    7  A    between atoms: N5_12  and  N7_25 
REMARK    8  A    between atoms: C8_13  and  C11_16 
REMARK    9  A    between atoms: C10_15  and  C13_18 
REMARK   10  A    between atoms: C10_15  and  C14_19 
REMARK   11  A    between atoms: C11_16  and  C14_19 
REMARK   12  A    between atoms: C11_16  and  C15_20 
REMARK   13  A    between atoms: C12_17  and  C15_20 
REMARK   14  A    between atoms: C12_17  and  N6_24 
REMARK   15  A    between atoms: C13_18  and  C15_20 
REMARK   16  A    between atoms: C14_19  and  C15_20 
REMARK   17  A    between atoms: C14_19  and  S1_21 
REMARK   18  A    between atoms: C14_19  and  O2_23 
REMARK   19  A    between atoms: O1_22  and  N6_24 
ROOT
HETATM    1  C1  UNL     1      -1.429   0.825   0.000  1.00  0.00    -0.031 A 
HETATM    2  C2  UNL     1      -1.429  -0.000   0.000  1.00  0.00     0.026 A 
HETATM    3  N1  UNL     1      -2.143  -0.412   0.000  1.00  0.00     0.000 N 
HETATM    4  C3  UNL     1      -2.143  -1.238   0.000  1.00  0.00     0.005 A 
HETATM    5  N2  UNL     1      -1.429  -1.650   0.000  1.00  0.00     0.000 N 
HETATM    6  C4  UNL     1      -1.429  -2.475   0.000  1.00  0.00     0.005 A 
HETATM    7  N3  UNL     1      -0.715  -2.888   0.000  1.00  0.00     0.000 N 
HETATM    8  C5  UNL     1       0.000  -2.475   0.000  1.00  0.00     0.026 A 
HETATM    9  C6  UNL     1       0.715  -2.888   0.000  1.00  0.00    -0.031 A 
HETATM   10  N4  UNL     1      -2.143  -2.888   0.000  1.00  0.00     0.000 N 
HETATM   11  C7  UNL     1      -2.858  -2.475   0.000  1.00  0.00     0.001 A 
HETATM   12  N5  UNL     1      -3.572  -2.888   0.000  1.00  0.00     0.000 N 
HETATM   13  C8  UNL     1      -4.287  -2.475   0.000  1.00  0.00     0.012 A 
HETATM   14  C9  UNL     1      -5.001  -2.888   0.000  1.00  0.00     0.017 A 
HETATM   15  C10 UNL     1      -5.001  -3.712   0.000  1.00  0.00     0.075 A 
HETATM   16  C11 UNL     1      -4.287  -4.125   0.000  1.00  0.00     0.075 A 
HETATM   17  C12 UNL     1      -4.287  -4.950   0.000  1.00  0.00     0.210 A 
HETATM   18  C13 UNL     1      -5.001  -5.362   0.000  1.00  0.00     0.210 A 
HETATM   19  C14 UNL     1      -5.716  -4.950   0.000  1.00  0.00     0.110 A 
HETATM   20  C15 UNL     1      -5.716  -4.125   0.000  1.00  0.00     0.080 A 
HETATM   21  S1  UNL     1      -5.001  -6.188   0.000  1.00  0.00     0.037 SA
HETATM   22  O1  UNL     1      -5.001  -7.013   0.000  1.00  0.00     0.000 OA
HETATM   23  O2  UNL     1      -5.826  -6.188   0.000  1.00  0.00     0.000 OA
HETATM   24  N6  UNL     1      -4.176  -6.188   0.000  1.00  0.00     0.173 N 
HETATM   25  N7  UNL     1      -2.858  -1.650   0.000  1.00  0.00     0.000 N 
ENDROOT
TORSDOF 19
