REMARK  21 active torsions:
REMARK  status: ('A' for Active; 'I' for Inactive)
REMARK    1  A    between atoms: C1_1  and  C3_4 
REMARK    2  A    between atoms: C2_3  and  C4_6 
REMARK    3  A    between atoms: C4_6  and  C6_11 
REMARK    4  A    between atoms: N2_7  and  N6_23 
REMARK    5  A    between atoms: CL1_9  and  N3_10 
REMARK    6  A    between atoms: N3_10  and  N6_23 
REMARK    7  A    between atoms: C6_11  and  N6_23 
REMARK    8  A    between atoms: C6_11  and  C12_18 
REMARK    9  A    between atoms: N4_12  and  N6_23 
REMARK   10  A    between atoms: C7_13  and  C10_16 
REMARK   11  A    between atoms: C7_13  and  C11_17 
REMARK   12  A    between atoms: C8_14  and  C11_17 
REMARK   13  A    between atoms: C8_14  and  C12_18 
REMARK   14  A    between atoms: C9_15  and  C12_18 
REMARK   15  A    between atoms: C9_15  and  N5_22 
REMARK   16  A    between atoms: C10_16  and  C12_18 
REMARK   17  A    between atoms: C11_17  and  C12_18 
REMARK   18  A    between atoms: C11_17  and  S1_19 
REMARK   19  A    between atoms: C11_17  and  O3_21 
REMARK   20  A    between atoms: C12_18  and  N6_23 
REMARK   21  A    between atoms: O2_20  and  N5_22 
ROOT
HETATM    1  C1  UNL     1       1.429   0.000   0.000  1.00  0.00     0.060 A 
HETATM    2  N1  UNL     1       2.143  -0.412   0.000  1.00  0.00     0.000 N 
HETATM    3  C2  UNL     1       2.858   0.000   0.000  1.00  0.00     0.121 A 
HETATM    4  C3  UNL     1       2.858   0.825   0.000  1.00  0.00     0.142 A 
HETATM    5  O1  UNL     1       3.572   1.238   0.000  1.00  0.00    -0.356 OA
HETATM    6  C4  UNL     1       2.143  -1.238   0.000  1.00  0.00     0.045 A 
HETATM    7  N2  UNL     1       2.858  -1.650   0.000  1.00  0.00     0.000 N 
HETATM    8  C5  UNL     1       2.858  -2.475   0.000  1.00  0.00     0.083 A 
HETATM    9 CL1  UNL     1       3.572  -2.888   0.000  1.00  0.00    -0.115 Cl
HETATM   10  N3  UNL     1       2.143  -2.888   0.000  1.00  0.00     0.000 N 
HETATM   11  C6  UNL     1       1.429  -2.475   0.000  1.00  0.00     0.029 A 
HETATM   12  N4  UNL     1       0.715  -2.888   0.000  1.00  0.00     0.000 N 
HETATM   13  C7  UNL     1       0.000  -2.475   0.000  1.00  0.00     0.082 A 
HETATM   14  C8  UNL     1      -0.715  -2.888   0.000  1.00  0.00     0.086 A 
HETATM   15  C9  UNL     1      -1.429  -2.475   0.000  1.00  0.00     0.210 A 
HETATM   16  C10 UNL     1      -1.429  -1.650   0.000  1.00  0.00     0.210 A 
HETATM   17  C11 UNL     1      -0.715  -1.238   0.000  1.00  0.00     0.111 A 
HETATM   18  C12 UNL     1       0.000  -1.650   0.000  1.00  0.00     0.082 A 
HETATM   19  S1  UNL     1      -2.143  -1.238   0.000  1.00  0.00     0.037 SA
HETATM   20  O2  UNL     1      -2.858  -0.825   0.000  1.00  0.00     0.000 OA
HETATM   21  O3  UNL     1      -1.731  -0.523   0.000  1.00  0.00     0.000 OA
HETATM   22  N5  UNL     1      -2.556  -1.952   0.000  1.00  0.00     0.173 N 
HETATM   23  N6  UNL     1       1.429  -1.650   0.000  1.00  0.00     0.000 N 
ENDROOT
TORSDOF 21
