REMARK  32 active torsions:
REMARK  status: ('A' for Active; 'I' for Inactive)
REMARK    1  A    between atoms: N1_1  and  C8_9 
REMARK    2  A    between atoms: C1_2  and  C4_5 
REMARK    3  A    between atoms: C1_2  and  C5_6 
REMARK    4  A    between atoms: C2_3  and  C5_6 
REMARK    5  A    between atoms: C2_3  and  C6_7 
REMARK    6  A    between atoms: C3_4  and  C6_7 
REMARK    7  A    between atoms: C4_5  and  C6_7 
REMARK    8  A    between atoms: C5_6  and  C6_7 
REMARK    9  A    between atoms: C5_6  and  C7_8 
REMARK   10  A    between atoms: C5_6  and  C9_13 
REMARK   11  A    between atoms: C5_6  and  C16_24 
REMARK   12  A    between atoms: C6_7  and  C16_24 
REMARK   13  A    between atoms: C7_8  and  N3_11 
REMARK   14  A    between atoms: C8_9  and  N4_12 
REMARK   15  A    between atoms: N2_10  and  N4_12 
REMARK   16  A    between atoms: N3_11  and  N4_12 
REMARK   17  A    between atoms: N3_11  and  C9_13 
REMARK   18  A    between atoms: C9_13  and  C12_16 
REMARK   19  A    between atoms: C9_13  and  C15_23 
REMARK   20  A    between atoms: C10_14  and  C15_23 
REMARK   21  A    between atoms: C10_14  and  C16_24 
REMARK   22  A    between atoms: C11_15  and  C16_24 
REMARK   23  A    between atoms: C12_16  and  C13_21 
REMARK   24  A    between atoms: C12_16  and  C14_22 
REMARK   25  A    between atoms: C12_16  and  C16_24 
REMARK   26  A    between atoms: O1_17  and  C15_23 
REMARK   27  A    between atoms: S1_18  and  C15_23 
REMARK   28  A    between atoms: O3_20  and  C13_21 
REMARK   29  A    between atoms: C13_21  and  C15_23 
REMARK   30  A    between atoms: C14_22  and  C15_23 
REMARK   31  A    between atoms: C14_22  and  C16_24 
REMARK   32  A    between atoms: C15_23  and  C16_24 
ROOT
HETATM    1  N1  UNL     1      -0.429  -4.084   0.000  1.00  0.00     0.014 N 
HETATM    2  C1  UNL     1       0.355  -3.829   0.000  1.00  0.00     0.185 A 
HETATM    3  C2  UNL     1       0.968  -4.381   0.000  1.00  0.00     0.178 A 
HETATM    4  C3  UNL     1       1.753  -4.127   0.000  1.00  0.00     0.085 A 
HETATM    5  C4  UNL     1       1.925  -3.320   0.000  1.00  0.00     0.085 A 
HETATM    6  C5  UNL     1       1.312  -2.768   0.000  1.00  0.00     0.102 A 
HETATM    7  C6  UNL     1       0.527  -3.022   0.000  1.00  0.00     0.194 A 
HETATM    8  C7  UNL     1      -0.086  -2.470   0.000  1.00  0.00     0.279 A 
HETATM    9  C8  UNL     1      -0.893  -2.642   0.000  1.00  0.00     0.435 A 
HETATM   10  N2  UNL     1      -1.306  -1.927   0.000  1.00  0.00     0.368 N 
HETATM   11  N3  UNL     1      -0.754  -1.314   0.000  1.00  0.00     0.000 N 
HETATM   12  N4  UNL     1       0.000  -1.650   0.000  1.00  0.00     0.000 N 
HETATM   13  C9  UNL     1       0.715  -1.238   0.000  1.00  0.00     0.051 A 
HETATM   14  C10 UNL     1       0.715  -0.412   0.000  1.00  0.00     0.021 A 
HETATM   15  C11 UNL     1       1.429   0.000   0.000  1.00  0.00     0.021 A 
HETATM   16  C12 UNL     1       2.143  -0.412   0.000  1.00  0.00     0.030 A 
HETATM   17  O1  UNL     1       2.858   0.000   0.000  1.00  0.00     0.000 OA
HETATM   18  S1  UNL     1       3.572  -0.412   0.000  1.00  0.00    -0.208 SA
HETATM   19  O2  UNL     1       3.854   0.363   0.000  1.00  0.00     0.000 OA
HETATM   20  O3  UNL     1       4.385  -0.556   0.000  1.00  0.00     0.000 OA
HETATM   21  C13 UNL     1       3.572  -1.238   0.000  1.00  0.00     0.044 A 
HETATM   22  C14 UNL     1       2.858  -1.650   0.000  1.00  0.00     0.040 A 
HETATM   23  C15 UNL     1       2.143  -1.238   0.000  1.00  0.00     0.030 A 
HETATM   24  C16 UNL     1       1.429  -1.650   0.000  1.00  0.00     0.047 A 
ENDROOT
TORSDOF 32
