REMARK  21 active torsions:
REMARK  status: ('A' for Active; 'I' for Inactive)
REMARK    1  A    between atoms: O1_3  and  S2_20 
REMARK    2  A    between atoms: O2_4  and  C1_5 
REMARK    3  A    between atoms: O2_4  and  N2_6 
REMARK    4  A    between atoms: C1_5  and  C2_8 
REMARK    5  A    between atoms: N2_6  and  S2_20 
REMARK    6  A    between atoms: N3_7  and  S2_20 
REMARK    7  A    between atoms: C2_8  and  S2_20 
REMARK    8  A    between atoms: N4_9  and  S2_20 
REMARK    9  A    between atoms: C3_10  and  C10_19 
REMARK   10  A    between atoms: C3_10  and  S2_20 
REMARK   11  A    between atoms: O3_11  and  C4_12 
REMARK   12  A    between atoms: O3_11  and  C10_19 
REMARK   13  A    between atoms: O3_11  and  S2_20 
REMARK   14  A    between atoms: C5_13  and  C8_16 
REMARK   15  A    between atoms: C5_13  and  C9_18 
REMARK   16  A    between atoms: C6_14  and  C9_18 
REMARK   17  A    between atoms: C6_14  and  C10_19 
REMARK   18  A    between atoms: C7_15  and  C10_19 
REMARK   19  A    between atoms: C8_16  and  C10_19 
REMARK   20  A    between atoms: F1_17  and  C9_18 
REMARK   21  A    between atoms: C9_18  and  C10_19 
ROOT
HETATM    1  N1  UNL     1       2.751  -0.887   0.000  1.00  0.00    -0.062 NA
HETATM    2  S1  UNL     1       2.751  -1.712   0.000  1.00  0.00    -0.042 SA
HETATM    3  O1  UNL     1       1.926  -1.712   0.000  1.00  0.00     0.000 OA
HETATM    4  O2  UNL     1       3.576  -1.712   0.000  1.00  0.00     0.000 OA
HETATM    5  C1  UNL     1       2.751  -2.537   0.000  1.00  0.00     0.114 A 
HETATM    6  N2  UNL     1       3.419  -3.022   0.000  1.00  0.00     0.000 N 
HETATM    7  N3  UNL     1       3.164  -3.806   0.000  1.00  0.00     0.000 N 
HETATM    8  C2  UNL     1       2.339  -3.806   0.000  1.00  0.00     0.070 A 
HETATM    9  N4  UNL     1       1.854  -4.474   0.000  1.00  0.00     0.000 N 
HETATM   10  C3  UNL     1       1.033  -4.387   0.000  1.00  0.00     0.050 A 
HETATM   11  O3  UNL     1       0.698  -3.634   0.000  1.00  0.00     0.000 OA
HETATM   12  C4  UNL     1       0.548  -5.055   0.000  1.00  0.00     0.029 A 
HETATM   13  C5  UNL     1      -0.272  -4.969   0.000  1.00  0.00     0.070 A 
HETATM   14  C6  UNL     1      -0.757  -5.636   0.000  1.00  0.00     0.070 A 
HETATM   15  C7  UNL     1      -1.577  -5.550   0.000  1.00  0.00     0.086 A 
HETATM   16  C8  UNL     1      -1.913  -4.796   0.000  1.00  0.00     0.086 A 
HETATM   17  F1  UNL     1      -2.734  -4.710   0.000  1.00  0.00    -0.479 F 
HETATM   18  C9  UNL     1      -1.428  -4.129   0.000  1.00  0.00     0.086 A 
HETATM   19  C10 UNL     1      -0.608  -4.215   0.000  1.00  0.00     0.070 A 
HETATM   20  S2  UNL     1       2.084  -3.022   0.000  1.00  0.00    -0.146 SA
ENDROOT
TORSDOF 21
