REMARK WARNING: 32 MAX_TORS EXCEEDED!!!
REMARK  43 active torsions:
REMARK  status: ('A' for Active; 'I' for Inactive)
REMARK    1  A    between atoms: C1_1  and  O4_25 
REMARK    2  A    between atoms: C2_2  and  C5_5 
REMARK    3  A    between atoms: C2_2  and  C6_6 
REMARK    4  A    between atoms: C2_2  and  C18_23 
REMARK    5  A    between atoms: C3_3  and  C6_6 
REMARK    6  A    between atoms: C3_3  and  C15_15 
REMARK    7  A    between atoms: C3_3  and  C16_21 
REMARK    8  A    between atoms: C3_3  and  C19_24 
REMARK    9  A    between atoms: C4_4  and  C13_13 
REMARK   10  A    between atoms: C4_4  and  C15_15 
REMARK   11  A    between atoms: C4_4  and  C16_21 
REMARK   12  A    between atoms: C5_5  and  C8_8 
REMARK   13  A    between atoms: C5_5  and  C9_9 
REMARK   14  A    between atoms: C5_5  and  C13_13 
REMARK   15  A    between atoms: C5_5  and  C16_21 
REMARK   16  A    between atoms: C6_6  and  C16_21 
REMARK   17  A    between atoms: C6_6  and  C9_9 
REMARK   18  A    between atoms: C6_6  and  C14_14 
REMARK   19  A    between atoms: C6_6  and  C15_15 
REMARK   20  A    between atoms: C6_6  and  C17_22 
REMARK   21  A    between atoms: C7_7  and  C14_14 
REMARK   22  A    between atoms: C7_7  and  C16_21 
REMARK   23  A    between atoms: C8_8  and  C14_14 
REMARK   24  A    between atoms: C9_9  and  C14_14 
REMARK   25  A    between atoms: C9_9  and  C12_12 
REMARK   26  A    between atoms: C9_9  and  C13_13 
REMARK   27  A    between atoms: C9_9  and  C15_15 
REMARK   28  A    between atoms: C10_10  and  C13_13 
REMARK   29  A    between atoms: C10_10  and  C14_14 
REMARK   30  A    between atoms: C11_11  and  C14_14 
REMARK   31  A    between atoms: C11_11  and  N1_20 
REMARK   32  A    between atoms: C12_12  and  C14_14 
REMARK   33  A    between atoms: C12_12  and  C15_15 
REMARK   34  A    between atoms: C12_12  and  O1_16 
REMARK   35  A    between atoms: C12_12  and  S1_17 
REMARK   36  A    between atoms: C12_12  and  N1_20 
REMARK   37  A    between atoms: C13_13  and  C14_14 
REMARK   38  A    between atoms: C13_13  and  C15_15 
REMARK   39  A    between atoms: O2_18  and  N1_20 
REMARK   40  A    between atoms: C16_21  and  C19_24 
REMARK   41  A    between atoms: C17_22  and  C19_24 
REMARK   42  A    between atoms: C18_23  and  C19_24 
REMARK   43  A    between atoms: C18_23  and  O4_25 
ROOT
HETATM    1  C1  UNL     1       3.533  -3.259   0.000  1.00  0.00     0.000 A 
HETATM    2  C2  UNL     1       3.893  -2.516   0.000  1.00  0.00     0.000 A 
HETATM    3  C3  UNL     1       4.425  -3.147   0.000  1.00  0.00     0.001 A 
HETATM    4  C4  UNL     1       5.237  -3.002   0.000  1.00  0.00     0.003 A 
HETATM    5  C5  UNL     1       5.517  -2.226   0.000  1.00  0.00     0.004 A 
HETATM    6  C6  UNL     1       4.985  -1.595   0.000  1.00  0.00     0.003 A 
HETATM    7  C7  UNL     1       5.266  -0.819   0.000  1.00  0.00     0.003 A 
HETATM    8  C8  UNL     1       6.078  -0.674   0.000  1.00  0.00     0.004 A 
HETATM    9  C9  UNL     1       6.609  -1.305   0.000  1.00  0.00     0.013 A 
HETATM   10  C10 UNL     1       7.422  -1.159   0.000  1.00  0.00     0.016 A 
HETATM   11  C11 UNL     1       7.953  -1.790   0.000  1.00  0.00     0.034 A 
HETATM   12  C12 UNL     1       7.673  -2.566   0.000  1.00  0.00     0.029 A 
HETATM   13  C13 UNL     1       6.861  -2.711   0.000  1.00  0.00     0.014 A 
HETATM   14  C14 UNL     1       6.329  -2.081   0.000  1.00  0.00     0.012 A 
HETATM   15  C15 UNL     1       6.049  -2.857   0.000  1.00  0.00     0.009 A 
HETATM   16  O1  UNL     1       8.765  -1.645   0.000  1.00  0.00     0.000 OA
HETATM   17  S1  UNL     1       9.297  -2.276   0.000  1.00  0.00    -0.146 SA
HETATM   18  O2  UNL     1       9.829  -2.906   0.000  1.00  0.00     0.000 OA
HETATM   19  O3  UNL     1       9.928  -1.744   0.000  1.00  0.00     0.000 OA
HETATM   20  N1  UNL     1       8.667  -2.808   0.000  1.00  0.00     0.000 N 
HETATM   21  C16 UNL     1       4.173  -1.740   0.000  1.00  0.00     0.001 A 
HETATM   22  C17 UNL     1       3.522  -1.234   0.000  1.00  0.00     0.000 A 
HETATM   23  C18 UNL     1       2.839  -1.697   0.000  1.00  0.00     0.000 A 
HETATM   24  C19 UNL     1       3.068  -2.490   0.000  1.00  0.00     0.000 A 
HETATM   25  O4  UNL     1       2.562  -3.141   0.000  1.00  0.00     0.000 OA
ENDROOT
TORSDOF 43
