REMARK  19 active torsions:
REMARK  status: ('A' for Active; 'I' for Inactive)
REMARK    1  A    between atoms: O1_3  and  C6_10 
REMARK    2  A    between atoms: O2_4  and  C1_5 
REMARK    3  A    between atoms: O2_4  and  C2_6 
REMARK    4  A    between atoms: C1_5  and  C4_8 
REMARK    5  A    between atoms: C1_5  and  C5_9 
REMARK    6  A    between atoms: C2_6  and  C5_9 
REMARK    7  A    between atoms: C2_6  and  C6_10 
REMARK    8  A    between atoms: C3_7  and  C6_10 
REMARK    9  A    between atoms: C4_8  and  C6_10 
REMARK   10  A    between atoms: C5_9  and  C6_10 
REMARK   11  A    between atoms: C6_10  and  N2_11 
REMARK   12  A    between atoms: C7_13  and  C10_16 
REMARK   13  A    between atoms: C7_13  and  C11_18 
REMARK   14  A    between atoms: C8_14  and  C11_18 
REMARK   15  A    between atoms: C8_14  and  C12_19 
REMARK   16  A    between atoms: C9_15  and  C12_19 
REMARK   17  A    between atoms: C10_16  and  C12_19 
REMARK   18  A    between atoms: O3_17  and  C11_18 
REMARK   19  A    between atoms: C11_18  and  C12_19 
ROOT
HETATM    1  N1  UNL     1       1.429  -0.825   0.000  1.00  0.00    -0.082 NA
HETATM    2  S1  UNL     1       1.429  -1.650   0.000  1.00  0.00    -0.128 SA
HETATM    3  O1  UNL     1       0.604  -1.650   0.000  1.00  0.00     0.000 OA
HETATM    4  O2  UNL     1       2.254  -1.650   0.000  1.00  0.00     0.000 OA
HETATM    5  C1  UNL     1       1.429  -2.475   0.000  1.00  0.00     0.043 A 
HETATM    6  C2  UNL     1       2.143  -2.888   0.000  1.00  0.00     0.043 A 
HETATM    7  C3  UNL     1       2.143  -3.712   0.000  1.00  0.00     0.027 A 
HETATM    8  C4  UNL     1       1.429  -4.125   0.000  1.00  0.00     0.027 A 
HETATM    9  C5  UNL     1       0.715  -3.712   0.000  1.00  0.00     0.027 A 
HETATM   10  C6  UNL     1       0.715  -2.888   0.000  1.00  0.00     0.043 A 
HETATM   11  N2  UNL     1       0.000  -4.125   0.000  1.00  0.00     0.000 N 
HETATM   12  N3  UNL     1       0.000  -4.950   0.000  1.00  0.00     0.000 N 
HETATM   13  C7  UNL     1      -0.715  -5.362   0.000  1.00  0.00     0.000 A 
HETATM   14  C8  UNL     1      -0.715  -6.188   0.000  1.00  0.00     0.000 A 
HETATM   15  C9  UNL     1      -1.429  -6.600   0.000  1.00  0.00     0.000 A 
HETATM   16  C10 UNL     1      -2.143  -6.188   0.000  1.00  0.00     0.000 A 
HETATM   17  O3  UNL     1      -2.858  -6.600   0.000  1.00  0.00     0.000 OA
HETATM   18  C11 UNL     1      -2.143  -5.362   0.000  1.00  0.00     0.000 A 
HETATM   19  C12 UNL     1      -1.429  -4.950   0.000  1.00  0.00     0.000 A 
ENDROOT
TORSDOF 19
