REMARK  30 active torsions:
REMARK  status: ('A' for Active; 'I' for Inactive)
REMARK    1  A    between atoms: C2_2  and  C11_13 
REMARK    2  A    between atoms: C3_4  and  C6_7 
REMARK    3  A    between atoms: C3_4  and  C10_12 
REMARK    4  A    between atoms: C4_5  and  C10_12 
REMARK    5  A    between atoms: C4_5  and  C11_13 
REMARK    6  A    between atoms: C5_6  and  C11_13 
REMARK    7  A    between atoms: C5_6  and  C12_14 
REMARK    8  A    between atoms: C5_6  and  C13_15 
REMARK    9  A    between atoms: C6_7  and  C8_10 
REMARK   10  A    between atoms: C6_7  and  C9_11 
REMARK   11  A    between atoms: C6_7  and  C11_13 
REMARK   12  A    between atoms: C6_7  and  C13_15 
REMARK   13  A    between atoms: C7_8  and  C9_11 
REMARK   14  A    between atoms: C7_8  and  C10_12 
REMARK   15  A    between atoms: N1_9  and  C12_14 
REMARK   16  A    between atoms: C8_10  and  C10_12 
REMARK   17  A    between atoms: C9_11  and  C10_12 
REMARK   18  A    between atoms: C9_11  and  C11_13 
REMARK   19  A    between atoms: C10_12  and  C11_13 
REMARK   20  A    between atoms: C12_14  and  C15_17 
REMARK   21  A    between atoms: C12_14  and  C16_18 
REMARK   22  A    between atoms: C13_15  and  C16_18 
REMARK   23  A    between atoms: C13_15  and  C17_19 
REMARK   24  A    between atoms: C14_16  and  C17_19 
REMARK   25  A    between atoms: C14_16  and  N2_23 
REMARK   26  A    between atoms: C15_17  and  C17_19 
REMARK   27  A    between atoms: C16_18  and  C17_19 
REMARK   28  A    between atoms: C16_18  and  S1_20 
REMARK   29  A    between atoms: C16_18  and  O3_22 
REMARK   30  A    between atoms: O2_21  and  N2_23 
ROOT
HETATM    1  C1  UNL     1      -0.715  -2.888   0.000  1.00  0.00    -0.031 A 
HETATM    2  C2  UNL     1       0.000  -2.475   0.000  1.00  0.00     0.022 A 
HETATM    3  O1  UNL     1       0.000  -1.650   0.000  1.00  0.00     0.000 OA
HETATM    4  C3  UNL     1       0.715  -1.238   0.000  1.00  0.00     0.004 A 
HETATM    5  C4  UNL     1       0.715  -0.412   0.000  1.00  0.00     0.001 A 
HETATM    6  C5  UNL     1       1.429   0.000   0.000  1.00  0.00     0.011 A 
HETATM    7  C6  UNL     1       2.143  -0.412   0.000  1.00  0.00     0.010 A 
HETATM    8  C7  UNL     1       2.858   0.000   0.000  1.00  0.00     0.015 A 
HETATM    9  N1  UNL     1       3.572  -0.412   0.000  1.00  0.00     0.000 N 
HETATM   10  C8  UNL     1       3.572  -1.238   0.000  1.00  0.00     0.001 A 
HETATM   11  C9  UNL     1       2.858  -1.650   0.000  1.00  0.00     0.001 A 
HETATM   12  C10 UNL     1       2.143  -1.238   0.000  1.00  0.00     0.002 A 
HETATM   13  C11 UNL     1       1.429  -1.650   0.000  1.00  0.00     0.004 A 
HETATM   14  C12 UNL     1       2.858   0.825   0.000  1.00  0.00     0.071 A 
HETATM   15  C13 UNL     1       2.143   1.238   0.000  1.00  0.00     0.071 A 
HETATM   16  C14 UNL     1       2.143   2.062   0.000  1.00  0.00     0.210 A 
HETATM   17  C15 UNL     1       2.858   2.475   0.000  1.00  0.00     0.210 A 
HETATM   18  C16 UNL     1       3.572   2.062   0.000  1.00  0.00     0.110 A 
HETATM   19  C17 UNL     1       3.572   1.238   0.000  1.00  0.00     0.080 A 
HETATM   20  S1  UNL     1       2.858   3.300   0.000  1.00  0.00     0.037 SA
HETATM   21  O2  UNL     1       2.858   4.125   0.000  1.00  0.00     0.000 OA
HETATM   22  O3  UNL     1       3.683   3.300   0.000  1.00  0.00     0.000 OA
HETATM   23  N2  UNL     1       2.033   3.300   0.000  1.00  0.00     0.173 N 
ENDROOT
TORSDOF 30
