REMARK  23 active torsions:
REMARK  status: ('A' for Active; 'I' for Inactive)
REMARK    1  A    between atoms: C1_1  and  C8_8 
REMARK    2  A    between atoms: C1_1  and  C13_13 
REMARK    3  A    between atoms: C2_2  and  C5_5 
REMARK    4  A    between atoms: C2_2  and  C6_6 
REMARK    5  A    between atoms: C2_2  and  C13_13 
REMARK    6  A    between atoms: C3_3  and  C6_6 
REMARK    7  A    between atoms: C3_3  and  C7_7 
REMARK    8  A    between atoms: C4_4  and  C7_7 
REMARK    9  A    between atoms: C5_5  and  C7_7 
REMARK   10  A    between atoms: C6_6  and  C7_7 
REMARK   11  A    between atoms: C6_6  and  C8_8 
REMARK   12  A    between atoms: C6_6  and  C9_9 
REMARK   13  A    between atoms: C8_8  and  C11_11 
REMARK   14  A    between atoms: C8_8  and  C12_12 
REMARK   15  A    between atoms: C9_9  and  C12_12 
REMARK   16  A    between atoms: C9_9  and  C13_13 
REMARK   17  A    between atoms: C10_10  and  C13_13 
REMARK   18  A    between atoms: C10_10  and  N1_17 
REMARK   19  A    between atoms: C11_11  and  C13_13 
REMARK   20  A    between atoms: C12_12  and  C13_13 
REMARK   21  A    between atoms: C12_12  and  S1_14 
REMARK   22  A    between atoms: C12_12  and  O2_16 
REMARK   23  A    between atoms: O1_15  and  N1_17 
ROOT
HETATM    1  C1  UNL     1       0.715  -0.412   0.000  1.00  0.00     0.011 A 
HETATM    2  C2  UNL     1       0.715  -1.238   0.000  1.00  0.00     0.010 A 
HETATM    3  C3  UNL     1       1.429  -1.650   0.000  1.00  0.00     0.002 A 
HETATM    4  C4  UNL     1       1.429  -2.475   0.000  1.00  0.00     0.001 A 
HETATM    5  C5  UNL     1       0.715  -2.888   0.000  1.00  0.00     0.001 A 
HETATM    6  C6  UNL     1       0.000  -2.475   0.000  1.00  0.00     0.011 A 
HETATM    7  C7  UNL     1       0.000  -1.650   0.000  1.00  0.00     0.015 A 
HETATM    8  C8  UNL     1      -0.715  -1.238   0.000  1.00  0.00     0.066 A 
HETATM    9  C9  UNL     1      -1.429  -1.650   0.000  1.00  0.00     0.075 A 
HETATM   10  C10 UNL     1      -2.143  -1.238   0.000  1.00  0.00     0.209 A 
HETATM   11  C11 UNL     1      -2.143  -0.412   0.000  1.00  0.00     0.209 A 
HETATM   12  C12 UNL     1      -1.429  -0.000   0.000  1.00  0.00     0.109 A 
HETATM   13  C13 UNL     1      -0.715  -0.412   0.000  1.00  0.00     0.070 A 
HETATM   14  S1  UNL     1      -2.858   0.000   0.000  1.00  0.00     0.037 SA
HETATM   15  O1  UNL     1      -3.572   0.412   0.000  1.00  0.00     0.000 OA
HETATM   16  O2  UNL     1      -2.445   0.715   0.000  1.00  0.00     0.000 OA
HETATM   17  N1  UNL     1      -3.270  -0.715   0.000  1.00  0.00     0.173 N 
ENDROOT
TORSDOF 23
