REMARK  23 active torsions:
REMARK  status: ('A' for Active; 'I' for Inactive)
REMARK    1  A    between atoms: O1_3  and  C13_20 
REMARK    2  A    between atoms: O2_4  and  C1_5 
REMARK    3  A    between atoms: O2_4  and  C2_6 
REMARK    4  A    between atoms: C1_5  and  C4_8 
REMARK    5  A    between atoms: C1_5  and  C12_19 
REMARK    6  A    between atoms: C2_6  and  C12_19 
REMARK    7  A    between atoms: C2_6  and  C13_20 
REMARK    8  A    between atoms: C3_7  and  C13_20 
REMARK    9  A    between atoms: C4_8  and  C13_20 
REMARK   10  A    between atoms: N2_9  and  C12_19 
REMARK   11  A    between atoms: C5_10  and  C11_18 
REMARK   12  A    between atoms: C5_10  and  C12_19 
REMARK   13  A    between atoms: O3_11  and  N3_12 
REMARK   14  A    between atoms: O3_11  and  C11_18 
REMARK   15  A    between atoms: O3_11  and  C12_19 
REMARK   16  A    between atoms: C6_13  and  C9_16 
REMARK   17  A    between atoms: C6_13  and  C10_17 
REMARK   18  A    between atoms: C7_14  and  C10_17 
REMARK   19  A    between atoms: C7_14  and  C11_18 
REMARK   20  A    between atoms: C8_15  and  C11_18 
REMARK   21  A    between atoms: C9_16  and  C11_18 
REMARK   22  A    between atoms: C10_17  and  C11_18 
REMARK   23  A    between atoms: C12_19  and  C13_20 
ROOT
HETATM    1  N1  UNL     1       2.858  -0.825   0.000  1.00  0.00    -0.082 NA
HETATM    2  S1  UNL     1       2.858  -1.650   0.000  1.00  0.00    -0.128 SA
HETATM    3  O1  UNL     1       2.033  -1.650   0.000  1.00  0.00     0.000 OA
HETATM    4  O2  UNL     1       3.683  -1.650   0.000  1.00  0.00     0.000 OA
HETATM    5  C1  UNL     1       2.858  -2.475   0.000  1.00  0.00     0.043 A 
HETATM    6  C2  UNL     1       3.572  -2.888   0.000  1.00  0.00     0.043 A 
HETATM    7  C3  UNL     1       3.572  -3.712   0.000  1.00  0.00     0.027 A 
HETATM    8  C4  UNL     1       2.858  -4.125   0.000  1.00  0.00     0.025 A 
HETATM    9  N2  UNL     1       2.858  -4.950   0.000  1.00  0.00     0.000 N 
HETATM   10  C5  UNL     1       2.143  -5.362   0.000  1.00  0.00     0.004 A 
HETATM   11  O3  UNL     1       1.429  -4.950   0.000  1.00  0.00     0.000 OA
HETATM   12  N3  UNL     1       2.143  -6.188   0.000  1.00  0.00     0.000 N 
HETATM   13  C6  UNL     1       1.429  -6.600   0.000  1.00  0.00     0.000 A 
HETATM   14  C7  UNL     1       1.429  -7.425   0.000  1.00  0.00     0.000 A 
HETATM   15  C8  UNL     1       0.715  -7.838   0.000  1.00  0.00     0.000 A 
HETATM   16  C9  UNL     1      -0.000  -7.425   0.000  1.00  0.00     0.000 A 
HETATM   17  C10 UNL     1      -0.000  -6.600   0.000  1.00  0.00     0.000 A 
HETATM   18  C11 UNL     1       0.715  -6.188   0.000  1.00  0.00     0.000 A 
HETATM   19  C12 UNL     1       2.143  -3.712   0.000  1.00  0.00     0.025 A 
HETATM   20  C13 UNL     1       2.143  -2.888   0.000  1.00  0.00     0.043 A 
ENDROOT
TORSDOF 23
