REMARK  19 active torsions:
REMARK  status: ('A' for Active; 'I' for Inactive)
REMARK    1  A    between atoms: O1_3  and  C9_19 
REMARK    2  A    between atoms: O2_4  and  C1_5 
REMARK    3  A    between atoms: O2_4  and  C2_6 
REMARK    4  A    between atoms: C1_5  and  C4_8 
REMARK    5  A    between atoms: C1_5  and  C8_18 
REMARK    6  A    between atoms: C2_6  and  C8_18 
REMARK    7  A    between atoms: C2_6  and  C9_19 
REMARK    8  A    between atoms: C3_7  and  C9_19 
REMARK    9  A    between atoms: C4_8  and  C9_19 
REMARK   10  A    between atoms: N2_9  and  C8_18 
REMARK   11  A    between atoms: C5_10  and  C7_15 
REMARK   12  A    between atoms: C5_10  and  C8_18 
REMARK   13  A    between atoms: N3_11  and  N5_17 
REMARK   14  A    between atoms: O3_13  and  N4_14 
REMARK   15  A    between atoms: N4_14  and  N5_17 
REMARK   16  A    between atoms: C7_15  and  N5_17 
REMARK   17  A    between atoms: O4_16  and  N5_17 
REMARK   18  A    between atoms: N5_17  and  C8_18 
REMARK   19  A    between atoms: C8_18  and  C9_19 
ROOT
HETATM    1  N1  UNL     1       2.143   0.412   0.000  1.00  0.00    -0.082 NA
HETATM    2  S1  UNL     1       2.143  -0.412   0.000  1.00  0.00    -0.128 SA
HETATM    3  O1  UNL     1       1.318  -0.412   0.000  1.00  0.00     0.000 OA
HETATM    4  O2  UNL     1       2.968  -0.412   0.000  1.00  0.00     0.000 OA
HETATM    5  C1  UNL     1       2.143  -1.238   0.000  1.00  0.00     0.043 A 
HETATM    6  C2  UNL     1       2.858  -1.650   0.000  1.00  0.00     0.043 A 
HETATM    7  C3  UNL     1       2.858  -2.475   0.000  1.00  0.00     0.027 A 
HETATM    8  C4  UNL     1       2.143  -2.888   0.000  1.00  0.00     0.025 A 
HETATM    9  N2  UNL     1       2.143  -3.712   0.000  1.00  0.00     0.000 N 
HETATM   10  C5  UNL     1       1.429  -4.125   0.000  1.00  0.00     0.004 A 
HETATM   11  N3  UNL     1       1.429  -4.950   0.000  1.00  0.00     0.000 N 
HETATM   12  C6  UNL     1       0.715  -5.362   0.000  1.00  0.00     0.000 A 
HETATM   13  O3  UNL     1       0.715  -6.188   0.000  1.00  0.00     0.000 OA
HETATM   14  N4  UNL     1      -0.000  -4.950   0.000  1.00  0.00     0.000 N 
HETATM   15  C7  UNL     1      -0.000  -4.125   0.000  1.00  0.00     0.000 A 
HETATM   16  O4  UNL     1      -0.715  -3.712   0.000  1.00  0.00     0.000 OA
HETATM   17  N5  UNL     1       0.715  -3.712   0.000  1.00  0.00     0.000 N 
HETATM   18  C8  UNL     1       1.429  -2.475   0.000  1.00  0.00     0.025 A 
HETATM   19  C9  UNL     1       1.429  -1.650   0.000  1.00  0.00     0.043 A 
ENDROOT
TORSDOF 19
