REMARK  22 active torsions:
REMARK  status: ('A' for Active; 'I' for Inactive)
REMARK    1  A    between atoms: C3_3  and  C5_6 
REMARK    2  A    between atoms: C4_5  and  C7_8 
REMARK    3  A    between atoms: C4_5  and  C8_9 
REMARK    4  A    between atoms: C5_6  and  C8_9 
REMARK    5  A    between atoms: C5_6  and  C18_25 
REMARK    6  A    between atoms: C6_7  and  C18_25 
REMARK    7  A    between atoms: C7_8  and  C10_11 
REMARK    8  A    between atoms: C7_8  and  C18_25 
REMARK    9  A    between atoms: C8_9  and  C18_25 
REMARK   10  A    between atoms: C9_10  and  C18_25 
REMARK   11  A    between atoms: O2_14  and  C12_15 
REMARK   12  A    between atoms: C12_15  and  C15_18 
REMARK   13  A    between atoms: C12_15  and  C16_19 
REMARK   14  A    between atoms: C13_16  and  C16_19 
REMARK   15  A    between atoms: C13_16  and  C17_20 
REMARK   16  A    between atoms: C14_17  and  C17_20 
REMARK   17  A    between atoms: C14_17  and  N2_24 
REMARK   18  A    between atoms: C15_18  and  C17_20 
REMARK   19  A    between atoms: C16_19  and  C17_20 
REMARK   20  A    between atoms: C16_19  and  S1_21 
REMARK   21  A    between atoms: C16_19  and  O4_23 
REMARK   22  A    between atoms: O3_22  and  N2_24 
ROOT
HETATM    1  C1  UNL     1      -4.287  -2.475   0.000  1.00  0.00    -0.052 A 
HETATM    2  C2  UNL     1      -3.572  -2.888   0.000  1.00  0.00     0.025 A 
HETATM    3  C3  UNL     1      -2.858  -2.475   0.000  1.00  0.00     0.018 A 
HETATM    4  O1  UNL     1      -2.143  -2.888   0.000  1.00  0.00     0.000 OA
HETATM    5  C4  UNL     1      -1.429  -2.475   0.000  1.00  0.00     0.003 A 
HETATM    6  C5  UNL     1      -1.429  -1.650   0.000  1.00  0.00     0.003 A 
HETATM    7  C6  UNL     1      -0.715  -1.238   0.000  1.00  0.00     0.001 A 
HETATM    8  C7  UNL     1       0.000  -1.650   0.000  1.00  0.00     0.001 A 
HETATM    9  C8  UNL     1       0.000  -2.475   0.000  1.00  0.00     0.001 A 
HETATM   10  C9  UNL     1       0.715  -2.888   0.000  1.00  0.00     0.000 A 
HETATM   11  C10 UNL     1       1.429  -2.475   0.000  1.00  0.00     0.001 A 
HETATM   12  N1  UNL     1       2.143  -2.888   0.000  1.00  0.00     0.000 N 
HETATM   13  C11 UNL     1       2.858  -2.475   0.000  1.00  0.00     0.017 A 
HETATM   14  O2  UNL     1       2.858  -1.650   0.000  1.00  0.00     0.000 OA
HETATM   15  C12 UNL     1       3.572  -2.888   0.000  1.00  0.00     0.080 A 
HETATM   16  C13 UNL     1       4.287  -2.475   0.000  1.00  0.00     0.080 A 
HETATM   17  C14 UNL     1       5.001  -2.888   0.000  1.00  0.00     0.210 A 
HETATM   18  C15 UNL     1       5.001  -3.712   0.000  1.00  0.00     0.210 A 
HETATM   19  C16 UNL     1       4.287  -4.125   0.000  1.00  0.00     0.110 A 
HETATM   20  C17 UNL     1       3.572  -3.712   0.000  1.00  0.00     0.080 A 
HETATM   21  S1  UNL     1       5.716  -4.125   0.000  1.00  0.00     0.037 SA
HETATM   22  O3  UNL     1       6.430  -4.537   0.000  1.00  0.00     0.000 OA
HETATM   23  O4  UNL     1       5.303  -4.840   0.000  1.00  0.00     0.000 OA
HETATM   24  N2  UNL     1       6.128  -3.410   0.000  1.00  0.00     0.173 N 
HETATM   25  C18 UNL     1      -0.715  -2.888   0.000  1.00  0.00     0.001 A 
ENDROOT
TORSDOF 22
