REMARK  16 active torsions:
REMARK  status: ('A' for Active; 'I' for Inactive)
REMARK    1  A    between atoms: C2_3  and  C4_6 
REMARK    2  A    between atoms: C3_5  and  C6_8 
REMARK    3  A    between atoms: C3_5  and  C7_9 
REMARK    4  A    between atoms: C3_5  and  C11_13 
REMARK    5  A    between atoms: C4_6  and  C7_9 
REMARK    6  A    between atoms: C4_6  and  C12_14 
REMARK    7  A    between atoms: C5_7  and  C12_14 
REMARK    8  A    between atoms: C6_8  and  C12_14 
REMARK    9  A    between atoms: C7_9  and  C12_14 
REMARK   10  A    between atoms: C7_9  and  C10_12 
REMARK   11  A    between atoms: C7_9  and  C11_13 
REMARK   12  A    between atoms: C8_10  and  C11_13 
REMARK   13  A    between atoms: C8_10  and  C12_14 
REMARK   14  A    between atoms: C9_11  and  C12_14 
REMARK   15  A    between atoms: C10_12  and  C12_14 
REMARK   16  A    between atoms: C11_13  and  C12_14 
ROOT
HETATM    1  N1  UNL     1       0.000  -4.125   0.000  1.00  0.00    -0.295 NA
HETATM    2  C1  UNL     1       0.715  -3.712   0.000  1.00  0.00     0.141 A 
HETATM    3  C2  UNL     1       0.715  -2.888   0.000  1.00  0.00     0.101 A 
HETATM    4  N2  UNL     1       1.429  -2.475   0.000  1.00  0.00     0.000 N 
HETATM    5  C3  UNL     1       1.429  -1.650   0.000  1.00  0.00     0.018 A 
HETATM    6  C4  UNL     1       0.715  -1.238   0.000  1.00  0.00     0.019 A 
HETATM    7  C5  UNL     1       0.715  -0.412   0.000  1.00  0.00     0.004 A 
HETATM    8  C6  UNL     1       1.429   0.000   0.000  1.00  0.00     0.003 A 
HETATM    9  C7  UNL     1       2.143  -0.412   0.000  1.00  0.00     0.003 A 
HETATM   10  C8  UNL     1       2.858   0.000   0.000  1.00  0.00     0.000 A 
HETATM   11  C9  UNL     1       3.572  -0.412   0.000  1.00  0.00     0.000 A 
HETATM   12  C10 UNL     1       3.572  -1.238   0.000  1.00  0.00     0.000 A 
HETATM   13  C11 UNL     1       2.858  -1.650   0.000  1.00  0.00     0.002 A 
HETATM   14  C12 UNL     1       2.143  -1.238   0.000  1.00  0.00     0.003 A 
ENDROOT
TORSDOF 16
