REMARK  15 active torsions:
REMARK  status: ('A' for Active; 'I' for Inactive)
REMARK    1  A    between atoms: C3_3  and  C12_15 
REMARK    2  A    between atoms: C4_5  and  C7_8 
REMARK    3  A    between atoms: C4_5  and  C11_14 
REMARK    4  A    between atoms: C5_6  and  C11_14 
REMARK    5  A    between atoms: C5_6  and  C12_15 
REMARK    6  A    between atoms: C6_7  and  C12_15 
REMARK    7  A    between atoms: C7_8  and  C9_12 
REMARK    8  A    between atoms: C7_8  and  C10_13 
REMARK    9  A    between atoms: C7_8  and  C12_15 
REMARK   10  A    between atoms: O2_9  and  C11_14 
REMARK   11  A    between atoms: C8_10  and  C11_14 
REMARK   12  A    between atoms: C9_12  and  C11_14 
REMARK   13  A    between atoms: C10_13  and  C11_14 
REMARK   14  A    between atoms: C10_13  and  C12_15 
REMARK   15  A    between atoms: C11_14  and  C12_15 
ROOT
HETATM    1  C1  UNL     1      -0.715  -3.712   0.000  1.00  0.00    -0.052 A 
HETATM    2  C2  UNL     1      -0.715  -2.888   0.000  1.00  0.00     0.025 A 
HETATM    3  C3  UNL     1       0.000  -2.475   0.000  1.00  0.00     0.019 A 
HETATM    4  O1  UNL     1       0.000  -1.650   0.000  1.00  0.00     0.000 OA
HETATM    5  C4  UNL     1       0.715  -1.238   0.000  1.00  0.00     0.012 A 
HETATM    6  C5  UNL     1       0.715  -0.412   0.000  1.00  0.00     0.009 A 
HETATM    7  C6  UNL     1       1.429   0.000   0.000  1.00  0.00     0.009 A 
HETATM    8  C7  UNL     1       2.143  -0.412   0.000  1.00  0.00     0.040 A 
HETATM    9  O2  UNL     1       2.858   0.000   0.000  1.00  0.00     0.000 OA
HETATM   10  C8  UNL     1       3.572  -0.412   0.000  1.00  0.00     0.098 A 
HETATM   11  O3  UNL     1       4.287  -0.000   0.000  1.00  0.00    -0.363 OA
HETATM   12  C9  UNL     1       3.572  -1.238   0.000  1.00  0.00     0.098 A 
HETATM   13  C10 UNL     1       2.858  -1.650   0.000  1.00  0.00     0.050 A 
HETATM   14  C11 UNL     1       2.143  -1.238   0.000  1.00  0.00     0.040 A 
HETATM   15  C12 UNL     1       1.429  -1.650   0.000  1.00  0.00     0.015 A 
ENDROOT
TORSDOF 15
