REMARK  26 active torsions:
REMARK  status: ('A' for Active; 'I' for Inactive)
REMARK    1  A    between atoms: O1_3  and  C6_10 
REMARK    2  A    between atoms: O2_4  and  C1_5 
REMARK    3  A    between atoms: O2_4  and  C2_6 
REMARK    4  A    between atoms: C1_5  and  C4_8 
REMARK    5  A    between atoms: C1_5  and  C5_9 
REMARK    6  A    between atoms: C2_6  and  C5_9 
REMARK    7  A    between atoms: C2_6  and  C6_10 
REMARK    8  A    between atoms: C3_7  and  C6_10 
REMARK    9  A    between atoms: C4_8  and  C6_10 
REMARK   10  A    between atoms: C5_9  and  C6_10 
REMARK   11  A    between atoms: C5_9  and  C7_11 
REMARK   12  A    between atoms: C7_11  and  N3_14 
REMARK   13  A    between atoms: C8_12  and  N4_15 
REMARK   14  A    between atoms: N2_13  and  N4_15 
REMARK   15  A    between atoms: N3_14  and  N4_15 
REMARK   16  A    between atoms: N3_14  and  C9_16 
REMARK   17  A    between atoms: C9_16  and  C12_21 
REMARK   18  A    between atoms: C9_16  and  C13_23 
REMARK   19  A    between atoms: O3_17  and  C14_25 
REMARK   20  A    between atoms: C10_18  and  C14_25 
REMARK   21  A    between atoms: C11_19  and  C12_21 
REMARK   22  A    between atoms: C12_21  and  C14_25 
REMARK   23  A    between atoms: O5_22  and  C13_23 
REMARK   24  A    between atoms: C13_23  and  C14_25 
REMARK   25  A    between atoms: C13_23  and  O7_26 
REMARK   26  A    between atoms: O6_24  and  C14_25 
ROOT
HETATM    1  N1  UNL     1       0.715   2.888   0.000  1.00  0.00    -0.082 NA
HETATM    2  S1  UNL     1       0.715   2.062   0.000  1.00  0.00    -0.128 SA
HETATM    3  O1  UNL     1      -0.111   2.062   0.000  1.00  0.00     0.000 OA
HETATM    4  O2  UNL     1       1.540   2.062   0.000  1.00  0.00     0.000 OA
HETATM    5  C1  UNL     1       0.715   1.238   0.000  1.00  0.00     0.043 A 
HETATM    6  C2  UNL     1       1.429   0.825   0.000  1.00  0.00     0.043 A 
HETATM    7  C3  UNL     1       1.429  -0.000   0.000  1.00  0.00     0.025 A 
HETATM    8  C4  UNL     1       0.715  -0.412   0.000  1.00  0.00     0.023 A 
HETATM    9  C5  UNL     1       0.000  -0.000   0.000  1.00  0.00     0.025 A 
HETATM   10  C6  UNL     1       0.000   0.825   0.000  1.00  0.00     0.043 A 
HETATM   11  C7  UNL     1       0.715  -1.238   0.000  1.00  0.00     0.007 A 
HETATM   12  C8  UNL     1       1.382  -1.722   0.000  1.00  0.00     0.005 A 
HETATM   13  N2  UNL     1       1.127  -2.507   0.000  1.00  0.00     0.000 N 
HETATM   14  N3  UNL     1       0.302  -2.507   0.000  1.00  0.00     0.000 N 
HETATM   15  N4  UNL     1       0.047  -1.722   0.000  1.00  0.00     0.000 N 
HETATM   16  C9  UNL     1       1.612  -3.175   0.000  1.00  0.00     0.028 A 
HETATM   17  O3  UNL     1       2.432  -3.088   0.000  1.00  0.00     0.000 OA
HETATM   18  C10 UNL     1       2.917  -3.756   0.000  1.00  0.00     0.083 A 
HETATM   19  C11 UNL     1       3.738  -3.670   0.000  1.00  0.00     0.138 A 
HETATM   20  O4  UNL     1       4.073  -2.916   0.000  1.00  0.00    -0.361 OA
HETATM   21  C12 UNL     1       2.582  -4.509   0.000  1.00  0.00     0.051 A 
HETATM   22  O5  UNL     1       3.067  -5.177   0.000  1.00  0.00     0.000 OA
HETATM   23  C13 UNL     1       1.761  -4.596   0.000  1.00  0.00     0.030 A 
HETATM   24  O6  UNL     1       1.426  -5.349   0.000  1.00  0.00     0.000 OA
HETATM   25  C14 UNL     1       1.276  -3.928   0.000  1.00  0.00     0.030 A 
HETATM   26  O7  UNL     1       0.456  -4.014   0.000  1.00  0.00     0.000 OA
ENDROOT
TORSDOF 26
