REMARK  27 active torsions:
REMARK  status: ('A' for Active; 'I' for Inactive)
REMARK    1  A    between atoms: C2_2  and  C5_5 
REMARK    2  A    between atoms: C2_2  and  C6_6 
REMARK    3  A    between atoms: C3_3  and  C6_6 
REMARK    4  A    between atoms: C3_3  and  C7_7 
REMARK    5  A    between atoms: C4_4  and  C7_7 
REMARK    6  A    between atoms: C4_4  and  O2_10 
REMARK    7  A    between atoms: C5_5  and  C7_7 
REMARK    8  A    between atoms: C6_6  and  C7_7 
REMARK    9  A    between atoms: C6_6  and  S1_8 
REMARK   10  A    between atoms: C6_6  and  O1_9 
REMARK   11  A    between atoms: S1_8  and  O3_13 
REMARK   12  A    between atoms: O1_9  and  C8_12 
REMARK   13  A    between atoms: O1_9  and  O3_13 
REMARK   14  A    between atoms: O2_10  and  N1_11 
REMARK   15  A    between atoms: O3_13  and  N2_14 
REMARK   16  A    between atoms: C9_15  and  C16_22 
REMARK   17  A    between atoms: C11_17  and  C14_20 
REMARK   18  A    between atoms: C11_17  and  C15_21 
REMARK   19  A    between atoms: C12_18  and  C15_21 
REMARK   20  A    between atoms: C12_18  and  C16_22 
REMARK   21  A    between atoms: C13_19  and  C16_22 
REMARK   22  A    between atoms: C13_19  and  N3_26 
REMARK   23  A    between atoms: C14_20  and  C16_22 
REMARK   24  A    between atoms: C15_21  and  C16_22 
REMARK   25  A    between atoms: C15_21  and  S2_23 
REMARK   26  A    between atoms: C15_21  and  O5_25 
REMARK   27  A    between atoms: O4_24  and  N3_26 
ROOT
HETATM    1  C1  UNL     1       4.287  -3.300   0.000  1.00  0.00     0.006 A 
HETATM    2  C2  UNL     1       4.287  -4.125   0.000  1.00  0.00     0.022 A 
HETATM    3  C3  UNL     1       5.001  -4.537   0.000  1.00  0.00     0.022 A 
HETATM    4  C4  UNL     1       5.001  -5.362   0.000  1.00  0.00     0.029 A 
HETATM    5  C5  UNL     1       4.287  -5.775   0.000  1.00  0.00     0.029 A 
HETATM    6  C6  UNL     1       3.572  -5.362   0.000  1.00  0.00     0.029 A 
HETATM    7  C7  UNL     1       3.572  -4.537   0.000  1.00  0.00     0.022 A 
HETATM    8  S1  UNL     1       4.287  -6.600   0.000  1.00  0.00    -0.209 SA
HETATM    9  O1  UNL     1       3.462  -6.600   0.000  1.00  0.00     0.000 OA
HETATM   10  O2  UNL     1       5.112  -6.600   0.000  1.00  0.00     0.000 OA
HETATM   11  N1  UNL     1       4.287  -7.425   0.000  1.00  0.00     0.000 N 
HETATM   12  C8  UNL     1       3.572  -7.838   0.000  1.00  0.00     0.041 A 
HETATM   13  O3  UNL     1       2.858  -7.425   0.000  1.00  0.00     0.000 OA
HETATM   14  N2  UNL     1       3.572  -8.662   0.000  1.00  0.00     0.000 N 
HETATM   15  C9  UNL     1       2.858  -9.075   0.000  1.00  0.00     0.020 A 
HETATM   16  C10 UNL     1       2.858  -9.900   0.000  1.00  0.00     0.018 A 
HETATM   17  C11 UNL     1       2.143 -10.312   0.000  1.00  0.00     0.076 A 
HETATM   18  C12 UNL     1       2.143 -11.137   0.000  1.00  0.00     0.080 A 
HETATM   19  C13 UNL     1       1.429 -11.550   0.000  1.00  0.00     0.210 A 
HETATM   20  C14 UNL     1       0.715 -11.137   0.000  1.00  0.00     0.210 A 
HETATM   21  C15 UNL     1       0.715 -10.312   0.000  1.00  0.00     0.110 A 
HETATM   22  C16 UNL     1       1.429  -9.900   0.000  1.00  0.00     0.076 A 
HETATM   23  S2  UNL     1      -0.000 -11.550   0.000  1.00  0.00     0.037 SA
HETATM   24  O4  UNL     1      -0.715 -11.963   0.000  1.00  0.00     0.000 OA
HETATM   25  O5  UNL     1      -0.412 -10.835   0.000  1.00  0.00     0.000 OA
HETATM   26  N3  UNL     1       0.412 -12.264   0.000  1.00  0.00     0.173 N 
ENDROOT
TORSDOF 27
