REMARK WARNING: 32 MAX_TORS EXCEEDED!!!
REMARK  79 active torsions:
REMARK  status: ('A' for Active; 'I' for Inactive)
REMARK    1  A    between atoms: C2_2  and  C9_14 
REMARK    2  A    between atoms: C2_2  and  O6_15 
REMARK    3  A    between atoms: C2_2  and  C10_16 
REMARK    4  A    between atoms: O1_3  and  C9_14 
REMARK    5  A    between atoms: O1_3  and  O6_15 
REMARK    6  A    between atoms: O1_3  and  C10_16 
REMARK    7  A    between atoms: O2_4  and  C9_14 
REMARK    8  A    between atoms: O2_4  and  O6_15 
REMARK    9  A    between atoms: C3_5  and  C8_12 
REMARK   10  A    between atoms: C3_5  and  O5_13 
REMARK   11  A    between atoms: C3_5  and  C9_14 
REMARK   12  A    between atoms: C3_5  and  O6_15 
REMARK   13  A    between atoms: C3_5  and  C10_16 
REMARK   14  A    between atoms: C4_6  and  C8_12 
REMARK   15  A    between atoms: C4_6  and  C9_14 
REMARK   16  A    between atoms: C4_6  and  O6_15 
REMARK   17  A    between atoms: C4_6  and  C18_33 
REMARK   18  A    between atoms: C4_6  and  C21_38 
REMARK   19  A    between atoms: O3_7  and  C7_11 
REMARK   20  A    between atoms: O3_7  and  C8_12 
REMARK   21  A    between atoms: O3_7  and  C24_43 
REMARK   22  A    between atoms: C5_8  and  C7_11 
REMARK   23  A    between atoms: C5_8  and  C8_12 
REMARK   24  A    between atoms: C5_8  and  C17_28 
REMARK   25  A    between atoms: C5_8  and  C24_43 
REMARK   26  A    between atoms: O4_9  and  C16_26 
REMARK   27  A    between atoms: O4_9  and  C17_28 
REMARK   28  A    between atoms: C6_10  and  C11_18 
REMARK   29  A    between atoms: C6_10  and  C12_19 
REMARK   30  A    between atoms: C6_10  and  C16_26 
REMARK   31  A    between atoms: C6_10  and  C17_28 
REMARK   32  A    between atoms: C7_11  and  C12_19 
REMARK   33  A    between atoms: C7_11  and  C15_24 
REMARK   34  A    between atoms: C8_12  and  O7_17 
REMARK   35  A    between atoms: O7_17  and  N1_32 
REMARK   36  A    between atoms: C11_18  and  C15_24 
REMARK   37  A    between atoms: C12_19  and  C15_24 
REMARK   38  A    between atoms: C12_19  and  C14_23 
REMARK   39  A    between atoms: C12_19  and  O10_25 
REMARK   40  A    between atoms: C12_19  and  S1_29 
REMARK   41  A    between atoms: C12_19  and  O13_31 
REMARK   42  A    between atoms: O8_20  and  C15_24 
REMARK   43  A    between atoms: O8_20  and  S1_29 
REMARK   44  A    between atoms: O8_20  and  O13_31 
REMARK   45  A    between atoms: C13_21  and  C15_24 
REMARK   46  A    between atoms: C13_21  and  O10_25 
REMARK   47  A    between atoms: C14_23  and  C15_24 
REMARK   48  A    between atoms: C14_23  and  O10_25 
REMARK   49  A    between atoms: C14_23  and  C16_26 
REMARK   50  A    between atoms: C15_24  and  C17_28 
REMARK   51  A    between atoms: C17_28  and  C18_33 
REMARK   52  A    between atoms: C17_28  and  O14_34 
REMARK   53  A    between atoms: O12_30  and  N1_32 
REMARK   54  A    between atoms: C18_33  and  C20_37 
REMARK   55  A    between atoms: C18_33  and  C24_43 
REMARK   56  A    between atoms: O14_34  and  C21_38 
REMARK   57  A    between atoms: C19_35  and  C21_38 
REMARK   58  A    between atoms: C19_35  and  O16_39 
REMARK   59  A    between atoms: C20_37  and  C21_38 
REMARK   60  A    between atoms: C20_37  and  O16_39 
REMARK   61  A    between atoms: C20_37  and  C22_40 
REMARK   62  A    between atoms: C20_37  and  O19_46 
REMARK   63  A    between atoms: C21_38  and  C24_43 
REMARK   64  A    between atoms: C21_38  and  C23_42 
REMARK   65  A    between atoms: C21_38  and  O18_44 
REMARK   66  A    between atoms: C21_38  and  C25_45 
REMARK   67  A    between atoms: C21_38  and  O19_46 
REMARK   68  A    between atoms: O16_39  and  C24_43 
REMARK   69  A    between atoms: O16_39  and  C25_45 
REMARK   70  A    between atoms: O16_39  and  O19_46 
REMARK   71  A    between atoms: C22_40  and  C25_45 
REMARK   72  A    between atoms: C22_40  and  O19_46 
REMARK   73  A    between atoms: O17_41  and  C25_45 
REMARK   74  A    between atoms: O17_41  and  O19_46 
REMARK   75  A    between atoms: C23_42  and  C24_43 
REMARK   76  A    between atoms: C23_42  and  O18_44 
REMARK   77  A    between atoms: C23_42  and  C25_45 
REMARK   78  A    between atoms: C23_42  and  O19_46 
REMARK   79  A    between atoms: C23_42  and  C26_47 
ROOT
HETATM    1  C1  UNL     1      -2.143   1.238   0.000  1.00  0.00     0.000 A 
HETATM    2  C2  UNL     1      -1.429   0.825   0.000  1.00  0.00     0.000 A 
HETATM    3  O1  UNL     1      -0.715   1.238   0.000  1.00  0.00     0.000 OA
HETATM    4  O2  UNL     1      -1.429  -0.000   0.000  1.00  0.00     0.000 OA
HETATM    5  C3  UNL     1      -0.715  -0.412   0.000  1.00  0.00     0.001 A 
HETATM    6  C4  UNL     1      -0.715  -1.238   0.000  1.00  0.00     0.012 A 
HETATM    7  O3  UNL     1      -0.000  -1.650   0.000  1.00  0.00     0.000 OA
HETATM    8  C5  UNL     1       0.000  -2.475   0.000  1.00  0.00     0.034 A 
HETATM    9  O4  UNL     1       0.715  -2.888   0.000  1.00  0.00     0.000 OA
HETATM   10  C6  UNL     1       1.429  -2.475   0.000  1.00  0.00     0.087 A 
HETATM   11  C7  UNL     1       1.429  -1.650   0.000  1.00  0.00     0.065 A 
HETATM   12  C8  UNL     1       0.715  -1.238   0.000  1.00  0.00     0.013 A 
HETATM   13  O5  UNL     1       0.715  -0.412   0.000  1.00  0.00     0.000 OA
HETATM   14  C9  UNL     1       0.000  -0.000   0.000  1.00  0.00     0.001 A 
HETATM   15  O6  UNL     1      -0.821   0.086   0.000  1.00  0.00     0.000 OA
HETATM   16  C10 UNL     1       0.000   0.825   0.000  1.00  0.00     0.000 A 
HETATM   17  O7  UNL     1       2.143  -1.238   0.000  1.00  0.00     0.000 OA
HETATM   18  C11 UNL     1       2.858  -1.650   0.000  1.00  0.00     0.256 A 
HETATM   19  C12 UNL     1       2.858  -2.475   0.000  1.00  0.00     0.128 A 
HETATM   20  O8  UNL     1       3.572  -2.888   0.000  1.00  0.00     0.000 OA
HETATM   21  C13 UNL     1       3.572  -3.712   0.000  1.00  0.00     0.137 A 
HETATM   22  O9  UNL     1       4.287  -4.125   0.000  1.00  0.00    -0.357 OA
HETATM   23  C14 UNL     1       2.858  -4.125   0.000  1.00  0.00     0.136 A 
HETATM   24  C15 UNL     1       2.143  -2.888   0.000  1.00  0.00     0.117 A 
HETATM   25  O10 UNL     1       2.143  -3.712   0.000  1.00  0.00     0.000 OA
HETATM   26  C16 UNL     1       1.429  -4.125   0.000  1.00  0.00     0.126 A 
HETATM   27  O11 UNL     1       1.429  -4.950   0.000  1.00  0.00    -0.362 OA
HETATM   28  C17 UNL     1       0.715  -3.712   0.000  1.00  0.00     0.095 A 
HETATM   29  S1  UNL     1       3.572  -1.238   0.000  1.00  0.00     0.105 SA
HETATM   30  O12 UNL     1       4.287  -0.825   0.000  1.00  0.00     0.000 OA
HETATM   31  O13 UNL     1       3.985  -1.952   0.000  1.00  0.00     0.000 OA
HETATM   32  N1  UNL     1       3.160  -0.523   0.000  1.00  0.00     0.396 N 
HETATM   33  C18 UNL     1      -0.715  -2.888   0.000  1.00  0.00     0.059 A 
HETATM   34  O14 UNL     1      -0.715  -3.712   0.000  1.00  0.00     0.000 OA
HETATM   35  C19 UNL     1      -1.429  -4.125   0.000  1.00  0.00     0.118 A 
HETATM   36  O15 UNL     1      -1.429  -4.950   0.000  1.00  0.00    -0.361 OA
HETATM   37  C20 UNL     1      -2.143  -3.712   0.000  1.00  0.00     0.100 A 
HETATM   38  C21 UNL     1      -1.429  -2.475   0.000  1.00  0.00     0.040 A 
HETATM   39  O16 UNL     1      -2.143  -2.888   0.000  1.00  0.00     0.000 OA
HETATM   40  C22 UNL     1      -2.949  -2.813   0.000  1.00  0.00     0.027 A 
HETATM   41  O17 UNL     1      -3.572  -2.888   0.000  1.00  0.00     0.000 OA
HETATM   42  C23 UNL     1      -2.949  -1.988   0.000  1.00  0.00     0.007 A 
HETATM   43  C24 UNL     1      -1.429  -1.650   0.000  1.00  0.00     0.012 A 
HETATM   44  O18 UNL     1      -2.143  -1.238   0.000  1.00  0.00     0.000 OA
HETATM   45  C25 UNL     1      -2.858  -1.650   0.000  1.00  0.00     0.007 A 
HETATM   46  O19 UNL     1      -2.858  -2.475   0.000  1.00  0.00     0.000 OA
HETATM   47  C26 UNL     1      -3.572  -1.238   0.000  1.00  0.00     0.001 A 
ENDROOT
TORSDOF 79
