REMARK WARNING: 32 MAX_TORS EXCEEDED!!!
REMARK  35 active torsions:
REMARK  status: ('A' for Active; 'I' for Inactive)
REMARK    1  A    between atoms: C2_2  and  C4_6 
REMARK    2  A    between atoms: C2_2  and  C13_20 
REMARK    3  A    between atoms: N1_3  and  N4_21 
REMARK    4  A    between atoms: S1_5  and  C4_6 
REMARK    5  A    between atoms: S1_5  and  C5_7 
REMARK    6  A    between atoms: S1_5  and  C14_22 
REMARK    7  A    between atoms: S1_5  and  C15_23 
REMARK    8  A    between atoms: S1_5  and  C16_24 
REMARK    9  A    between atoms: C4_6  and  N2_9 
REMARK   10  A    between atoms: C4_6  and  N4_21 
REMARK   11  A    between atoms: C5_7  and  C13_20 
REMARK   12  A    between atoms: C6_8  and  C13_20 
REMARK   13  A    between atoms: C6_8  and  C14_22 
REMARK   14  A    between atoms: N2_9  and  C13_20 
REMARK   15  A    between atoms: C7_10  and  C10_13 
REMARK   16  A    between atoms: C7_10  and  C11_14 
REMARK   17  A    between atoms: C7_10  and  C13_20 
REMARK   18  A    between atoms: C8_11  and  C11_14 
REMARK   19  A    between atoms: C8_11  and  C12_15 
REMARK   20  A    between atoms: C9_12  and  C12_15 
REMARK   21  A    between atoms: C9_12  and  O2_18 
REMARK   22  A    between atoms: C10_13  and  C12_15 
REMARK   23  A    between atoms: C11_14  and  C12_15 
REMARK   24  A    between atoms: C11_14  and  S2_16 
REMARK   25  A    between atoms: C11_14  and  N3_19 
REMARK   26  A    between atoms: O1_17  and  N3_19 
REMARK   27  A    between atoms: C13_20  and  N4_21 
REMARK   28  A    between atoms: C14_22  and  C17_25 
REMARK   29  A    between atoms: C14_22  and  C18_27 
REMARK   30  A    between atoms: C15_23  and  C18_27 
REMARK   31  A    between atoms: C15_23  and  C19_28 
REMARK   32  A    between atoms: C16_24  and  C19_28 
REMARK   33  A    between atoms: C17_25  and  C19_28 
REMARK   34  A    between atoms: BR1_26  and  C18_27 
REMARK   35  A    between atoms: C18_27  and  C19_28 
ROOT
HETATM    1  C1  UNL     1       4.067   2.348   0.000  1.00  0.00     0.002 A 
HETATM    2  C2  UNL     1       3.352   1.935   0.000  1.00  0.00     0.015 A 
HETATM    3  N1  UNL     1       3.352   1.110   0.000  1.00  0.00     0.000 N 
HETATM    4  C3  UNL     1       2.638   0.698   0.000  1.00  0.00     0.023 A 
HETATM    5  S1  UNL     1       2.638  -0.127   0.000  1.00  0.00    -0.226 SA
HETATM    6  C4  UNL     1       1.923   1.110   0.000  1.00  0.00     0.021 A 
HETATM    7  C5  UNL     1       1.139   0.856   0.000  1.00  0.00     0.025 A 
HETATM    8  C6  UNL     1       0.654   1.523   0.000  1.00  0.00     0.026 A 
HETATM    9  N2  UNL     1       1.139   2.190   0.000  1.00  0.00     0.000 N 
HETATM   10  C7  UNL     1       0.884   2.975   0.000  1.00  0.00     0.079 A 
HETATM   11  C8  UNL     1       0.077   3.147   0.000  1.00  0.00     0.086 A 
HETATM   12  C9  UNL     1      -0.178   3.931   0.000  1.00  0.00     0.111 A 
HETATM   13  C10 UNL     1       0.374   4.544   0.000  1.00  0.00     0.211 A 
HETATM   14  C11 UNL     1       1.181   4.373   0.000  1.00  0.00     0.211 A 
HETATM   15  C12 UNL     1       1.436   3.588   0.000  1.00  0.00     0.086 A 
HETATM   16  S2  UNL     1       0.119   5.329   0.000  1.00  0.00     0.037 SA
HETATM   17  O1  UNL     1      -0.136   6.114   0.000  1.00  0.00     0.000 OA
HETATM   18  O2  UNL     1      -0.666   5.074   0.000  1.00  0.00     0.000 OA
HETATM   19  N3  UNL     1       0.904   5.584   0.000  1.00  0.00     0.173 N 
HETATM   20  C13 UNL     1       1.923   1.935   0.000  1.00  0.00     0.024 A 
HETATM   21  N4  UNL     1       2.638   2.348   0.000  1.00  0.00     0.000 N 
HETATM   22  C14 UNL     1       0.884   0.071   0.000  1.00  0.00     0.035 A 
HETATM   23  C15 UNL     1       1.436  -0.542   0.000  1.00  0.00     0.040 A 
HETATM   24  C16 UNL     1       1.181  -1.327   0.000  1.00  0.00     0.045 A 
HETATM   25  C17 UNL     1       0.374  -1.498   0.000  1.00  0.00     0.054 A 
HETATM   26 BR1  UNL     1       0.119  -2.283   0.000  1.00  0.00    -0.175 Br
HETATM   27  C18 UNL     1      -0.178  -0.885   0.000  1.00  0.00     0.054 A 
HETATM   28  C19 UNL     1       0.077  -0.101   0.000  1.00  0.00     0.045 A 
ENDROOT
TORSDOF 35
