REMARK WARNING: 32 MAX_TORS EXCEEDED!!!
REMARK  43 active torsions:
REMARK  status: ('A' for Active; 'I' for Inactive)
REMARK    1  A    between atoms: C3_5  and  C13_21 
REMARK    2  A    between atoms: C3_5  and  O9_22 
REMARK    3  A    between atoms: C4_6  and  C6_9 
REMARK    4  A    between atoms: C4_6  and  C9_14 
REMARK    5  A    between atoms: C4_6  and  C13_21 
REMARK    6  A    between atoms: C4_6  and  O9_22 
REMARK    7  A    between atoms: O3_7  and  C12_19 
REMARK    8  A    between atoms: C5_8  and  C12_19 
REMARK    9  A    between atoms: C6_9  and  C12_19 
REMARK   10  A    between atoms: C6_9  and  S1_24 
REMARK   11  A    between atoms: O4_10  and  C9_14 
REMARK   12  A    between atoms: O4_10  and  S1_24 
REMARK   13  A    between atoms: C7_11  and  C9_14 
REMARK   14  A    between atoms: C7_11  and  O6_15 
REMARK   15  A    between atoms: O5_12  and  C9_14 
REMARK   16  A    between atoms: O5_12  and  O6_15 
REMARK   17  A    between atoms: O5_12  and  C10_16 
REMARK   18  A    between atoms: C9_14  and  C12_19 
REMARK   19  A    between atoms: C9_14  and  O8_20 
REMARK   20  A    between atoms: O6_15  and  C12_19 
REMARK   21  A    between atoms: C10_16  and  C12_19 
REMARK   22  A    between atoms: C10_16  and  O8_20 
REMARK   23  A    between atoms: O7_17  and  C12_19 
REMARK   24  A    between atoms: O7_17  and  O8_20 
REMARK   25  A    between atoms: O7_17  and  C13_21 
REMARK   26  A    between atoms: S1_24  and  N3_31 
REMARK   27  A    between atoms: O10_25  and  C15_26 
REMARK   28  A    between atoms: C16_27  and  N2_30 
REMARK   29  A    between atoms: C17_28  and  N3_31 
REMARK   30  A    between atoms: N1_29  and  N3_31 
REMARK   31  A    between atoms: N2_30  and  N3_31 
REMARK   32  A    between atoms: N2_30  and  C18_32 
REMARK   33  A    between atoms: C18_32  and  C21_35 
REMARK   34  A    between atoms: C18_32  and  C22_36 
REMARK   35  A    between atoms: C19_33  and  C22_36 
REMARK   36  A    between atoms: C19_33  and  C23_37 
REMARK   37  A    between atoms: C20_34  and  C23_37 
REMARK   38  A    between atoms: C20_34  and  N4_41 
REMARK   39  A    between atoms: C21_35  and  C23_37 
REMARK   40  A    between atoms: C22_36  and  C23_37 
REMARK   41  A    between atoms: C22_36  and  S2_38 
REMARK   42  A    between atoms: C22_36  and  O12_40 
REMARK   43  A    between atoms: O11_39  and  N4_41 
ROOT
HETATM    1  C1  UNL     1      -2.143   2.062   0.000  1.00  0.00     0.172 A 
HETATM    2  C2  UNL     1      -1.429   2.475   0.000  1.00  0.00     0.145 A 
HETATM    3  O1  UNL     1      -1.429   3.300   0.000  1.00  0.00    -0.352 OA
HETATM    4  O2  UNL     1      -0.715   2.062   0.000  1.00  0.00     0.000 OA
HETATM    5  C3  UNL     1       0.000   2.475   0.000  1.00  0.00     0.030 A 
HETATM    6  C4  UNL     1       0.715   2.062   0.000  1.00  0.00     0.016 A 
HETATM    7  O3  UNL     1       0.715   1.238   0.000  1.00  0.00     0.000 OA
HETATM    8  C5  UNL     1       1.429   0.825   0.000  1.00  0.00     0.027 A 
HETATM    9  C6  UNL     1       2.143   1.238   0.000  1.00  0.00     0.022 A 
HETATM   10  O4  UNL     1       2.858   0.825   0.000  1.00  0.00     0.000 OA
HETATM   11  C7  UNL     1       3.572   1.238   0.000  1.00  0.00     0.009 A 
HETATM   12  O5  UNL     1       3.572   2.062   0.000  1.00  0.00     0.000 OA
HETATM   13  C8  UNL     1       4.287   0.825   0.000  1.00  0.00     0.001 A 
HETATM   14  C9  UNL     1       2.143   2.062   0.000  1.00  0.00     0.015 A 
HETATM   15  O6  UNL     1       2.858   2.475   0.000  1.00  0.00     0.000 OA
HETATM   16  C10 UNL     1       2.858   3.300   0.000  1.00  0.00     0.003 A 
HETATM   17  O7  UNL     1       2.143   3.712   0.000  1.00  0.00     0.000 OA
HETATM   18  C11 UNL     1       3.572   3.712   0.000  1.00  0.00     0.000 A 
HETATM   19  C12 UNL     1       1.429   2.475   0.000  1.00  0.00     0.015 A 
HETATM   20  O8  UNL     1       1.429   3.300   0.000  1.00  0.00     0.000 OA
HETATM   21  C13 UNL     1       0.715   3.712   0.000  1.00  0.00     0.005 A 
HETATM   22  O9  UNL     1       0.000   3.300   0.000  1.00  0.00     0.000 OA
HETATM   23  C14 UNL     1       0.715   4.537   0.000  1.00  0.00     0.000 A 
HETATM   24  S1  UNL     1       1.429  -0.000   0.000  1.00  0.00    -0.209 SA
HETATM   25  O10 UNL     1       2.143  -0.412   0.000  1.00  0.00     0.000 OA
HETATM   26  C15 UNL     1       0.715  -0.412   0.000  1.00  0.00     0.040 A 
HETATM   27  C16 UNL     1       0.715  -1.238   0.000  1.00  0.00     0.041 A 
HETATM   28  C17 UNL     1       0.047  -1.722   0.000  1.00  0.00     0.025 A 
HETATM   29  N1  UNL     1       0.302  -2.507   0.000  1.00  0.00     0.000 N 
HETATM   30  N2  UNL     1       1.127  -2.507   0.000  1.00  0.00     0.000 N 
HETATM   31  N3  UNL     1       1.382  -1.722   0.000  1.00  0.00     0.000 N 
HETATM   32  C18 UNL     1      -0.183  -3.175   0.000  1.00  0.00     0.082 A 
HETATM   33  C19 UNL     1       0.153  -3.928   0.000  1.00  0.00     0.086 A 
HETATM   34  C20 UNL     1      -0.332  -4.596   0.000  1.00  0.00     0.211 A 
HETATM   35  C21 UNL     1      -1.153  -4.509   0.000  1.00  0.00     0.211 A 
HETATM   36  C22 UNL     1      -1.488  -3.756   0.000  1.00  0.00     0.111 A 
HETATM   37  C23 UNL     1      -1.003  -3.088   0.000  1.00  0.00     0.086 A 
HETATM   38  S2  UNL     1      -1.638  -5.177   0.000  1.00  0.00     0.037 SA
HETATM   39  O11 UNL     1      -2.123  -5.844   0.000  1.00  0.00     0.000 OA
HETATM   40  O12 UNL     1      -2.305  -4.692   0.000  1.00  0.00     0.000 OA
HETATM   41  N4  UNL     1      -0.970  -5.662   0.000  1.00  0.00     0.173 N 
ENDROOT
TORSDOF 43
