REMARK WARNING: 32 MAX_TORS EXCEEDED!!!
REMARK  46 active torsions:
REMARK  status: ('A' for Active; 'I' for Inactive)
REMARK    1  A    between atoms: C2_2  and  C6_6 
REMARK    2  A    between atoms: C2_2  and  C7_7 
REMARK    3  A    between atoms: C3_3  and  C4_4 
REMARK    4  A    between atoms: C3_3  and  O1_11 
REMARK    5  A    between atoms: C4_4  and  C7_7 
REMARK    6  A    between atoms: C4_4  and  N1_10 
REMARK    7  A    between atoms: C5_5  and  S1_14 
REMARK    8  A    between atoms: C6_6  and  N1_10 
REMARK    9  A    between atoms: C6_6  and  N2_12 
REMARK   10  A    between atoms: C6_6  and  C10_13 
REMARK   11  A    between atoms: C6_6  and  S1_14 
REMARK   12  A    between atoms: C7_7  and  N1_10 
REMARK   13  A    between atoms: C7_7  and  O1_11 
REMARK   14  A    between atoms: C8_8  and  C9_9 
REMARK   15  A    between atoms: C8_8  and  S1_14 
REMARK   16  A    between atoms: C9_9  and  N1_10 
REMARK   17  A    between atoms: C9_9  and  O1_11 
REMARK   18  A    between atoms: C10_13  and  C16_21 
REMARK   19  A    between atoms: S1_14  and  N3_15 
REMARK   20  A    between atoms: S1_14  and  C11_16 
REMARK   21  A    between atoms: S1_14  and  C16_21 
REMARK   22  A    between atoms: C11_16  and  C14_19 
REMARK   23  A    between atoms: C11_16  and  C15_20 
REMARK   24  A    between atoms: C12_17  and  C15_20 
REMARK   25  A    between atoms: C12_17  and  C16_21 
REMARK   26  A    between atoms: C13_18  and  C16_21 
REMARK   27  A    between atoms: C13_18  and  O3_24 
REMARK   28  A    between atoms: C14_19  and  C16_21 
REMARK   29  A    between atoms: C15_20  and  C16_21 
REMARK   30  A    between atoms: C15_20  and  S2_22 
REMARK   31  A    between atoms: C15_20  and  O2_23 
REMARK   32  A    between atoms: O2_23  and  C17_26 
REMARK   33  A    between atoms: O3_24  and  N4_25 
REMARK   34  A    between atoms: N4_25  and  C20_29 
REMARK   35  A    between atoms: C17_26  and  C20_29 
REMARK   36  A    between atoms: C19_28  and  C22_31 
REMARK   37  A    between atoms: C19_28  and  C23_32 
REMARK   38  A    between atoms: C20_29  and  C23_32 
REMARK   39  A    between atoms: C20_29  and  C24_33 
REMARK   40  A    between atoms: C21_30  and  C24_33 
REMARK   41  A    between atoms: C21_30  and  N5_37 
REMARK   42  A    between atoms: C22_31  and  C24_33 
REMARK   43  A    between atoms: C23_32  and  C24_33 
REMARK   44  A    between atoms: C23_32  and  S3_34 
REMARK   45  A    between atoms: C23_32  and  O5_36 
REMARK   46  A    between atoms: O4_35  and  N5_37 
ROOT
HETATM    1  C1  UNL     1      -4.471  -4.731   0.000  1.00  0.00     0.003 A 
HETATM    2  C2  UNL     1      -5.001  -5.362   0.000  1.00  0.00     0.013 A 
HETATM    3  C3  UNL     1      -5.532  -4.731   0.000  1.00  0.00     0.003 A 
HETATM    4  C4  UNL     1      -4.287  -5.775   0.000  1.00  0.00     0.013 A 
HETATM    5  C5  UNL     1      -4.287  -6.600   0.000  1.00  0.00     0.019 A 
HETATM    6  C6  UNL     1      -5.001  -7.013   0.000  1.00  0.00     0.017 A 
HETATM    7  C7  UNL     1      -5.716  -6.600   0.000  1.00  0.00     0.018 A 
HETATM    8  C8  UNL     1      -5.998  -7.375   0.000  1.00  0.00     0.022 A 
HETATM    9  C9  UNL     1      -6.528  -6.457   0.000  1.00  0.00     0.016 A 
HETATM   10  N1  UNL     1      -5.716  -5.775   0.000  1.00  0.00     0.000 N 
HETATM   11  O1  UNL     1      -6.430  -5.362   0.000  1.00  0.00     0.000 OA
HETATM   12  N2  UNL     1      -3.572  -7.013   0.000  1.00  0.00     0.000 N 
HETATM   13  C10 UNL     1      -3.572  -7.838   0.000  1.00  0.00     0.032 A 
HETATM   14  S1  UNL     1      -4.287  -8.250   0.000  1.00  0.00    -0.231 SA
HETATM   15  N3  UNL     1      -2.858  -8.250   0.000  1.00  0.00     0.000 N 
HETATM   16  C11 UNL     1      -2.858  -9.075   0.000  1.00  0.00     0.035 A 
HETATM   17  C12 UNL     1      -2.143  -9.488   0.000  1.00  0.00     0.037 A 
HETATM   18  C13 UNL     1      -2.143 -10.312   0.000  1.00  0.00     0.041 A 
HETATM   19  C14 UNL     1      -2.858 -10.725   0.000  1.00  0.00     0.041 A 
HETATM   20  C15 UNL     1      -3.572 -10.312   0.000  1.00  0.00     0.041 A 
HETATM   21  C16 UNL     1      -3.572  -9.488   0.000  1.00  0.00     0.035 A 
HETATM   22  S2  UNL     1      -2.858 -11.550   0.000  1.00  0.00    -0.206 SA
HETATM   23  O2  UNL     1      -3.683 -11.550   0.000  1.00  0.00     0.000 OA
HETATM   24  O3  UNL     1      -2.033 -11.550   0.000  1.00  0.00     0.000 OA
HETATM   25  N4  UNL     1      -2.858 -12.375   0.000  1.00  0.00     0.000 N 
HETATM   26  C17 UNL     1      -3.572 -12.787   0.000  1.00  0.00     0.036 A 
HETATM   27  C18 UNL     1      -3.572 -13.613   0.000  1.00  0.00     0.026 A 
HETATM   28  C19 UNL     1      -2.858 -14.025   0.000  1.00  0.00     0.082 A 
HETATM   29  C20 UNL     1      -2.143 -13.613   0.000  1.00  0.00     0.082 A 
HETATM   30  C21 UNL     1      -1.429 -14.025   0.000  1.00  0.00     0.211 A 
HETATM   31  C22 UNL     1      -1.429 -14.850   0.000  1.00  0.00     0.211 A 
HETATM   32  C23 UNL     1      -2.143 -15.262   0.000  1.00  0.00     0.111 A 
HETATM   33  C24 UNL     1      -2.858 -14.850   0.000  1.00  0.00     0.082 A 
HETATM   34  S3  UNL     1      -0.715 -15.262   0.000  1.00  0.00     0.037 SA
HETATM   35  O4  UNL     1      -0.000 -15.675   0.000  1.00  0.00     0.000 OA
HETATM   36  O5  UNL     1      -1.127 -15.977   0.000  1.00  0.00     0.000 OA
HETATM   37  N5  UNL     1      -0.302 -14.548   0.000  1.00  0.00     0.173 N 
ENDROOT
TORSDOF 46
