REMARK  12 active torsions:
REMARK  status: ('A' for Active; 'I' for Inactive)
REMARK    1  A    between atoms: O1_3  and  C9_14 
REMARK    2  A    between atoms: O2_4  and  C1_5 
REMARK    3  A    between atoms: O2_4  and  C2_6 
REMARK    4  A    between atoms: C1_5  and  C4_8 
REMARK    5  A    between atoms: C1_5  and  C8_13 
REMARK    6  A    between atoms: C2_6  and  C8_13 
REMARK    7  A    between atoms: C2_6  and  C9_14 
REMARK    8  A    between atoms: C3_7  and  C5_10 
REMARK    9  A    between atoms: C3_7  and  C9_14 
REMARK   10  A    between atoms: C4_8  and  C9_14 
REMARK   11  A    between atoms: O3_9  and  C8_13 
REMARK   12  A    between atoms: C8_13  and  C9_14 
ROOT
HETATM    1  N1  UNL     1       0.715   2.888   0.000  1.00  0.00    -0.082 NA
HETATM    2  S1  UNL     1       0.715   2.062   0.000  1.00  0.00    -0.128 SA
HETATM    3  O1  UNL     1      -0.111   2.062   0.000  1.00  0.00     0.000 OA
HETATM    4  O2  UNL     1       1.540   2.062   0.000  1.00  0.00     0.000 OA
HETATM    5  C1  UNL     1       0.715   1.238   0.000  1.00  0.00     0.043 A 
HETATM    6  C2  UNL     1       1.429   0.825   0.000  1.00  0.00     0.043 A 
HETATM    7  C3  UNL     1       1.429  -0.000   0.000  1.00  0.00     0.028 A 
HETATM    8  C4  UNL     1       0.715  -0.412   0.000  1.00  0.00     0.028 A 
HETATM    9  O3  UNL     1       0.715  -1.238   0.000  1.00  0.00     0.000 OA
HETATM   10  C5  UNL     1       1.429  -1.650   0.000  1.00  0.00     0.023 A 
HETATM   11  C6  UNL     1       1.429  -2.475   0.000  1.00  0.00     0.025 A 
HETATM   12  C7  UNL     1       2.143  -2.888   0.000  1.00  0.00    -0.052 A 
HETATM   13  C8  UNL     1       0.000   0.000   0.000  1.00  0.00     0.028 A 
HETATM   14  C9  UNL     1       0.000   0.825   0.000  1.00  0.00     0.043 A 
ENDROOT
TORSDOF 12
