REMARK WARNING: 32 MAX_TORS EXCEEDED!!!
REMARK  54 active torsions:
REMARK  status: ('A' for Active; 'I' for Inactive)
REMARK    1  A    between atoms: C1_1  and  CL1_20 
REMARK    2  A    between atoms: C2_2  and  C5_5 
REMARK    3  A    between atoms: C2_2  and  C17_18 
REMARK    4  A    between atoms: C3_3  and  C17_18 
REMARK    5  A    between atoms: C3_3  and  C18_19 
REMARK    6  A    between atoms: C3_3  and  O2_23 
REMARK    7  A    between atoms: C4_4  and  C18_19 
REMARK    8  A    between atoms: C5_5  and  C18_19 
REMARK    9  A    between atoms: C5_5  and  S2_21 
REMARK   10  A    between atoms: C5_5  and  O1_22 
REMARK   11  A    between atoms: S1_6  and  C8_9 
REMARK   12  A    between atoms: S1_6  and  C17_18 
REMARK   13  A    between atoms: S1_6  and  S2_21 
REMARK   14  A    between atoms: S1_6  and  O1_22 
REMARK   15  A    between atoms: S1_6  and  N2_26 
REMARK   16  A    between atoms: C6_7  and  C15_16 
REMARK   17  A    between atoms: C6_7  and  C17_18 
REMARK   18  A    between atoms: C7_8  and  C10_11 
REMARK   19  A    between atoms: C7_8  and  C11_12 
REMARK   20  A    between atoms: C7_8  and  C15_16 
REMARK   21  A    between atoms: C8_9  and  C11_12 
REMARK   22  A    between atoms: C8_9  and  C16_17 
REMARK   23  A    between atoms: C9_10  and  C16_17 
REMARK   24  A    between atoms: C10_11  and  C16_17 
REMARK   25  A    between atoms: C11_12  and  C16_17 
REMARK   26  A    between atoms: C11_12  and  C14_15 
REMARK   27  A    between atoms: C11_12  and  C15_16 
REMARK   28  A    between atoms: C12_13  and  C15_16 
REMARK   29  A    between atoms: C12_13  and  C16_17 
REMARK   30  A    between atoms: C13_14  and  C16_17 
REMARK   31  A    between atoms: C14_15  and  C16_17 
REMARK   32  A    between atoms: C15_16  and  C16_17 
REMARK   33  A    between atoms: C17_18  and  C18_19 
REMARK   34  A    between atoms: C17_18  and  CL1_20 
REMARK   35  A    between atoms: S2_21  and  N2_26 
REMARK   36  A    between atoms: O1_22  and  C19_25 
REMARK   37  A    between atoms: O1_22  and  N2_26 
REMARK   38  A    between atoms: O2_23  and  N1_24 
REMARK   39  A    between atoms: N1_24  and  C21_29 
REMARK   40  A    between atoms: C19_25  and  C21_29 
REMARK   41  A    between atoms: N2_26  and  N3_27 
REMARK   42  A    between atoms: N3_27  and  S3_34 
REMARK   43  A    between atoms: N3_27  and  O4_36 
REMARK   44  A    between atoms: C20_28  and  C23_31 
REMARK   45  A    between atoms: C20_28  and  C24_32 
REMARK   46  A    between atoms: C20_28  and  O4_36 
REMARK   47  A    between atoms: C21_29  and  C24_32 
REMARK   48  A    between atoms: C21_29  and  C25_33 
REMARK   49  A    between atoms: C22_30  and  C25_33 
REMARK   50  A    between atoms: C23_31  and  C25_33 
REMARK   51  A    between atoms: C24_32  and  C25_33 
REMARK   52  A    between atoms: C24_32  and  S3_34 
REMARK   53  A    between atoms: C24_32  and  N4_37 
REMARK   54  A    between atoms: O3_35  and  N4_37 
ROOT
HETATM    1  C1  UNL     1       0.715  -6.188   0.000  1.00  0.00     0.071 A 
HETATM    2  C2  UNL     1       0.715  -5.362   0.000  1.00  0.00     0.073 A 
HETATM    3  C3  UNL     1       0.000  -4.950   0.000  1.00  0.00     0.073 A 
HETATM    4  C4  UNL     1       0.000  -4.125   0.000  1.00  0.00     0.064 A 
HETATM    5  C5  UNL     1       0.715  -3.712   0.000  1.00  0.00     0.060 A 
HETATM    6  S1  UNL     1       0.715  -2.888   0.000  1.00  0.00    -0.206 SA
HETATM    7  C6  UNL     1       1.429  -2.475   0.000  1.00  0.00     0.035 A 
HETATM    8  C7  UNL     1       1.429  -1.650   0.000  1.00  0.00     0.015 A 
HETATM    9  C8  UNL     1       0.715  -1.238   0.000  1.00  0.00     0.018 A 
HETATM   10  C9  UNL     1       0.715  -0.412   0.000  1.00  0.00     0.014 A 
HETATM   11  C10 UNL     1       1.429   0.000   0.000  1.00  0.00     0.013 A 
HETATM   12  C11 UNL     1       2.143  -0.412   0.000  1.00  0.00     0.011 A 
HETATM   13  C12 UNL     1       2.858   0.000   0.000  1.00  0.00     0.005 A 
HETATM   14  C13 UNL     1       3.572  -0.412   0.000  1.00  0.00     0.004 A 
HETATM   15  C14 UNL     1       3.572  -1.238   0.000  1.00  0.00     0.004 A 
HETATM   16  C15 UNL     1       2.858  -1.650   0.000  1.00  0.00     0.013 A 
HETATM   17  C16 UNL     1       2.143  -1.238   0.000  1.00  0.00     0.014 A 
HETATM   18  C17 UNL     1       1.429  -4.125   0.000  1.00  0.00     0.060 A 
HETATM   19  C18 UNL     1       1.429  -4.950   0.000  1.00  0.00     0.073 A 
HETATM   20 CL1  UNL     1       2.143  -5.362   0.000  1.00  0.00    -0.271 Cl
HETATM   21  S2  UNL     1      -0.715  -3.712   0.000  1.00  0.00    -0.197 SA
HETATM   22  O1  UNL     1      -0.302  -2.998   0.000  1.00  0.00     0.000 OA
HETATM   23  O2  UNL     1      -1.127  -4.427   0.000  1.00  0.00     0.000 OA
HETATM   24  N1  UNL     1      -1.429  -3.300   0.000  1.00  0.00     0.000 N 
HETATM   25  C19 UNL     1      -1.429  -2.475   0.000  1.00  0.00     0.050 A 
HETATM   26  N2  UNL     1      -0.715  -2.062   0.000  1.00  0.00     0.000 N 
HETATM   27  N3  UNL     1      -2.143  -2.062   0.000  1.00  0.00     0.000 N 
HETATM   28  C20 UNL     1      -2.858  -2.475   0.000  1.00  0.00     0.108 A 
HETATM   29  C21 UNL     1      -2.858  -3.300   0.000  1.00  0.00     0.088 A 
HETATM   30  C22 UNL     1      -3.572  -3.712   0.000  1.00  0.00     0.086 A 
HETATM   31  C23 UNL     1      -4.287  -3.300   0.000  1.00  0.00     0.086 A 
HETATM   32  C24 UNL     1      -4.287  -2.475   0.000  1.00  0.00     0.211 A 
HETATM   33  C25 UNL     1      -3.572  -2.062   0.000  1.00  0.00     0.211 A 
HETATM   34  S3  UNL     1      -3.572  -1.238   0.000  1.00  0.00     0.037 SA
HETATM   35  O3  UNL     1      -3.572  -0.412   0.000  1.00  0.00     0.000 OA
HETATM   36  O4  UNL     1      -2.747  -1.238   0.000  1.00  0.00     0.000 OA
HETATM   37  N4  UNL     1      -4.397  -1.238   0.000  1.00  0.00     0.173 N 
ENDROOT
TORSDOF 54
