REMARK WARNING: 32 MAX_TORS EXCEEDED!!!
REMARK  36 active torsions:
REMARK  status: ('A' for Active; 'I' for Inactive)
REMARK    1  A    between atoms: N1_1  and  C8_17 
REMARK    2  A    between atoms: N1_1  and  N2_18 
REMARK    3  A    between atoms: S1_2  and  F1_7 
REMARK    4  A    between atoms: S1_2  and  N2_18 
REMARK    5  A    between atoms: O2_4  and  C1_5 
REMARK    6  A    between atoms: O2_4  and  C2_6 
REMARK    7  A    between atoms: O2_4  and  F1_7 
REMARK    8  A    between atoms: C1_5  and  C4_10 
REMARK    9  A    between atoms: C1_5  and  C7_15 
REMARK   10  A    between atoms: C2_6  and  C7_15 
REMARK   11  A    between atoms: C2_6  and  C8_17 
REMARK   12  A    between atoms: F1_7  and  C3_8 
REMARK   13  A    between atoms: C3_8  and  C5_12 
REMARK   14  A    between atoms: C3_8  and  C6_13 
REMARK   15  A    between atoms: C3_8  and  C8_17 
REMARK   16  A    between atoms: F2_9  and  C4_10 
REMARK   17  A    between atoms: F2_9  and  S2_11 
REMARK   18  A    between atoms: F2_9  and  C5_12 
REMARK   19  A    between atoms: F2_9  and  C6_13 
REMARK   20  A    between atoms: C4_10  and  C6_13 
REMARK   21  A    between atoms: C4_10  and  C8_17 
REMARK   22  A    between atoms: S2_11  and  C7_15 
REMARK   23  A    between atoms: S2_11  and  F3_16 
REMARK   24  A    between atoms: C7_15  and  C8_17 
REMARK   25  A    between atoms: C7_15  and  N2_18 
REMARK   26  A    between atoms: C7_15  and  C9_19 
REMARK   27  A    between atoms: C7_15  and  C16_26 
REMARK   28  A    between atoms: F3_16  and  C8_17 
REMARK   29  A    between atoms: F3_16  and  C9_19 
REMARK   30  A    between atoms: F3_16  and  C15_25 
REMARK   31  A    between atoms: F3_16  and  C16_26 
REMARK   32  A    between atoms: C8_17  and  C16_26 
REMARK   33  A    between atoms: C9_19  and  C15_25 
REMARK   34  A    between atoms: C10_20  and  C16_26 
REMARK   35  A    between atoms: C14_24  and  C16_26 
REMARK   36  A    between atoms: C15_25  and  C16_26 
ROOT
HETATM    1  N1  UNL     1       2.097  -1.005   0.000  1.00  0.00     0.000 N 
HETATM    2  S1  UNL     1       1.272  -1.005   0.000  1.00  0.00    -0.042 SA
HETATM    3  O1  UNL     1       1.272  -0.180   0.000  1.00  0.00     0.000 OA
HETATM    4  O2  UNL     1       0.447  -1.005   0.000  1.00  0.00     0.000 OA
HETATM    5  C1  UNL     1       1.272  -1.830   0.000  1.00  0.00     0.209 A 
HETATM    6  C2  UNL     1       0.558  -2.242   0.000  1.00  0.00     0.174 A 
HETATM    7  F1  UNL     1      -0.157  -1.830   0.000  1.00  0.00    -0.457 F 
HETATM    8  C3  UNL     1       0.558  -3.067   0.000  1.00  0.00     0.185 A 
HETATM    9  F2  UNL     1      -0.157  -3.480   0.000  1.00  0.00    -0.483 F 
HETATM   10  C4  UNL     1       1.272  -3.480   0.000  1.00  0.00     0.169 A 
HETATM   11  S2  UNL     1       1.272  -4.305   0.000  1.00  0.00    -0.066 SA
HETATM   12  C5  UNL     1       0.558  -4.717   0.000  1.00  0.00     0.230 A 
HETATM   13  C6  UNL     1      -0.157  -4.305   0.000  1.00  0.00     0.230 A 
HETATM   14  O3  UNL     1      -0.871  -4.717   0.000  1.00  0.00    -0.295 OA
HETATM   15  C7  UNL     1       1.987  -3.067   0.000  1.00  0.00     0.161 A 
HETATM   16  F3  UNL     1       2.701  -3.480   0.000  1.00  0.00    -0.552 F 
HETATM   17  C8  UNL     1       1.987  -2.242   0.000  1.00  0.00     0.163 A 
HETATM   18  N2  UNL     1       2.701  -1.830   0.000  1.00  0.00     0.000 N 
HETATM   19  C9  UNL     1       3.416  -2.242   0.000  1.00  0.00     0.081 A 
HETATM   20  C10 UNL     1       4.070  -1.740   0.000  1.00  0.00     0.046 A 
HETATM   21  C11 UNL     1       4.888  -1.848   0.000  1.00  0.00     0.029 A 
HETATM   22  C12 UNL     1       5.390  -2.502   0.000  1.00  0.00     0.013 A 
HETATM   23  C13 UNL     1       5.282  -3.320   0.000  1.00  0.00     0.026 A 
HETATM   24  C14 UNL     1       4.628  -3.822   0.000  1.00  0.00     0.043 A 
HETATM   25  C15 UNL     1       3.810  -3.715   0.000  1.00  0.00     0.052 A 
HETATM   26  C16 UNL     1       3.308  -3.060   0.000  1.00  0.00     0.082 A 
ENDROOT
TORSDOF 36
