REMARK  25 active torsions:
REMARK  status: ('A' for Active; 'I' for Inactive)
REMARK    1  A    between atoms: S1_2  and  S2_19 
REMARK    2  A    between atoms: O1_3  and  C11_18 
REMARK    3  A    between atoms: O1_3  and  S2_19 
REMARK    4  A    between atoms: O2_4  and  C1_5 
REMARK    5  A    between atoms: O2_4  and  C2_6 
REMARK    6  A    between atoms: C1_5  and  C9_15 
REMARK    7  A    between atoms: C1_5  and  C10_17 
REMARK    8  A    between atoms: C2_6  and  C10_17 
REMARK    9  A    between atoms: C2_6  and  C11_18 
REMARK   10  A    between atoms: C3_7  and  C11_18 
REMARK   11  A    between atoms: C4_8  and  C9_15 
REMARK   12  A    between atoms: C4_8  and  CL1_16 
REMARK   13  A    between atoms: O3_9  and  N2_10 
REMARK   14  A    between atoms: N2_10  and  C7_13 
REMARK   15  A    between atoms: N2_10  and  CL1_16 
REMARK   16  A    between atoms: C5_11  and  C8_14 
REMARK   17  A    between atoms: C6_12  and  C8_14 
REMARK   18  A    between atoms: C7_13  and  C8_14 
REMARK   19  A    between atoms: C7_13  and  CL1_16 
REMARK   20  A    between atoms: C8_14  and  C9_15 
REMARK   21  A    between atoms: C8_14  and  CL1_16 
REMARK   22  A    between atoms: C9_15  and  C11_18 
REMARK   23  A    between atoms: CL1_16  and  C10_17 
REMARK   24  A    between atoms: C10_17  and  C11_18 
REMARK   25  A    between atoms: C10_17  and  S2_19 
ROOT
HETATM    1  N1  UNL     1      -2.143   7.591   0.000  1.00  0.00    -0.081 NA
HETATM    2  S1  UNL     1      -2.143   6.766   0.000  1.00  0.00    -0.110 SA
HETATM    3  O1  UNL     1      -2.968   6.766   0.000  1.00  0.00     0.000 OA
HETATM    4  O2  UNL     1      -1.318   6.766   0.000  1.00  0.00     0.000 OA
HETATM    5  C1  UNL     1      -2.143   5.941   0.000  1.00  0.00     0.089 A 
HETATM    6  C2  UNL     1      -1.429   5.529   0.000  1.00  0.00     0.085 A 
HETATM    7  C3  UNL     1      -1.429   4.704   0.000  1.00  0.00     0.068 A 
HETATM    8  C4  UNL     1      -0.715   4.291   0.000  1.00  0.00     0.048 A 
HETATM    9  O3  UNL     1       0.000   4.704   0.000  1.00  0.00     0.000 OA
HETATM   10  N2  UNL     1      -0.715   3.466   0.000  1.00  0.00     0.000 N 
HETATM   11  C5  UNL     1      -0.047   2.981   0.000  1.00  0.00     0.031 A 
HETATM   12  C6  UNL     1      -0.302   2.196   0.000  1.00  0.00     0.024 A 
HETATM   13  C7  UNL     1      -1.127   2.196   0.000  1.00  0.00     0.032 A 
HETATM   14  C8  UNL     1      -1.382   2.981   0.000  1.00  0.00     0.036 A 
HETATM   15  C9  UNL     1      -2.143   4.291   0.000  1.00  0.00     0.066 A 
HETATM   16 CL1  UNL     1      -2.143   3.466   0.000  1.00  0.00    -0.303 Cl
HETATM   17  C10 UNL     1      -2.858   4.704   0.000  1.00  0.00     0.072 A 
HETATM   18  C11 UNL     1      -2.858   5.529   0.000  1.00  0.00     0.089 A 
HETATM   19  S2  UNL     1      -3.572   5.941   0.000  1.00  0.00    -0.147 SA
ENDROOT
TORSDOF 25
