REMARK WARNING: 32 MAX_TORS EXCEEDED!!!
REMARK  37 active torsions:
REMARK  status: ('A' for Active; 'I' for Inactive)
REMARK    1  A    between atoms: C1_1  and  C11_12 
REMARK    2  A    between atoms: C1_1  and  C12_13 
REMARK    3  A    between atoms: C2_2  and  C5_5 
REMARK    4  A    between atoms: C2_2  and  C11_12 
REMARK    5  A    between atoms: C2_2  and  C12_13 
REMARK    6  A    between atoms: C2_2  and  C15_21 
REMARK    7  A    between atoms: C3_3  and  C15_21 
REMARK    8  A    between atoms: C3_3  and  N3_22 
REMARK    9  A    between atoms: C5_5  and  C8_8 
REMARK   10  A    between atoms: C5_5  and  C9_9 
REMARK   11  A    between atoms: C5_5  and  N3_22 
REMARK   12  A    between atoms: C6_6  and  C9_9 
REMARK   13  A    between atoms: C6_6  and  C15_21 
REMARK   14  A    between atoms: C7_7  and  C15_21 
REMARK   15  A    between atoms: C8_8  and  C15_21 
REMARK   16  A    between atoms: C9_9  and  C15_21 
REMARK   17  A    between atoms: C9_9  and  C11_12 
REMARK   18  A    between atoms: C9_9  and  N3_22 
REMARK   19  A    between atoms: O1_10  and  S1_17 
REMARK   20  A    between atoms: O1_10  and  N2_20 
REMARK   21  A    between atoms: O1_10  and  C15_21 
REMARK   22  A    between atoms: C10_11  and  C13_15 
REMARK   23  A    between atoms: C10_11  and  N2_20 
REMARK   24  A    between atoms: C10_11  and  C15_21 
REMARK   25  A    between atoms: C10_11  and  N3_22 
REMARK   26  A    between atoms: C11_12  and  C13_15 
REMARK   27  A    between atoms: C11_12  and  C14_16 
REMARK   28  A    between atoms: C11_12  and  C15_21 
REMARK   29  A    between atoms: C11_12  and  N3_22 
REMARK   30  A    between atoms: C12_13  and  C14_16 
REMARK   31  A    between atoms: C12_13  and  N3_22 
REMARK   32  A    between atoms: N1_14  and  C14_16 
REMARK   33  A    between atoms: C13_15  and  C14_16 
REMARK   34  A    between atoms: C13_15  and  S1_17 
REMARK   35  A    between atoms: C13_15  and  O3_19 
REMARK   36  A    between atoms: O2_18  and  N2_20 
REMARK   37  A    between atoms: C15_21  and  N3_22 
ROOT
HETATM    1  C1  UNL     1       0.000  -1.650   0.000  1.00  0.00     0.056 A 
HETATM    2  C2  UNL     1       0.715  -1.238   0.000  1.00  0.00     0.049 A 
HETATM    3  C3  UNL     1       0.715  -0.412   0.000  1.00  0.00     0.009 A 
HETATM    4  C4  UNL     1       1.429   0.000   0.000  1.00  0.00     0.006 A 
HETATM    5  C5  UNL     1       2.143  -0.412   0.000  1.00  0.00     0.008 A 
HETATM    6  C6  UNL     1       2.858   0.000   0.000  1.00  0.00     0.005 A 
HETATM    7  C7  UNL     1       3.572  -0.412   0.000  1.00  0.00     0.005 A 
HETATM    8  C8  UNL     1       3.572  -1.238   0.000  1.00  0.00     0.005 A 
HETATM    9  C9  UNL     1       2.858  -1.650   0.000  1.00  0.00     0.034 A 
HETATM   10  O1  UNL     1       2.858  -2.475   0.000  1.00  0.00     0.000 OA
HETATM   11  C10 UNL     1       2.143  -2.888   0.000  1.00  0.00     0.119 A 
HETATM   12  C11 UNL     1       1.429  -2.475   0.000  1.00  0.00     0.159 A 
HETATM   13  C12 UNL     1       0.715  -2.888   0.000  1.00  0.00     0.191 A 
HETATM   14  N1  UNL     1       0.715  -3.712   0.000  1.00  0.00    -0.001 N 
HETATM   15  C13 UNL     1       1.429  -4.125   0.000  1.00  0.00     0.222 A 
HETATM   16  C14 UNL     1       2.143  -3.712   0.000  1.00  0.00     0.222 A 
HETATM   17  S1  UNL     1       2.858  -4.125   0.000  1.00  0.00    -0.122 SA
HETATM   18  O2  UNL     1       3.572  -4.537   0.000  1.00  0.00     0.000 OA
HETATM   19  O3  UNL     1       2.445  -4.840   0.000  1.00  0.00     0.000 OA
HETATM   20  N2  UNL     1       3.270  -3.410   0.000  1.00  0.00     0.000 N 
HETATM   21  C15 UNL     1       2.143  -1.238   0.000  1.00  0.00     0.032 A 
HETATM   22  N3  UNL     1       1.429  -1.650   0.000  1.00  0.00     0.000 N 
ENDROOT
TORSDOF 37
