REMARK  18 active torsions:
REMARK  status: ('A' for Active; 'I' for Inactive)
REMARK    1  A    between atoms: O1_3  and  C13_25 
REMARK    2  A    between atoms: O2_4  and  C1_5 
REMARK    3  A    between atoms: O2_4  and  C2_6 
REMARK    4  A    between atoms: C1_5  and  C4_8 
REMARK    5  A    between atoms: C1_5  and  C12_24 
REMARK    6  A    between atoms: C2_6  and  C12_24 
REMARK    7  A    between atoms: C2_6  and  C13_25 
REMARK    8  A    between atoms: C3_7  and  C6_10 
REMARK    9  A    between atoms: C3_7  and  C13_25 
REMARK   10  A    between atoms: C4_8  and  C13_25 
REMARK   11  A    between atoms: C5_9  and  C12_24 
REMARK   12  A    between atoms: C7_12  and  C9_17 
REMARK   13  A    between atoms: N3_13  and  N6_23 
REMARK   14  A    between atoms: F1_15  and  N4_16 
REMARK   15  A    between atoms: N4_16  and  N6_23 
REMARK   16  A    between atoms: C9_17  and  N6_23 
REMARK   17  A    between atoms: N5_18  and  N6_23 
REMARK   18  A    between atoms: C12_24  and  C13_25 
ROOT
HETATM    1  N1  UNL     1      -1.429  -0.825   0.000  1.00  0.00    -0.082 NA
HETATM    2  S1  UNL     1      -1.429  -1.650   0.000  1.00  0.00    -0.128 SA
HETATM    3  O1  UNL     1      -2.254  -1.650   0.000  1.00  0.00     0.000 OA
HETATM    4  O2  UNL     1      -0.604  -1.650   0.000  1.00  0.00     0.000 OA
HETATM    5  C1  UNL     1      -1.429  -2.475   0.000  1.00  0.00     0.043 A 
HETATM    6  C2  UNL     1      -0.715  -2.888   0.000  1.00  0.00     0.043 A 
HETATM    7  C3  UNL     1      -0.715  -3.712   0.000  1.00  0.00     0.023 A 
HETATM    8  C4  UNL     1      -1.429  -4.125   0.000  1.00  0.00     0.023 A 
HETATM    9  C5  UNL     1      -1.429  -4.950   0.000  1.00  0.00     0.007 A 
HETATM   10  C6  UNL     1      -0.715  -5.362   0.000  1.00  0.00     0.007 A 
HETATM   11  N2  UNL     1      -0.715  -6.188   0.000  1.00  0.00     0.000 N 
HETATM   12  C7  UNL     1      -0.000  -6.600   0.000  1.00  0.00     0.041 A 
HETATM   13  N3  UNL     1       0.715  -6.188   0.000  1.00  0.00     0.000 N 
HETATM   14  C8  UNL     1       1.429  -6.600   0.000  1.00  0.00     0.166 A 
HETATM   15  F1  UNL     1       2.143  -6.188   0.000  1.00  0.00    -0.237 F 
HETATM   16  N4  UNL     1       1.429  -7.425   0.000  1.00  0.00     0.000 N 
HETATM   17  C9  UNL     1       0.715  -7.838   0.000  1.00  0.00     0.092 A 
HETATM   18  N5  UNL     1       0.715  -8.662   0.000  1.00  0.00     0.000 N 
HETATM   19  C10 UNL     1       1.429  -9.075   0.000  1.00  0.00     0.247 A 
HETATM   20  C11 UNL     1       1.429  -9.900   0.000  1.00  0.00     0.293 A 
HETATM   21  O3  UNL     1       2.143 -10.312   0.000  1.00  0.00    -0.302 OA
HETATM   22  O4  UNL     1       0.715 -10.312   0.000  1.00  0.00    -0.302 OA
HETATM   23  N6  UNL     1      -0.000  -7.425   0.000  1.00  0.00     0.000 N 
HETATM   24  C12 UNL     1      -2.143  -3.712   0.000  1.00  0.00     0.025 A 
HETATM   25  C13 UNL     1      -2.143  -2.888   0.000  1.00  0.00     0.043 A 
ENDROOT
TORSDOF 18
