REMARK  16 active torsions:
REMARK  status: ('A' for Active; 'I' for Inactive)
REMARK    1  A    between atoms: NA1_1  and  O2_5 
REMARK    2  A    between atoms: NA1_1  and  C2_6 
REMARK    3  A    between atoms: NA1_1  and  C3_7 
REMARK    4  A    between atoms: NA2_2  and  C7_12 
REMARK    5  A    between atoms: NA2_2  and  S1_13 
REMARK    6  A    between atoms: NA2_2  and  S2_14 
REMARK    7  A    between atoms: C2_6  and  C5_9 
REMARK    8  A    between atoms: C2_6  and  N1_10 
REMARK    9  A    between atoms: C3_7  and  C6_11 
REMARK   10  A    between atoms: C4_8  and  C6_11 
REMARK   11  A    between atoms: C5_9  and  C6_11 
REMARK   12  A    between atoms: C5_9  and  S2_14 
REMARK   13  A    between atoms: N1_10  and  C6_11 
REMARK   14  A    between atoms: C6_11  and  C7_12 
REMARK   15  A    between atoms: C6_11  and  S1_13 
REMARK   16  A    between atoms: S1_13  and  S2_14 
ROOT
HETATM    1 NA1  UNL     1       2.143   2.888   0.000  1.00  0.00     0.000 Na
HETATM    2 NA2  UNL     1      -0.715  -2.062   0.000  1.00  0.00     0.000 Na
HETATM    3  O1  UNL     1       1.429   2.475   0.000  1.00  0.00     0.000 OA
HETATM    4  C1  UNL     1       0.715   2.062   0.000  1.00  0.00     0.013 A 
HETATM    5  O2  UNL     1       0.000   2.475   0.000  1.00  0.00     0.000 OA
HETATM    6  C2  UNL     1       0.715   1.238   0.000  1.00  0.00     0.020 A 
HETATM    7  C3  UNL     1       1.429   0.825   0.000  1.00  0.00     0.020 A 
HETATM    8  C4  UNL     1       1.429  -0.000   0.000  1.00  0.00     0.021 A 
HETATM    9  C5  UNL     1       0.715  -0.412   0.000  1.00  0.00     0.051 A 
HETATM   10  N1  UNL     1       0.000   0.000   0.000  1.00  0.00     0.000 N 
HETATM   11  C6  UNL     1       0.000   0.825   0.000  1.00  0.00     0.045 A 
HETATM   12  C7  UNL     1      -0.715  -0.412   0.000  1.00  0.00     0.092 A 
HETATM   13  S1  UNL     1      -1.429   0.000   0.000  1.00  0.00    -0.132 SA
HETATM   14  S2  UNL     1      -0.715  -1.238   0.000  1.00  0.00    -0.131 SA
ENDROOT
TORSDOF 16
