REMARK  23 active torsions:
REMARK  status: ('A' for Active; 'I' for Inactive)
REMARK    1  A    between atoms: O1_3  and  C6_10 
REMARK    2  A    between atoms: O2_4  and  C1_5 
REMARK    3  A    between atoms: O2_4  and  C2_6 
REMARK    4  A    between atoms: C1_5  and  C4_8 
REMARK    5  A    between atoms: C1_5  and  C5_9 
REMARK    6  A    between atoms: C2_6  and  C5_9 
REMARK    7  A    between atoms: C2_6  and  C6_10 
REMARK    8  A    between atoms: C3_7  and  C6_10 
REMARK    9  A    between atoms: C4_8  and  C6_10 
REMARK   10  A    between atoms: C5_9  and  C6_10 
REMARK   11  A    between atoms: C5_9  and  C7_11 
REMARK   12  A    between atoms: C7_11  and  C13_18 
REMARK   13  A    between atoms: O3_12  and  C14_19 
REMARK   14  A    between atoms: C8_13  and  C11_16 
REMARK   15  A    between atoms: C8_13  and  C12_17 
REMARK   16  A    between atoms: C8_13  and  C14_19 
REMARK   17  A    between atoms: C9_14  and  C12_17 
REMARK   18  A    between atoms: C9_14  and  C13_18 
REMARK   19  A    between atoms: C10_15  and  C13_18 
REMARK   20  A    between atoms: C11_16  and  C13_18 
REMARK   21  A    between atoms: C12_17  and  C13_18 
REMARK   22  A    between atoms: C12_17  and  C14_19 
REMARK   23  A    between atoms: C13_18  and  C14_19 
ROOT
HETATM    1  N1  UNL     1      -3.471  -0.698   0.000  1.00  0.00    -0.082 NA
HETATM    2  S1  UNL     1      -2.646  -0.698   0.000  1.00  0.00    -0.128 SA
HETATM    3  O1  UNL     1      -2.646  -1.523   0.000  1.00  0.00     0.000 OA
HETATM    4  O2  UNL     1      -2.646   0.127   0.000  1.00  0.00     0.000 OA
HETATM    5  C1  UNL     1      -1.821  -0.698   0.000  1.00  0.00     0.043 A 
HETATM    6  C2  UNL     1      -1.409   0.017   0.000  1.00  0.00     0.043 A 
HETATM    7  C3  UNL     1      -0.584   0.017   0.000  1.00  0.00     0.025 A 
HETATM    8  C4  UNL     1      -0.171  -0.698   0.000  1.00  0.00     0.023 A 
HETATM    9  C5  UNL     1      -0.584  -1.412   0.000  1.00  0.00     0.025 A 
HETATM   10  C6  UNL     1      -1.409  -1.412   0.000  1.00  0.00     0.043 A 
HETATM   11  C7  UNL     1       0.654  -0.698   0.000  1.00  0.00     0.006 A 
HETATM   12  O3  UNL     1       1.139  -0.030   0.000  1.00  0.00     0.000 OA
HETATM   13  C8  UNL     1       1.923  -0.285   0.000  1.00  0.00     0.000 A 
HETATM   14  C9  UNL     1       2.638   0.127   0.000  1.00  0.00     0.000 A 
HETATM   15  C10 UNL     1       3.352  -0.285   0.000  1.00  0.00     0.000 A 
HETATM   16  C11 UNL     1       3.352  -1.110   0.000  1.00  0.00     0.000 A 
HETATM   17  C12 UNL     1       2.638  -1.523   0.000  1.00  0.00     0.000 A 
HETATM   18  C13 UNL     1       1.923  -1.110   0.000  1.00  0.00     0.000 A 
HETATM   19  C14 UNL     1       1.139  -1.365   0.000  1.00  0.00     0.002 A 
ENDROOT
TORSDOF 23
