REMARK  27 active torsions:
REMARK  status: ('A' for Active; 'I' for Inactive)
REMARK    1  A    between atoms: O1_3  and  C2_5 
REMARK    2  A    between atoms: O1_3  and  C7_11 
REMARK    3  A    between atoms: O2_4  and  C2_5 
REMARK    4  A    between atoms: O2_4  and  C3_6 
REMARK    5  A    between atoms: C2_5  and  C5_8 
REMARK    6  A    between atoms: C2_5  and  C6_9 
REMARK    7  A    between atoms: C3_6  and  C6_9 
REMARK    8  A    between atoms: C3_6  and  C7_11 
REMARK    9  A    between atoms: C4_7  and  C7_11 
REMARK   10  A    between atoms: C5_8  and  C7_11 
REMARK   11  A    between atoms: C6_9  and  C7_11 
REMARK   12  A    between atoms: C6_9  and  N1_12 
REMARK   13  A    between atoms: F1_10  and  C7_11 
REMARK   14  A    between atoms: N1_12  and  N2_15 
REMARK   15  A    between atoms: C8_13  and  N3_16 
REMARK   16  A    between atoms: C9_14  and  N3_16 
REMARK   17  A    between atoms: N2_15  and  N3_16 
REMARK   18  A    between atoms: N2_15  and  C10_17 
REMARK   19  A    between atoms: N2_15  and  S2_21 
REMARK   20  A    between atoms: C10_17  and  C13_20 
REMARK   21  A    between atoms: C11_18  and  S2_21 
REMARK   22  A    between atoms: C12_19  and  S2_21 
REMARK   23  A    between atoms: C12_19  and  N4_25 
REMARK   24  A    between atoms: C13_20  and  S2_21 
REMARK   25  A    between atoms: S2_21  and  S3_22 
REMARK   26  A    between atoms: S2_21  and  O4_24 
REMARK   27  A    between atoms: O3_23  and  N4_25 
ROOT
HETATM    1  C1  UNL     1       0.715   7.591   0.000  1.00  0.00     0.057 A 
HETATM    2  S1  UNL     1       0.715   6.766   0.000  1.00  0.00    -0.176 SA
HETATM    3  O1  UNL     1      -0.111   6.766   0.000  1.00  0.00     0.000 OA
HETATM    4  O2  UNL     1       1.540   6.766   0.000  1.00  0.00     0.000 OA
HETATM    5  C2  UNL     1       0.715   5.941   0.000  1.00  0.00     0.090 A 
HETATM    6  C3  UNL     1       1.429   5.529   0.000  1.00  0.00     0.094 A 
HETATM    7  C4  UNL     1       1.429   4.704   0.000  1.00  0.00     0.093 A 
HETATM    8  C5  UNL     1       0.715   4.291   0.000  1.00  0.00     0.090 A 
HETATM    9  C6  UNL     1       0.000   4.704   0.000  1.00  0.00     0.103 A 
HETATM   10  F1  UNL     1      -0.715   4.291   0.000  1.00  0.00    -0.474 F 
HETATM   11  C7  UNL     1      -0.000   5.529   0.000  1.00  0.00     0.093 A 
HETATM   12  N1  UNL     1       0.715   3.466   0.000  1.00  0.00     0.000 N 
HETATM   13  C8  UNL     1       1.382   2.981   0.000  1.00  0.00     0.048 A 
HETATM   14  C9  UNL     1       1.127   2.196   0.000  1.00  0.00     0.055 A 
HETATM   15  N2  UNL     1       0.302   2.196   0.000  1.00  0.00     0.000 N 
HETATM   16  N3  UNL     1       0.047   2.981   0.000  1.00  0.00     0.000 N 
HETATM   17  C10 UNL     1       1.612   1.529   0.000  1.00  0.00     0.112 A 
HETATM   18  C11 UNL     1       2.437   1.529   0.000  1.00  0.00     0.119 A 
HETATM   19  C12 UNL     1       2.692   0.745   0.000  1.00  0.00     0.266 A 
HETATM   20  C13 UNL     1       2.024   0.260   0.000  1.00  0.00     0.266 A 
HETATM   21  S2  UNL     1       1.357   0.745   0.000  1.00  0.00    -0.114 SA
HETATM   22  S3  UNL     1       2.024  -0.566   0.000  1.00  0.00     0.075 SA
HETATM   23  O3  UNL     1       2.024  -1.391   0.000  1.00  0.00     0.000 OA
HETATM   24  O4  UNL     1       1.199  -0.566   0.000  1.00  0.00     0.000 OA
HETATM   25  N4  UNL     1       2.849  -0.566   0.000  1.00  0.00     0.201 N 
ENDROOT
TORSDOF 27
