REMARK  30 active torsions:
REMARK  status: ('A' for Active; 'I' for Inactive)
REMARK    1  A    between atoms: O1_3  and  S3_23 
REMARK    2  A    between atoms: O2_4  and  C1_5 
REMARK    3  A    between atoms: O2_4  and  N2_6 
REMARK    4  A    between atoms: C1_5  and  C2_8 
REMARK    5  A    between atoms: N2_6  and  S3_23 
REMARK    6  A    between atoms: N3_7  and  S3_23 
REMARK    7  A    between atoms: C2_8  and  S3_23 
REMARK    8  A    between atoms: C2_8  and  O3_11 
REMARK    9  A    between atoms: N4_9  and  S3_23 
REMARK   10  A    between atoms: S2_10  and  F1_15 
REMARK   11  A    between atoms: S2_10  and  F4_22 
REMARK   12  A    between atoms: S2_10  and  S3_23 
REMARK   13  A    between atoms: O3_11  and  C8_21 
REMARK   14  A    between atoms: O3_11  and  F4_22 
REMARK   15  A    between atoms: O3_11  and  S3_23 
REMARK   16  A    between atoms: O4_12  and  C3_13 
REMARK   17  A    between atoms: O4_12  and  C4_14 
REMARK   18  A    between atoms: O4_12  and  F1_15 
REMARK   19  A    between atoms: C3_13  and  C6_18 
REMARK   20  A    between atoms: C3_13  and  C7_19 
REMARK   21  A    between atoms: C4_14  and  C7_19 
REMARK   22  A    between atoms: C4_14  and  C8_21 
REMARK   23  A    between atoms: F1_15  and  C5_16 
REMARK   24  A    between atoms: C5_16  and  C8_21 
REMARK   25  A    between atoms: F2_17  and  C6_18 
REMARK   26  A    between atoms: C6_18  and  C8_21 
REMARK   27  A    between atoms: C7_19  and  C8_21 
REMARK   28  A    between atoms: C7_19  and  F4_22 
REMARK   29  A    between atoms: F3_20  and  C8_21 
REMARK   30  A    between atoms: F4_22  and  S3_23 
ROOT
HETATM    1  N1  UNL     1       2.037  -0.474   0.000  1.00  0.00    -0.060 NA
HETATM    2  S1  UNL     1       2.037  -1.299   0.000  1.00  0.00    -0.019 SA
HETATM    3  O1  UNL     1       1.212  -1.299   0.000  1.00  0.00     0.000 OA
HETATM    4  O2  UNL     1       2.862  -1.299   0.000  1.00  0.00     0.000 OA
HETATM    5  C1  UNL     1       2.037  -2.124   0.000  1.00  0.00     0.149 A 
HETATM    6  N2  UNL     1       2.704  -2.609   0.000  1.00  0.00     0.000 N 
HETATM    7  N3  UNL     1       2.449  -3.394   0.000  1.00  0.00     0.000 N 
HETATM    8  C2  UNL     1       1.624  -3.394   0.000  1.00  0.00     0.150 A 
HETATM    9  N4  UNL     1       1.139  -4.061   0.000  1.00  0.00     0.000 N 
HETATM   10  S2  UNL     1       0.319  -3.975   0.000  1.00  0.00    -0.027 SA
HETATM   11  O3  UNL     1       0.405  -3.154   0.000  1.00  0.00     0.000 OA
HETATM   12  O4  UNL     1       0.233  -4.795   0.000  1.00  0.00     0.000 OA
HETATM   13  C3  UNL     1      -0.502  -3.889   0.000  1.00  0.00     0.247 A 
HETATM   14  C4  UNL     1      -0.987  -4.556   0.000  1.00  0.00     0.256 A 
HETATM   15  F1  UNL     1      -0.651  -5.310   0.000  1.00  0.00    -0.432 F 
HETATM   16  C5  UNL     1      -1.807  -4.470   0.000  1.00  0.00     0.270 A 
HETATM   17  F2  UNL     1      -2.292  -5.137   0.000  1.00  0.00    -0.401 F 
HETATM   18  C6  UNL     1      -2.143  -3.716   0.000  1.00  0.00     0.275 A 
HETATM   19  C7  UNL     1      -1.658  -3.049   0.000  1.00  0.00     0.265 A 
HETATM   20  F3  UNL     1      -1.993  -2.295   0.000  1.00  0.00    -0.402 F 
HETATM   21  C8  UNL     1      -0.837  -3.135   0.000  1.00  0.00     0.252 A 
HETATM   22  F4  UNL     1      -0.352  -2.467   0.000  1.00  0.00    -0.450 F 
HETATM   23  S3  UNL     1       1.369  -2.609   0.000  1.00  0.00    -0.072 SA
ENDROOT
TORSDOF 30
