REMARK  18 active torsions:
REMARK  status: ('A' for Active; 'I' for Inactive)
REMARK    1  A    between atoms: C4_4  and  C11_21 
REMARK    2  A    between atoms: C6_6  and  C9_14 
REMARK    3  A    between atoms: C6_6  and  C10_15 
REMARK    4  A    between atoms: C7_7  and  S1_10 
REMARK    5  A    between atoms: C7_7  and  N1_13 
REMARK    6  A    between atoms: C7_7  and  C10_15 
REMARK    7  A    between atoms: C7_7  and  C11_21 
REMARK    8  A    between atoms: C8_8  and  N1_13 
REMARK    9  A    between atoms: C8_8  and  C11_21 
REMARK   10  A    between atoms: O1_9  and  C9_14 
REMARK   11  A    between atoms: O2_11  and  N1_13 
REMARK   12  A    between atoms: C9_14  and  C11_21 
REMARK   13  A    between atoms: C10_15  and  C11_21 
REMARK   14  A    between atoms: C10_15  and  O5_18 
REMARK   15  A    between atoms: O4_16  and  C11_21 
REMARK   16  A    between atoms: S2_17  and  C11_21 
REMARK   17  A    between atoms: O5_18  and  C11_21 
REMARK   18  A    between atoms: O6_19  and  N2_20 
ROOT
HETATM    1  C1  UNL     1       0.000  -2.475   0.000  1.00  0.00     0.000 A 
HETATM    2  C2  UNL     1       0.715  -2.888   0.000  1.00  0.00     0.001 A 
HETATM    3  C3  UNL     1       1.429  -2.475   0.000  1.00  0.00     0.002 A 
HETATM    4  C4  UNL     1       2.143  -2.888   0.000  1.00  0.00     0.012 A 
HETATM    5  C5  UNL     1       2.858  -2.475   0.000  1.00  0.00     0.019 A 
HETATM    6  C6  UNL     1       3.572  -2.888   0.000  1.00  0.00     0.033 A 
HETATM    7  C7  UNL     1       4.287  -2.475   0.000  1.00  0.00     0.046 A 
HETATM    8  C8  UNL     1       5.001  -2.888   0.000  1.00  0.00     0.051 A 
HETATM    9  O1  UNL     1       5.716  -2.475   0.000  1.00  0.00     0.000 OA
HETATM   10  S1  UNL     1       5.716  -1.650   0.000  1.00  0.00    -0.142 SA
HETATM   11  O2  UNL     1       5.716  -0.825   0.000  1.00  0.00     0.000 OA
HETATM   12  O3  UNL     1       6.541  -1.650   0.000  1.00  0.00     0.000 OA
HETATM   13  N1  UNL     1       4.891  -1.650   0.000  1.00  0.00     0.000 N 
HETATM   14  C9  UNL     1       5.001  -3.712   0.000  1.00  0.00     0.036 A 
HETATM   15  C10 UNL     1       4.287  -4.125   0.000  1.00  0.00     0.057 A 
HETATM   16  O4  UNL     1       4.287  -4.950   0.000  1.00  0.00     0.000 OA
HETATM   17  S2  UNL     1       3.572  -5.362   0.000  1.00  0.00    -0.088 SA
HETATM   18  O5  UNL     1       3.160  -4.648   0.000  1.00  0.00     0.000 OA
HETATM   19  O6  UNL     1       3.985  -6.077   0.000  1.00  0.00     0.000 OA
HETATM   20  N2  UNL     1       2.858  -5.775   0.000  1.00  0.00    -0.072 NA
HETATM   21  C11 UNL     1       3.572  -3.712   0.000  1.00  0.00     0.046 A 
ENDROOT
TORSDOF 18
