REMARK WARNING: 32 MAX_TORS EXCEEDED!!!
REMARK  40 active torsions:
REMARK  status: ('A' for Active; 'I' for Inactive)
REMARK    1  A    between atoms: C2_2  and  C6_7 
REMARK    2  A    between atoms: C3_3  and  C6_7 
REMARK    3  A    between atoms: C3_3  and  N4_32 
REMARK    4  A    between atoms: C5_5  and  N1_6 
REMARK    5  A    between atoms: N1_6  and  N4_32 
REMARK    6  A    between atoms: C6_7  and  N4_32 
REMARK    7  A    between atoms: C6_7  and  O1_10 
REMARK    8  A    between atoms: N2_8  and  N4_32 
REMARK    9  A    between atoms: S1_9  and  N4_32 
REMARK   10  A    between atoms: O1_10  and  C12_17 
REMARK   11  A    between atoms: O1_10  and  N4_32 
REMARK   12  A    between atoms: O2_11  and  C7_12 
REMARK   13  A    between atoms: O2_11  and  C8_13 
REMARK   14  A    between atoms: C7_12  and  C10_15 
REMARK   15  A    between atoms: C7_12  and  C11_16 
REMARK   16  A    between atoms: C8_13  and  C11_16 
REMARK   17  A    between atoms: C8_13  and  C12_17 
REMARK   18  A    between atoms: C9_14  and  C12_17 
REMARK   19  A    between atoms: C9_14  and  C13_19 
REMARK   20  A    between atoms: C10_15  and  C12_17 
REMARK   21  A    between atoms: C11_16  and  C12_17 
REMARK   22  A    between atoms: C11_16  and  N3_18 
REMARK   23  A    between atoms: N3_18  and  O4_31 
REMARK   24  A    between atoms: C13_19  and  CL1_22 
REMARK   25  A    between atoms: C14_20  and  C21_28 
REMARK   26  A    between atoms: C14_20  and  O3_29 
REMARK   27  A    between atoms: C15_21  and  C22_30 
REMARK   28  A    between atoms: CL1_22  and  C16_23 
REMARK   29  A    between atoms: CL1_22  and  C17_24 
REMARK   30  A    between atoms: C16_23  and  C19_26 
REMARK   31  A    between atoms: C16_23  and  C20_27 
REMARK   32  A    between atoms: C16_23  and  C22_30 
REMARK   33  A    between atoms: C17_24  and  C20_27 
REMARK   34  A    between atoms: C17_24  and  C21_28 
REMARK   35  A    between atoms: C18_25  and  C21_28 
REMARK   36  A    between atoms: C19_26  and  C21_28 
REMARK   37  A    between atoms: C20_27  and  C21_28 
REMARK   38  A    between atoms: C20_27  and  O3_29 
REMARK   39  A    between atoms: C21_28  and  C22_30 
REMARK   40  A    between atoms: O3_29  and  C22_30 
ROOT
HETATM    1  C1  UNL     1      -5.716  -0.825   0.000  1.00  0.00     0.002 A 
HETATM    2  C2  UNL     1      -5.716  -0.000   0.000  1.00  0.00     0.009 A 
HETATM    3  C3  UNL     1      -6.430   0.412   0.000  1.00  0.00     0.008 A 
HETATM    4  C4  UNL     1      -6.430   1.238   0.000  1.00  0.00     0.009 A 
HETATM    5  C5  UNL     1      -7.145   1.650   0.000  1.00  0.00     0.002 A 
HETATM    6  N1  UNL     1      -5.716   1.650   0.000  1.00  0.00     0.000 N 
HETATM    7  C6  UNL     1      -5.001   1.238   0.000  1.00  0.00     0.025 A 
HETATM    8  N2  UNL     1      -4.287   1.650   0.000  1.00  0.00     0.000 N 
HETATM    9  S1  UNL     1      -3.572   1.238   0.000  1.00  0.00    -0.210 SA
HETATM   10  O1  UNL     1      -3.985   0.523   0.000  1.00  0.00     0.000 OA
HETATM   11  O2  UNL     1      -3.160   1.952   0.000  1.00  0.00     0.000 OA
HETATM   12  C7  UNL     1      -2.858   0.825   0.000  1.00  0.00     0.031 A 
HETATM   13  C8  UNL     1      -2.143   1.238   0.000  1.00  0.00     0.031 A 
HETATM   14  C9  UNL     1      -1.429   0.825   0.000  1.00  0.00     0.030 A 
HETATM   15  C10 UNL     1      -1.429   0.000   0.000  1.00  0.00     0.030 A 
HETATM   16  C11 UNL     1      -2.143  -0.412   0.000  1.00  0.00     0.026 A 
HETATM   17  C12 UNL     1      -2.858   0.000   0.000  1.00  0.00     0.031 A 
HETATM   18  N3  UNL     1      -0.715  -0.412   0.000  1.00  0.00     0.000 N 
HETATM   19  C13 UNL     1       0.000   0.000   0.000  1.00  0.00     0.034 A 
HETATM   20  C14 UNL     1       0.715  -0.412   0.000  1.00  0.00     0.037 A 
HETATM   21  C15 UNL     1       1.429   0.000   0.000  1.00  0.00     0.035 A 
HETATM   22 CL1  UNL     1       1.429   0.825   0.000  1.00  0.00    -0.309 Cl
HETATM   23  C16 UNL     1       2.143  -0.412   0.000  1.00  0.00     0.025 A 
HETATM   24  C17 UNL     1       2.858   0.000   0.000  1.00  0.00     0.025 A 
HETATM   25  C18 UNL     1       3.572  -0.412   0.000  1.00  0.00     0.022 A 
HETATM   26  C19 UNL     1       3.572  -1.238   0.000  1.00  0.00     0.022 A 
HETATM   27  C20 UNL     1       2.858  -1.650   0.000  1.00  0.00     0.022 A 
HETATM   28  C21 UNL     1       2.143  -1.238   0.000  1.00  0.00     0.032 A 
HETATM   29  O3  UNL     1       1.429  -1.650   0.000  1.00  0.00     0.000 OA
HETATM   30  C22 UNL     1       0.715  -1.238   0.000  1.00  0.00     0.037 A 
HETATM   31  O4  UNL     1       0.000  -1.650   0.000  1.00  0.00     0.000 OA
HETATM   32  N4  UNL     1      -5.001   0.412   0.000  1.00  0.00     0.000 N 
ENDROOT
TORSDOF 40
