REMARK  13 active torsions:
REMARK  status: ('A' for Active; 'I' for Inactive)
REMARK    1  A    between atoms: C3_3  and  C13_16 
REMARK    2  A    between atoms: C3_3  and  O2_17 
REMARK    3  A    between atoms: N1_6  and  C13_16 
REMARK    4  A    between atoms: O1_7  and  N2_18 
REMARK    5  A    between atoms: C7_9  and  C10_12 
REMARK    6  A    between atoms: C7_9  and  C11_14 
REMARK    7  A    between atoms: C8_10  and  C11_14 
REMARK    8  A    between atoms: C8_10  and  C12_15 
REMARK    9  A    between atoms: C9_11  and  C12_15 
REMARK   10  A    between atoms: C10_12  and  C12_15 
REMARK   11  A    between atoms: CL1_13  and  C11_14 
REMARK   12  A    between atoms: C11_14  and  C12_15 
REMARK   13  A    between atoms: O2_17  and  N2_18 
ROOT
HETATM    1  C1  UNL     1       2.143  -5.362   0.000  1.00  0.00    -0.050 A 
HETATM    2  C2  UNL     1       2.858  -4.950   0.000  1.00  0.00     0.026 A 
HETATM    3  C3  UNL     1       3.572  -5.362   0.000  1.00  0.00     0.044 A 
HETATM    4  C4  UNL     1       4.287  -4.950   0.000  1.00  0.00     0.038 A 
HETATM    5  C5  UNL     1       5.001  -5.362   0.000  1.00  0.00     0.037 A 
HETATM    6  N1  UNL     1       5.716  -4.950   0.000  1.00  0.00     0.000 N 
HETATM    7  O1  UNL     1       6.430  -5.362   0.000  1.00  0.00     0.000 OA
HETATM    8  C6  UNL     1       7.145  -4.950   0.000  1.00  0.00     0.009 A 
HETATM    9  C7  UNL     1       7.859  -5.362   0.000  1.00  0.00     0.033 A 
HETATM   10  C8  UNL     1       8.574  -4.950   0.000  1.00  0.00     0.033 A 
HETATM   11  C9  UNL     1       9.288  -5.362   0.000  1.00  0.00     0.048 A 
HETATM   12  C10 UNL     1       9.288  -6.188   0.000  1.00  0.00     0.048 A 
HETATM   13 CL1  UNL     1      10.003  -6.600   0.000  1.00  0.00    -0.251 Cl
HETATM   14  C11 UNL     1       8.574  -6.600   0.000  1.00  0.00     0.048 A 
HETATM   15  C12 UNL     1       7.859  -6.188   0.000  1.00  0.00     0.033 A 
HETATM   16  C13 UNL     1       5.001  -6.188   0.000  1.00  0.00     0.131 A 
HETATM   17  O2  UNL     1       4.287  -6.600   0.000  1.00  0.00     0.000 OA
HETATM   18  N2  UNL     1       5.716  -6.600   0.000  1.00  0.00     0.000 N 
HETATM   19  O3  UNL     1       5.716  -7.425   0.000  1.00  0.00    -0.226 OA
ENDROOT
TORSDOF 13
