REMARK  14 active torsions:
REMARK  status: ('A' for Active; 'I' for Inactive)
REMARK    1  A    between atoms: C1_2  and  C4_5 
REMARK    2  A    between atoms: C1_2  and  C8_11 
REMARK    3  A    between atoms: C2_3  and  C8_11 
REMARK    4  A    between atoms: C2_3  and  C9_12 
REMARK    5  A    between atoms: C3_4  and  C9_12 
REMARK    6  A    between atoms: C4_5  and  C6_9 
REMARK    7  A    between atoms: C4_5  and  C7_10 
REMARK    8  A    between atoms: C4_5  and  C9_12 
REMARK    9  A    between atoms: O2_6  and  C8_11 
REMARK   10  A    between atoms: C5_7  and  C8_11 
REMARK   11  A    between atoms: C6_9  and  C8_11 
REMARK   12  A    between atoms: C7_10  and  C8_11 
REMARK   13  A    between atoms: C7_10  and  C9_12 
REMARK   14  A    between atoms: C8_11  and  C9_12 
ROOT
HETATM    1  O1  UNL     1       0.000  -1.650   0.000  1.00  0.00     0.000 OA
HETATM    2  C1  UNL     1       0.715  -1.238   0.000  1.00  0.00     0.009 A 
HETATM    3  C2  UNL     1       0.715  -0.412   0.000  1.00  0.00     0.009 A 
HETATM    4  C3  UNL     1       1.429   0.000   0.000  1.00  0.00     0.009 A 
HETATM    5  C4  UNL     1       2.143  -0.412   0.000  1.00  0.00     0.040 A 
HETATM    6  O2  UNL     1       2.858   0.000   0.000  1.00  0.00     0.000 OA
HETATM    7  C5  UNL     1       3.572  -0.412   0.000  1.00  0.00     0.098 A 
HETATM    8  O3  UNL     1       4.287  -0.000   0.000  1.00  0.00    -0.363 OA
HETATM    9  C6  UNL     1       3.572  -1.238   0.000  1.00  0.00     0.098 A 
HETATM   10  C7  UNL     1       2.858  -1.650   0.000  1.00  0.00     0.050 A 
HETATM   11  C8  UNL     1       2.143  -1.238   0.000  1.00  0.00     0.040 A 
HETATM   12  C9  UNL     1       1.429  -1.650   0.000  1.00  0.00     0.012 A 
ENDROOT
TORSDOF 14
