REMARK WARNING: 32 MAX_TORS EXCEEDED!!!
REMARK  33 active torsions:
REMARK  status: ('A' for Active; 'I' for Inactive)
REMARK    1  A    between atoms: C1_1  and  C17_23 
REMARK    2  A    between atoms: C2_3  and  C3_4 
REMARK    3  A    between atoms: C2_3  and  C4_5 
REMARK    4  A    between atoms: C3_4  and  C6_7 
REMARK    5  A    between atoms: C3_4  and  C16_22 
REMARK    6  A    between atoms: C4_5  and  C9_11 
REMARK    7  A    between atoms: C4_5  and  C10_12 
REMARK    8  A    between atoms: C4_5  and  C11_13 
REMARK    9  A    between atoms: C4_5  and  C16_22 
REMARK   10  A    between atoms: C4_5  and  C17_23 
REMARK   11  A    between atoms: C5_6  and  C8_10 
REMARK   12  A    between atoms: C5_6  and  C9_11 
REMARK   13  A    between atoms: C5_6  and  C10_12 
REMARK   14  A    between atoms: C5_6  and  C11_13 
REMARK   15  A    between atoms: C5_6  and  C17_23 
REMARK   16  A    between atoms: C6_7  and  C8_10 
REMARK   17  A    between atoms: C6_7  and  C9_11 
REMARK   18  A    between atoms: C6_7  and  C17_23 
REMARK   19  A    between atoms: C7_8  and  C9_11 
REMARK   20  A    between atoms: C7_8  and  C16_22 
REMARK   21  A    between atoms: C8_10  and  C15_17 
REMARK   22  A    between atoms: C10_12  and  C13_15 
REMARK   23  A    between atoms: C10_12  and  C14_16 
REMARK   24  A    between atoms: C11_13  and  C14_16 
REMARK   25  A    between atoms: C11_13  and  C15_17 
REMARK   26  A    between atoms: C12_14  and  C15_17 
REMARK   27  A    between atoms: C12_14  and  N3_21 
REMARK   28  A    between atoms: C13_15  and  C15_17 
REMARK   29  A    between atoms: C14_16  and  C15_17 
REMARK   30  A    between atoms: C14_16  and  S1_18 
REMARK   31  A    between atoms: C14_16  and  O2_20 
REMARK   32  A    between atoms: O1_19  and  N3_21 
REMARK   33  A    between atoms: C16_22  and  C17_23 
ROOT
HETATM    1  C1  UNL     1      -1.429   0.000   0.000  1.00  0.00     0.004 A 
HETATM    2  N1  UNL     1      -0.715  -0.412   0.000  1.00  0.00     0.000 N 
HETATM    3  C2  UNL     1       0.000  -0.000   0.000  1.00  0.00     0.006 A 
HETATM    4  C3  UNL     1      -0.715  -1.238   0.000  1.00  0.00     0.033 A 
HETATM    5  C4  UNL     1       0.000  -1.650   0.000  1.00  0.00     0.057 A 
HETATM    6  C5  UNL     1       0.000  -2.475   0.000  1.00  0.00     0.087 A 
HETATM    7  C6  UNL     1      -0.715  -2.888   0.000  1.00  0.00     0.138 A 
HETATM    8  C7  UNL     1      -0.715  -3.712   0.000  1.00  0.00     0.184 A 
HETATM    9  N2  UNL     1      -0.000  -4.125   0.000  1.00  0.00    -0.024 N 
HETATM   10  C8  UNL     1       0.715  -3.712   0.000  1.00  0.00     0.176 A 
HETATM   11  C9  UNL     1       0.715  -2.888   0.000  1.00  0.00     0.151 A 
HETATM   12  C10 UNL     1       1.429  -2.475   0.000  1.00  0.00     0.113 A 
HETATM   13  C11 UNL     1       1.429  -1.650   0.000  1.00  0.00     0.102 A 
HETATM   14  C12 UNL     1       2.143  -1.238   0.000  1.00  0.00     0.217 A 
HETATM   15  C13 UNL     1       2.858  -1.650   0.000  1.00  0.00     0.217 A 
HETATM   16  C14 UNL     1       2.858  -2.475   0.000  1.00  0.00     0.117 A 
HETATM   17  C15 UNL     1       2.143  -2.888   0.000  1.00  0.00     0.119 A 
HETATM   18  S1  UNL     1       3.572  -1.238   0.000  1.00  0.00     0.038 SA
HETATM   19  O1  UNL     1       4.287  -0.825   0.000  1.00  0.00     0.000 OA
HETATM   20  O2  UNL     1       3.985  -1.952   0.000  1.00  0.00     0.000 OA
HETATM   21  N3  UNL     1       3.160  -0.523   0.000  1.00  0.00     0.174 N 
HETATM   22  C16 UNL     1      -1.429  -2.475   0.000  1.00  0.00     0.056 A 
HETATM   23  C17 UNL     1      -1.429  -1.650   0.000  1.00  0.00     0.034 A 
ENDROOT
TORSDOF 33
