REMARK  25 active torsions:
REMARK  status: ('A' for Active; 'I' for Inactive)
REMARK    1  A    between atoms: S1_2  and  C14_23 
REMARK    2  A    between atoms: O1_3  and  C1_6 
REMARK    3  A    between atoms: O1_3  and  C14_23 
REMARK    4  A    between atoms: O2_4  and  O3_5 
REMARK    5  A    between atoms: C1_6  and  C4_9 
REMARK    6  A    between atoms: C1_6  and  C13_22 
REMARK    7  A    between atoms: C2_7  and  C13_22 
REMARK    8  A    between atoms: C2_7  and  C14_23 
REMARK    9  A    between atoms: C3_8  and  C14_23 
REMARK   10  A    between atoms: C4_9  and  C14_23 
REMARK   11  A    between atoms: N2_10  and  C13_22 
REMARK   12  A    between atoms: C5_11  and  C11_19 
REMARK   13  A    between atoms: C5_11  and  C13_22 
REMARK   14  A    between atoms: O4_12  and  N3_13 
REMARK   15  A    between atoms: O4_12  and  C11_19 
REMARK   16  A    between atoms: O4_12  and  C13_22 
REMARK   17  A    between atoms: C6_14  and  C9_17 
REMARK   18  A    between atoms: C6_14  and  C10_18 
REMARK   19  A    between atoms: C7_15  and  C10_18 
REMARK   20  A    between atoms: C7_15  and  C11_19 
REMARK   21  A    between atoms: C8_16  and  C11_19 
REMARK   22  A    between atoms: C9_17  and  C11_19 
REMARK   23  A    between atoms: C10_18  and  C11_19 
REMARK   24  A    between atoms: C10_18  and  C12_20 
REMARK   25  A    between atoms: C13_22  and  C14_23 
ROOT
HETATM    1  N1  UNL     1       1.429  -0.825   0.000  1.00  0.00    -0.072 NA
HETATM    2  S1  UNL     1       2.143  -1.238   0.000  1.00  0.00    -0.090 SA
HETATM    3  O1  UNL     1       1.731  -1.952   0.000  1.00  0.00     0.000 OA
HETATM    4  O2  UNL     1       2.556  -0.523   0.000  1.00  0.00     0.000 OA
HETATM    5  O3  UNL     1       2.858  -1.650   0.000  1.00  0.00     0.000 OA
HETATM    6  C1  UNL     1       2.858  -2.475   0.000  1.00  0.00     0.042 A 
HETATM    7  C2  UNL     1       3.572  -2.888   0.000  1.00  0.00     0.020 A 
HETATM    8  C3  UNL     1       3.572  -3.712   0.000  1.00  0.00     0.020 A 
HETATM    9  C4  UNL     1       2.858  -4.125   0.000  1.00  0.00     0.018 A 
HETATM   10  N2  UNL     1       2.858  -4.950   0.000  1.00  0.00     0.000 N 
HETATM   11  C5  UNL     1       2.143  -5.362   0.000  1.00  0.00     0.003 A 
HETATM   12  O4  UNL     1       1.429  -4.950   0.000  1.00  0.00     0.000 OA
HETATM   13  N3  UNL     1       2.143  -6.188   0.000  1.00  0.00     0.000 N 
HETATM   14  C6  UNL     1       1.429  -6.600   0.000  1.00  0.00     0.005 A 
HETATM   15  C7  UNL     1       1.429  -7.425   0.000  1.00  0.00     0.005 A 
HETATM   16  C8  UNL     1       0.715  -7.838   0.000  1.00  0.00     0.021 A 
HETATM   17  C9  UNL     1      -0.000  -7.425   0.000  1.00  0.00     0.021 A 
HETATM   18  C10 UNL     1      -0.000  -6.600   0.000  1.00  0.00     0.021 A 
HETATM   19  C11 UNL     1       0.715  -6.188   0.000  1.00  0.00     0.005 A 
HETATM   20  C12 UNL     1      -0.715  -7.838   0.000  1.00  0.00     0.104 A 
HETATM   21  N4  UNL     1      -1.429  -8.250   0.000  1.00  0.00    -0.183 N 
HETATM   22  C13 UNL     1       2.143  -3.712   0.000  1.00  0.00     0.018 A 
HETATM   23  C14 UNL     1       2.143  -2.888   0.000  1.00  0.00     0.042 A 
ENDROOT
TORSDOF 25
