REMARK WARNING: 32 MAX_TORS EXCEEDED!!!
REMARK  36 active torsions:
REMARK  status: ('A' for Active; 'I' for Inactive)
REMARK    1  A    between atoms: C1_1  and  C10_12 
REMARK    2  A    between atoms: C2_3  and  C5_6 
REMARK    3  A    between atoms: C2_3  and  C9_11 
REMARK    4  A    between atoms: C3_4  and  C9_11 
REMARK    5  A    between atoms: C3_4  and  C10_12 
REMARK    6  A    between atoms: C4_5  and  C10_12 
REMARK    7  A    between atoms: C4_5  and  C11_17 
REMARK    8  A    between atoms: C4_5  and  C12_18 
REMARK    9  A    between atoms: C5_6  and  C7_9 
REMARK   10  A    between atoms: C5_6  and  C8_10 
REMARK   11  A    between atoms: C5_6  and  C10_12 
REMARK   12  A    between atoms: C5_6  and  C12_18 
REMARK   13  A    between atoms: C6_7  and  C8_10 
REMARK   14  A    between atoms: C6_7  and  C9_11 
REMARK   15  A    between atoms: C6_7  and  N2_16 
REMARK   16  A    between atoms: N1_8  and  C11_17 
REMARK   17  A    between atoms: C7_9  and  C9_11 
REMARK   18  A    between atoms: C7_9  and  S1_13 
REMARK   19  A    between atoms: C7_9  and  O3_15 
REMARK   20  A    between atoms: C8_10  and  C9_11 
REMARK   21  A    between atoms: C8_10  and  C10_12 
REMARK   22  A    between atoms: C9_11  and  C10_12 
REMARK   23  A    between atoms: S1_13  and  C11_17 
REMARK   24  A    between atoms: S1_13  and  C16_23 
REMARK   25  A    between atoms: O2_14  and  N2_16 
REMARK   26  A    between atoms: N2_16  and  C11_17 
REMARK   27  A    between atoms: N2_16  and  C15_22 
REMARK   28  A    between atoms: N2_16  and  C16_23 
REMARK   29  A    between atoms: C11_17  and  C14_20 
REMARK   30  A    between atoms: C11_17  and  C15_22 
REMARK   31  A    between atoms: C12_18  and  C15_22 
REMARK   32  A    between atoms: C12_18  and  C16_23 
REMARK   33  A    between atoms: C13_19  and  C16_23 
REMARK   34  A    between atoms: C14_20  and  C16_23 
REMARK   35  A    between atoms: N3_21  and  C15_22 
REMARK   36  A    between atoms: C15_22  and  C16_23 
ROOT
HETATM    1  C1  UNL     1       0.000  -2.475   0.000  1.00  0.00     0.000 A 
HETATM    2  O1  UNL     1       0.000  -1.650   0.000  1.00  0.00     0.000 OA
HETATM    3  C2  UNL     1       0.715  -1.238   0.000  1.00  0.00     0.005 A 
HETATM    4  C3  UNL     1       0.715  -0.412   0.000  1.00  0.00     0.005 A 
HETATM    5  C4  UNL     1       1.429   0.000   0.000  1.00  0.00     0.018 A 
HETATM    6  C5  UNL     1       2.143  -0.412   0.000  1.00  0.00     0.020 A 
HETATM    7  C6  UNL     1       2.858   0.000   0.000  1.00  0.00     0.028 A 
HETATM    8  N1  UNL     1       3.572  -0.412   0.000  1.00  0.00     0.000 N 
HETATM    9  C7  UNL     1       3.572  -1.238   0.000  1.00  0.00     0.027 A 
HETATM   10  C8  UNL     1       2.858  -1.650   0.000  1.00  0.00     0.015 A 
HETATM   11  C9  UNL     1       2.143  -1.238   0.000  1.00  0.00     0.014 A 
HETATM   12  C10 UNL     1       1.429  -1.650   0.000  1.00  0.00     0.006 A 
HETATM   13  S1  UNL     1       4.287  -0.000   0.000  1.00  0.00    -0.207 SA
HETATM   14  O2  UNL     1       5.001   0.412   0.000  1.00  0.00     0.000 OA
HETATM   15  O3  UNL     1       4.699  -0.715   0.000  1.00  0.00     0.000 OA
HETATM   16  N2  UNL     1       3.874   0.715   0.000  1.00  0.00     0.000 N 
HETATM   17  C11 UNL     1       2.858   0.825   0.000  1.00  0.00     0.045 A 
HETATM   18  C12 UNL     1       2.143   1.238   0.000  1.00  0.00     0.049 A 
HETATM   19  C13 UNL     1       2.143   2.062   0.000  1.00  0.00     0.066 A 
HETATM   20  C14 UNL     1       2.858   2.475   0.000  1.00  0.00     0.066 A 
HETATM   21  N3  UNL     1       2.858   3.300   0.000  1.00  0.00    -0.275 NA
HETATM   22  C15 UNL     1       3.572   2.062   0.000  1.00  0.00     0.066 A 
HETATM   23  C16 UNL     1       3.572   1.238   0.000  1.00  0.00     0.055 A 
ENDROOT
TORSDOF 36
