REMARK  6 active torsions:
REMARK  status: ('A' for Active; 'I' for Inactive)
REMARK    1  A    between atoms: C5_5  and  N1_7 
REMARK       I    between atoms: N1_7  and  C7_8 
REMARK    2  A    between atoms: C7_8  and  C8_10 
REMARK       I    between atoms: C8_10  and  N2_12 
REMARK    3  A    between atoms: N2_12  and  C9_13 
REMARK    4  A    between atoms: C9_13  and  C10_14 
REMARK    5  A    between atoms: C10_14  and  C11_15 
REMARK    6  A    between atoms: C11_15  and  C12_16 
ROOT
HETATM    1  C12 UNL     1      -3.803  -9.003   0.729  1.00  0.00     0.093 A 
HETATM    2  C13 UNL     1      -4.520  -9.207   1.931  1.00  0.00     0.116 A 
HETATM    3  C14 UNL     1      -5.773  -9.701   1.579  1.00  0.00     0.183 A 
HETATM    4  N3  UNL     1      -5.802  -9.787   0.232  1.00  0.00    -0.133 NA
HETATM    5  N4  UNL     1      -4.572  -9.343  -0.267  1.00  0.00    -0.151 NA
HETATM    6  N5  UNL     1      -6.795 -10.039   2.445  1.00  0.00    -0.077 NA
HETATM    7  C15 UNL     1      -4.047  -8.954   3.259  1.00  0.00     0.105 C 
HETATM    8  N6  UNL     1      -3.671  -8.753   4.312  1.00  0.00    -0.191 NA
ENDROOT
BRANCH   1   9
HETATM    9  C11 UNL     1      -2.396  -8.476   0.619  1.00  0.00     0.051 C 
BRANCH   9  10
HETATM   10  C10 UNL     1      -2.429  -6.950   0.513  1.00  0.00     0.033 C 
BRANCH  10  11
HETATM   11  C9  UNL     1      -1.000  -6.415   0.400  1.00  0.00     0.130 C 
BRANCH  11  12
HETATM   12  N2  UNL     1      -1.031  -4.954   0.299  1.00  0.00    -0.230 NA
HETATM   13  C8  UNL     1       0.119  -4.261   0.190  1.00  0.00     0.333 C 
HETATM   14  O2  UNL     1       1.182  -4.847   0.176  1.00  0.00    -0.260 OA
BRANCH  13  15
HETATM   15  C7  UNL     1       0.087  -2.772   0.087  1.00  0.00     0.337 C 
HETATM   16  N1  UNL     1       1.238  -2.078  -0.022  1.00  0.00    -0.203 NA
HETATM   17  O1  UNL     1      -0.976  -2.185   0.101  1.00  0.00    -0.260 OA
BRANCH  16  18
HETATM   18  C5  UNL     1       1.216  -0.681  -0.003  1.00  0.00     0.095 A 
HETATM   19  C4  UNL     1       2.240   0.040  -0.607  1.00  0.00     0.075 A 
HETATM   20  C3  UNL     1       2.215   1.422  -0.585  1.00  0.00     0.013 A 
HETATM   21 CL1  UNL     1       3.547  -0.794  -1.387  1.00  0.00    -0.081 Cl
HETATM   22  C2  UNL     1       1.173   2.086   0.035  1.00  0.00     0.001 A 
HETATM   23  C1  UNL     1       0.153   1.371   0.637  1.00  0.00     0.002 A 
HETATM   24  C6  UNL     1       0.172  -0.009   0.620  1.00  0.00     0.020 A 
ENDBRANCH  16  18
ENDBRANCH  13  15
ENDBRANCH  11  12
ENDBRANCH  10  11
ENDBRANCH   9  10
ENDBRANCH   1   9
TORSDOF 6
