REMARK  3 active torsions:
REMARK  status: ('A' for Active; 'I' for Inactive)
REMARK    1  A    between atoms: C9_10  and  C10_12 
REMARK       I    between atoms: C10_12  and  N1_14 
REMARK    2  A    between atoms: N1_14  and  N2_15 
REMARK       I    between atoms: N2_15  and  C11_16 
REMARK    3  A    between atoms: C11_16  and  C12_18 
ROOT
HETATM    1  C10 UNL     1       7.187  -3.104   3.877  1.00  0.00     0.320 C 
HETATM    2  O3  UNL     1       6.446  -4.067   3.877  1.00  0.00    -0.261 OA
HETATM    3  N1  UNL     1       6.773  -1.936   3.346  1.00  0.00    -0.101 NA
ENDROOT
BRANCH   1   4
HETATM    4  C9  UNL     1       8.544  -3.213   4.461  1.00  0.00     0.162 A 
HETATM    5  C8  UNL     1       8.933  -4.399   4.987  1.00  0.00     0.072 A 
HETATM    6  C7  UNL     1      10.280  -4.509   5.567  1.00  0.00     0.200 A 
HETATM    7  C5  UNL     1      11.121  -3.297   5.531  1.00  0.00     0.062 A 
HETATM    8  O1  UNL     1      10.682  -5.551   6.054  1.00  0.00    -0.286 OA
HETATM    9  C4  UNL     1      10.589  -2.132   4.953  1.00  0.00     0.103 A 
HETATM   10  C6  UNL     1      12.414  -3.296   6.054  1.00  0.00     0.005 A 
HETATM   11  C3  UNL     1      11.370  -0.981   4.911  1.00  0.00     0.025 A 
HETATM   12  O2  UNL     1       9.342  -2.135   4.443  1.00  0.00    -0.302 OA
HETATM   13  C2  UNL     1      12.645  -0.998   5.433  1.00  0.00     0.002 A 
HETATM   14  C1  UNL     1      13.164  -2.153   6.002  1.00  0.00     0.000 A 
ENDBRANCH   1   4
BRANCH   3  15
HETATM   15  N2  UNL     1       5.490  -1.832   2.794  1.00  0.00    -0.102 NA
HETATM   16  C11 UNL     1       5.077  -0.664   2.263  1.00  0.00     0.297 C 
HETATM   17  O4  UNL     1       5.818   0.299   2.263  1.00  0.00    -0.264 OA
BRANCH  16  18
HETATM   18  C12 UNL     1       3.724  -0.555   1.682  1.00  0.00     0.061 A 
HETATM   19  C13 UNL     1       2.871  -1.662   1.681  1.00  0.00     0.007 A 
HETATM   20  C14 UNL     1       1.609  -1.558   1.138  1.00  0.00     0.026 A 
HETATM   21  C15 UNL     1       1.181  -0.356   0.590  1.00  0.00     0.119 A 
HETATM   22  C16 UNL     1       2.028   0.752   0.588  1.00  0.00     0.119 A 
HETATM   23  O6  UNL     1       0.002  -0.004   0.002  1.00  0.00    -0.300 OA
HETATM   24  C17 UNL     1       3.294   0.654   1.131  1.00  0.00     0.031 A 
HETATM   25  O5  UNL     1       1.376   1.797  -0.001  1.00  0.00    -0.300 OA
HETATM   26  C18 UNL     1      -0.017   1.435   0.010  1.00  0.00     0.304 C 
ENDBRANCH  16  18
ENDBRANCH   3  15
TORSDOF 3
