REMARK  5 active torsions:
REMARK  status: ('A' for Active; 'I' for Inactive)
REMARK    1  A    between atoms: C7_7  and  C11_11 
REMARK       I    between atoms: C11_11  and  N1_13 
REMARK    2  A    between atoms: N1_13  and  N2_14 
REMARK       I    between atoms: N2_14  and  C12_15 
REMARK    3  A    between atoms: C12_15  and  C13_17 
REMARK    4  A    between atoms: C13_17  and  C14_18 
REMARK    5  A    between atoms: C14_18  and  N3_19 
ROOT
HETATM    1  N2  UNL     1      -0.288   1.272  -2.443  1.00  0.00    -0.107 NA
HETATM    2  C12 UNL     1      -0.742   1.585  -1.213  1.00  0.00     0.276 C 
HETATM    3  O2  UNL     1      -1.736   2.268  -1.088  1.00  0.00    -0.269 OA
ENDROOT
BRANCH   1   4
HETATM    4  N1  UNL     1      -0.966   1.736  -3.578  1.00  0.00    -0.103 NA
HETATM    5  C11 UNL     1      -0.513   1.424  -4.808  1.00  0.00     0.299 C 
HETATM    6  O1  UNL     1       0.484   0.739  -4.933  1.00  0.00    -0.264 OA
BRANCH   5   7
HETATM    7  C7  UNL     1      -1.227   1.913  -6.004  1.00  0.00     0.085 A 
HETATM    8  C6  UNL     1      -0.748   1.583  -7.290  1.00  0.00     0.136 A 
HETATM    9  C5  UNL     1      -1.393   2.024  -8.407  1.00  0.00     0.028 A 
HETATM   10  O5  UNL     1       0.365   0.817  -7.416  1.00  0.00    -0.190 OA
HETATM   11  C4  UNL     1      -2.547   2.817  -8.285  1.00  0.00     0.002 A 
HETATM   12  C3  UNL     1      -3.229   3.283  -9.423  1.00  0.00     0.000 A 
HETATM   13  C9  UNL     1      -3.036   3.154  -6.997  1.00  0.00     0.000 A 
HETATM   14  C2  UNL     1      -4.344   4.049  -9.274  1.00  0.00     0.000 A 
HETATM   15  C1  UNL     1      -4.824   4.380  -8.009  1.00  0.00     0.000 A 
HETATM   16  C10 UNL     1      -4.192   3.948  -6.884  1.00  0.00     0.000 A 
HETATM   17  C8  UNL     1      -2.365   2.688  -5.857  1.00  0.00     0.007 A 
ENDBRANCH   5   7
ENDBRANCH   1   4
BRANCH   2  18
HETATM   18  C13 UNL     1      -0.013   1.086   0.008  1.00  0.00     0.116 C 
BRANCH  18  19
HETATM   19  C14 UNL     1      -0.729   1.579   1.267  1.00  0.00     0.123 C 
BRANCH  19  20
HETATM   20  N3  UNL     1      -0.020   1.094   2.454  1.00  0.00    -0.249 N 
HETATM   21  C15 UNL     1       0.979   1.763   3.068  1.00  0.00     0.261 A 
HETATM   22  O3  UNL     1       1.445   2.838   2.756  1.00  0.00    -0.270 OA
HETATM   23  C16 UNL     1       1.392   0.888   4.224  1.00  0.00     0.160 A 
HETATM   24  C17 UNL     1       1.210   1.618   5.561  1.00  0.00     0.032 C 
HETATM   25  C20 UNL     1       2.865   0.485   4.117  1.00  0.00     0.032 C 
HETATM   26  N4  UNL     1       0.511  -0.278   4.134  1.00  0.00    -0.213 NA
HETATM   27  C18 UNL     1       2.389   1.108   6.430  1.00  0.00     0.003 C 
HETATM   28  C19 UNL     1       3.547   0.993   5.407  1.00  0.00     0.003 C 
HETATM   29  C21 UNL     1      -0.287  -0.066   3.068  1.00  0.00     0.348 A 
HETATM   30  O4  UNL     1      -1.149  -0.841   2.704  1.00  0.00    -0.245 OA
ENDBRANCH  19  20
ENDBRANCH  18  19
ENDBRANCH   2  18
TORSDOF 5
