REMARK  3 active torsions:
REMARK  status: ('A' for Active; 'I' for Inactive)
REMARK    1  A    between atoms: C4_4  and  C5_7 
REMARK    2  A    between atoms: C5_7  and  N2_8 
REMARK    3  A    between atoms: C7_10  and  C11_15 
ROOT
HETATM    1  N2  UNL     1       1.424  -3.694  -1.928  1.00  0.00    -0.288 N 
HETATM    2  C6  UNL     1       2.046  -3.159  -3.010  1.00  0.00     0.083 A 
HETATM    3  C7  UNL     1       3.325  -3.490  -3.305  1.00  0.00     0.089 A 
HETATM    4  C8  UNL     1       4.021  -4.393  -2.489  1.00  0.00     0.010 A 
HETATM    5  C9  UNL     1       3.394  -4.928  -1.402  1.00  0.00     0.061 A 
HETATM    6  C10 UNL     1       2.067  -4.559  -1.122  1.00  0.00     0.261 A 
HETATM    7  O2  UNL     1       1.496  -5.028  -0.150  1.00  0.00    -0.267 OA
ENDROOT
BRANCH   1   8
HETATM    8  C5  UNL     1       0.039  -3.320  -1.631  1.00  0.00     0.163 C 
BRANCH   8   9
HETATM    9  C4  UNL     1       0.027  -2.108  -0.735  1.00  0.00     0.127 A 
HETATM   10  C3  UNL     1       0.008  -0.824  -1.141  1.00  0.00     0.041 A 
HETATM   11  C2  UNL     1       0.002  -0.004   0.002  1.00  0.00     0.088 A 
HETATM   12  C1  UNL     1      -0.018   1.503   0.010  1.00  0.00     0.055 C 
HETATM   13  N1  UNL     1       0.023  -0.775   1.052  1.00  0.00    -0.131 NA
HETATM   14  O1  UNL     1       0.034  -2.119   0.606  1.00  0.00    -0.214 OA
ENDBRANCH   8   9
ENDBRANCH   1   8
BRANCH   3  15
HETATM   15  C11 UNL     1       4.001  -2.889  -4.510  1.00  0.00     0.420 C 
HETATM   16  F1  UNL     1       4.734  -1.763  -4.121  1.00  0.00    -0.166 F 
HETATM   17  F2  UNL     1       4.862  -3.831  -5.081  1.00  0.00    -0.166 F 
HETATM   18  F3  UNL     1       3.033  -2.513  -5.448  1.00  0.00    -0.166 F 
ENDBRANCH   3  15
TORSDOF 3
