REMARK  4 active torsions:
REMARK  status: ('A' for Active; 'I' for Inactive)
REMARK    1  A    between atoms: C2_2  and  C3_3 
REMARK    2  A    between atoms: C2_2  and  N2_9 
REMARK       I    between atoms: C3_3  and  N1_5 
REMARK    3  A    between atoms: N1_5  and  C4_6 
REMARK    4  A    between atoms: N3_12  and  C11_15 
ROOT
HETATM    1  C4  UNL     1      -3.611  -0.724   1.044  1.00  0.00     0.204 C 
HETATM    2  C5  UNL     1      -4.300  -0.249   2.255  1.00  0.00    -0.051 C 
HETATM    3  C6  UNL     1      -4.849   0.129   3.220  1.00  0.00    -0.012 C 
ENDROOT
BRANCH   1   4
HETATM    4  N1  UNL     1      -2.236  -0.217   1.033  1.00  0.00    -0.222 NA
HETATM    5  C3  UNL     1      -1.412  -0.526   0.013  1.00  0.00     0.284 C 
HETATM    6  O1  UNL     1      -1.808  -1.223  -0.897  1.00  0.00    -0.268 OA
BRANCH   5   7
HETATM    7  C2  UNL     1       0.002  -0.004   0.002  1.00  0.00     0.299 C 
HETATM    8  C1  UNL     1      -0.019   1.526   0.010  1.00  0.00     0.046 C 
BRANCH   7   9
HETATM    9  N2  UNL     1       0.690  -0.478  -1.207  1.00  0.00     0.148 N 
HETATM   10  C7  UNL     1       0.087   0.100  -2.416  1.00  0.00     0.275 C 
HETATM   11  C8  UNL     1       0.709  -0.554  -3.654  1.00  0.00     0.139 C 
HETATM   12  N3  UNL     1       2.171  -0.426  -3.566  1.00  0.00    -0.325 N 
HETATM   13  C9  UNL     1       2.834  -0.858  -2.326  1.00  0.00     0.139 C 
HETATM   14  C10 UNL     1       2.129  -0.192  -1.140  1.00  0.00     0.275 C 
BRANCH  12  15
HETATM   15  C11 UNL     1       2.902   0.087  -4.618  1.00  0.00     0.172 A 
HETATM   16  N4  UNL     1       2.477   0.521  -5.783  1.00  0.00    -0.222 NA
HETATM   17  C12 UNL     1       3.314   1.002  -6.728  1.00  0.00     0.089 A 
HETATM   18  C13 UNL     1       2.989   1.496  -8.012  1.00  0.00     0.020 A 
HETATM   19  C17 UNL     1       4.685   1.008  -6.386  1.00  0.00     0.050 A 
HETATM   20  C14 UNL     1       3.969   1.950  -8.857  1.00  0.00     0.002 A 
HETATM   21  C15 UNL     1       5.306   1.941  -8.487  1.00  0.00     0.001 A 
HETATM   22  C16 UNL     1       5.660   1.464  -7.237  1.00  0.00     0.008 A 
HETATM   23  S1  UNL     1       4.668   0.336  -4.741  1.00  0.00    -0.049 SA
ENDBRANCH  12  15
ENDBRANCH   7   9
ENDBRANCH   5   7
ENDBRANCH   1   4
TORSDOF 4
