REMARK  13 active torsions:
REMARK  status: ('A' for Active; 'I' for Inactive)
REMARK       I    between atoms: C2_2  and  N1_4 
REMARK    1  A    between atoms: N1_4  and  C3_5 
REMARK    2  A    between atoms: C6_8  and  S1_11 
REMARK    3  A    between atoms: S1_11  and  N2_14 
REMARK    4  A    between atoms: N2_14  and  C9_15 
REMARK    5  A    between atoms: C9_15  and  C10_16 
REMARK    6  A    between atoms: C10_16  and  C11_17 
REMARK    7  A    between atoms: C11_17  and  C12_18 
REMARK    8  A    between atoms: C12_18  and  C13_19 
REMARK    9  A    between atoms: C13_19  and  C14_20 
REMARK   10  A    between atoms: C14_20  and  N3_21 
REMARK   11  A    between atoms: N3_21  and  S2_22 
REMARK   12  A    between atoms: S2_22  and  C15_25 
REMARK   13  A    between atoms: C18_28  and  N4_31 
REMARK       I    between atoms: N4_31  and  C21_32 
ROOT
HETATM    1  C11 UNL     1       1.448   9.010   4.105  1.00  0.00     0.002 C 
ENDROOT
BRANCH   1   2
HETATM    2  C10 UNL     1       0.214   9.307   3.250  1.00  0.00     0.027 C 
BRANCH   2   3
HETATM    3  C9  UNL     1       0.197   8.375   2.037  1.00  0.00     0.139 C 
BRANCH   3   4
HETATM    4  N2  UNL     1      -0.984   8.660   1.219  1.00  0.00    -0.185 NA
BRANCH   4   5
HETATM    5  S1  UNL     1      -1.079   8.080  -0.329  1.00  0.00     0.281 S 
HETATM    6  O2  UNL     1       0.150   8.410  -0.962  1.00  0.00    -0.199 OA
HETATM    7  O3  UNL     1      -2.337   8.496  -0.843  1.00  0.00    -0.199 OA
BRANCH   5   8
HETATM    8  C6  UNL     1      -1.134   6.322  -0.224  1.00  0.00     0.105 A 
HETATM    9  C5  UNL     1       0.041   5.592  -0.241  1.00  0.00     0.015 A 
HETATM   10  C4  UNL     1       0.001   4.214  -0.153  1.00  0.00     0.020 A 
HETATM   11  C3  UNL     1      -1.221   3.561  -0.060  1.00  0.00     0.084 A 
HETATM   12  C8  UNL     1      -2.399   4.296  -0.043  1.00  0.00     0.020 A 
HETATM   13  C7  UNL     1      -2.352   5.674  -0.126  1.00  0.00     0.015 A 
BRANCH  11  14
HETATM   14  N1  UNL     1      -1.265   2.165   0.024  1.00  0.00    -0.212 NA
HETATM   15  C2  UNL     1      -2.273   1.486  -0.559  1.00  0.00     0.256 C 
HETATM   16  C1  UNL     1      -2.266  -0.021  -0.559  1.00  0.00     0.100 C 
HETATM   17  O1  UNL     1      -3.188   2.089  -1.080  1.00  0.00    -0.270 OA
ENDBRANCH  11  14
ENDBRANCH   5   8
ENDBRANCH   4   5
ENDBRANCH   3   4
ENDBRANCH   2   3
ENDBRANCH   1   2
BRANCH   1  18
HETATM   18  C12 UNL     1       1.465   9.942   5.318  1.00  0.00     0.002 C 
BRANCH  18  19
HETATM   19  C13 UNL     1       2.699   9.645   6.172  1.00  0.00     0.027 C 
BRANCH  19  20
HETATM   20  C14 UNL     1       2.716  10.577   7.386  1.00  0.00     0.139 C 
BRANCH  20  21
HETATM   21  N3  UNL     1       3.897  10.292   8.204  1.00  0.00    -0.185 NA
BRANCH  21  22
HETATM   22  S2  UNL     1       4.381  11.371   9.363  1.00  0.00     0.281 S 
HETATM   23  O4  UNL     1       5.522  10.806   9.993  1.00  0.00    -0.199 OA
HETATM   24  O5  UNL     1       4.408  12.649   8.743  1.00  0.00    -0.199 OA
BRANCH  22  25
HETATM   25  C15 UNL     1       3.110  11.430  10.582  1.00  0.00     0.105 A 
HETATM   26  C16 UNL     1       2.080  12.344  10.461  1.00  0.00     0.015 A 
HETATM   27  C17 UNL     1       1.079  12.390  11.412  1.00  0.00     0.020 A 
HETATM   28  C18 UNL     1       1.115  11.523  12.497  1.00  0.00     0.084 A 
HETATM   29  C19 UNL     1       2.154  10.610  12.619  1.00  0.00     0.020 A 
HETATM   30  C20 UNL     1       3.148  10.566  11.661  1.00  0.00     0.015 A 
BRANCH  28  31
HETATM   31  N4  UNL     1       0.105  11.570  13.465  1.00  0.00    -0.212 NA
HETATM   32  C21 UNL     1       0.401  11.335  14.758  1.00  0.00     0.256 C 
HETATM   33  O6  UNL     1       1.523  11.000  15.073  1.00  0.00    -0.270 OA
HETATM   34  C22 UNL     1      -0.663  11.489  15.814  1.00  0.00     0.100 C 
ENDBRANCH  28  31
ENDBRANCH  22  25
ENDBRANCH  21  22
ENDBRANCH  20  21
ENDBRANCH  19  20
ENDBRANCH  18  19
ENDBRANCH   1  18
TORSDOF 13
