REMARK  4 active torsions:
REMARK  status: ('A' for Active; 'I' for Inactive)
REMARK    1  A    between atoms: C4_4  and  N4_21 
REMARK    2  A    between atoms: N1_5  and  C5_7 
REMARK    3  A    between atoms: C6_9  and  C8_12 
REMARK       I    between atoms: N4_21  and  C15_22 
REMARK    4  A    between atoms: C15_22  and  C16_24 
ROOT
HETATM    1  C5  UNL     1      -3.961   3.040   0.049  1.00  0.00     0.197 A 
HETATM    2  N3  UNL     1      -5.146   3.620   0.064  1.00  0.00    -0.221 NA
HETATM    3  C6  UNL     1      -5.267   4.938   0.078  1.00  0.00     0.090 A 
HETATM    4  C7  UNL     1      -4.141   5.715   0.078  1.00  0.00     0.058 A 
HETATM    5  S1  UNL     1      -2.871   4.457   0.063  1.00  0.00    -0.046 SA
ENDROOT
BRANCH   1   6
HETATM    6  N1  UNL     1      -3.643   1.684   0.034  1.00  0.00    -0.189 N 
HETATM    7  C4  UNL     1      -2.388   1.153   0.020  1.00  0.00     0.170 A 
HETATM    8  C3  UNL     1      -2.519  -0.201   0.013  1.00  0.00     0.055 A 
HETATM    9  C2  UNL     1      -3.885  -0.501   0.018  1.00  0.00     0.083 A 
HETATM   10  C1  UNL     1      -4.482  -1.884   0.014  1.00  0.00     0.054 C 
HETATM   11  N2  UNL     1      -4.556   0.622   0.027  1.00  0.00    -0.166 NA
BRANCH   7  12
HETATM   12  N4  UNL     1      -1.191   1.867   0.018  1.00  0.00    -0.193 NA
HETATM   13  C15 UNL     1      -0.014   1.209   0.009  1.00  0.00     0.256 C 
HETATM   14  O3  UNL     1       0.002  -0.004   0.002  1.00  0.00    -0.270 OA
BRANCH  13  15
HETATM   15  C16 UNL     1       1.280   1.980   0.001  1.00  0.00     0.073 C 
HETATM   16  C17 UNL     1       2.457   1.002  -0.016  1.00  0.00     0.009 C 
HETATM   17  C18 UNL     1       1.337   2.867  -1.245  1.00  0.00     0.009 C 
HETATM   18  C19 UNL     1       1.361   2.854   1.254  1.00  0.00     0.009 C 
ENDBRANCH  13  15
ENDBRANCH   7  12
ENDBRANCH   1   6
BRANCH   3  19
HETATM   19  C8  UNL     1      -6.611   5.566   0.093  1.00  0.00     0.020 A 
HETATM   20  C9  UNL     1      -6.735   6.952   0.003  1.00  0.00     0.004 A 
HETATM   21  C10 UNL     1      -7.985   7.535   0.018  1.00  0.00     0.026 A 
HETATM   22  C11 UNL     1      -9.121   6.747   0.122  1.00  0.00     0.119 A 
HETATM   23  C12 UNL     1      -9.003   5.362   0.212  1.00  0.00     0.119 A 
HETATM   24  O2  UNL     1     -10.447   7.074   0.157  1.00  0.00    -0.300 OA
HETATM   25  C13 UNL     1      -7.751   4.772   0.193  1.00  0.00     0.028 A 
HETATM   26  O1  UNL     1     -10.254   4.822   0.304  1.00  0.00    -0.300 OA
HETATM   27  C14 UNL     1     -11.152   5.856  -0.142  1.00  0.00     0.304 C 
ENDBRANCH   3  19
TORSDOF 4
