REMARK  6 active torsions:
REMARK  status: ('A' for Active; 'I' for Inactive)
REMARK    1  A    between atoms: C2_2  and  C3_3 
REMARK    2  A    between atoms: C3_3  and  C4_4 
REMARK    3  A    between atoms: C4_4  and  C5_5 
REMARK       I    between atoms: C5_5  and  N1_7 
REMARK    4  A    between atoms: N1_7  and  C6_8 
REMARK    5  A    between atoms: N2_10  and  C7_11 
REMARK    6  A    between atoms: C11_15  and  C13_17 
ROOT
HETATM    1  C7  UNL     1      -1.246   3.140   0.019  1.00  0.00     0.084 A 
HETATM    2  C8  UNL     1      -1.045   2.097  -0.881  1.00  0.00     0.021 A 
HETATM    3  C9  UNL     1       0.161   1.426  -0.910  1.00  0.00     0.029 A 
HETATM    4  C10 UNL     1       1.184   1.793  -0.049  1.00  0.00     0.137 A 
HETATM    5  C11 UNL     1       0.990   2.845   0.856  1.00  0.00     0.091 A 
HETATM    6  C12 UNL     1      -0.235   3.517   0.883  1.00  0.00     0.027 A 
HETATM    7  O4  UNL     1       2.371   1.135  -0.084  1.00  0.00    -0.190 OA
ENDROOT
BRANCH   1   8
HETATM    8  N2  UNL     1      -2.475   3.812   0.045  1.00  0.00    -0.217 NA
HETATM    9  C6  UNL     1      -3.626   3.116  -0.050  1.00  0.00     0.223 C 
HETATM   10  S1  UNL     1      -3.594   1.405  -0.059  1.00  0.00    -0.037 SA
BRANCH   9  11
HETATM   11  N1  UNL     1      -4.802   3.769  -0.137  1.00  0.00    -0.183 NA
HETATM   12  C5  UNL     1      -5.953   3.073  -0.231  1.00  0.00     0.258 C 
HETATM   13  O1  UNL     1      -5.930   1.861  -0.238  1.00  0.00    -0.270 OA
BRANCH  12  14
HETATM   14  C4  UNL     1      -7.268   3.802  -0.329  1.00  0.00     0.090 C 
BRANCH  14  15
HETATM   15  C3  UNL     1      -8.409   2.787  -0.425  1.00  0.00     0.010 C 
BRANCH  15  16
HETATM   16  C2  UNL     1      -9.744   3.527  -0.524  1.00  0.00     0.001 C 
HETATM   17  C1  UNL     1     -10.884   2.512  -0.620  1.00  0.00     0.000 C 
ENDBRANCH  15  16
ENDBRANCH  14  15
ENDBRANCH  12  14
ENDBRANCH   9  11
ENDBRANCH   1   8
BRANCH   5  18
HETATM   18  C13 UNL     1       2.073   3.241   1.774  1.00  0.00     0.213 C 
HETATM   19  O2  UNL     1       3.137   2.655   1.748  1.00  0.00    -0.644 OA
HETATM   20  O3  UNL     1       1.883   4.254   2.643  1.00  0.00    -0.644 OA
ENDBRANCH   5  18
TORSDOF 6
