REMARK  5 active torsions:
REMARK  status: ('A' for Active; 'I' for Inactive)
REMARK    1  A    between atoms: N1_4  and  C7_9 
REMARK    2  A    between atoms: C7_9  and  C10_12 
REMARK    3  A    between atoms: C10_12  and  N2_13 
REMARK    4  A    between atoms: N2_13  and  C11_14 
REMARK    5  A    between atoms: C12_15  and  N4_20 
ROOT
HETATM    1  C7  UNL     1      -1.819  -2.676   0.693  1.00  0.00     0.215 C 
HETATM    2  C8  UNL     1      -2.545  -2.267   1.976  1.00  0.00     0.035 C 
HETATM    3  C9  UNL     1      -2.425  -1.927  -0.496  1.00  0.00     0.035 C 
ENDROOT
BRANCH   1   4
HETATM    4  N1  UNL     1      -0.394  -2.341   0.808  1.00  0.00     0.140 N 
HETATM    5  C3  UNL     1      -0.206  -0.896   1.002  1.00  0.00     0.280 C 
HETATM    6  C2  UNL     1       1.292  -0.585   1.058  1.00  0.00     0.149 C 
HETATM    7  C1  UNL     1       1.494   0.905   1.339  1.00  0.00     0.034 C 
HETATM    8  O1  UNL     1       1.897  -1.354   2.101  1.00  0.00    -0.355 OA
HETATM    9  C5  UNL     1       1.733  -2.766   1.944  1.00  0.00     0.149 C 
HETATM   10  C4  UNL     1       0.239  -3.100   1.897  1.00  0.00     0.280 C 
HETATM   11  C6  UNL     1       2.382  -3.491   3.124  1.00  0.00     0.034 C 
ENDBRANCH   1   4
BRANCH   1  12
HETATM   12  C10 UNL     1      -1.974  -4.183   0.478  1.00  0.00     0.159 C 
BRANCH  12  13
HETATM   13  N2  UNL     1      -1.270  -4.577  -0.745  1.00  0.00    -0.249 NA
BRANCH  13  14
HETATM   14  C11 UNL     1      -1.366  -5.882  -1.213  1.00  0.00     0.180 A 
HETATM   15  C12 UNL     1      -0.807  -6.217  -2.442  1.00  0.00     0.162 A 
HETATM   16  C13 UNL     1      -0.910  -7.520  -2.895  1.00  0.00     0.028 A 
HETATM   17  C14 UNL     1      -1.571  -8.447  -2.101  1.00  0.00     0.022 A 
HETATM   18  C15 UNL     1      -2.102  -8.046  -0.892  1.00  0.00     0.101 A 
HETATM   19  N3  UNL     1      -1.984  -6.797  -0.482  1.00  0.00    -0.224 NA
BRANCH  15  20
HETATM   20  N4  UNL     1      -0.170  -5.280  -3.185  1.00  0.00    -0.111 N 
HETATM   21  O2  UNL     1      -0.612  -4.156  -3.248  1.00  0.00    -0.532 OA
HETATM   22  O3  UNL     1       0.839  -5.567  -3.785  1.00  0.00    -0.532 OA
ENDBRANCH  15  20
ENDBRANCH  13  14
ENDBRANCH  12  13
ENDBRANCH   1  12
TORSDOF 5
