REMARK  4 active torsions:
REMARK  status: ('A' for Active; 'I' for Inactive)
REMARK    1  A    between atoms: C3_3  and  C7_10 
REMARK    2  A    between atoms: C5_5  and  N1_7 
REMARK    3  A    between atoms: C7_10  and  N2_11 
REMARK       I    between atoms: N3_14  and  C12_17 
REMARK       I    between atoms: C12_17  and  N4_19 
REMARK    4  A    between atoms: N4_19  and  C13_20 
ROOT
HETATM    1  N2  UNL     1       3.711   2.176   2.022  1.00  0.00     0.145 N 
HETATM    2  C8  UNL     1       3.832   1.275   3.176  1.00  0.00     0.275 C 
HETATM    3  C9  UNL     1       4.315   2.072   4.393  1.00  0.00     0.141 C 
HETATM    4  N3  UNL     1       5.550   2.783   4.026  1.00  0.00    -0.297 N 
HETATM    5  C10 UNL     1       5.545   3.598   2.802  1.00  0.00     0.141 C 
HETATM    6  C11 UNL     1       5.014   2.741   1.648  1.00  0.00     0.275 C 
HETATM    7  C12 UNL     1       6.655   2.690   4.791  1.00  0.00     0.346 C 
HETATM    8  O3  UNL     1       6.615   2.089   5.847  1.00  0.00    -0.245 OA
HETATM    9  N4  UNL     1       7.806   3.263   4.386  1.00  0.00    -0.193 NA
ENDROOT
BRANCH   9  10
HETATM   10  C13 UNL     1       8.989   3.042   5.102  1.00  0.00     0.088 A 
HETATM   11  C14 UNL     1       9.207   1.818   5.721  1.00  0.00     0.021 A 
HETATM   12  C15 UNL     1      10.374   1.598   6.428  1.00  0.00     0.028 A 
HETATM   13  C16 UNL     1      11.330   2.597   6.520  1.00  0.00     0.119 A 
HETATM   14  C17 UNL     1      11.114   3.825   5.901  1.00  0.00     0.121 A 
HETATM   15  O5  UNL     1      12.544   2.632   7.146  1.00  0.00    -0.300 OA
HETATM   16  C18 UNL     1       9.946   4.043   5.188  1.00  0.00     0.046 A 
HETATM   17  O4  UNL     1      12.191   4.629   6.138  1.00  0.00    -0.299 OA
HETATM   18  C19 UNL     1      12.884   4.027   7.248  1.00  0.00     0.304 C 
ENDBRANCH   9  10
BRANCH   1  19
HETATM   19  C7  UNL     1       3.088   1.489   0.882  1.00  0.00     0.277 C 
BRANCH  19  20
HETATM   20  C3  UNL     1       1.663   1.139   1.225  1.00  0.00     0.013 A 
HETATM   21  C2  UNL     1       0.646   2.032   0.946  1.00  0.00    -0.002 A 
HETATM   22  C1  UNL     1      -0.662   1.710   1.259  1.00  0.00     0.001 A 
HETATM   23  C6  UNL     1      -0.952   0.495   1.851  1.00  0.00     0.024 A 
HETATM   24  C5  UNL     1       0.066  -0.398   2.131  1.00  0.00     0.126 A 
HETATM   25  C4  UNL     1       1.373  -0.076   1.817  1.00  0.00     0.021 A 
BRANCH  24  26
HETATM   26  N1  UNL     1      -0.244  -1.699   2.765  1.00  0.00    -0.114 N 
HETATM   27  O1  UNL     1       0.645  -2.481   3.008  1.00  0.00    -0.532 OA
HETATM   28  O2  UNL     1      -1.388  -1.980   3.039  1.00  0.00    -0.532 OA
ENDBRANCH  24  26
ENDBRANCH  19  20
ENDBRANCH   1  19
TORSDOF 4
