REMARK  2 active torsions:
REMARK  status: ('A' for Active; 'I' for Inactive)
REMARK    1  A    between atoms: C5_5  and  C7_7 
REMARK    2  A    between atoms: C7_7  and  C8_8 
ROOT
HETATM    1  C1  UNL     1      -0.017   1.378   0.010  1.00  0.00    -0.000 A 
HETATM    2  C2  UNL     1       1.170   2.088   0.002  1.00  0.00     0.002 A 
HETATM    3  C3  UNL     1       2.377   1.417  -0.013  1.00  0.00     0.027 A 
HETATM    4  C4  UNL     1       2.399   0.030  -0.021  1.00  0.00     0.129 A 
HETATM    5  C5  UNL     1       1.207  -0.680  -0.013  1.00  0.00     0.042 A 
HETATM    6  C6  UNL     1       0.002  -0.004   0.002  1.00  0.00    -0.000 A 
HETATM    7  O1  UNL     1       3.586  -0.632  -0.037  1.00  0.00    -0.190 OA
ENDROOT
BRANCH   5   8
HETATM    8  C7  UNL     1       1.227  -2.187  -0.022  1.00  0.00     0.365 C 
HETATM    9  N2  UNL     1      -0.028  -2.689  -0.597  1.00  0.00     0.623 N 
BRANCH   8  10
HETATM   10  C8  UNL     1       1.374  -2.703   1.411  1.00  0.00     0.382 C 
HETATM   11  N1  UNL     1       1.273  -4.168   1.416  1.00  0.00     0.621 N 
ENDBRANCH   8  10
ENDBRANCH   5   8
TORSDOF 2
