REMARK  5 active torsions:
REMARK  status: ('A' for Active; 'I' for Inactive)
REMARK    1  A    between atoms: C2_2  and  O1_3 
REMARK    2  A    between atoms: O1_3  and  C3_4 
REMARK    3  A    between atoms: C3_4  and  C4_6 
REMARK    4  A    between atoms: C7_9  and  C8_11 
REMARK    5  A    between atoms: N2_18  and  C14_21 
ROOT
HETATM    1  C4  UNL     1       1.520  -2.335   2.555  1.00  0.00     0.312 C 
HETATM    2  C5  UNL     1       0.870  -3.684   2.926  1.00  0.00     0.132 A 
HETATM    3  C6  UNL     1       0.929  -3.741   4.476  1.00  0.00     0.131 A 
HETATM    4  C7  UNL     1       1.624  -2.429   4.895  1.00  0.00     0.311 C 
HETATM    5  N1  UNL     1       1.356  -1.491   3.766  1.00  0.00     0.350 N 
HETATM    6  C12 UNL     1      -0.527  -3.702   4.883  1.00  0.00     0.246 A 
HETATM    7  O4  UNL     1      -0.936  -3.728   6.024  1.00  0.00    -0.271 OA
HETATM    8  N2  UNL     1      -1.292  -3.635   3.788  1.00  0.00    -0.249 N 
HETATM    9  C13 UNL     1      -0.610  -3.624   2.619  1.00  0.00     0.246 A 
HETATM   10  O5  UNL     1      -1.094  -3.573   1.509  1.00  0.00    -0.271 OA
HETATM   11  C20 UNL     1       3.004  -2.525   2.236  1.00  0.00     0.047 C 
ENDROOT
BRANCH   1  12
HETATM   12  C3  UNL     1       0.807  -1.713   1.382  1.00  0.00     0.304 C 
HETATM   13  O2  UNL     1       1.250  -1.848   0.266  1.00  0.00    -0.262 OA
BRANCH  12  14
HETATM   14  O1  UNL     1      -0.320  -1.011   1.576  1.00  0.00    -0.300 OA
BRANCH  14  15
HETATM   15  C2  UNL     1      -0.943  -0.450   0.419  1.00  0.00     0.152 C 
HETATM   16  C1  UNL     1      -2.204   0.309   0.836  1.00  0.00     0.035 C 
ENDBRANCH  14  15
ENDBRANCH  12  14
ENDBRANCH   1  12
BRANCH   4  17
HETATM   17  C8  UNL     1       1.012  -1.893   6.163  1.00  0.00     0.112 A 
HETATM   18  C9  UNL     1       1.525  -2.022   7.400  1.00  0.00     0.024 A 
HETATM   19  C10 UNL     1       0.632  -1.373   8.284  1.00  0.00     0.029 A 
HETATM   20  C11 UNL     1      -0.373  -0.887   7.534  1.00  0.00     0.122 A 
HETATM   21  O3  UNL     1      -0.135  -1.199   6.250  1.00  0.00    -0.307 OA
ENDBRANCH   4  17
BRANCH   8  22
HETATM   22  C14 UNL     1      -2.692  -3.585   3.843  1.00  0.00     0.069 A 
HETATM   23  C15 UNL     1      -3.329  -2.469   4.369  1.00  0.00     0.018 A 
HETATM   24  C16 UNL     1      -4.708  -2.423   4.422  1.00  0.00     0.002 A 
HETATM   25  C17 UNL     1      -5.455  -3.488   3.952  1.00  0.00     0.000 A 
HETATM   26  C18 UNL     1      -4.824  -4.601   3.428  1.00  0.00     0.002 A 
HETATM   27  C19 UNL     1      -3.445  -4.650   3.367  1.00  0.00     0.018 A 
ENDBRANCH   8  22
TORSDOF 5
