REMARK  3 active torsions:
REMARK  status: ('A' for Active; 'I' for Inactive)
REMARK    1  A    between atoms: C2_2  and  C3_3 
REMARK       I    between atoms: C3_3  and  N1_5 
REMARK       I    between atoms: N2_8  and  C8_11 
REMARK    2  A    between atoms: C8_11  and  O3_13 
REMARK    3  A    between atoms: O3_13  and  C9_14 
ROOT
HETATM    1  C3  UNL     1       0.506  -1.324   2.001  1.00  0.00     0.234 C 
HETATM    2  O1  UNL     1      -0.640  -1.720   2.000  1.00  0.00    -0.272 OA
HETATM    3  N1  UNL     1       0.924  -0.467   1.048  1.00  0.00    -0.316 N 
HETATM    4  C4  UNL     1       0.002  -0.004   0.002  1.00  0.00     0.128 C 
HETATM    5  C5  UNL     1      -0.019   1.530   0.011  1.00  0.00     0.131 C 
HETATM    6  N2  UNL     1       1.367   2.018  -0.000  1.00  0.00    -0.293 N 
HETATM    7  C6  UNL     1       2.289   1.555   1.046  1.00  0.00     0.131 C 
HETATM    8  C7  UNL     1       2.310   0.021   1.038  1.00  0.00     0.128 C 
HETATM    9  C8  UNL     1       1.785   2.875  -0.953  1.00  0.00     0.365 C 
HETATM   10  O2  UNL     1       1.014   3.250  -1.813  1.00  0.00    -0.238 OA
ENDROOT
BRANCH   9  11
HETATM   11  O3  UNL     1       3.058   3.315  -0.951  1.00  0.00    -0.285 OA
BRANCH  11  12
HETATM   12  C9  UNL     1       3.438   4.236  -2.007  1.00  0.00     0.154 C 
HETATM   13  C10 UNL     1       4.909   4.622  -1.841  1.00  0.00     0.035 C 
ENDBRANCH  11  12
ENDBRANCH   9  11
BRANCH   1  14
HETATM   14  C2  UNL     1       1.463  -1.790   3.068  1.00  0.00     0.088 C 
HETATM   15  C1  UNL     1       0.742  -2.749   4.017  1.00  0.00     0.010 C 
ENDBRANCH   1  14
TORSDOF 3
