REMARK  12 active torsions:
REMARK  status: ('A' for Active; 'I' for Inactive)
REMARK    1  A    between atoms: C2_2  and  O2_4 
REMARK    2  A    between atoms: O2_4  and  C3_5 
REMARK    3  A    between atoms: C3_5  and  C4_6 
REMARK    4  A    between atoms: C5_7  and  O8_33 
REMARK    5  A    between atoms: C6_8  and  O6_29 
REMARK    6  A    between atoms: C7_9  and  O4_25 
REMARK    7  A    between atoms: C8_10  and  S1_12 
REMARK    8  A    between atoms: S1_12  and  C9_13 
REMARK    9  A    between atoms: C10_16  and  C11_19 
REMARK   10  A    between atoms: O4_25  and  C17_26 
REMARK   11  A    between atoms: O6_29  and  C19_30 
REMARK   12  A    between atoms: O8_33  and  C21_34 
ROOT
HETATM    1  C4  UNL     1      -0.168   1.868   0.484  1.00  0.00     0.177 C 
HETATM    2  C5  UNL     1      -0.129   3.371   0.197  1.00  0.00     0.184 C 
HETATM    3  C6  UNL     1       1.324   3.854   0.242  1.00  0.00     0.185 C 
HETATM    4  C7  UNL     1       1.924   3.507   1.608  1.00  0.00     0.192 C 
HETATM    5  C8  UNL     1       1.805   1.998   1.840  1.00  0.00     0.200 C 
HETATM    6  O3  UNL     1       0.432   1.611   1.755  1.00  0.00    -0.340 OA
ENDROOT
BRANCH   5   7
HETATM    7  S1  UNL     1       2.446   1.588   3.482  1.00  0.00    -0.042 SA
BRANCH   7   8
HETATM    8  C9  UNL     1       2.473  -0.170   3.370  1.00  0.00     0.217 A 
HETATM    9  N1  UNL     1       2.102  -0.891   2.336  1.00  0.00    -0.120 NA
HETATM   10  N2  UNL     1       2.255  -2.141   2.591  1.00  0.00    -0.126 NA
HETATM   11  C10 UNL     1       2.724  -2.296   3.807  1.00  0.00     0.189 A 
HETATM   12  N3  UNL     1       2.878  -1.038   4.343  1.00  0.00    -0.167 N 
HETATM   13  N4  UNL     1       3.341  -0.723   5.590  1.00  0.00    -0.038 N 
BRANCH  11  14
HETATM   14  C11 UNL     1       3.029  -3.579   4.475  1.00  0.00     0.038 A 
HETATM   15  C12 UNL     1       3.162  -4.747   3.722  1.00  0.00     0.003 A 
HETATM   16  C13 UNL     1       3.450  -5.940   4.351  1.00  0.00     0.000 A 
HETATM   17  C14 UNL     1       3.598  -5.983   5.726  1.00  0.00     0.000 A 
HETATM   18  C15 UNL     1       3.462  -4.830   6.479  1.00  0.00     0.000 A 
HETATM   19  C16 UNL     1       3.178  -3.629   5.862  1.00  0.00     0.003 A 
ENDBRANCH  11  14
ENDBRANCH   7   8
ENDBRANCH   5   7
BRANCH   4  20
HETATM   20  O4  UNL     1       3.323   3.894   1.638  1.00  0.00    -0.298 OA
BRANCH  20  21
HETATM   21  C17 UNL     1       3.833   4.244   2.829  1.00  0.00     0.273 C 
HETATM   22  O5  UNL     1       3.134   4.227   3.814  1.00  0.00    -0.264 OA
HETATM   23  C18 UNL     1       5.278   4.657   2.938  1.00  0.00     0.106 C 
ENDBRANCH  20  21
ENDBRANCH   4  20
BRANCH   3  24
HETATM   24  O6  UNL     1       1.365   5.292   0.045  1.00  0.00    -0.299 OA
BRANCH  24  25
HETATM   25  C19 UNL     1       2.464   5.796  -0.538  1.00  0.00     0.273 C 
HETATM   26  O7  UNL     1       3.362   5.061  -0.872  1.00  0.00    -0.264 OA
HETATM   27  C20 UNL     1       2.577   7.280  -0.775  1.00  0.00     0.106 C 
ENDBRANCH  24  25
ENDBRANCH   3  24
BRANCH   1  28
HETATM   28  C3  UNL     1       0.603   1.121  -0.606  1.00  0.00     0.184 C 
BRANCH  28  29
HETATM   29  O2  UNL     1       0.468  -0.310  -0.399  1.00  0.00    -0.299 OA
BRANCH  29  30
HETATM   30  C2  UNL     1       1.090  -1.114  -1.276  1.00  0.00     0.273 C 
HETATM   31  C1  UNL     1       0.995  -2.611  -1.126  1.00  0.00     0.106 C 
HETATM   32  O1  UNL     1       1.727  -0.638  -2.186  1.00  0.00    -0.264 OA
ENDBRANCH  29  30
ENDBRANCH  28  29
ENDBRANCH   1  28
BRANCH   2  33
HETATM   33  O8  UNL     1      -0.685   3.629  -1.119  1.00  0.00    -0.299 OA
BRANCH  33  34
HETATM   34  C21 UNL     1      -2.006   3.858  -1.189  1.00  0.00     0.273 C 
HETATM   35  O9  UNL     1      -2.675   3.843  -0.183  1.00  0.00    -0.264 OA
HETATM   36  C22 UNL     1      -2.654   4.133  -2.521  1.00  0.00     0.106 C 
ENDBRANCH  33  34
ENDBRANCH   2  33
TORSDOF 12
