REMARK  3 active torsions:
REMARK  status: ('A' for Active; 'I' for Inactive)
REMARK    1  A    between atoms: C10_15  and  C11_16 
REMARK    2  A    between atoms: C11_16  and  N5_17 
REMARK    3  A    between atoms: C15_21  and  C17_23 
ROOT
HETATM    1  C1  UNL     1       4.857   3.942  -0.060  1.00  0.00     0.153 C 
HETATM    2  N1  UNL     1       3.579   3.226  -0.073  1.00  0.00    -0.124 N 
HETATM    3  C2  UNL     1       2.426   3.925  -0.110  1.00  0.00     0.276 A 
HETATM    4  O1  UNL     1       2.440   5.141  -0.133  1.00  0.00    -0.266 OA
HETATM    5  C3  UNL     1       1.148   3.190  -0.122  1.00  0.00     0.073 A 
HETATM    6  C4  UNL     1      -0.074   3.859  -0.160  1.00  0.00     0.006 A 
HETATM    7  C5  UNL     1      -1.247   3.135  -0.171  1.00  0.00     0.000 A 
HETATM    8  C6  UNL     1      -1.216   1.750  -0.150  1.00  0.00     0.002 A 
HETATM    9  C7  UNL     1      -0.012   1.075  -0.107  1.00  0.00     0.018 A 
HETATM   10  C8  UNL     1       1.178   1.786  -0.095  1.00  0.00     0.087 A 
HETATM   11  N2  UNL     1       2.406   1.137  -0.058  1.00  0.00    -0.124 N 
HETATM   12  C9  UNL     1       3.573   1.844  -0.048  1.00  0.00     0.737 A 
HETATM   13  N3  UNL     1       4.549   0.964  -0.012  1.00  0.00     0.044 NA
HETATM   14  N4  UNL     1       4.065  -0.226   0.002  1.00  0.00    -0.116 NA
HETATM   15  C10 UNL     1       2.762  -0.181  -0.026  1.00  0.00     0.196 A 
ENDROOT
BRANCH  15  16
HETATM   16  C11 UNL     1       1.825  -1.361  -0.022  1.00  0.00     0.316 C 
BRANCH  16  17
HETATM   17  N5  UNL     1       1.411  -1.662  -1.399  1.00  0.00     0.145 N 
HETATM   18  C12 UNL     1       2.564  -1.653  -2.309  1.00  0.00     0.251 C 
HETATM   19  C13 UNL     1       2.079  -1.826  -3.750  1.00  0.00     0.036 C 
HETATM   20  C14 UNL     1       1.318  -3.149  -3.873  1.00  0.00     0.013 C 
HETATM   21  C15 UNL     1       0.152  -3.151  -2.881  1.00  0.00     0.129 C 
HETATM   22  C16 UNL     1       0.692  -2.941  -1.465  1.00  0.00     0.259 C 
BRANCH  21  23
HETATM   23  C17 UNL     1      -0.578  -4.494  -2.955  1.00  0.00     0.400 C 
HETATM   24  F1  UNL     1      -1.641  -4.497  -2.045  1.00  0.00    -0.170 F 
HETATM   25  F2  UNL     1      -1.072  -4.686  -4.250  1.00  0.00    -0.170 F 
HETATM   26  F3  UNL     1       0.311  -5.526  -2.637  1.00  0.00    -0.170 F 
ENDBRANCH  21  23
ENDBRANCH  16  17
ENDBRANCH  15  16
TORSDOF 3
