REMARK  3 active torsions:
REMARK  status: ('A' for Active; 'I' for Inactive)
REMARK    1  A    between atoms: C9_11  and  C10_13 
REMARK    2  A    between atoms: C13_16  and  O2_21 
REMARK    3  A    between atoms: C15_18  and  O1_19 
ROOT
HETATM    1  C1  UNL     1       6.475   5.123  -0.304  1.00  0.00     0.286 C 
HETATM    2  C2  UNL     1       4.091   5.550  -0.298  1.00  0.00     0.255 C 
HETATM    3  C3  UNL     1       2.767   5.086  -0.911  1.00  0.00     0.062 C 
HETATM    4  C4  UNL     1       2.492   3.665  -0.433  1.00  0.00    -0.011 A 
HETATM    5  C5  UNL     1       3.498   2.920   0.085  1.00  0.00     0.038 A 
HETATM    6  S1  UNL     1       2.747   1.370   0.503  1.00  0.00    -0.071 SA
HETATM    7  C6  UNL     1       1.146   1.706   0.000  1.00  0.00     0.111 A 
HETATM    8  C7  UNL     1       1.194   3.020  -0.485  1.00  0.00     0.063 A 
HETATM    9  C8  UNL     1      -0.075   3.606  -0.988  1.00  0.00     0.212 C 
HETATM   10  N1  UNL     1      -1.178   2.947  -0.768  1.00  0.00    -0.219 NA
HETATM   11  C9  UNL     1      -1.274   1.726   0.017  1.00  0.00     0.233 C 
HETATM   12  N2  UNL     1      -0.011   0.966   0.007  1.00  0.00    -0.237 NA
HETATM   13  O3  UNL     1      -0.085   4.783  -1.654  1.00  0.00    -0.169 OA
HETATM   14  C18 UNL     1       4.923   3.342   0.252  1.00  0.00     0.283 C 
HETATM   15  N3  UNL     1       5.140   4.550  -0.582  1.00  0.00     0.144 N 
ENDROOT
BRANCH  11  16
HETATM   16  C10 UNL     1      -1.619   2.088   1.439  1.00  0.00     0.045 A 
HETATM   17  C11 UNL     1      -1.144   1.317   2.482  1.00  0.00     0.004 A 
HETATM   18  C12 UNL     1      -1.454   1.649   3.787  1.00  0.00     0.024 A 
HETATM   19  C13 UNL     1      -2.253   2.752   4.052  1.00  0.00     0.096 A 
HETATM   20  C14 UNL     1      -2.736   3.524   3.007  1.00  0.00     0.048 A 
HETATM   21  C15 UNL     1      -2.418   3.192   1.699  1.00  0.00     0.096 A 
BRANCH  19  22
HETATM   22  O2  UNL     1      -2.562   3.075   5.336  1.00  0.00    -0.328 OA
HETATM   23  C17 UNL     1      -2.030   2.235   6.362  1.00  0.00     0.181 C 
ENDBRANCH  19  22
BRANCH  21  24
HETATM   24  O1  UNL     1      -2.890   3.947   0.672  1.00  0.00    -0.328 OA
HETATM   25  C16 UNL     1      -3.707   5.069   1.014  1.00  0.00     0.181 C 
ENDBRANCH  21  24
ENDBRANCH  11  16
TORSDOF 3
