REMARK  4 active torsions:
REMARK  status: ('A' for Active; 'I' for Inactive)
REMARK    1  A    between atoms: C3_3  and  C7_8 
REMARK    2  A    between atoms: C8_11  and  C9_13 
REMARK    3  A    between atoms: C9_13  and  C10_14 
REMARK    4  A    between atoms: C10_14  and  C11_15 
ROOT
HETATM    1  C7  UNL     1       3.656   2.172  -0.022  1.00  0.00     0.204 A 
HETATM    2  N2  UNL     1       4.866   1.665  -0.042  1.00  0.00    -0.121 NA
HETATM    3  N3  UNL     1       5.727   2.622  -0.044  1.00  0.00    -0.123 NA
HETATM    4  C8  UNL     1       5.104   3.767  -0.026  1.00  0.00     0.212 A 
HETATM    5  O1  UNL     1       3.785   3.514  -0.016  1.00  0.00    -0.269 OA
ENDROOT
BRANCH   1   6
HETATM    6  C3  UNL     1       2.387   1.412  -0.013  1.00  0.00     0.044 A 
HETATM    7  C2  UNL     1       1.166   2.089   0.002  1.00  0.00     0.004 A 
HETATM    8  C1  UNL     1      -0.017   1.378   0.010  1.00  0.00     0.001 A 
HETATM    9  C6  UNL     1       0.002  -0.004   0.002  1.00  0.00     0.014 A 
HETATM   10  C5  UNL     1       1.213  -0.687  -0.013  1.00  0.00     0.070 A 
HETATM   11  C4  UNL     1       2.406   0.018  -0.021  1.00  0.00     0.018 A 
HETATM   12  N1  UNL     1       1.227  -2.084  -0.021  1.00  0.00    -0.101 NA
ENDBRANCH   1   6
BRANCH   4  13
HETATM   13  C9  UNL     1       5.749   5.130  -0.021  1.00  0.00     0.228 C 
HETATM   14  O4  UNL     1       6.801   5.162  -0.988  1.00  0.00    -0.214 OA
BRANCH  13  15
HETATM   15  C10 UNL     1       6.323   5.418   1.367  1.00  0.00     0.139 C 
BRANCH  15  16
HETATM   16  C11 UNL     1       6.857   6.826   1.407  1.00  0.00     0.188 C 
HETATM   17  O2  UNL     1       6.786   7.534   0.417  1.00  0.00    -0.647 OA
HETATM   18  O3  UNL     1       7.361   7.258   2.430  1.00  0.00    -0.647 OA
ENDBRANCH  15  16
ENDBRANCH  13  15
ENDBRANCH   4  13
TORSDOF 4
