REMARK  4 active torsions:
REMARK  status: ('A' for Active; 'I' for Inactive)
REMARK    1  A    between atoms: C2_2  and  C3_3 
REMARK    2  A    between atoms: C3_3  and  C5_5 
REMARK    3  A    between atoms: C6_7  and  C7_10 
REMARK    4  A    between atoms: C7_10  and  C10_13 
ROOT
HETATM    1  C5  UNL     1       0.738  -2.017   1.248  1.00  0.00     0.219 A 
HETATM    2  N1  UNL     1       1.214  -2.781   2.192  1.00  0.00    -0.205 NA
HETATM    3  C6  UNL     1       1.073  -4.068   1.856  1.00  0.00     0.171 A 
HETATM    4  N2  UNL     1       0.503  -4.138   0.687  1.00  0.00    -0.110 NA
HETATM    5  O1  UNL     1       0.269  -2.802   0.270  1.00  0.00    -0.193 OA
ENDROOT
BRANCH   3   6
HETATM    6  C7  UNL     1       1.504  -5.245   2.693  1.00  0.00     0.073 C 
HETATM    7  C8  UNL     1       3.027  -5.235   2.839  1.00  0.00     0.012 C 
HETATM    8  C9  UNL     1       0.858  -5.150   4.077  1.00  0.00     0.012 C 
BRANCH   6   9
HETATM    9  C10 UNL     1       1.071  -6.523   2.023  1.00  0.00    -0.016 A 
HETATM   10  C11 UNL     1       1.623  -6.889   0.809  1.00  0.00    -0.004 A 
HETATM   11  C12 UNL     1       1.226  -8.062   0.195  1.00  0.00    -0.000 A 
HETATM   12  C13 UNL     1       0.278  -8.869   0.794  1.00  0.00    -0.000 A 
HETATM   13  C14 UNL     1      -0.273  -8.504   2.008  1.00  0.00    -0.000 A 
HETATM   14  C15 UNL     1       0.127  -7.333   2.624  1.00  0.00    -0.004 A 
ENDBRANCH   6   9
ENDBRANCH   3   6
BRANCH   1  15
HETATM   15  C3  UNL     1       0.716  -0.510   1.258  1.00  0.00     0.327 C 
HETATM   16  C4  UNL     1       2.150   0.022   1.229  1.00  0.00     0.048 C 
HETATM   17  N3  UNL     1       0.044  -0.039   2.477  1.00  0.00     0.622 N 
BRANCH  15  18
HETATM   18  C2  UNL     1      -0.041  -0.003   0.030  1.00  0.00     0.045 C 
HETATM   19  C1  UNL     1      -0.064   1.527   0.041  1.00  0.00     0.003 C 
ENDBRANCH  15  18
ENDBRANCH   1  15
TORSDOF 4
