REMARK  3 active torsions:
REMARK  status: ('A' for Active; 'I' for Inactive)
REMARK    1  A    between atoms: C2_2  and  N1_4 
REMARK       I    between atoms: N2_7  and  C8_10 
REMARK       I    between atoms: C8_10  and  N3_12 
REMARK    2  A    between atoms: N3_12  and  C9_13 
REMARK    3  A    between atoms: C12_16  and  N4_20 
ROOT
HETATM    1  C9  UNL     1      -5.043  -4.818  -2.528  1.00  0.00     0.087 A 
HETATM    2  C10 UNL     1      -5.839  -4.226  -3.499  1.00  0.00     0.021 A 
HETATM    3  C11 UNL     1      -6.548  -5.012  -4.385  1.00  0.00     0.022 A 
HETATM    4  C12 UNL     1      -6.465  -6.396  -4.306  1.00  0.00     0.093 A 
HETATM    5  C13 UNL     1      -5.669  -6.989  -3.334  1.00  0.00     0.077 A 
HETATM    6  C14 UNL     1      -4.955  -6.202  -2.451  1.00  0.00     0.032 A 
HETATM    7 CL1  UNL     1      -5.566  -8.719  -3.234  1.00  0.00    -0.081 Cl
ENDROOT
BRANCH   1   8
HETATM    8  N3  UNL     1      -4.324  -4.020  -1.629  1.00  0.00    -0.193 NA
HETATM    9  C8  UNL     1      -4.837  -2.846  -1.212  1.00  0.00     0.346 C 
HETATM   10  N2  UNL     1      -4.089  -2.012  -0.462  1.00  0.00    -0.297 N 
HETATM   11  O1  UNL     1      -5.974  -2.538  -1.512  1.00  0.00    -0.245 OA
HETATM   12  C5  UNL     1      -4.586  -0.679  -0.089  1.00  0.00     0.141 C 
HETATM   13  C6  UNL     1      -2.752  -2.410   0.007  1.00  0.00     0.141 C 
HETATM   14  C4  UNL     1      -3.509   0.355  -0.435  1.00  0.00     0.274 C 
HETATM   15  N1  UNL     1      -2.244  -0.022   0.209  1.00  0.00     0.139 N 
HETATM   16  C7  UNL     1      -1.762  -1.295  -0.344  1.00  0.00     0.274 C 
BRANCH  15  17
HETATM   17  C2  UNL     1      -1.243   1.025  -0.032  1.00  0.00     0.220 C 
HETATM   18  C1  UNL     1      -1.743   2.351   0.543  1.00  0.00     0.035 C 
HETATM   19  C3  UNL     1       0.073   0.638   0.647  1.00  0.00     0.035 C 
ENDBRANCH  15  17
ENDBRANCH   1   8
BRANCH   4  20
HETATM   20  N4  UNL     1      -7.186  -7.194  -5.206  1.00  0.00    -0.228 N 
HETATM   21  C15 UNL     1      -7.237  -7.034  -6.547  1.00  0.00     0.102 A 
HETATM   22  C16 UNL     1      -8.037  -8.005  -7.048  1.00  0.00     0.043 A 
HETATM   23  C17 UNL     1      -8.490  -8.784  -5.978  1.00  0.00     0.122 A 
HETATM   24  N5  UNL     1      -7.976  -8.303  -4.874  1.00  0.00    -0.164 NA
ENDBRANCH   4  20
TORSDOF 3
