REMARK  3 active torsions:
REMARK  status: ('A' for Active; 'I' for Inactive)
REMARK    1  A    between atoms: C2_2  and  C3_3 
REMARK    2  A    between atoms: C8_11  and  N4_12 
REMARK       I    between atoms: N4_12  and  C9_13 
REMARK       I    between atoms: C9_13  and  N5_15 
REMARK    3  A    between atoms: N5_15  and  C10_16 
ROOT
HETATM    1  N4  UNL     1       4.708  -0.560   2.617  1.00  0.00    -0.211 NA
HETATM    2  C9  UNL     1       5.288  -0.658   1.405  1.00  0.00     0.365 C 
HETATM    3  O1  UNL     1       4.990  -1.572   0.660  1.00  0.00    -0.243 OA
HETATM    4  N5  UNL     1       6.199   0.257   1.018  1.00  0.00    -0.192 NA
ENDROOT
BRANCH   1   5
HETATM    5  C8  UNL     1       3.718  -1.555   3.038  1.00  0.00     0.166 C 
HETATM    6  C4  UNL     1       2.355  -1.168   2.518  1.00  0.00     0.160 A 
HETATM    7  N1  UNL     1       2.044  -0.740   1.327  1.00  0.00    -0.213 NA
HETATM    8  N2  UNL     1       1.226  -1.215   3.251  1.00  0.00    -0.235 N 
HETATM    9  C3  UNL     1       0.732  -0.503   1.261  1.00  0.00     0.160 A 
HETATM   10  N3  UNL     1       0.191  -0.776   2.422  1.00  0.00    -0.153 NA
HETATM   11  C5  UNL     1       1.150  -1.646   4.647  1.00  0.00     0.129 C 
HETATM   12  C6  UNL     1       2.427  -2.418   4.997  1.00  0.00     0.029 C 
HETATM   13  C7  UNL     1       3.651  -1.601   4.570  1.00  0.00     0.034 C 
BRANCH   9  14
HETATM   14  C2  UNL     1      -0.006   0.004   0.049  1.00  0.00     0.068 C 
HETATM   15  C1  UNL     1      -0.026   1.533   0.066  1.00  0.00     0.009 C 
ENDBRANCH   9  14
ENDBRANCH   1   5
BRANCH   4  16
HETATM   16  C10 UNL     1       6.888   0.091  -0.190  1.00  0.00     0.082 A 
HETATM   17  C11 UNL     1       7.050  -1.178  -0.730  1.00  0.00     0.020 A 
HETATM   18  C12 UNL     1       7.730  -1.338  -1.921  1.00  0.00     0.013 A 
HETATM   19  C13 UNL     1       8.250  -0.236  -2.577  1.00  0.00     0.058 A 
HETATM   20  C14 UNL     1       8.091   1.030  -2.040  1.00  0.00     0.009 A 
HETATM   21 CL1  UNL     1       9.104  -0.441  -4.074  1.00  0.00    -0.082 Cl
HETATM   22  C15 UNL     1       7.406   1.196  -0.852  1.00  0.00    -0.003 A 
HETATM   23  C16 UNL     1       7.227   2.575  -0.272  1.00  0.00     0.033 C 
ENDBRANCH   4  16
TORSDOF 3
