REMARK  5 active torsions:
REMARK  status: ('A' for Active; 'I' for Inactive)
REMARK    1  A    between atoms: C3_3  and  O2_20 
REMARK    2  A    between atoms: C6_6  and  C7_7 
REMARK    3  A    between atoms: C7_7  and  N1_8 
REMARK       I    between atoms: N1_8  and  C8_9 
REMARK    4  A    between atoms: C8_9  and  C9_11 
REMARK    5  A    between atoms: O2_20  and  C16_21 
ROOT
HETATM    1  C7  UNL     1      -1.293  -0.774   0.011  1.00  0.00     0.155 C 
ENDROOT
BRANCH   1   2
HETATM    2  C6  UNL     1       0.002  -0.004   0.002  1.00  0.00     0.002 A 
HETATM    3  C1  UNL     1      -0.017   1.378   0.010  1.00  0.00    -0.000 A 
HETATM    4  C2  UNL     1       1.169   2.087   0.002  1.00  0.00     0.024 A 
HETATM    5  C3  UNL     1       2.380   1.409  -0.013  1.00  0.00     0.102 A 
HETATM    6  C4  UNL     1       2.396   0.022  -0.021  1.00  0.00     0.024 A 
HETATM    7  C5  UNL     1       1.207  -0.681  -0.013  1.00  0.00    -0.000 A 
BRANCH   5   8
HETATM    8  O2  UNL     1       3.548   2.104  -0.021  1.00  0.00    -0.253 OA
BRANCH   8   9
HETATM    9  C16 UNL     1       4.756   1.341  -0.036  1.00  0.00     0.530 C 
HETATM   10  F1  UNL     1       4.787   0.540  -1.183  1.00  0.00    -0.144 F 
HETATM   11  F2  UNL     1       5.855   2.207  -0.043  1.00  0.00    -0.144 F 
HETATM   12  F3  UNL     1       4.810   0.528   1.101  1.00  0.00    -0.144 F 
ENDBRANCH   8   9
ENDBRANCH   5   8
ENDBRANCH   1   2
BRANCH   1  13
HETATM   13  N1  UNL     1      -1.727  -1.016  -1.368  1.00  0.00    -0.229 NA
HETATM   14  C8  UNL     1      -2.868  -1.692  -1.606  1.00  0.00     0.275 C 
HETATM   15  O1  UNL     1      -3.538  -2.100  -0.678  1.00  0.00    -0.266 OA
BRANCH  14  16
HETATM   16  C9  UNL     1      -3.305  -1.936  -2.996  1.00  0.00     0.058 A 
HETATM   17  C10 UNL     1      -2.534  -1.472  -4.073  1.00  0.00     0.005 A 
HETATM   18  C11 UNL     1      -2.914  -1.683  -5.357  1.00  0.00     0.002 A 
HETATM   19  C12 UNL     1      -4.108  -2.382  -5.651  1.00  0.00     0.027 A 
HETATM   20  C13 UNL     1      -4.689  -2.711  -6.888  1.00  0.00     0.108 A 
HETATM   21  C14 UNL     1      -4.874  -2.843  -4.551  1.00  0.00     0.049 A 
HETATM   22  N2  UNL     1      -5.808  -3.368  -6.945  1.00  0.00    -0.208 NA
HETATM   23  S1  UNL     1      -6.242  -3.639  -5.349  1.00  0.00     0.013 SA
HETATM   24  C15 UNL     1      -4.485  -2.634  -3.250  1.00  0.00     0.013 A 
ENDBRANCH  14  16
ENDBRANCH   1  13
TORSDOF 5
