REMARK  5 active torsions:
REMARK  status: ('A' for Active; 'I' for Inactive)
REMARK    1  A    between atoms: C2_2  and  O1_3 
REMARK    2  A    between atoms: O1_3  and  C3_4 
REMARK       I    between atoms: C3_4  and  N1_6 
REMARK    3  A    between atoms: C6_9  and  N2_12 
REMARK       I    between atoms: N2_12  and  C9_13 
REMARK    4  A    between atoms: C9_13  and  C10_15 
REMARK    5  A    between atoms: N3_18  and  C15_21 
ROOT
HETATM    1  C10 UNL     1      -7.731  -5.258   3.215  1.00  0.00     0.085 C 
HETATM    2  C11 UNL     1      -6.893  -5.564   4.458  1.00  0.00     0.034 C 
HETATM    3  C12 UNL     1      -7.823  -5.932   5.618  1.00  0.00     0.104 C 
HETATM    4  N3  UNL     1      -8.696  -7.035   5.192  1.00  0.00    -0.329 N 
HETATM    5  C13 UNL     1      -9.479  -6.880   3.959  1.00  0.00     0.104 C 
HETATM    6  C14 UNL     1      -8.530  -6.501   2.817  1.00  0.00     0.034 C 
ENDROOT
BRANCH   1   7
HETATM    7  C9  UNL     1      -6.821  -4.862   2.081  1.00  0.00     0.251 C 
HETATM    8  N2  UNL     1      -6.017  -3.787   2.206  1.00  0.00    -0.240 NA
HETATM    9  O3  UNL     1      -6.813  -5.510   1.056  1.00  0.00    -0.271 OA
BRANCH   8  10
HETATM   10  C6  UNL     1      -5.132  -3.402   1.103  1.00  0.00     0.110 C 
HETATM   11  C5  UNL     1      -4.819  -1.908   1.199  1.00  0.00     0.049 C 
HETATM   12  C4  UNL     1      -3.922  -1.502   0.025  1.00  0.00     0.108 C 
HETATM   13  N1  UNL     1      -2.735  -2.368   0.015  1.00  0.00    -0.297 N 
HETATM   14  C3  UNL     1      -1.497  -1.836   0.006  1.00  0.00     0.365 C 
HETATM   15  C8  UNL     1      -2.924  -3.825   0.009  1.00  0.00     0.108 C 
HETATM   16  O2  UNL     1      -0.523  -2.563  -0.007  1.00  0.00    -0.238 OA
HETATM   17  C7  UNL     1      -3.832  -4.205   1.189  1.00  0.00     0.049 C 
BRANCH  14  18
HETATM   18  O1  UNL     1      -1.339  -0.499   0.012  1.00  0.00    -0.285 OA
BRANCH  18  19
HETATM   19  C2  UNL     1       0.002  -0.004   0.002  1.00  0.00     0.154 C 
HETATM   20  C1  UNL     1      -0.019   1.526   0.010  1.00  0.00     0.035 C 
ENDBRANCH  18  19
ENDBRANCH  14  18
ENDBRANCH   8  10
ENDBRANCH   1   7
BRANCH   4  21
HETATM   21  C15 UNL     1      -8.779  -8.192   5.936  1.00  0.00     0.173 A 
HETATM   22  N4  UNL     1      -8.162  -8.501   7.059  1.00  0.00    -0.203 NA
HETATM   23  C16 UNL     1      -8.338  -9.672   7.678  1.00  0.00     0.176 A 
HETATM   24  C17 UNL     1      -9.234 -10.572   7.055  1.00  0.00     0.112 A 
HETATM   25  N6  UNL     1      -7.775 -10.119   8.825  1.00  0.00    -0.204 NA
HETATM   26  S1  UNL     1      -9.758  -9.656   5.629  1.00  0.00    -0.044 SA
HETATM   27  C18 UNL     1      -9.500 -11.809   7.593  1.00  0.00     0.223 A 
HETATM   28  O4  UNL     1     -10.361 -12.661   6.985  1.00  0.00    -0.169 OA
HETATM   29  N5  UNL     1      -8.890 -12.149   8.730  1.00  0.00    -0.197 NA
HETATM   30  C19 UNL     1      -8.055 -11.304   9.307  1.00  0.00     0.202 A 
ENDBRANCH   4  21
TORSDOF 5
