REMARK  4 active torsions:
REMARK  status: ('A' for Active; 'I' for Inactive)
REMARK    1  A    between atoms: N1_2  and  C3_4 
REMARK    2  A    between atoms: C6_8  and  N3_13 
REMARK       I    between atoms: N3_13  and  C10_14 
REMARK    3  A    between atoms: C10_14  and  C11_16 
REMARK    4  A    between atoms: C14_19  and  O4_23 
ROOT
HETATM    1  C3  UNL     1      -0.265  -0.697  -1.196  1.00  0.00     0.252 A 
HETATM    2  N2  UNL     1      -0.357  -0.145  -2.379  1.00  0.00    -0.205 NA
HETATM    3  C4  UNL     1      -0.203  -1.113  -3.325  1.00  0.00     0.109 A 
HETATM    4  C5  UNL     1      -0.208  -1.104  -4.720  1.00  0.00     0.041 A 
HETATM    5  C6  UNL     1      -0.019  -2.287  -5.413  1.00  0.00     0.086 A 
HETATM    6  C7  UNL     1       0.175  -3.481  -4.723  1.00  0.00     0.021 A 
HETATM    7  C8  UNL     1       0.181  -3.496  -3.344  1.00  0.00     0.028 A 
HETATM    8  C9  UNL     1      -0.006  -2.320  -2.637  1.00  0.00     0.121 A 
HETATM    9  O1  UNL     1      -0.047  -2.018  -1.317  1.00  0.00    -0.275 OA
ENDROOT
BRANCH   5  10
HETATM   10  N3  UNL     1      -0.024  -2.283  -6.813  1.00  0.00    -0.208 NA
HETATM   11  C10 UNL     1       0.454  -1.218  -7.486  1.00  0.00     0.281 C 
HETATM   12  O2  UNL     1       0.977  -0.301  -6.881  1.00  0.00    -0.265 OA
BRANCH  11  13
HETATM   13  C11 UNL     1       0.343  -1.163  -8.954  1.00  0.00     0.083 A 
HETATM   14  C12 UNL     1      -0.263  -2.213  -9.651  1.00  0.00     0.009 A 
HETATM   15  C13 UNL     1      -0.365  -2.158 -11.022  1.00  0.00     0.025 A 
HETATM   16  C14 UNL     1       0.133  -1.061 -11.719  1.00  0.00     0.096 A 
HETATM   17  C15 UNL     1       0.736  -0.014 -11.037  1.00  0.00     0.052 A 
HETATM   18  C16 UNL     1       0.839  -0.055  -9.657  1.00  0.00     0.138 A 
HETATM   19  O3  UNL     1       1.423   0.971  -8.987  1.00  0.00    -0.190 OA
BRANCH  16  20
HETATM   20  O4  UNL     1       0.029  -1.015 -13.071  1.00  0.00    -0.328 OA
HETATM   21  C17 UNL     1      -0.602  -2.126 -13.711  1.00  0.00     0.181 C 
ENDBRANCH  16  20
ENDBRANCH  11  13
ENDBRANCH   5  10
BRANCH   1  22
HETATM   22  N1  UNL     1      -0.370  -0.021  -0.001  1.00  0.00    -0.310 N 
HETATM   23  C1  UNL     1      -0.609   1.424   0.005  1.00  0.00     0.129 C 
HETATM   24  C2  UNL     1      -0.244  -0.748   1.265  1.00  0.00     0.129 C 
ENDBRANCH   1  22
TORSDOF 4
