REMARK  4 active torsions:
REMARK  status: ('A' for Active; 'I' for Inactive)
REMARK    1  A    between atoms: C4_5  and  C5_7 
REMARK    2  A    between atoms: C5_7  and  N2_8 
REMARK    3  A    between atoms: N2_8  and  C6_9 
REMARK    4  A    between atoms: C6_9  and  C7_10 
ROOT
HETATM    1  N2  UNL     1      -1.324  -3.282   2.671  1.00  0.00     0.346 N 
ENDROOT
BRANCH   1   2
HETATM    2  C5  UNL     1       0.055  -2.955   2.284  1.00  0.00     0.342 C 
BRANCH   2   3
HETATM    3  C4  UNL     1       0.036  -2.009   1.111  1.00  0.00     0.124 A 
HETATM    4  S1  UNL     1       0.032  -2.379  -0.531  1.00  0.00    -0.069 SA
HETATM    5  C3  UNL     1       0.006  -0.708  -1.159  1.00  0.00     0.051 A 
HETATM    6  C2  UNL     1       0.002  -0.004   0.002  1.00  0.00     0.066 A 
HETATM    7  C1  UNL     1      -0.018   1.503   0.010  1.00  0.00     0.053 C 
HETATM    8  N1  UNL     1       0.023  -0.699   1.122  1.00  0.00    -0.245 NA
ENDBRANCH   2   3
ENDBRANCH   1   2
BRANCH   1   9
HETATM    9  C6  UNL     1      -1.344  -4.204   3.815  1.00  0.00     0.293 C 
BRANCH   9  10
HETATM   10  C7  UNL     1      -2.794  -4.521   4.189  1.00  0.00     0.072 C 
HETATM   11  C8  UNL     1      -3.483  -3.247   4.686  1.00  0.00     0.006 C 
HETATM   12  C9  UNL     1      -4.908  -3.591   5.131  1.00  0.00     0.038 C 
HETATM   13  C10 UNL     1      -4.853  -4.678   6.206  1.00  0.00     0.290 C 
HETATM   14  N3  UNL     1      -4.206  -5.878   5.661  1.00  0.00     0.339 N 
HETATM   15  C11 UNL     1      -2.817  -5.575   5.298  1.00  0.00     0.292 C 
ENDBRANCH   9  10
ENDBRANCH   1   9
TORSDOF 4
