REMARK  4 active torsions:
REMARK  status: ('A' for Active; 'I' for Inactive)
REMARK    1  A    between atoms: C2_2  and  N1_4 
REMARK    2  A    between atoms: C11_13  and  C12_15 
REMARK       I    between atoms: C12_15  and  N3_17 
REMARK    3  A    between atoms: N3_17  and  N4_18 
REMARK       I    between atoms: N4_18  and  C13_19 
REMARK    4  A    between atoms: C13_19  and  C14_21 
ROOT
HETATM    1  C12 UNL     1      -4.168  -0.162   2.295  1.00  0.00     0.316 C 
HETATM    2  O2  UNL     1      -5.323  -0.526   2.407  1.00  0.00    -0.262 OA
HETATM    3  N3  UNL     1      -3.614   0.622   3.240  1.00  0.00    -0.101 NA
ENDROOT
BRANCH   1   4
HETATM    4  C11 UNL     1      -3.373  -0.581   1.124  1.00  0.00     0.160 A 
HETATM    5  C10 UNL     1      -3.970  -1.438   0.086  1.00  0.00     0.029 A 
HETATM    6  C5  UNL     1      -3.151  -1.800  -1.008  1.00  0.00     0.059 A 
HETATM    7  C9  UNL     1      -5.283  -1.891   0.147  1.00  0.00     0.002 A 
HETATM    8  C4  UNL     1      -1.774  -1.288  -1.014  1.00  0.00     0.276 A 
HETATM    9  C6  UNL     1      -3.662  -2.608  -2.019  1.00  0.00     0.005 A 
HETATM   10  N1  UNL     1      -1.372  -0.511   0.012  1.00  0.00    -0.219 N 
HETATM   11  O1  UNL     1      -1.012  -1.560  -1.925  1.00  0.00    -0.266 OA
HETATM   12  N2  UNL     1      -2.126  -0.197   0.997  1.00  0.00    -0.162 NA
HETATM   13  C7  UNL     1      -4.966  -3.047  -1.940  1.00  0.00     0.000 A 
HETATM   14  C8  UNL     1      -5.771  -2.691  -0.865  1.00  0.00     0.000 A 
BRANCH  10  15
HETATM   15  C2  UNL     1       0.002  -0.004   0.002  1.00  0.00     0.109 C 
HETATM   16  C1  UNL     1      -0.019   1.526   0.010  1.00  0.00     0.026 C 
HETATM   17  C3  UNL     1       0.742  -0.511   1.242  1.00  0.00     0.026 C 
ENDBRANCH  10  15
ENDBRANCH   1   4
BRANCH   3  18
HETATM   18  N4  UNL     1      -4.368   1.019   4.352  1.00  0.00    -0.102 NA
HETATM   19  C13 UNL     1      -3.814   1.804   5.297  1.00  0.00     0.297 C 
HETATM   20  O3  UNL     1      -2.659   2.167   5.185  1.00  0.00    -0.264 OA
BRANCH  19  21
HETATM   21  C14 UNL     1      -4.609   2.222   6.469  1.00  0.00     0.059 A 
HETATM   22  C15 UNL     1      -5.935   1.803   6.606  1.00  0.00     0.007 A 
HETATM   23  C16 UNL     1      -6.673   2.190   7.700  1.00  0.00     0.024 A 
HETATM   24  C17 UNL     1      -6.107   3.005   8.681  1.00  0.00     0.090 A 
HETATM   25  C18 UNL     1      -4.789   3.426   8.535  1.00  0.00     0.003 A 
HETATM   26  O4  UNL     1      -6.651   3.486   9.831  1.00  0.00    -0.331 OA
HETATM   27  C19 UNL     1      -4.039   3.036   7.452  1.00  0.00     0.003 A 
HETATM   28  C20 UNL     1      -4.469   4.306   9.729  1.00  0.00     0.061 C 
HETATM   29  C21 UNL     1      -5.879   4.609  10.289  1.00  0.00     0.154 C 
ENDBRANCH  19  21
ENDBRANCH   3  18
TORSDOF 4
