REMARK  8 active torsions:
REMARK  status: ('A' for Active; 'I' for Inactive)
REMARK    1  A    between atoms: C2_2  and  O1_3 
REMARK    2  A    between atoms: O1_3  and  C3_4 
REMARK    3  A    between atoms: C6_7  and  C9_10 
REMARK       I    between atoms: C9_10  and  N1_12 
REMARK    4  A    between atoms: N1_12  and  C10_13 
REMARK    5  A    between atoms: C10_13  and  C11_14 
REMARK       I    between atoms: C11_14  and  N2_16 
REMARK    6  A    between atoms: N2_16  and  C12_17 
REMARK    7  A    between atoms: C12_17  and  C13_18 
REMARK    8  A    between atoms: C13_18  and  O4_19 
ROOT
HETATM    1  C9  UNL     1       1.107  -6.011  -1.843  1.00  0.00     0.275 C 
HETATM    2  O2  UNL     1       0.639  -6.763  -1.010  1.00  0.00    -0.266 OA
HETATM    3  N1  UNL     1       1.731  -6.512  -2.928  1.00  0.00    -0.224 NA
ENDROOT
BRANCH   1   4
HETATM    4  C6  UNL     1       0.992  -4.550  -1.667  1.00  0.00     0.058 A 
HETATM    5  C5  UNL     1       0.345  -4.029  -0.543  1.00  0.00     0.007 A 
HETATM    6  C4  UNL     1       0.240  -2.666  -0.383  1.00  0.00     0.024 A 
HETATM    7  C3  UNL     1       0.777  -1.808  -1.336  1.00  0.00     0.094 A 
HETATM    8  C8  UNL     1       1.416  -2.323  -2.458  1.00  0.00     0.024 A 
HETATM    9  C7  UNL     1       1.529  -3.685  -2.624  1.00  0.00     0.007 A 
BRANCH   7  10
HETATM   10  O1  UNL     1       0.671  -0.465  -1.174  1.00  0.00    -0.331 OA
BRANCH  10  11
HETATM   11  C2  UNL     1       0.002  -0.004   0.002  1.00  0.00     0.149 C 
HETATM   12  C1  UNL     1      -0.019   1.526   0.010  1.00  0.00     0.035 C 
ENDBRANCH  10  11
ENDBRANCH   7  10
ENDBRANCH   1   4
BRANCH   3  13
HETATM   13  C10 UNL     1       1.846  -7.962  -3.103  1.00  0.00     0.218 C 
BRANCH  13  14
HETATM   14  C11 UNL     1       2.580  -8.257  -4.386  1.00  0.00     0.276 C 
HETATM   15  O3  UNL     1       2.970  -7.346  -5.085  1.00  0.00    -0.268 OA
HETATM   16  N2  UNL     1       2.804  -9.534  -4.756  1.00  0.00    -0.234 NA
BRANCH  16  17
HETATM   17  C12 UNL     1       3.518  -9.820  -6.002  1.00  0.00     0.161 C 
BRANCH  17  18
HETATM   18  C13 UNL     1       3.638 -11.335  -6.185  1.00  0.00     0.169 C 
BRANCH  18  19
HETATM   19  O4  UNL     1       2.336 -11.898  -6.357  1.00  0.00    -0.349 OA
HETATM   20  C14 UNL     1       2.335 -13.315  -6.537  1.00  0.00     0.174 C 
ENDBRANCH  18  19
ENDBRANCH  17  18
ENDBRANCH  16  17
ENDBRANCH  13  14
ENDBRANCH   3  13
TORSDOF 8
