REMARK  5 active torsions:
REMARK  status: ('A' for Active; 'I' for Inactive)
REMARK    1  A    between atoms: N1_11  and  C12_18 
REMARK    2  A    between atoms: N2_14  and  C10_15 
REMARK    3  A    between atoms: C10_15  and  C11_16 
REMARK    4  A    between atoms: C12_18  and  C13_19 
REMARK    5  A    between atoms: C13_19  and  C14_20 
ROOT
HETATM    1  C1  UNL     1       2.138   1.412  -1.089  1.00  0.00     0.030 C 
HETATM    2  C2  UNL     1       1.271   2.045   0.001  1.00  0.00     0.098 C 
HETATM    3  C3  UNL     1       1.932   1.833   1.373  1.00  0.00     0.060 C 
HETATM    4  C4  UNL     1       1.741   0.397   1.753  1.00  0.00     0.010 A 
HETATM    5  C5  UNL     1       0.876  -0.481   1.160  1.00  0.00     0.026 A 
HETATM    6  C6  UNL     1       0.847  -1.779   1.658  1.00  0.00     0.074 A 
HETATM    7  C7  UNL     1       1.717  -2.047   2.728  1.00  0.00     0.101 A 
HETATM    8  S1  UNL     1       2.529  -0.504   2.991  1.00  0.00    -0.085 SA
HETATM    9  C8  UNL     1       1.817  -3.296   3.349  1.00  0.00     0.272 A 
HETATM   10  O1  UNL     1       2.582  -3.499   4.276  1.00  0.00    -0.266 OA
HETATM   11  N1  UNL     1       1.005  -4.268   2.852  1.00  0.00    -0.248 N 
HETATM   12  C9  UNL     1       0.168  -4.030   1.832  1.00  0.00     0.334 A 
HETATM   13  O2  UNL     1      -0.526  -4.950   1.444  1.00  0.00    -0.246 OA
HETATM   14  N2  UNL     1       0.042  -2.842   1.206  1.00  0.00    -0.271 N 
HETATM   15  C20 UNL     1       0.002  -0.004   0.002  1.00  0.00     0.170 C 
HETATM   16  O4  UNL     1      -0.017   1.425   0.010  1.00  0.00    -0.354 OA
HETATM   17  C21 UNL     1       1.117   3.544  -0.268  1.00  0.00     0.030 C 
ENDROOT
BRANCH  11  18
HETATM   18  C12 UNL     1       1.046  -5.606   3.447  1.00  0.00     0.118 C 
BRANCH  18  19
HETATM   19  C13 UNL     1       0.031  -5.689   4.588  1.00  0.00     0.051 C 
BRANCH  19  20
HETATM   20  C14 UNL     1       0.073  -7.066   5.199  1.00  0.00    -0.020 A 
HETATM   21  C15 UNL     1      -0.749  -8.065   4.711  1.00  0.00    -0.004 A 
HETATM   22  C16 UNL     1      -0.707  -9.329   5.268  1.00  0.00    -0.000 A 
HETATM   23  C17 UNL     1       0.150  -9.592   6.321  1.00  0.00    -0.000 A 
HETATM   24  C18 UNL     1       0.968  -8.592   6.812  1.00  0.00    -0.000 A 
HETATM   25  C19 UNL     1       0.930  -7.329   6.252  1.00  0.00    -0.004 A 
ENDBRANCH  19  20
ENDBRANCH  18  19
ENDBRANCH  11  18
BRANCH  14  26
HETATM   26  C10 UNL     1      -0.898  -2.665   0.097  1.00  0.00     0.208 C 
BRANCH  26  27
HETATM   27  C11 UNL     1      -2.235  -2.226   0.637  1.00  0.00     0.210 C 
HETATM   28  O3  UNL     1      -2.387  -2.078   1.826  1.00  0.00    -0.646 OA
HETATM   29  O5  UNL     1      -3.257  -2.001  -0.204  1.00  0.00    -0.646 OA
ENDBRANCH  26  27
ENDBRANCH  14  26
TORSDOF 5
