REMARK  4 active torsions:
REMARK  status: ('A' for Active; 'I' for Inactive)
REMARK    1  A    between atoms: C6_6  and  C7_7 
REMARK    2  A    between atoms: C7_7  and  S1_8 
REMARK    3  A    between atoms: S1_8  and  C8_11 
REMARK    4  A    between atoms: C11_14  and  N3_17 
ROOT
HETATM    1  S1  UNL     1      -1.829  -1.075  -1.696  1.00  0.00     0.212 S 
HETATM    2  O1  UNL     1      -2.198   0.149  -2.316  1.00  0.00    -0.220 OA
HETATM    3  O2  UNL     1      -0.935  -1.972  -2.340  1.00  0.00    -0.220 OA
ENDROOT
BRANCH   1   4
HETATM    4  C7  UNL     1      -1.293  -0.775   0.011  1.00  0.00     0.155 C 
BRANCH   4   5
HETATM    5  C6  UNL     1       0.002  -0.004   0.002  1.00  0.00    -0.006 A 
HETATM    6  C1  UNL     1      -0.017   1.378   0.010  1.00  0.00    -0.002 A 
HETATM    7  C2  UNL     1       1.171   2.086   0.002  1.00  0.00     0.011 A 
HETATM    8  C3  UNL     1       2.378   1.410  -0.013  1.00  0.00     0.058 A 
HETATM    9  C4  UNL     1       2.396   0.027  -0.021  1.00  0.00     0.011 A 
HETATM   10 CL1  UNL     1       3.870   2.298  -0.023  1.00  0.00    -0.082 Cl
HETATM   11  C5  UNL     1       1.208  -0.679  -0.013  1.00  0.00    -0.002 A 
ENDBRANCH   4   5
ENDBRANCH   1   4
BRANCH   1  12
HETATM   12  C8  UNL     1      -3.337  -1.974  -1.545  1.00  0.00     0.186 A 
HETATM   13  C9  UNL     1      -3.315  -3.361  -1.492  1.00  0.00     0.036 A 
HETATM   14  C10 UNL     1      -4.525  -4.027  -1.373  1.00  0.00     0.045 A 
HETATM   15  C11 UNL     1      -5.689  -3.261  -1.315  1.00  0.00     0.206 A 
HETATM   16  N1  UNL     1      -5.609  -1.940  -1.373  1.00  0.00    -0.126 NA
HETATM   17  N2  UNL     1      -4.485  -1.330  -1.478  1.00  0.00    -0.135 NA
BRANCH  15  18
HETATM   18  N3  UNL     1      -6.928  -3.882  -1.196  1.00  0.00    -0.106 NA
HETATM   19  N4  UNL     1      -8.066  -3.128  -1.139  1.00  0.00    -0.021 N 
ENDBRANCH  15  18
ENDBRANCH   1  12
TORSDOF 4
