REMARK  3 active torsions:
REMARK  status: ('A' for Active; 'I' for Inactive)
REMARK    1  A    between atoms: C4_4  and  N1_7 
REMARK    2  A    between atoms: N1_7  and  C7_8 
REMARK    3  A    between atoms: N2_11  and  C10_13 
ROOT
HETATM    1  C7  UNL     1       3.644  -2.046   0.052  1.00  0.00     0.181 A 
HETATM    2  C8  UNL     1       4.787  -2.840   0.170  1.00  0.00     0.065 A 
HETATM    3  C9  UNL     1       4.389  -4.137   0.247  1.00  0.00     0.064 A 
HETATM    4  N2  UNL     1       3.042  -4.163   0.185  1.00  0.00    -0.231 N 
HETATM    5  N3  UNL     1       2.594  -2.838   0.066  1.00  0.00    -0.146 NA
HETATM    6  C16 UNL     1       5.358  -5.287   0.374  1.00  0.00     0.084 C 
HETATM    7  C17 UNL     1       6.754  -4.760   0.010  1.00  0.00     0.297 C 
HETATM    8  N4  UNL     1       7.029  -3.526   0.757  1.00  0.00     0.344 N 
HETATM    9  C18 UNL     1       6.233  -2.413   0.215  1.00  0.00     0.321 C 
ENDROOT
BRANCH   1  10
HETATM   10  N1  UNL     1       3.621  -0.650  -0.057  1.00  0.00    -0.226 NA
BRANCH  10  11
HETATM   11  C4  UNL     1       2.401   0.030  -0.046  1.00  0.00     0.083 A 
HETATM   12  C3  UNL     1       1.294  -0.534   0.576  1.00  0.00     0.019 A 
HETATM   13  C2  UNL     1       0.090   0.141   0.585  1.00  0.00     0.002 A 
HETATM   14  C1  UNL     1      -0.015   1.379  -0.023  1.00  0.00     0.000 A 
HETATM   15  C6  UNL     1       1.085   1.944  -0.642  1.00  0.00     0.002 A 
HETATM   16  C5  UNL     1       2.292   1.274  -0.656  1.00  0.00     0.019 A 
ENDBRANCH  10  11
ENDBRANCH   1  10
BRANCH   4  17
HETATM   17  C10 UNL     1       2.235  -5.307   0.235  1.00  0.00     0.110 A 
HETATM   18  C11 UNL     1       2.426  -6.251   1.234  1.00  0.00     0.021 A 
HETATM   19  C12 UNL     1       1.628  -7.378   1.281  1.00  0.00     0.002 A 
HETATM   20  C13 UNL     1       0.639  -7.567   0.334  1.00  0.00     0.002 A 
HETATM   21  C14 UNL     1       0.444  -6.630  -0.664  1.00  0.00     0.031 A 
HETATM   22  C15 UNL     1       1.236  -5.497  -0.714  1.00  0.00     0.158 A 
HETATM   23  F1  UNL     1       1.042  -4.579  -1.686  1.00  0.00    -0.203 F 
ENDBRANCH   4  17
TORSDOF 3
