REMARK  4 active torsions:
REMARK  status: ('A' for Active; 'I' for Inactive)
REMARK    1  A    between atoms: C2_2  and  N1_3 
REMARK    2  A    between atoms: N1_3  and  C3_4 
REMARK    3  A    between atoms: C3_4  and  C4_5 
REMARK    4  A    between atoms: N2_9  and  C8_10 
ROOT
HETATM    1  C4  UNL     1      -2.820  -2.405  -0.041  1.00  0.00     0.119 C 
HETATM    2  C5  UNL     1      -2.936  -3.928   0.181  1.00  0.00     0.026 C 
HETATM    3  C6  UNL     1      -4.217  -4.056   1.047  1.00  0.00     0.026 C 
HETATM    4  C7  UNL     1      -4.125  -2.785   1.928  1.00  0.00     0.103 C 
HETATM    5  N2  UNL     1      -3.573  -1.746   1.036  1.00  0.00    -0.332 N 
ENDROOT
BRANCH   5   6
HETATM    6  C8  UNL     1      -3.735  -0.373   1.188  1.00  0.00     0.162 A 
HETATM    7  C9  UNL     1      -4.382   0.129   2.332  1.00  0.00     0.042 A 
HETATM    8  C10 UNL     1      -4.545   1.470   2.490  1.00  0.00     0.046 A 
HETATM    9  C11 UNL     1      -4.060   2.341   1.498  1.00  0.00     0.208 A 
HETATM   10  N3  UNL     1      -4.057   3.659   1.351  1.00  0.00    -0.106 NA
HETATM   11  N6  UNL     1      -3.435   1.821   0.398  1.00  0.00    -0.107 N 
HETATM   12  N4  UNL     1      -3.479   3.980   0.248  1.00  0.00    -0.021 NA
HETATM   13  N5  UNL     1      -3.078   2.928  -0.383  1.00  0.00    -0.021 NA
HETATM   14  N7  UNL     1      -3.277   0.442   0.264  1.00  0.00    -0.128 NA
ENDBRANCH   5   6
BRANCH   1  15
HETATM   15  C3  UNL     1      -1.351  -1.982   0.017  1.00  0.00     0.312 C 
BRANCH  15  16
HETATM   16  N1  UNL     1      -0.634  -2.542  -1.137  1.00  0.00     0.341 N 
BRANCH  16  17
HETATM   17  C2  UNL     1       0.746  -2.039  -1.148  1.00  0.00     0.290 C 
HETATM   18  C1  UNL     1       1.492  -2.621  -2.350  1.00  0.00     0.040 C 
ENDBRANCH  16  17
ENDBRANCH  15  16
ENDBRANCH   1  15
TORSDOF 4
