REMARK  5 active torsions:
REMARK  status: ('A' for Active; 'I' for Inactive)
REMARK    1  A    between atoms: C2_2  and  C4_4 
REMARK    2  A    between atoms: C2_2  and  C11_16 
REMARK    3  A    between atoms: C4_4  and  N1_5 
REMARK    4  A    between atoms: N1_5  and  C5_6 
REMARK    5  A    between atoms: C6_7  and  C10_12 
ROOT
HETATM    1  C5  UNL     1      -3.443  -0.416   1.449  1.00  0.00     0.162 A 
HETATM    2  C6  UNL     1      -4.090   0.041   2.593  1.00  0.00     0.107 A 
HETATM    3  C7  UNL     1      -5.407  -0.320   2.810  1.00  0.00     0.009 A 
HETATM    4  C8  UNL     1      -6.036  -1.129   1.872  1.00  0.00     0.021 A 
HETATM    5  C9  UNL     1      -5.334  -1.546   0.759  1.00  0.00     0.101 A 
HETATM    6  N2  UNL     1      -4.079  -1.182   0.576  1.00  0.00    -0.226 NA
ENDROOT
BRANCH   1   7
HETATM    7  N1  UNL     1      -2.119  -0.061   1.218  1.00  0.00    -0.253 NA
BRANCH   7   8
HETATM    8  C4  UNL     1      -1.433  -0.534   0.013  1.00  0.00     0.136 C 
BRANCH   8   9
HETATM    9  C2  UNL     1       0.002  -0.004   0.002  1.00  0.00     0.097 C 
HETATM   10  C1  UNL     1      -0.019   1.526   0.010  1.00  0.00     0.011 C 
HETATM   11  C3  UNL     1       0.742  -0.511   1.242  1.00  0.00     0.011 C 
BRANCH   9  12
HETATM   12  C11 UNL     1       0.707  -0.490  -1.238  1.00  0.00     0.275 C 
HETATM   13  O1  UNL     1       0.120  -1.191  -2.034  1.00  0.00    -0.269 OA
HETATM   14  N3  UNL     1       1.991  -0.146  -1.462  1.00  0.00    -0.107 N 
ENDBRANCH   9  12
ENDBRANCH   8   9
ENDBRANCH   7   8
ENDBRANCH   1   7
BRANCH   2  15
HETATM   15  C10 UNL     1      -3.365   0.916   3.582  1.00  0.00     0.422 C 
HETATM   16  F1  UNL     1      -4.225   1.239   4.637  1.00  0.00    -0.166 F 
HETATM   17  F2  UNL     1      -2.251   0.233   4.081  1.00  0.00    -0.166 F 
HETATM   18  F3  UNL     1      -2.946   2.090   2.946  1.00  0.00    -0.166 F 
ENDBRANCH   2  15
TORSDOF 5
