REMARK  2 active torsions:
REMARK  status: ('A' for Active; 'I' for Inactive)
REMARK    1  A    between atoms: C2_2  and  C4_7 
REMARK    2  A    between atoms: C4_7  and  N3_8 
ROOT
HETATM    1  N3  UNL     1       2.112   3.881   1.382  1.00  0.00     0.146 N 
HETATM    2  C5  UNL     1       0.887   3.788   2.159  1.00  0.00     0.261 C 
HETATM    3  C6  UNL     1       1.175   3.955   3.654  1.00  0.00     0.125 C 
HETATM    4  C7  UNL     1       1.205   5.437   3.970  1.00  0.00     0.254 C 
HETATM    5  O1  UNL     1       0.320   5.935   4.634  1.00  0.00    -0.271 OA
HETATM    6  N4  UNL     1       2.209   6.192   3.516  1.00  0.00    -0.236 NA
HETATM    7  C8  UNL     1       3.285   5.584   2.715  1.00  0.00     0.164 C 
HETATM    8  C9  UNL     1       2.716   5.203   1.347  1.00  0.00     0.277 C 
ENDROOT
BRANCH   1   9
HETATM    9  C4  UNL     1       1.819   3.469   0.003  1.00  0.00     0.296 C 
BRANCH   9  10
HETATM   10  C2  UNL     1       1.305   2.052   0.001  1.00  0.00     0.101 A 
HETATM   11  C1  UNL     1      -0.022   1.781   0.012  1.00  0.00     0.055 A 
HETATM   12  S1  UNL     1       0.002  -0.004   0.002  1.00  0.00    -0.052 SA
HETATM   13  C3  UNL     1       1.672  -0.214  -0.015  1.00  0.00     0.181 A 
HETATM   14  N1  UNL     1       2.129   1.020  -0.013  1.00  0.00    -0.227 NA
HETATM   15  N2  UNL     1       2.390  -1.400  -0.029  1.00  0.00    -0.072 NA
ENDBRANCH   9  10
ENDBRANCH   1   9
TORSDOF 2
