REMARK  4 active torsions:
REMARK  status: ('A' for Active; 'I' for Inactive)
REMARK    1  A    between atoms: C4_4  and  N3_13 
REMARK    2  A    between atoms: C5_5  and  C7_7 
REMARK    3  A    between atoms: C7_7  and  N1_8 
REMARK       I    between atoms: N3_13  and  C11_14 
REMARK    4  A    between atoms: C11_14  and  C12_16 
ROOT
HETATM    1  C12 UNL     1       5.925  -0.911  -0.823  1.00  0.00     0.059 A 
HETATM    2  C13 UNL     1       6.026  -2.172  -0.230  1.00  0.00     0.005 A 
HETATM    3  C14 UNL     1       7.198  -2.895  -0.331  1.00  0.00     0.001 A 
HETATM    4  C15 UNL     1       8.278  -2.377  -1.019  1.00  0.00     0.010 A 
HETATM    5  C16 UNL     1       8.191  -1.118  -1.617  1.00  0.00     0.069 A 
HETATM    6  C17 UNL     1       7.008  -0.385  -1.522  1.00  0.00     0.015 A 
HETATM    7  C18 UNL     1       9.312  -0.582  -2.329  1.00  0.00     0.101 C 
HETATM    8  N4  UNL     1      10.201  -0.157  -2.894  1.00  0.00    -0.191 NA
ENDROOT
BRANCH   1   9
HETATM    9  C11 UNL     1       4.669  -0.140  -0.714  1.00  0.00     0.279 C 
HETATM   10  N3  UNL     1       3.621  -0.650  -0.036  1.00  0.00    -0.208 NA
HETATM   11  O1  UNL     1       4.580   0.955  -1.234  1.00  0.00    -0.265 OA
BRANCH  10  12
HETATM   12  C4  UNL     1       2.403   0.036  -0.012  1.00  0.00     0.083 A 
HETATM   13  C3  UNL     1       2.387   1.425  -0.001  1.00  0.00     0.019 A 
HETATM   14  C2  UNL     1       1.182   2.100   0.023  1.00  0.00     0.002 A 
HETATM   15  C1  UNL     1      -0.007   1.394   0.036  1.00  0.00    -0.000 A 
HETATM   16  C6  UNL     1       0.005   0.012   0.025  1.00  0.00    -0.001 A 
HETATM   17  C5  UNL     1       1.207  -0.669   0.002  1.00  0.00     0.020 A 
BRANCH  17  18
HETATM   18  C7  UNL     1       1.220  -2.176  -0.010  1.00  0.00     0.155 C 
BRANCH  18  19
HETATM   19  N1  UNL     1       1.366  -2.674   1.360  1.00  0.00    -0.245 N 
HETATM   20  C8  UNL     1       0.542  -3.545   1.980  1.00  0.00     0.097 A 
HETATM   21  C9  UNL     1       1.022  -3.748   3.229  1.00  0.00     0.043 A 
HETATM   22  C10 UNL     1       2.178  -2.974   3.377  1.00  0.00     0.122 A 
HETATM   23  N2  UNL     1       2.388  -2.335   2.255  1.00  0.00    -0.168 NA
ENDBRANCH  18  19
ENDBRANCH  17  18
ENDBRANCH  10  12
ENDBRANCH   1   9
TORSDOF 4
