REMARK  4 active torsions:
REMARK  status: ('A' for Active; 'I' for Inactive)
REMARK    1  A    between atoms: C5_6  and  C6_7 
REMARK    2  A    between atoms: C6_7  and  O3_9 
REMARK    3  A    between atoms: O3_9  and  C7_10 
REMARK    4  A    between atoms: C7_10  and  C9_12 
ROOT
HETATM    1  C9  UNL     1       0.805  -1.803   5.724  1.00  0.00     0.107 C 
HETATM    2  C10 UNL     1       2.220  -1.863   5.324  1.00  0.00    -0.075 C 
HETATM    3  C11 UNL     1       3.349  -1.911   5.005  1.00  0.00    -0.014 C 
ENDROOT
BRANCH   1   4
HETATM    4  C7  UNL     1       0.061  -0.817   4.821  1.00  0.00     0.138 C 
HETATM    5  C8  UNL     1      -1.379  -0.660   5.314  1.00  0.00     0.034 C 
BRANCH   4   6
HETATM    6  O3  UNL     1       0.054  -1.311   3.480  1.00  0.00    -0.298 OA
BRANCH   6   7
HETATM    7  C6  UNL     1       0.032  -0.395   2.490  1.00  0.00     0.319 C 
HETATM    8  O2  UNL     1       0.019   0.790   2.759  1.00  0.00    -0.257 OA
BRANCH   7   9
HETATM    9  C5  UNL     1       0.024  -0.830   1.089  1.00  0.00     0.159 A 
HETATM   10  C2  UNL     1       0.002  -0.004   0.002  1.00  0.00     0.011 A 
HETATM   11  C1  UNL     1      -0.018   1.503   0.010  1.00  0.00     0.033 C 
HETATM   12  C3  UNL     1       0.008  -0.840  -1.124  1.00  0.00     0.051 A 
HETATM   13  C4  UNL     1       0.026  -2.151  -0.662  1.00  0.00     0.080 A 
HETATM   14  C15 UNL     1       0.002  -0.525  -2.561  1.00  0.00     0.174 C 
HETATM   15  O1  UNL     1       0.034  -2.114   0.664  1.00  0.00    -0.306 OA
HETATM   16  C12 UNL     1       0.031  -3.344  -1.585  1.00  0.00     0.052 C 
HETATM   17  C13 UNL     1      -0.489  -2.919  -2.961  1.00  0.00     0.013 C 
HETATM   18  C14 UNL     1       0.284  -1.704  -3.482  1.00  0.00     0.070 C 
HETATM   19  C16 UNL     1      -1.973  -2.562  -2.851  1.00  0.00     0.001 C 
HETATM   20  C17 UNL     1      -0.323  -4.081  -3.943  1.00  0.00     0.001 C 
HETATM   21  O4  UNL     1      -0.214   0.592  -2.982  1.00  0.00    -0.291 OA
ENDBRANCH   7   9
ENDBRANCH   6   7
ENDBRANCH   4   6
ENDBRANCH   1   4
TORSDOF 4
