REMARK  5 active torsions:
REMARK  status: ('A' for Active; 'I' for Inactive)
REMARK    1  A    between atoms: C6_6  and  N1_9 
REMARK    2  A    between atoms: C16_19  and  S1_20 
REMARK    3  A    between atoms: S1_20  and  C17_21 
REMARK    4  A    between atoms: C17_21  and  C18_22 
REMARK       I    between atoms: C18_22  and  N3_24 
REMARK    5  A    between atoms: N3_24  and  C19_25 
ROOT
HETATM    1  C19 UNL     1      -7.557  -1.620   0.069  1.00  0.00     0.123 A 
HETATM    2  C20 UNL     1      -8.739  -0.890   0.089  1.00  0.00     0.093 A 
HETATM    3  C21 UNL     1      -9.969  -1.644   0.093  1.00  0.00     0.019 A 
HETATM    4  C22 UNL     1      -9.866  -2.986   0.086  1.00  0.00     0.038 A 
HETATM    5  S2  UNL     1      -8.107  -3.262   0.067  1.00  0.00    -0.067 SA
HETATM    6  C23 UNL     1      -8.736   0.542   0.102  1.00  0.00     0.103 C 
HETATM    7  N4  UNL     1      -8.734   1.678   0.113  1.00  0.00    -0.191 NA
ENDROOT
BRANCH   1   8
HETATM    8  N3  UNL     1      -6.252  -1.148   0.058  1.00  0.00    -0.204 NA
HETATM    9  C18 UNL     1      -5.221  -2.016   0.043  1.00  0.00     0.268 C 
HETATM   10  O2  UNL     1      -5.434  -3.210   0.040  1.00  0.00    -0.269 OA
BRANCH   9  11
HETATM   11  C17 UNL     1      -3.804  -1.504   0.032  1.00  0.00     0.155 C 
BRANCH  11  12
HETATM   12  S1  UNL     1      -2.657  -2.903   0.014  1.00  0.00    -0.067 SA
BRANCH  12  13
HETATM   13  C16 UNL     1      -1.121  -2.039   0.003  1.00  0.00     0.178 A 
HETATM   14  N1  UNL     1       0.037  -2.767  -0.012  1.00  0.00    -0.255 N 
HETATM   15  C9  UNL     1       1.239  -2.146  -0.021  1.00  0.00     0.268 A 
HETATM   16  O1  UNL     1       2.277  -2.781  -0.034  1.00  0.00    -0.267 OA
HETATM   17  C10 UNL     1       1.245  -0.677  -0.013  1.00  0.00     0.074 A 
HETATM   18  C11 UNL     1       2.432   0.055  -0.021  1.00  0.00     0.006 A 
HETATM   19  C15 UNL     1       0.002  -0.004   0.002  1.00  0.00     0.088 A 
HETATM   20  C12 UNL     1       2.381   1.421  -0.013  1.00  0.00     0.000 A 
HETATM   21  C13 UNL     1       1.161   2.086   0.002  1.00  0.00     0.002 A 
HETATM   22  C14 UNL     1      -0.017   1.394   0.010  1.00  0.00     0.019 A 
HETATM   23  N2  UNL     1      -1.141  -0.729   0.009  1.00  0.00    -0.222 NA
BRANCH  14  24
HETATM   24  C6  UNL     1      -0.022  -4.167  -0.019  1.00  0.00     0.064 A 
HETATM   25  C5  UNL     1      -0.040  -4.868   1.179  1.00  0.00     0.017 A 
HETATM   26  C4  UNL     1      -0.098  -6.248   1.169  1.00  0.00     0.001 A 
HETATM   27  C3  UNL     1      -0.139  -6.931  -0.033  1.00  0.00    -0.004 A 
HETATM   28  C2  UNL     1      -0.122  -6.235  -1.228  1.00  0.00    -0.024 A 
HETATM   29  C1  UNL     1      -0.166  -6.983  -2.535  1.00  0.00     0.031 C 
HETATM   30  C7  UNL     1      -0.069  -4.855  -1.224  1.00  0.00    -0.009 A 
HETATM   31  C8  UNL     1      -0.057  -4.098  -2.527  1.00  0.00     0.032 C 
ENDBRANCH  14  24
ENDBRANCH  12  13
ENDBRANCH  11  12
ENDBRANCH   9  11
ENDBRANCH   1   8
TORSDOF 5
