MODEL 1
REMARK VINA RESULT:      -0.0      0.000      0.000
REMARK  0 active torsions:
REMARK  status: ('A' for Active; 'I' for Inactive)
ROOT
ATOM      1  C1  <1> d           1.208   1.488   0.549  0.00  0.00    -0.000 C 
ATOM      2  C2  <1> d           0.442   0.583   1.557  0.00  0.00    -0.000 C 
ENDROOT
TORSDOF 0
ENDMDL
MODEL 2
REMARK VINA RESULT:      -0.0      1.030      1.209
REMARK  0 active torsions:
REMARK  status: ('A' for Active; 'I' for Inactive)
ROOT
ATOM      1  C1  <1> d           0.453   0.556   0.591  0.00  0.00    -0.000 C 
ATOM      2  C2  <1> d           1.499   1.186   1.555  0.00  0.00    -0.000 C 
ENDROOT
TORSDOF 0
ENDMDL
