REMARK  13 active torsions:
REMARK  status: ('A' for Active; 'I' for Inactive)
REMARK       I    between atoms: C2_2  and  N1_4 
REMARK    1  A    between atoms: N1_4  and  C3_5 
REMARK    2  A    between atoms: C3_5  and  C4_6 
REMARK    3  A    between atoms: C3_5  and  C6_10 
REMARK    4  A    between atoms: C4_6  and  C5_7 
REMARK    5  A    between atoms: C7_13  and  C11_19 
REMARK    6  A    between atoms: C9_15  and  C10_16 
REMARK       I    between atoms: C11_19  and  N3_21 
REMARK    7  A    between atoms: N3_21  and  C12_22 
REMARK    8  A    between atoms: C13_23  and  C14_24 
REMARK    9  A    between atoms: C27_39  and  C28_40 
REMARK   10  A    between atoms: C28_40  and  C29_41 
REMARK   11  A    between atoms: C29_41  and  C30_42 
REMARK   12  A    between atoms: C41_59  and  C42_60 
REMARK   13  A    between atoms: C42_60  and  C43_61 
ROOT
HETATM    1  C12 UNL     1       3.000  -2.598   0.000  1.00  0.00     0.124 A 
HETATM    2  C13 UNL     1       1.500  -2.598   0.000  1.00  0.00     0.012 A 
HETATM    3  C20 UNL     1       0.750  -3.897   0.000  1.00  0.00     0.008 A 
HETATM    4  C21 UNL     1      -0.750  -3.897   0.000  1.00  0.00     0.054 A 
HETATM    5  C22 UNL     1      -1.500  -5.196   0.000  1.00  0.00    -0.019 A 
HETATM    6  C23 UNL     1      -0.750  -6.495   0.000  1.00  0.00     0.035 A 
HETATM    7  C24 UNL     1       0.750  -6.495   0.000  1.00  0.00     0.125 A 
HETATM    8  C25 UNL     1       1.500  -5.196   0.000  1.00  0.00     0.121 A 
HETATM    9  C26 UNL     1       3.750  -3.897   0.000  1.00  0.00     0.200 A 
HETATM   10  O8  UNL     1       3.000  -5.196   0.000  1.00  0.00    -0.286 OA
HETATM   11  N4  UNL     1       5.250  -3.897   0.000  1.00  0.00    -0.222 NA
HETATM   12  C27 UNL     1       6.000  -5.196   0.000  1.00  0.00     0.105 A 
HETATM   13  C31 UNL     1       5.250  -6.495   0.000  1.00  0.00     0.226 A 
HETATM   14  O11 UNL     1       3.750  -6.495   0.000  1.00  0.00    -0.168 OA
HETATM   15  N5  UNL     1       6.000  -7.794   0.000  1.00  0.00    -0.220 NA
HETATM   16  C32 UNL     1       5.250  -9.093   0.000  1.00  0.00     0.108 A 
HETATM   17  C33 UNL     1       6.000 -10.392   0.000  1.00  0.00     0.073 A 
HETATM   18  C34 UNL     1       5.250 -11.691   0.000  1.00  0.00    -0.026 A 
HETATM   19  C35 UNL     1       3.750 -11.691   0.000  1.00  0.00     0.036 A 
HETATM   20  C36 UNL     1       3.000 -12.990   0.000  1.00  0.00     0.044 A 
HETATM   21  C37 UNL     1       3.750 -14.289   0.000  1.00  0.00     0.007 A 
HETATM   22  C38 UNL     1       5.250 -14.289   0.000  1.00  0.00     0.005 A 
HETATM   23  C39 UNL     1       6.000 -12.990   0.000  1.00  0.00     0.024 A 
HETATM   24  C40 UNL     1       3.750  -9.093   0.000  1.00  0.00     0.212 A 
HETATM   25  O12 UNL     1       3.000  -7.794   0.000  1.00  0.00    -0.169 OA
HETATM   26  N6  UNL     1       3.000 -10.392   0.000  1.00  0.00    -0.289 N 
HETATM   27  C41 UNL     1       1.500 -10.392   0.000  1.00  0.00     0.093 A 
HETATM   28  C44 UNL     1       0.750  -9.093   0.000  1.00  0.00     0.195 A 
HETATM   29  O13 UNL     1       1.500  -7.794   0.000  1.00  0.00    -0.286 OA
HETATM   30  N7  UNL     1      -0.750  -9.093   0.000  1.00  0.00    -0.225 NA
HETATM   31  C45 UNL     1      -1.500  -7.794   0.000  1.00  0.00     0.067 A 
HETATM   32  C46 UNL     1      -3.000  -7.794   0.000  1.00  0.00     0.068 A 
HETATM   33  C47 UNL     1      -3.750  -6.495   0.000  1.00  0.00    -0.043 A 
HETATM   34  C48 UNL     1      -3.000  -5.196   0.000  1.00  0.00    -0.033 A 
HETATM   35  C49 UNL     1      -3.750  -3.897   0.000  1.00  0.00     0.025 A 
HETATM   36  C50 UNL     1      -5.250  -3.897   0.000  1.00  0.00     0.005 A 
HETATM   37  C51 UNL     1      -6.000  -5.196   0.000  1.00  0.00     0.005 A 
HETATM   38  C52 UNL     1      -5.250  -6.495   0.000  1.00  0.00     0.022 A 
ENDROOT
BRANCH   1  39
HETATM   39  N3  UNL     1       3.750  -1.299   0.000  1.00  0.00    -0.215 NA
HETATM   40  C11 UNL     1       5.250  -1.299   0.000  1.00  0.00     0.227 C 
HETATM   41  O7  UNL     1       6.000  -2.598   0.000  1.00  0.00    -0.168 OA
BRANCH  40  42
HETATM   42  C7  UNL     1       6.000  -0.000   0.000  1.00  0.00     0.108 A 
HETATM   43  N2  UNL     1       5.250   1.299   0.000  1.00  0.00    -0.222 NA
HETATM   44  C6  UNL     1       6.000   2.598   0.000  1.00  0.00     0.193 A 
HETATM   45  O4  UNL     1       7.500   2.598   0.000  1.00  0.00    -0.305 OA
HETATM   46  C9  UNL     1       8.250   1.299   0.000  1.00  0.00     0.215 A 
HETATM   47  C8  UNL     1       7.500  -0.000   0.000  1.00  0.00     0.091 A 
BRANCH  44  48
HETATM   48  C3  UNL     1       5.250   3.897   0.000  1.00  0.00     0.112 C 
BRANCH  48  49
HETATM   49  N1  UNL     1       3.750   3.897   0.000  1.00  0.00    -0.224 NA
HETATM   50  C2  UNL     1       3.000   5.196   0.000  1.00  0.00     0.190 C 
HETATM   51  C1  UNL     1       1.500   5.196   0.000  1.00  0.00     0.083 C 
HETATM   52  O1  UNL     1       3.750   6.495   0.000  1.00  0.00    -0.174 OA
ENDBRANCH  48  49
BRANCH  48  53
HETATM   53  C4  UNL     1       6.000   5.196   0.000  1.00  0.00     0.147 C 
BRANCH  53  54
HETATM   54  C5  UNL     1       7.500   5.196   0.000  1.00  0.00     0.192 C 
HETATM   55  O2  UNL     1       8.250   3.897   0.000  1.00  0.00    -0.647 OA
HETATM   56  O3  UNL     1       8.250   6.495   0.000  1.00  0.00    -0.647 OA
ENDBRANCH  53  54
ENDBRANCH  48  53
ENDBRANCH  44  48
BRANCH  46  57
HETATM   57  C10 UNL     1       9.750   1.299   0.000  1.00  0.00     0.215 C 
HETATM   58  O5  UNL     1      10.500  -0.000   0.000  1.00  0.00    -0.646 OA
HETATM   59  O6  UNL     1      10.500   2.598   0.000  1.00  0.00    -0.646 OA
ENDBRANCH  46  57
ENDBRANCH  40  42
ENDBRANCH   1  39
BRANCH   2  60
HETATM   60  C14 UNL     1       0.750  -1.299   0.000  1.00  0.00    -0.043 A 
HETATM   61  C15 UNL     1       1.500   0.000   0.000  1.00  0.00     0.022 A 
HETATM   62  C16 UNL     1       0.750   1.299   0.000  1.00  0.00     0.004 A 
HETATM   63  C17 UNL     1      -0.750   1.299   0.000  1.00  0.00     0.001 A 
HETATM   64  C18 UNL     1      -1.500   0.000   0.000  1.00  0.00     0.004 A 
HETATM   65  C19 UNL     1      -0.750  -1.299   0.000  1.00  0.00     0.022 A 
ENDBRANCH   2  60
BRANCH  12  66
HETATM   66  C28 UNL     1       7.500  -5.196   0.000  1.00  0.00     0.061 C 
BRANCH  66  67
HETATM   67  C29 UNL     1       8.250  -6.495   0.000  1.00  0.00     0.104 C 
BRANCH  67  68
HETATM   68  C30 UNL     1       9.750  -6.495   0.000  1.00  0.00     0.186 C 
HETATM   69  O9  UNL     1      10.500  -5.196   0.000  1.00  0.00    -0.647 OA
HETATM   70  O10 UNL     1      10.500  -7.794   0.000  1.00  0.00    -0.647 OA
ENDBRANCH  67  68
ENDBRANCH  66  67
ENDBRANCH  12  66
BRANCH  27  71
HETATM   71  C42 UNL     1       0.750 -11.691   0.000  1.00  0.00     0.136 C 
BRANCH  71  72
HETATM   72  C43 UNL     1      -0.750 -11.691   0.000  1.00  0.00     0.262 C 
HETATM   73  F1  UNL     1      -1.500 -12.990   0.000  1.00  0.00    -0.176 F 
HETATM   74  F2  UNL     1      -1.500 -10.392   0.000  1.00  0.00    -0.176 F 
ENDBRANCH  71  72
ENDBRANCH  27  71
TORSDOF 13
