REMARK  21 active torsions:
REMARK  status: ('A' for Active; 'I' for Inactive)
REMARK    1  A    between atoms: O1_2  and  C2_3 
REMARK    2  A    between atoms: C6_7  and  C7_8 
REMARK    3  A    between atoms: C7_8  and  N1_9 
REMARK       I    between atoms: N1_9  and  C8_10 
REMARK    4  A    between atoms: C8_10  and  C9_12 
REMARK    5  A    between atoms: C9_12  and  C10_14 
REMARK    6  A    between atoms: C14_23  and  C15_24 
REMARK    7  A    between atoms: C15_24  and  C16_25 
REMARK    8  A    between atoms: C19_29  and  C20_31 
REMARK    9  A    between atoms: C21_33  and  C22_35 
REMARK       I    between atoms: N5_44  and  C31_45 
REMARK   10  A    between atoms: C31_45  and  C32_47 
REMARK   11  A    between atoms: C32_47  and  C33_48 
REMARK   12  A    between atoms: C32_47  and  N6_53 
REMARK   13  A    between atoms: C33_48  and  C34_49 
REMARK   14  A    between atoms: C34_49  and  C35_50 
REMARK       I    between atoms: N6_53  and  C36_54 
REMARK   15  A    between atoms: C36_54  and  C37_56 
REMARK   16  A    between atoms: C37_56  and  C38_57 
REMARK   17  A    between atoms: C37_56  and  N7_61 
REMARK   18  A    between atoms: C38_57  and  C39_58 
REMARK       I    between atoms: N7_61  and  C40_62 
REMARK   19  A    between atoms: C40_62  and  C41_64 
REMARK   20  A    between atoms: C41_64  and  C42_65 
REMARK   21  A    between atoms: C42_65  and  C43_66 
ROOT
HETATM    1  C20 UNL     1      -8.250   6.495   0.000  1.00  0.00     0.117 A 
HETATM    2  N4  UNL     1      -7.500   5.196   0.000  1.00  0.00    -0.220 NA
HETATM    3  C21 UNL     1      -8.250   3.897   0.000  1.00  0.00     0.203 A 
HETATM    4  O6  UNL     1      -9.750   3.897   0.000  1.00  0.00    -0.251 OA
HETATM    5  C44 UNL     1      -9.750   6.495   0.000  1.00  0.00     0.108 A 
HETATM    6  C45 UNL     1      -9.750   4.995   0.000  1.00  0.00     0.001 A 
HETATM    7  C46 UNL     1      -9.750   7.995   0.000  1.00  0.00     0.021 C 
HETATM    8  C47 UNL     1     -11.250   6.495   0.000  1.00  0.00     0.021 C 
ENDROOT
BRANCH   3   9
HETATM    9  C22 UNL     1      -7.500   2.598   0.000  1.00  0.00     0.085 A 
HETATM   10  C23 UNL     1      -6.000   2.598   0.000  1.00  0.00     0.069 A 
HETATM   11  C24 UNL     1      -5.250   1.299   0.000  1.00  0.00    -0.044 A 
HETATM   12  C25 UNL     1      -3.750   1.299   0.000  1.00  0.00     0.022 A 
HETATM   13  C29 UNL     1      -6.000  -0.000   0.000  1.00  0.00    -0.029 A 
HETATM   14  C26 UNL     1      -3.000   0.000   0.000  1.00  0.00     0.005 A 
HETATM   15  C27 UNL     1      -3.750  -1.299   0.000  1.00  0.00     0.005 A 
HETATM   16  C28 UNL     1      -5.250  -1.299   0.000  1.00  0.00     0.023 A 
HETATM   17  C30 UNL     1      -7.500  -0.000   0.000  1.00  0.00     0.130 A 
HETATM   18  N5  UNL     1      -8.250   1.299   0.000  1.00  0.00    -0.302 N 
HETATM   19  C31 UNL     1      -9.750   1.299   0.000  1.00  0.00     0.208 C 
HETATM   20  O7  UNL     1     -10.500   2.598   0.000  1.00  0.00    -0.170 OA
BRANCH  19  21
HETATM   21  C32 UNL     1     -10.500  -0.000   0.000  1.00  0.00     0.104 C 
BRANCH  21  22
HETATM   22  C33 UNL     1      -9.750  -1.299   0.000  1.00  0.00     0.061 C 
BRANCH  22  23
HETATM   23  C34 UNL     1     -10.500  -2.598   0.000  1.00  0.00     0.104 C 
BRANCH  23  24
HETATM   24  C35 UNL     1      -9.750  -3.897   0.000  1.00  0.00     0.186 C 
HETATM   25  O8  UNL     1      -8.250  -3.897   0.000  1.00  0.00    -0.647 OA
HETATM   26  O9  UNL     1     -10.500  -5.196   0.000  1.00  0.00    -0.647 OA
ENDBRANCH  23  24
ENDBRANCH  22  23
ENDBRANCH  21  22
BRANCH  21  27
HETATM   27  N6  UNL     1     -12.000  -0.000   0.000  1.00  0.00    -0.220 NA
HETATM   28  C36 UNL     1     -12.750   1.299   0.000  1.00  0.00     0.227 C 
HETATM   29  O10 UNL     1     -12.000   2.598   0.000  1.00  0.00    -0.168 OA
BRANCH  28  30
HETATM   30  C37 UNL     1     -14.250   1.299   0.000  1.00  0.00     0.115 C 
BRANCH  30  31
HETATM   31  C38 UNL     1     -15.000   2.598   0.000  1.00  0.00     0.147 C 
BRANCH  31  32
HETATM   32  C39 UNL     1     -16.500   2.598   0.000  1.00  0.00     0.192 C 
HETATM   33  O11 UNL     1     -17.250   1.299   0.000  1.00  0.00    -0.647 OA
HETATM   34  O12 UNL     1     -17.250   3.897   0.000  1.00  0.00    -0.647 OA
ENDBRANCH  31  32
ENDBRANCH  30  31
BRANCH  30  35
HETATM   35  N7  UNL     1     -15.000  -0.000   0.000  1.00  0.00    -0.224 NA
HETATM   36  C40 UNL     1     -14.250  -1.299   0.000  1.00  0.00     0.190 C 
HETATM   37  O13 UNL     1     -12.750  -1.299   0.000  1.00  0.00    -0.174 OA
BRANCH  36  38
HETATM   38  C41 UNL     1     -15.000  -2.598   0.000  1.00  0.00     0.086 C 
BRANCH  38  39
HETATM   39  C42 UNL     1     -14.250  -3.897   0.000  1.00  0.00     0.106 C 
BRANCH  39  40
HETATM   40  C43 UNL     1     -15.000  -5.196   0.000  1.00  0.00     0.186 C 
HETATM   41  O14 UNL     1     -16.500  -5.196   0.000  1.00  0.00    -0.647 OA
HETATM   42  O15 UNL     1     -14.250  -6.495   0.000  1.00  0.00    -0.647 OA
ENDBRANCH  39  40
ENDBRANCH  38  39
ENDBRANCH  36  38
ENDBRANCH  30  35
ENDBRANCH  28  30
ENDBRANCH  21  27
ENDBRANCH  19  21
ENDBRANCH   3   9
BRANCH   1  43
HETATM   43  C19 UNL     1      -7.500   7.794   0.000  1.00  0.00     0.229 A 
HETATM   44  N3  UNL     1      -6.000   7.794   0.000  1.00  0.00    -0.220 NA
HETATM   45  C14 UNL     1      -5.250   9.093   0.000  1.00  0.00     0.105 A 
HETATM   46  C13 UNL     1      -6.000  10.392   0.000  1.00  0.00     0.226 A 
HETATM   47  N2  UNL     1      -7.500  10.392   0.000  1.00  0.00    -0.221 NA
HETATM   48  O4  UNL     1      -5.250  11.691   0.000  1.00  0.00    -0.168 OA
HETATM   49  C10 UNL     1      -8.250  11.691   0.000  1.00  0.00     0.099 A 
HETATM   50  C11 UNL     1      -9.750  11.691   0.000  1.00  0.00     0.151 A 
HETATM   51  C12 UNL     1     -10.500  10.392   0.000  1.00  0.00     0.402 A 
HETATM   52  F1  UNL     1     -11.250   9.093   0.000  1.00  0.00    -0.170 F 
HETATM   53  F2  UNL     1     -11.799  11.142   0.000  1.00  0.00    -0.170 F 
HETATM   54  F3  UNL     1      -9.201   9.642   0.000  1.00  0.00    -0.175 F 
HETATM   55  O5  UNL     1      -8.250   9.093   0.000  1.00  0.00    -0.163 OA
BRANCH  45  56
HETATM   56  C15 UNL     1      -3.750   9.093   0.000  1.00  0.00     0.050 C 
BRANCH  56  57
HETATM   57  C16 UNL     1      -3.000   7.794   0.000  1.00  0.00     0.006 C 
HETATM   58  C17 UNL     1      -1.500   7.794   0.000  1.00  0.00     0.000 C 
HETATM   59  C18 UNL     1      -3.750   6.495   0.000  1.00  0.00     0.000 C 
ENDBRANCH  56  57
ENDBRANCH  45  56
BRANCH  49  60
HETATM   60  C9  UNL     1      -7.500  12.990   0.000  1.00  0.00     0.188 C 
HETATM   61  O3  UNL     1      -6.000  12.990   0.000  1.00  0.00    -0.185 OA
BRANCH  60  62
HETATM   62  C8  UNL     1      -8.250  14.289   0.000  1.00  0.00     0.235 C 
HETATM   63  N1  UNL     1      -7.500  15.588   0.000  1.00  0.00    -0.244 NA
HETATM   64  O2  UNL     1      -9.750  14.289   0.000  1.00  0.00    -0.167 OA
BRANCH  63  65
HETATM   65  C7  UNL     1      -8.250  16.887   0.000  1.00  0.00     0.128 C 
BRANCH  65  66
HETATM   66  C6  UNL     1      -7.500  18.186   0.000  1.00  0.00     0.027 A 
HETATM   67  C5  UNL     1      -8.250  19.486   0.000  1.00  0.00     0.002 A 
HETATM   68  C4  UNL     1      -7.500  20.785   0.000  1.00  0.00     0.003 A 
HETATM   69  C3  UNL     1      -6.000  20.785   0.000  1.00  0.00     0.030 A 
HETATM   70  C2  UNL     1      -5.250  19.486   0.000  1.00  0.00     0.116 A 
HETATM   71  C48 UNL     1      -6.000  18.186   0.000  1.00  0.00     0.032 A 
BRANCH  70  72
HETATM   72  O1  UNL     1      -3.750  19.486   0.000  1.00  0.00    -0.354 OA
HETATM   73  C1  UNL     1      -3.000  20.785   0.000  1.00  0.00     0.174 C 
ENDBRANCH  70  72
ENDBRANCH  65  66
ENDBRANCH  63  65
ENDBRANCH  60  62
ENDBRANCH  49  60
ENDBRANCH   1  43
TORSDOF 21
