REMARK  10 active torsions:
REMARK  status: ('A' for Active; 'I' for Inactive)
REMARK    1  A    between atoms: C2_2  and  C4_4 
REMARK    2  A    between atoms: C4_4  and  N1_5 
REMARK    3  A    between atoms: C4_4  and  C10_14 
REMARK       I    between atoms: N1_5  and  C5_6 
REMARK    4  A    between atoms: C5_6  and  C6_8 
REMARK       I    between atoms: C10_14  and  N4_16 
REMARK    5  A    between atoms: N4_16  and  C11_17 
REMARK    6  A    between atoms: C17_25  and  O6_39 
REMARK    7  A    between atoms: C19_27  and  C20_28 
REMARK       I    between atoms: C20_28  and  N6_30 
REMARK    8  A    between atoms: N6_30  and  C21_31 
REMARK    9  A    between atoms: O6_39  and  C25_40 
REMARK   10  A    between atoms: C25_40  and  C26_41 
ROOT
HETATM    1  C11 UNL     1       5.250  -3.897   0.000  1.00  0.00     0.122 A 
HETATM    2  C12 UNL     1       6.000  -2.598   0.000  1.00  0.00     0.001 A 
HETATM    3  C13 UNL     1       7.500  -2.598   0.000  1.00  0.00     0.017 A 
HETATM    4  C14 UNL     1       5.250  -1.299   0.000  1.00  0.00     0.033 C 
HETATM    5  C15 UNL     1       6.000  -5.196   0.000  1.00  0.00     0.216 A 
HETATM    6  O3  UNL     1       5.250  -6.495   0.000  1.00  0.00    -0.169 OA
HETATM    7  N5  UNL     1       7.500  -5.196   0.000  1.00  0.00    -0.283 N 
HETATM    8  C16 UNL     1       8.382  -3.983   0.000  1.00  0.00     0.084 A 
HETATM    9  C17 UNL     1       9.808  -4.446   0.000  1.00  0.00     0.094 A 
HETATM   10  C18 UNL     1       9.808  -5.946   0.000  1.00  0.00     0.100 A 
HETATM   11  C19 UNL     1       8.382  -6.410   0.000  1.00  0.00     0.093 A 
ENDROOT
BRANCH   1  12
HETATM   12  N4  UNL     1       3.750  -3.897   0.000  1.00  0.00    -0.215 NA
HETATM   13  C10 UNL     1       3.000  -5.196   0.000  1.00  0.00     0.230 C 
HETATM   14  O2  UNL     1       3.750  -6.495   0.000  1.00  0.00    -0.168 OA
BRANCH  13  15
HETATM   15  C4  UNL     1       1.500  -5.196   0.000  1.00  0.00     0.119 C 
BRANCH  15  16
HETATM   16  C2  UNL     1       0.750  -3.897   0.000  1.00  0.00    -0.022 C 
HETATM   17  C1  UNL     1       1.500  -2.598   0.000  1.00  0.00     0.028 C 
HETATM   18  C3  UNL     1      -0.750  -3.897   0.000  1.00  0.00     0.028 C 
ENDBRANCH  15  16
BRANCH  15  19
HETATM   19  N1  UNL     1       0.750  -6.495   0.000  1.00  0.00    -0.216 NA
HETATM   20  C5  UNL     1       1.500  -7.794   0.000  1.00  0.00     0.228 C 
HETATM   21  O1  UNL     1       3.000  -7.794   0.000  1.00  0.00    -0.168 OA
BRANCH  20  22
HETATM   22  C6  UNL     1       0.750  -9.093   0.000  1.00  0.00     0.121 A 
HETATM   23  C7  UNL     1       1.500 -10.392   0.000  1.00  0.00     0.169 A 
HETATM   24  N2  UNL     1       0.750 -11.691   0.000  1.00  0.00    -0.287 NA
HETATM   25  C8  UNL     1      -0.750 -11.691   0.000  1.00  0.00     0.146 A 
HETATM   26  C9  UNL     1      -1.500 -10.392   0.000  1.00  0.00     0.151 A 
HETATM   27  N3  UNL     1      -0.750  -9.093   0.000  1.00  0.00    -0.267 NA
ENDBRANCH  20  22
ENDBRANCH  15  19
ENDBRANCH  13  15
ENDBRANCH   1  12
BRANCH  11  28
HETATM   28  C20 UNL     1       7.918  -7.836   0.000  1.00  0.00     0.225 C 
HETATM   29  O4  UNL     1       6.451  -8.148   0.000  1.00  0.00    -0.168 OA
HETATM   30  N6  UNL     1       8.922  -8.951   0.000  1.00  0.00    -0.225 NA
BRANCH  30  31
HETATM   31  C21 UNL     1       8.458 -10.378   0.000  1.00  0.00     0.081 A 
HETATM   32  C22 UNL     1       9.462 -11.492   0.000  1.00  0.00     0.147 A 
HETATM   33  C23 UNL     1       8.998 -12.919   0.000  1.00  0.00     0.402 A 
HETATM   34  F1  UNL     1       8.535 -14.345   0.000  1.00  0.00    -0.170 F 
HETATM   35  F2  UNL     1      10.425 -13.382   0.000  1.00  0.00    -0.170 F 
HETATM   36  F3  UNL     1       7.572 -12.455   0.000  1.00  0.00    -0.180 F 
HETATM   37  O5  UNL     1       6.528 -12.116   0.000  1.00  0.00    -0.204 OA
HETATM   38  C24 UNL     1       6.991 -10.689   0.000  1.00  0.00     0.226 A 
ENDBRANCH  30  31
ENDBRANCH  11  28
BRANCH   9  39
HETATM   39  O6  UNL     1      11.022  -3.564   0.000  1.00  0.00    -0.333 OA
BRANCH  39  40
HETATM   40  C25 UNL     1      12.392  -4.175   0.000  1.00  0.00     0.148 C 
BRANCH  40  41
HETATM   41  C26 UNL     1      13.606  -3.293   0.000  1.00  0.00     0.030 A 
HETATM   42  C27 UNL     1      14.976  -3.903   0.000  1.00  0.00     0.003 A 
HETATM   43  C28 UNL     1      16.189  -3.021   0.000  1.00  0.00     0.000 A 
HETATM   44  C29 UNL     1      16.033  -1.530   0.000  1.00  0.00     0.000 A 
HETATM   45  C30 UNL     1      14.662  -0.919   0.000  1.00  0.00     0.000 A 
HETATM   46  C31 UNL     1      13.449  -1.801   0.000  1.00  0.00     0.003 A 
ENDBRANCH  40  41
ENDBRANCH  39  40
ENDBRANCH   9  39
TORSDOF 10
