REMARK  21 active torsions:
REMARK  status: ('A' for Active; 'I' for Inactive)
REMARK    1  A    between atoms: C5_5  and  N1_6 
REMARK       I    between atoms: N1_6  and  C6_7 
REMARK    2  A    between atoms: C6_7  and  C7_9 
REMARK    3  A    between atoms: C7_9  and  N2_10 
REMARK    4  A    between atoms: C7_9  and  C31_47 
REMARK       I    between atoms: N2_10  and  C8_11 
REMARK    5  A    between atoms: C8_11  and  C9_13 
REMARK    6  A    between atoms: C9_13  and  C10_14 
REMARK    7  A    between atoms: C9_13  and  N3_22 
REMARK    8  A    between atoms: C10_14  and  C11_15 
REMARK       I    between atoms: N3_22  and  C18_23 
REMARK    9  A    between atoms: C18_23  and  C19_25 
REMARK   10  A    between atoms: C21_27  and  C22_28 
REMARK   11  A    between atoms: C23_32  and  C24_34 
REMARK   12  A    between atoms: C24_34  and  C25_35 
REMARK   13  A    between atoms: C24_34  and  N5_39 
REMARK   14  A    between atoms: C25_35  and  C26_36 
REMARK       I    between atoms: N5_39  and  C27_40 
REMARK   15  A    between atoms: C27_40  and  C28_42 
REMARK   16  A    between atoms: C28_42  and  C29_43 
REMARK   17  A    between atoms: C29_43  and  C30_44 
REMARK   18  A    between atoms: C36_54  and  C39_60 
REMARK   19  A    between atoms: C39_60  and  C40_62 
REMARK       I    between atoms: C40_62  and  N7_64 
REMARK   20  A    between atoms: N7_64  and  C41_65 
REMARK   21  A    between atoms: C41_65  and  C42_66 
ROOT
HETATM    1  N2  UNL     1       5.250  -3.897   0.000  1.00  0.00    -0.220 NA
HETATM    2  C8  UNL     1       3.750  -3.897   0.000  1.00  0.00     0.227 C 
HETATM    3  O2  UNL     1       3.000  -5.196   0.000  1.00  0.00    -0.168 OA
ENDROOT
BRANCH   2   4
HETATM    4  C9  UNL     1       3.000  -2.598   0.000  1.00  0.00     0.109 C 
BRANCH   4   5
HETATM    5  C10 UNL     1       1.500  -2.598   0.000  1.00  0.00     0.071 C 
BRANCH   5   6
HETATM    6  C11 UNL     1       0.750  -1.299   0.000  1.00  0.00    -0.046 A 
HETATM    7  C12 UNL     1       1.500   0.000   0.000  1.00  0.00     0.022 A 
HETATM    8  C13 UNL     1       0.750   1.299   0.000  1.00  0.00     0.005 A 
HETATM    9  C14 UNL     1      -0.750   1.299   0.000  1.00  0.00     0.005 A 
HETATM   10  C15 UNL     1      -1.500   0.000   0.000  1.00  0.00     0.021 A 
HETATM   11  C16 UNL     1      -0.750  -1.299   0.000  1.00  0.00    -0.051 A 
HETATM   12  C17 UNL     1      -1.500  -2.598   0.000  1.00  0.00     0.026 C 
ENDBRANCH   5   6
ENDBRANCH   4   5
BRANCH   4  13
HETATM   13  N3  UNL     1       3.750  -1.299   0.000  1.00  0.00    -0.219 NA
HETATM   14  C18 UNL     1       5.250  -1.299   0.000  1.00  0.00     0.226 C 
HETATM   15  O3  UNL     1       6.000  -2.598   0.000  1.00  0.00    -0.168 OA
BRANCH  14  16
HETATM   16  C19 UNL     1       6.000  -0.000   0.000  1.00  0.00     0.108 A 
HETATM   17  C20 UNL     1       7.500  -0.000   0.000  1.00  0.00     0.091 A 
HETATM   18  C21 UNL     1       8.250   1.299   0.000  1.00  0.00     0.215 A 
HETATM   19  O6  UNL     1       7.500   2.598   0.000  1.00  0.00    -0.305 OA
HETATM   20  C23 UNL     1       6.000   2.598   0.000  1.00  0.00     0.193 A 
HETATM   21  N4  UNL     1       5.250   1.299   0.000  1.00  0.00    -0.222 NA
BRANCH  18  22
HETATM   22  C22 UNL     1       9.750   1.299   0.000  1.00  0.00     0.215 C 
HETATM   23  O4  UNL     1      10.500  -0.000   0.000  1.00  0.00    -0.646 OA
HETATM   24  O5  UNL     1      10.500   2.598   0.000  1.00  0.00    -0.646 OA
ENDBRANCH  18  22
BRANCH  20  25
HETATM   25  C24 UNL     1       5.250   3.897   0.000  1.00  0.00     0.112 C 
BRANCH  25  26
HETATM   26  C25 UNL     1       6.000   5.196   0.000  1.00  0.00     0.147 C 
BRANCH  26  27
HETATM   27  C26 UNL     1       7.500   5.196   0.000  1.00  0.00     0.192 C 
HETATM   28  O7  UNL     1       8.250   3.897   0.000  1.00  0.00    -0.647 OA
HETATM   29  O8  UNL     1       8.250   6.495   0.000  1.00  0.00    -0.647 OA
ENDBRANCH  26  27
ENDBRANCH  25  26
BRANCH  25  30
HETATM   30  N5  UNL     1       3.750   3.897   0.000  1.00  0.00    -0.224 NA
HETATM   31  C27 UNL     1       3.000   5.196   0.000  1.00  0.00     0.190 C 
HETATM   32  O9  UNL     1       3.750   6.495   0.000  1.00  0.00    -0.174 OA
BRANCH  31  33
HETATM   33  C28 UNL     1       1.500   5.196   0.000  1.00  0.00     0.086 C 
BRANCH  33  34
HETATM   34  C29 UNL     1       0.750   6.495   0.000  1.00  0.00     0.106 C 
BRANCH  34  35
HETATM   35  C30 UNL     1      -0.750   6.495   0.000  1.00  0.00     0.186 C 
HETATM   36  O10 UNL     1      -1.500   5.196   0.000  1.00  0.00    -0.647 OA
HETATM   37  O11 UNL     1      -1.500   7.794   0.000  1.00  0.00    -0.647 OA
ENDBRANCH  34  35
ENDBRANCH  33  34
ENDBRANCH  31  33
ENDBRANCH  25  30
ENDBRANCH  20  25
ENDBRANCH  14  16
ENDBRANCH   4  13
ENDBRANCH   2   4
BRANCH   1  38
HETATM   38  C7  UNL     1       6.000  -5.196   0.000  1.00  0.00     0.104 C 
BRANCH  38  39
HETATM   39  C6  UNL     1       5.250  -6.495   0.000  1.00  0.00     0.226 C 
HETATM   40  N1  UNL     1       6.000  -7.794   0.000  1.00  0.00    -0.220 NA
HETATM   41  O1  UNL     1       3.750  -6.495   0.000  1.00  0.00    -0.168 OA
BRANCH  40  42
HETATM   42  C5  UNL     1       5.250  -9.093   0.000  1.00  0.00     0.108 A 
HETATM   43  C4  UNL     1       6.000 -10.392   0.000  1.00  0.00     0.075 A 
HETATM   44  C2  UNL     1       5.250 -11.691   0.000  1.00  0.00     0.004 A 
HETATM   45  C1  UNL     1       6.000 -12.990   0.000  1.00  0.00     0.031 C 
HETATM   46  C3  UNL     1       3.750 -11.691   0.000  1.00  0.00     0.168 A 
HETATM   47  N6  UNL     1       3.000 -10.392   0.000  1.00  0.00    -0.266 N 
HETATM   48  F3  UNL     1       2.799 -12.240   0.000  1.00  0.00    -0.288 F 
HETATM   49  C35 UNL     1       3.750  -9.093   0.000  1.00  0.00     0.214 A 
HETATM   50  C36 UNL     1       1.500 -10.392   0.000  1.00  0.00     0.083 A 
HETATM   51  O12 UNL     1       3.000  -7.794   0.000  1.00  0.00    -0.169 OA
HETATM   52  C37 UNL     1       0.750 -11.691   0.000  1.00  0.00     0.148 A 
HETATM   53  C38 UNL     1       1.500 -12.990   0.000  1.00  0.00     0.383 A 
HETATM   54  F1  UNL     1       2.250 -14.289   0.000  1.00  0.00    -0.172 F 
HETATM   55  F2  UNL     1       0.201 -13.740   0.000  1.00  0.00    -0.172 F 
BRANCH  50  56
HETATM   56  C39 UNL     1       0.750  -9.093   0.000  1.00  0.00     0.186 C 
HETATM   57  O13 UNL     1       1.500  -7.794   0.000  1.00  0.00    -0.185 OA
BRANCH  56  58
HETATM   58  C40 UNL     1      -0.750  -9.093   0.000  1.00  0.00     0.235 C 
HETATM   59  O14 UNL     1      -1.500 -10.392   0.000  1.00  0.00    -0.167 OA
HETATM   60  N7  UNL     1      -1.500  -7.794   0.000  1.00  0.00    -0.244 NA
BRANCH  60  61
HETATM   61  C41 UNL     1      -3.000  -7.794   0.000  1.00  0.00     0.128 C 
BRANCH  61  62
HETATM   62  C42 UNL     1      -3.750  -6.495   0.000  1.00  0.00     0.025 A 
HETATM   63  C43 UNL     1      -3.000  -5.196   0.000  1.00  0.00     0.002 A 
HETATM   64  C44 UNL     1      -3.750  -3.897   0.000  1.00  0.00     0.000 A 
HETATM   65  C45 UNL     1      -5.250  -3.897   0.000  1.00  0.00     0.000 A 
HETATM   66  C46 UNL     1      -6.000  -5.196   0.000  1.00  0.00     0.000 A 
HETATM   67  C47 UNL     1      -5.250  -6.495   0.000  1.00  0.00     0.002 A 
ENDBRANCH  61  62
ENDBRANCH  60  61
ENDBRANCH  56  58
ENDBRANCH  50  56
ENDBRANCH  40  42
ENDBRANCH  38  39
BRANCH  38  68
HETATM   68  C31 UNL     1       7.500  -5.196   0.000  1.00  0.00     0.039 C 
HETATM   69  C32 UNL     1       7.500  -6.696   0.000  1.00  0.00     0.006 C 
HETATM   70  C33 UNL     1       7.500  -3.696   0.000  1.00  0.00     0.006 C 
HETATM   71  C34 UNL     1       9.000  -5.196   0.000  1.00  0.00     0.006 C 
ENDBRANCH  38  68
ENDBRANCH   1  38
TORSDOF 21
