REMARK  9 active torsions:
REMARK  status: ('A' for Active; 'I' for Inactive)
REMARK    1  A    between atoms: C2_2  and  N1_5 
REMARK    2  A    between atoms: N1_5  and  C5_6 
REMARK    3  A    between atoms: C6_9  and  C7_10 
REMARK       I    between atoms: C7_10  and  N3_12 
REMARK    4  A    between atoms: C11_16  and  C12_17 
REMARK       I    between atoms: C12_17  and  N4_19 
REMARK    5  A    between atoms: N4_19  and  C13_20 
REMARK    6  A    between atoms: C13_20  and  C14_21 
REMARK    7  A    between atoms: C13_20  and  C19_26 
REMARK    8  A    between atoms: C14_21  and  C15_22 
REMARK    9  A    between atoms: C19_26  and  C20_28 
ROOT
HETATM    1  C7  UNL     1       2.776   0.000   0.000  1.00  0.00     0.209 C 
HETATM    2  O2  UNL     1       3.526  -1.299   0.000  1.00  0.00    -0.170 OA
HETATM    3  N3  UNL     1       1.276   0.000   0.000  1.00  0.00    -0.306 N 
HETATM    4  C8  UNL     1       0.394   1.214   0.000  1.00  0.00     0.108 A 
HETATM    5  C9  UNL     1      -1.032   0.750   0.000  1.00  0.00     0.031 A 
HETATM    6  C10 UNL     1      -1.032  -0.750   0.000  1.00  0.00     0.050 A 
HETATM    7  C11 UNL     1       0.394  -1.214   0.000  1.00  0.00     0.083 A 
ENDROOT
BRANCH   1   8
HETATM    8  C6  UNL     1       3.526   1.299   0.000  1.00  0.00     0.116 A 
HETATM    9  N2  UNL     1       2.776   2.598   0.000  1.00  0.00    -0.205 NA
HETATM   10  C5  UNL     1       3.526   3.897   0.000  1.00  0.00     0.277 A 
HETATM   11  O1  UNL     1       5.026   3.897   0.000  1.00  0.00    -0.236 OA
HETATM   12  C22 UNL     1       5.026   2.799   0.000  1.00  0.00     0.002 A 
HETATM   13  C21 UNL     1       5.026   1.299   0.000  1.00  0.00     0.108 A 
HETATM   14  C23 UNL     1       5.026  -0.201   0.000  1.00  0.00     0.021 C 
HETATM   15  C24 UNL     1       6.526   1.299   0.000  1.00  0.00     0.021 C 
BRANCH  10  16
HETATM   16  N1  UNL     1       2.776   5.196   0.000  1.00  0.00    -0.235 NA
BRANCH  16  17
HETATM   17  C2  UNL     1       3.526   6.495   0.000  1.00  0.00     0.088 C 
HETATM   18  C1  UNL     1       2.227   7.245   0.000  1.00  0.00     0.025 C 
HETATM   19  C3  UNL     1       4.825   5.745   0.000  1.00  0.00     0.025 C 
HETATM   20  C4  UNL     1       4.276   7.794   0.000  1.00  0.00     0.025 C 
ENDBRANCH  16  17
ENDBRANCH  10  16
ENDBRANCH   1   8
BRANCH   7  21
HETATM   21  C12 UNL     1       0.858  -2.640   0.000  1.00  0.00     0.224 C 
HETATM   22  O3  UNL     1       2.325  -2.952   0.000  1.00  0.00    -0.168 OA
HETATM   23  N4  UNL     1      -0.146  -3.755   0.000  1.00  0.00    -0.221 NA
BRANCH  23  24
HETATM   24  C13 UNL     1       0.318  -5.181   0.000  1.00  0.00     0.090 C 
BRANCH  24  25
HETATM   25  C14 UNL     1      -0.686  -6.296   0.000  1.00  0.00     0.048 C 
BRANCH  25  26
HETATM   26  C15 UNL     1      -2.153  -5.984   0.000  1.00  0.00     0.006 A 
HETATM   27  C16 UNL     1      -3.411  -6.801   0.000  1.00  0.00     0.000 A 
HETATM   28  C17 UNL     1      -4.228  -5.543   0.000  1.00  0.00     0.000 A 
HETATM   29  C18 UNL     1      -2.970  -4.726   0.000  1.00  0.00     0.000 A 
ENDBRANCH  25  26
ENDBRANCH  24  25
BRANCH  24  30
HETATM   30  C19 UNL     1       1.785  -5.493   0.000  1.00  0.00     0.183 C 
HETATM   31  O4  UNL     1       2.789  -4.379   0.000  1.00  0.00    -0.186 OA
BRANCH  30  32
HETATM   32  C20 UNL     1       2.248  -6.920   0.000  1.00  0.00     0.227 C 
HETATM   33  O5  UNL     1       1.245  -8.035   0.000  1.00  0.00    -0.173 OA
HETATM   34  N5  UNL     1       3.716  -7.232   0.000  1.00  0.00    -0.069 NA
ENDBRANCH  30  32
ENDBRANCH  24  30
ENDBRANCH  23  24
ENDBRANCH   7  21
TORSDOF 9
