REMARK  16 active torsions:
REMARK  status: ('A' for Active; 'I' for Inactive)
REMARK    1  A    between atoms: C2_2  and  C3_3 
REMARK    2  A    between atoms: C3_3  and  C4_4 
REMARK    3  A    between atoms: C4_4  and  N1_5 
REMARK    4  A    between atoms: C4_4  and  C42_52 
REMARK       I    between atoms: N1_5  and  C5_6 
REMARK    5  A    between atoms: C5_6  and  C6_8 
REMARK    6  A    between atoms: C6_8  and  N2_9 
REMARK    7  A    between atoms: C6_8  and  C18_25 
REMARK       I    between atoms: N2_9  and  C7_10 
REMARK    8  A    between atoms: C7_10  and  C8_12 
REMARK    9  A    between atoms: C9_14  and  O4_16 
REMARK   10  A    between atoms: O4_16  and  C10_17 
REMARK   11  A    between atoms: C27_36  and  O6_37 
REMARK       I    between atoms: C42_52  and  N5_54 
REMARK   12  A    between atoms: N5_54  and  S1_55 
REMARK   13  A    between atoms: S1_55  and  C43_58 
REMARK   14  A    between atoms: C43_58  and  C44_59 
REMARK   15  A    between atoms: C44_59  and  C45_60 
REMARK   16  A    between atoms: C45_60  and  C46_61 
ROOT
HETATM    1  C6  UNL     1      -6.000  -7.794   0.000  1.00  0.00     0.120 C 
ENDROOT
BRANCH   1   2
HETATM    2  C5  UNL     1      -7.500  -7.794   0.000  1.00  0.00     0.230 C 
HETATM    3  N1  UNL     1      -8.250  -9.093   0.000  1.00  0.00    -0.220 NA
HETATM    4  O1  UNL     1      -8.250  -6.495   0.000  1.00  0.00    -0.168 OA
BRANCH   3   5
HETATM    5  C4  UNL     1      -9.750  -9.093   0.000  1.00  0.00     0.105 C 
BRANCH   5   6
HETATM    6  C3  UNL     1     -10.500 -10.392   0.000  1.00  0.00     0.050 C 
BRANCH   6   7
HETATM    7  C2  UNL     1     -12.000 -10.392   0.000  1.00  0.00     0.006 C 
HETATM    8  C1  UNL     1     -12.750 -11.691   0.000  1.00  0.00     0.000 C 
ENDBRANCH   6   7
ENDBRANCH   5   6
BRANCH   5   9
HETATM    9  C42 UNL     1     -10.500  -7.794   0.000  1.00  0.00     0.237 C 
HETATM   10  O7  UNL     1      -9.750  -6.495   0.000  1.00  0.00    -0.167 OA
HETATM   11  N5  UNL     1     -12.000  -7.794   0.000  1.00  0.00    -0.133 NA
BRANCH  11  12
HETATM   12  S1  UNL     1     -12.750  -6.495   0.000  1.00  0.00     0.267 S 
HETATM   13  O8  UNL     1     -11.451  -5.745   0.000  1.00  0.00    -0.203 OA
HETATM   14  O9  UNL     1     -14.049  -7.245   0.000  1.00  0.00    -0.203 OA
BRANCH  12  15
HETATM   15  C43 UNL     1     -13.500  -5.196   0.000  1.00  0.00     0.146 C 
BRANCH  15  16
HETATM   16  C44 UNL     1     -12.750  -3.897   0.000  1.00  0.00     0.019 C 
BRANCH  16  17
HETATM   17  C45 UNL     1     -13.500  -2.598   0.000  1.00  0.00     0.001 C 
BRANCH  17  18
HETATM   18  C46 UNL     1     -12.750  -1.299   0.000  1.00  0.00     0.000 C 
HETATM   19  C47 UNL     1     -13.500   0.000   0.000  1.00  0.00     0.000 C 
ENDBRANCH  17  18
ENDBRANCH  16  17
ENDBRANCH  15  16
ENDBRANCH  12  15
ENDBRANCH  11  12
ENDBRANCH   5   9
ENDBRANCH   3   5
ENDBRANCH   1   2
BRANCH   1  20
HETATM   20  N2  UNL     1      -5.250  -9.093   0.000  1.00  0.00    -0.216 NA
HETATM   21  C7  UNL     1      -6.000 -10.392   0.000  1.00  0.00     0.228 C 
HETATM   22  O2  UNL     1      -7.500 -10.392   0.000  1.00  0.00    -0.168 OA
BRANCH  21  23
HETATM   23  C8  UNL     1      -5.250 -11.691   0.000  1.00  0.00     0.118 A 
HETATM   24  N3  UNL     1      -3.750 -11.691   0.000  1.00  0.00    -0.200 NA
HETATM   25  C9  UNL     1      -3.000 -12.990   0.000  1.00  0.00     0.301 A 
HETATM   26  O3  UNL     1      -3.750 -14.289   0.000  1.00  0.00    -0.231 OA
HETATM   27  C15 UNL     1      -4.701 -13.740   0.000  1.00  0.00     0.003 A 
HETATM   28  C14 UNL     1      -6.000 -12.990   0.000  1.00  0.00     0.108 A 
HETATM   29  C16 UNL     1      -7.299 -12.240   0.000  1.00  0.00     0.021 C 
HETATM   30  C17 UNL     1      -6.750 -14.289   0.000  1.00  0.00     0.021 C 
BRANCH  25  31
HETATM   31  O4  UNL     1      -1.500 -12.990   0.000  1.00  0.00    -0.300 OA
BRANCH  31  32
HETATM   32  C10 UNL     1      -0.750 -14.289   0.000  1.00  0.00     0.102 C 
HETATM   33  C11 UNL     1       0.549 -13.539   0.000  1.00  0.00     0.030 C 
HETATM   34  C12 UNL     1      -2.049 -15.039   0.000  1.00  0.00     0.030 C 
HETATM   35  C13 UNL     1      -0.000 -15.588   0.000  1.00  0.00     0.030 C 
ENDBRANCH  31  32
ENDBRANCH  25  31
ENDBRANCH  21  23
ENDBRANCH   1  20
BRANCH   1  36
HETATM   36  C18 UNL     1      -5.250  -6.495   0.000  1.00  0.00    -0.018 A 
HETATM   37  C19 UNL     1      -6.000  -5.196   0.000  1.00  0.00     0.031 A 
HETATM   38  C20 UNL     1      -5.250  -3.897   0.000  1.00  0.00     0.056 A 
HETATM   39  C21 UNL     1      -3.750  -3.897   0.000  1.00  0.00     0.074 A 
HETATM   40  O5  UNL     1      -3.000  -2.598   0.000  1.00  0.00    -0.312 OA
HETATM   41  C38 UNL     1      -3.000  -5.196   0.000  1.00  0.00    -0.003 A 
HETATM   42  C22 UNL     1      -1.500  -2.598   0.000  1.00  0.00     0.098 A 
HETATM   43  C23 UNL     1      -0.750  -3.897   0.000  1.00  0.00     0.036 A 
HETATM   44  C31 UNL     1      -0.750  -1.299   0.000  1.00  0.00     0.014 A 
HETATM   45  C24 UNL     1       0.750  -3.897   0.000  1.00  0.00     0.078 A 
HETATM   46  C39 UNL     1      -1.500  -5.196   0.000  1.00  0.00    -0.017 A 
HETATM   47  N4  UNL     1       1.500  -2.598   0.000  1.00  0.00    -0.250 NA
HETATM   48  C32 UNL     1       1.500  -5.196   0.000  1.00  0.00    -0.012 A 
HETATM   49  C25 UNL     1       0.750  -1.299   0.000  1.00  0.00     0.059 A 
HETATM   50  C26 UNL     1       1.500   0.000   0.000  1.00  0.00     0.075 A 
HETATM   51  C27 UNL     1       0.750   1.299   0.000  1.00  0.00     0.122 A 
HETATM   52  C29 UNL     1      -0.750   1.299   0.000  1.00  0.00     0.035 A 
HETATM   53  C30 UNL     1      -1.500   0.000   0.000  1.00  0.00     0.032 A 
HETATM   54  C33 UNL     1       0.750  -6.495   0.000  1.00  0.00    -0.042 A 
HETATM   55  C37 UNL     1       3.000  -5.196   0.000  1.00  0.00     0.027 A 
HETATM   56  C34 UNL     1       1.500  -7.794   0.000  1.00  0.00     0.022 A 
HETATM   57  C40 UNL     1      -0.750  -6.495   0.000  1.00  0.00     0.048 A 
HETATM   58  C35 UNL     1       3.000  -7.794   0.000  1.00  0.00     0.005 A 
HETATM   59  C36 UNL     1       3.750  -6.495   0.000  1.00  0.00     0.005 A 
HETATM   60  C41 UNL     1      -3.750  -6.495   0.000  1.00  0.00     0.051 A 
BRANCH  51  61
HETATM   61  O6  UNL     1       1.500   2.598   0.000  1.00  0.00    -0.354 OA
HETATM   62  C28 UNL     1       3.000   2.598   0.000  1.00  0.00     0.174 C 
ENDBRANCH  51  61
ENDBRANCH   1  36
TORSDOF 16
