REMARK  11 active torsions:
REMARK  status: ('A' for Active; 'I' for Inactive)
REMARK    1  A    between atoms: C4_4  and  N1_5 
REMARK       I    between atoms: N1_5  and  C5_6 
REMARK    2  A    between atoms: C5_6  and  C6_8 
REMARK    3  A    between atoms: C7_9  and  C29_39 
REMARK    4  A    between atoms: C11_15  and  N3_16 
REMARK       I    between atoms: N3_16  and  C12_17 
REMARK    5  A    between atoms: C12_17  and  C13_19 
REMARK    6  A    between atoms: C13_19  and  N4_20 
REMARK    7  A    between atoms: C13_19  and  C19_29 
REMARK       I    between atoms: N4_20  and  C14_21 
REMARK    8  A    between atoms: C14_21  and  C15_23 
REMARK    9  A    between atoms: C29_39  and  C31_41 
REMARK   10  A    between atoms: C34_45  and  N7_47 
REMARK   11  A    between atoms: N7_47  and  C35_48 
ROOT
HETATM    1  C6  UNL     1       8.382  -3.983   0.000  1.00  0.00     0.106 A 
HETATM    2  C7  UNL     1       9.808  -4.446   0.000  1.00  0.00    -0.004 A 
HETATM    3  C8  UNL     1       9.808  -5.946   0.000  1.00  0.00     0.079 A 
HETATM    4  C9  UNL     1       8.382  -6.410   0.000  1.00  0.00     0.078 A 
HETATM    5  N2  UNL     1       7.500  -5.196   0.000  1.00  0.00    -0.279 N 
HETATM    6  C10 UNL     1       6.000  -5.196   0.000  1.00  0.00     0.213 A 
HETATM    7  O2  UNL     1       5.250  -3.897   0.000  1.00  0.00    -0.169 OA
HETATM    8  C11 UNL     1       5.250  -6.495   0.000  1.00  0.00     0.113 A 
HETATM    9  C25 UNL     1       6.000  -7.794   0.000  1.00  0.00     0.087 A 
HETATM   10  C26 UNL     1       7.299  -7.044   0.000  1.00  0.00    -0.111 A 
HETATM   11  C27 UNL     1       4.701  -8.544   0.000  1.00  0.00     0.018 C 
HETATM   12  C28 UNL     1       6.750  -9.093   0.000  1.00  0.00     0.018 C 
ENDROOT
BRANCH   8  13
HETATM   13  N3  UNL     1       3.750  -6.495   0.000  1.00  0.00    -0.219 NA
HETATM   14  C12 UNL     1       3.000  -5.196   0.000  1.00  0.00     0.230 C 
HETATM   15  O3  UNL     1       3.750  -3.897   0.000  1.00  0.00    -0.168 OA
BRANCH  14  16
HETATM   16  C13 UNL     1       1.500  -5.196   0.000  1.00  0.00     0.119 C 
BRANCH  16  17
HETATM   17  N4  UNL     1       0.750  -3.897   0.000  1.00  0.00    -0.216 NA
HETATM   18  C14 UNL     1       1.500  -2.598   0.000  1.00  0.00     0.228 C 
HETATM   19  O4  UNL     1       3.000  -2.598   0.000  1.00  0.00    -0.168 OA
BRANCH  18  20
HETATM   20  C15 UNL     1       0.750  -1.299   0.000  1.00  0.00     0.121 A 
HETATM   21  C16 UNL     1       1.500   0.000   0.000  1.00  0.00     0.169 A 
HETATM   22  N5  UNL     1       0.750   1.299   0.000  1.00  0.00    -0.287 NA
HETATM   23  C17 UNL     1      -0.750   1.299   0.000  1.00  0.00     0.146 A 
HETATM   24  C18 UNL     1      -1.500   0.000   0.000  1.00  0.00     0.151 A 
HETATM   25  N6  UNL     1      -0.750  -1.299   0.000  1.00  0.00    -0.267 NA
ENDBRANCH  18  20
ENDBRANCH  16  17
BRANCH  16  26
HETATM   26  C19 UNL     1       0.750  -6.495   0.000  1.00  0.00    -0.023 A 
HETATM   27  C20 UNL     1      -0.750  -6.495   0.000  1.00  0.00     0.024 A 
HETATM   28  C21 UNL     1      -1.500  -7.794   0.000  1.00  0.00     0.004 A 
HETATM   29  C22 UNL     1      -0.750  -9.093   0.000  1.00  0.00     0.001 A 
HETATM   30  C23 UNL     1       0.750  -9.093   0.000  1.00  0.00     0.004 A 
HETATM   31  C24 UNL     1       1.500  -7.794   0.000  1.00  0.00     0.024 A 
ENDBRANCH  16  26
ENDBRANCH  14  16
ENDBRANCH   8  13
BRANCH   1  32
HETATM   32  C5  UNL     1       7.918  -2.556   0.000  1.00  0.00     0.229 C 
HETATM   33  N1  UNL     1       8.922  -1.441   0.000  1.00  0.00    -0.221 NA
HETATM   34  O1  UNL     1       6.451  -2.244   0.000  1.00  0.00    -0.168 OA
BRANCH  33  35
HETATM   35  C4  UNL     1       8.458  -0.015   0.000  1.00  0.00     0.092 A 
HETATM   36  C3  UNL     1       9.462   1.100   0.000  1.00  0.00     0.078 A 
HETATM   37  C2  UNL     1       8.998   2.527   0.000  1.00  0.00     0.129 A 
HETATM   38  C1  UNL     1      10.002   3.641   0.000  1.00  0.00     0.033 C 
HETATM   39  O6  UNL     1       7.531   2.838   0.000  1.00  0.00    -0.315 OA
HETATM   40  C34 UNL     1       6.528   1.724   0.000  1.00  0.00     0.205 A 
HETATM   41  C33 UNL     1       6.991   0.297   0.000  1.00  0.00     0.185 A 
HETATM   42  O5  UNL     1       5.987  -0.818   0.000  1.00  0.00    -0.185 OA
BRANCH  40  43
HETATM   43  N7  UNL     1       5.060   2.036   0.000  1.00  0.00    -0.229 NA
BRANCH  43  44
HETATM   44  C35 UNL     1       4.597   3.462   0.000  1.00  0.00     0.040 A 
HETATM   45  C36 UNL     1       3.482   4.466   0.000  1.00  0.00     0.047 A 
HETATM   46  C37 UNL     1       4.909   4.929   0.000  1.00  0.00     0.047 A 
ENDBRANCH  43  44
ENDBRANCH  40  43
ENDBRANCH  33  35
ENDBRANCH   1  32
BRANCH   2  47
HETATM   47  C29 UNL     1      11.022  -3.564   0.000  1.00  0.00    -0.046 C 
HETATM   48  C30 UNL     1      12.392  -4.175   0.000  1.00  0.00     0.026 C 
BRANCH  47  49
HETATM   49  C31 UNL     1      10.865  -2.073   0.000  1.00  0.00     0.022 C 
HETATM   50  C32 UNL     1      12.079  -1.191   0.000  1.00  0.00     0.005 C 
ENDBRANCH  47  49
ENDBRANCH   2  47
TORSDOF 11
