REMARK  11 active torsions:
REMARK  status: ('A' for Active; 'I' for Inactive)
REMARK    1  A    between atoms: C6_7  and  O2_9 
REMARK    2  A    between atoms: O2_9  and  C7_10 
REMARK    3  A    between atoms: C7_10  and  C8_11 
REMARK    4  A    between atoms: C8_11  and  C9_12 
REMARK    5  A    between atoms: C12_17  and  C26_38 
REMARK    6  A    between atoms: C22_34  and  C23_35 
REMARK    7  A    between atoms: C23_35  and  C24_36 
REMARK    8  A    between atoms: C29_41  and  O8_42 
REMARK    9  A    between atoms: O8_42  and  C30_43 
REMARK   10  A    between atoms: C32_45  and  C33_46 
REMARK   11  A    between atoms: C35_49  and  C36_51 
ROOT
HETATM    1  C1  UNL     1      -0.750  -7.995   0.000  1.00  0.00     0.028 C 
HETATM    2  C2  UNL     1      -0.750  -6.495   0.000  1.00  0.00     0.218 C 
HETATM    3  C3  UNL     1      -0.750  -4.995   0.000  1.00  0.00     0.026 C 
HETATM    4  C4  UNL     1      -2.250  -6.495   0.000  1.00  0.00    -0.123 C 
HETATM    5  C5  UNL     1       0.750  -6.495   0.000  1.00  0.00     0.142 C 
HETATM    6  N1  UNL     1       1.500  -7.794   0.000  1.00  0.00    -0.198 NA
HETATM    7  C6  UNL     1       0.750  -9.093   0.000  1.00  0.00     0.301 C 
HETATM    8  O1  UNL     1      -0.750  -9.093   0.000  1.00  0.00    -0.229 OA
HETATM    9  C11 UNL     1       1.500  -5.196   0.000  1.00  0.00     0.230 C 
HETATM   10  O3  UNL     1       0.750  -3.897   0.000  1.00  0.00    -0.168 OA
HETATM   11  N2  UNL     1       3.000  -5.196   0.000  1.00  0.00    -0.216 NA
HETATM   12  C12 UNL     1       3.750  -3.897   0.000  1.00  0.00     0.119 C 
HETATM   13  C13 UNL     1       3.000  -2.598   0.000  1.00  0.00     0.230 C 
HETATM   14  O4  UNL     1       3.750  -1.299   0.000  1.00  0.00    -0.168 OA
HETATM   15  N3  UNL     1       1.500  -2.598   0.000  1.00  0.00    -0.223 NA
HETATM   16  C14 UNL     1       0.750  -1.299   0.000  1.00  0.00     0.061 A 
HETATM   17  C15 UNL     1       1.500   0.000   0.000  1.00  0.00     0.046 A 
HETATM   18  C16 UNL     1       0.750   1.299   0.000  1.00  0.00     0.007 A 
HETATM   19  C17 UNL     1      -0.750   1.299   0.000  1.00  0.00     0.005 A 
HETATM   20  C18 UNL     1      -1.500   0.000   0.000  1.00  0.00     0.031 A 
HETATM   21  C19 UNL     1      -0.750  -1.299   0.000  1.00  0.00     0.034 A 
HETATM   22  C20 UNL     1      -1.500  -2.598   0.000  1.00  0.00     0.199 C 
HETATM   23  O5  UNL     1      -0.750  -3.897   0.000  1.00  0.00    -0.249 OA
HETATM   24  N4  UNL     1      -3.000  -2.598   0.000  1.00  0.00    -0.137 NA
HETATM   25  S1  UNL     1      -3.750  -3.897   0.000  1.00  0.00     0.267 S 
HETATM   26  O6  UNL     1      -2.451  -4.647   0.000  1.00  0.00    -0.203 OA
HETATM   27  O7  UNL     1      -5.049  -3.147   0.000  1.00  0.00    -0.203 OA
HETATM   28  C21 UNL     1      -4.500  -5.196   0.000  1.00  0.00     0.158 C 
HETATM   29  C22 UNL     1      -3.750  -6.495   0.000  1.00  0.00     0.072 C 
ENDROOT
BRANCH  12  30
HETATM   30  C26 UNL     1       5.250  -3.897   0.000  1.00  0.00    -0.023 A 
HETATM   31  C27 UNL     1       6.000  -5.196   0.000  1.00  0.00     0.026 A 
HETATM   32  C28 UNL     1       7.500  -5.196   0.000  1.00  0.00     0.035 A 
HETATM   33  C29 UNL     1       8.250  -3.897   0.000  1.00  0.00     0.123 A 
HETATM   34  C42 UNL     1       7.500  -2.598   0.000  1.00  0.00     0.035 A 
HETATM   35  C43 UNL     1       6.000  -2.598   0.000  1.00  0.00     0.026 A 
BRANCH  33  36
HETATM   36  O8  UNL     1       9.750  -3.897   0.000  1.00  0.00    -0.320 OA
BRANCH  36  37
HETATM   37  C30 UNL     1      10.500  -5.196   0.000  1.00  0.00     0.161 A 
HETATM   38  C31 UNL     1       9.750  -6.495   0.000  1.00  0.00     0.113 A 
HETATM   39  C32 UNL     1      10.500  -7.794   0.000  1.00  0.00     0.047 A 
HETATM   40  N5  UNL     1      12.000  -7.794   0.000  1.00  0.00    -0.235 NA
HETATM   41  C35 UNL     1      12.750  -6.495   0.000  1.00  0.00     0.155 A 
HETATM   42  N6  UNL     1      12.000  -5.196   0.000  1.00  0.00    -0.208 NA
BRANCH  39  43
HETATM   43  C33 UNL     1       9.750  -9.093   0.000  1.00  0.00     0.042 C 
HETATM   44  C34 UNL     1       8.250  -9.093   0.000  1.00  0.00     0.006 C 
ENDBRANCH  39  43
BRANCH  41  45
HETATM   45  C36 UNL     1      14.250  -6.495   0.000  1.00  0.00    -0.008 A 
HETATM   46  C37 UNL     1      15.000  -7.794   0.000  1.00  0.00     0.025 A 
HETATM   47  C38 UNL     1      16.500  -7.794   0.000  1.00  0.00     0.004 A 
HETATM   48  C39 UNL     1      17.250  -6.495   0.000  1.00  0.00     0.001 A 
HETATM   49  C40 UNL     1      16.500  -5.196   0.000  1.00  0.00     0.004 A 
HETATM   50  C41 UNL     1      15.000  -5.196   0.000  1.00  0.00     0.025 A 
ENDBRANCH  41  45
ENDBRANCH  36  37
ENDBRANCH  33  36
ENDBRANCH  12  30
BRANCH   7  51
HETATM   51  O2  UNL     1       1.500 -10.392   0.000  1.00  0.00    -0.295 OA
BRANCH  51  52
HETATM   52  C7  UNL     1       0.750 -11.691   0.000  1.00  0.00     0.153 C 
BRANCH  52  53
HETATM   53  C8  UNL     1       1.500 -12.990   0.000  1.00  0.00     0.033 C 
BRANCH  53  54
HETATM   54  C9  UNL     1       0.750 -14.289   0.000  1.00  0.00     0.003 C 
HETATM   55  C10 UNL     1       1.500 -15.588   0.000  1.00  0.00     0.000 C 
ENDBRANCH  53  54
ENDBRANCH  52  53
ENDBRANCH  51  52
ENDBRANCH   7  51
BRANCH  29  56
HETATM   56  C23 UNL     1      -4.500  -7.794   0.000  1.00  0.00     0.013 C 
BRANCH  56  57
HETATM   57  C24 UNL     1      -3.750  -9.093   0.000  1.00  0.00     0.001 C 
HETATM   58  C25 UNL     1      -4.500 -10.392   0.000  1.00  0.00     0.000 C 
ENDBRANCH  56  57
ENDBRANCH  29  56
TORSDOF 11
