REMARK  4 active torsions:
REMARK  status: ('A' for Active; 'I' for Inactive)
REMARK    1  A    between atoms: C2_2  and  C3_3 
REMARK    2  A    between atoms: C2_2  and  C10_12 
REMARK    3  A    between atoms: C15_18  and  C16_19 
REMARK       I    between atoms: C16_19  and  N4_21 
REMARK    4  A    between atoms: N4_21  and  C17_22 
ROOT
HETATM    1  C10 UNL     1       1.299  -5.857   0.000  1.00  0.00     0.142 A 
HETATM    2  N3  UNL     1       1.456  -7.349   0.000  1.00  0.00    -0.232 NA
HETATM    3  C11 UNL     1       2.923  -7.661   0.000  1.00  0.00     0.076 A 
HETATM    4  C12 UNL     1       3.673  -8.960   0.000  1.00  0.00     0.048 A 
HETATM    5  C13 UNL     1       5.173  -8.960   0.000  1.00  0.00     0.011 A 
HETATM    6  C14 UNL     1       5.923  -7.661   0.000  1.00  0.00     0.032 A 
HETATM    7  C15 UNL     1       5.173  -6.362   0.000  1.00  0.00     0.038 A 
HETATM    8  C20 UNL     1       3.673  -6.362   0.000  1.00  0.00     0.074 A 
HETATM    9  N5  UNL     1       2.669  -5.247   0.000  1.00  0.00    -0.310 N 
HETATM   10  C21 UNL     1       2.981  -3.780   0.000  1.00  0.00     0.132 C 
ENDROOT
BRANCH   7  11
HETATM   11  C16 UNL     1       5.923  -5.063   0.000  1.00  0.00     0.210 C 
HETATM   12  O1  UNL     1       5.173  -3.764   0.000  1.00  0.00    -0.170 OA
HETATM   13  N4  UNL     1       7.423  -5.063   0.000  1.00  0.00    -0.220 NA
BRANCH  13  14
HETATM   14  C17 UNL     1       8.173  -3.764   0.000  1.00  0.00     0.126 A 
HETATM   15  C18 UNL     1       9.673  -3.764   0.000  1.00  0.00     0.171 A 
HETATM   16  P1  UNL     1      10.423  -2.465   0.000  1.00  0.00     0.299 P 
HETATM   17  O2  UNL     1      11.173  -1.166   0.000  1.00  0.00    -0.644 OA
HETATM   18  O3  UNL     1      11.722  -3.215   0.000  1.00  0.00    -0.644 OA
HETATM   19  O4  UNL     1       9.124  -1.715   0.000  1.00  0.00    -0.140 OA
HETATM   20  O5  UNL     1       8.173  -1.166   0.000  1.00  0.00    -0.158 OA
HETATM   21  C19 UNL     1       7.423  -2.465   0.000  1.00  0.00     0.275 A 
HETATM   22  O6  UNL     1       5.923  -2.465   0.000  1.00  0.00    -0.159 OA
ENDBRANCH  13  14
ENDBRANCH   7  11
BRANCH   1  23
HETATM   23  C2  UNL     1       0.000  -5.107   0.000  1.00  0.00     0.048 C 
HETATM   24  C1  UNL     1      -1.299  -5.857   0.000  1.00  0.00     0.037 C 
BRANCH  23  25
HETATM   25  C3  UNL     1       0.000  -3.607   0.000  1.00  0.00     0.161 A 
HETATM   26  N1  UNL     1       1.214  -2.726   0.000  1.00  0.00    -0.230 NA
HETATM   27  C4  UNL     1       0.750  -1.299   0.000  1.00  0.00     0.074 A 
HETATM   28  C5  UNL     1       1.500   0.000   0.000  1.00  0.00     0.047 A 
HETATM   29  C9  UNL     1      -0.750  -1.299   0.000  1.00  0.00     0.074 A 
HETATM   30  C6  UNL     1       0.750   1.299   0.000  1.00  0.00     0.007 A 
HETATM   31  C7  UNL     1      -0.750   1.299   0.000  1.00  0.00     0.007 A 
HETATM   32  C8  UNL     1      -1.500   0.000   0.000  1.00  0.00     0.047 A 
HETATM   33  N2  UNL     1      -1.214  -2.726   0.000  1.00  0.00    -0.230 NA
ENDBRANCH  23  25
ENDBRANCH   1  23
TORSDOF 4
