REMARK  11 active torsions:
REMARK  status: ('A' for Active; 'I' for Inactive)
REMARK       I    between atoms: C2_2  and  N1_4 
REMARK    1  A    between atoms: N1_4  and  C3_5 
REMARK    2  A    between atoms: C3_5  and  C4_6 
REMARK    3  A    between atoms: C3_5  and  C6_10 
REMARK    4  A    between atoms: C4_6  and  C5_7 
REMARK    5  A    between atoms: C7_13  and  C11_19 
REMARK    6  A    between atoms: C9_15  and  C10_16 
REMARK       I    between atoms: C11_19  and  N3_21 
REMARK    7  A    between atoms: N3_21  and  C12_22 
REMARK    8  A    between atoms: C13_23  and  C14_24 
REMARK    9  A    between atoms: C27_39  and  C28_40 
REMARK   10  A    between atoms: C28_40  and  C29_41 
REMARK   11  A    between atoms: C29_41  and  C30_42 
ROOT
HETATM    1  C12 UNL     1       3.000  -2.598   0.000  1.00  0.00     0.124 A 
HETATM    2  C13 UNL     1       1.500  -2.598   0.000  1.00  0.00     0.011 A 
HETATM    3  C20 UNL     1       0.750  -3.897   0.000  1.00  0.00     0.004 A 
HETATM    4  C21 UNL     1      -0.750  -3.897   0.000  1.00  0.00     0.035 A 
HETATM    5  C22 UNL     1      -1.500  -5.196   0.000  1.00  0.00     0.059 A 
HETATM    6  C23 UNL     1      -0.750  -6.495   0.000  1.00  0.00     0.105 A 
HETATM    7  C24 UNL     1       0.750  -6.495   0.000  1.00  0.00     0.141 A 
HETATM    8  C25 UNL     1       1.500  -5.196   0.000  1.00  0.00     0.122 A 
HETATM    9  C26 UNL     1       3.750  -3.897   0.000  1.00  0.00     0.200 A 
HETATM   10  O8  UNL     1       3.000  -5.196   0.000  1.00  0.00    -0.286 OA
HETATM   11  N4  UNL     1       5.250  -3.897   0.000  1.00  0.00    -0.222 NA
HETATM   12  C27 UNL     1       6.000  -5.196   0.000  1.00  0.00     0.105 A 
HETATM   13  C31 UNL     1       5.250  -6.495   0.000  1.00  0.00     0.226 A 
HETATM   14  O11 UNL     1       3.750  -6.495   0.000  1.00  0.00    -0.168 OA
HETATM   15  N5  UNL     1       6.000  -7.794   0.000  1.00  0.00    -0.220 NA
HETATM   16  C32 UNL     1       5.250  -9.093   0.000  1.00  0.00     0.108 A 
HETATM   17  C33 UNL     1       6.000 -10.392   0.000  1.00  0.00     0.073 A 
HETATM   18  C34 UNL     1       5.250 -11.691   0.000  1.00  0.00    -0.026 A 
HETATM   19  C35 UNL     1       3.750 -11.691   0.000  1.00  0.00     0.035 A 
HETATM   20  C36 UNL     1       3.000 -12.990   0.000  1.00  0.00     0.044 A 
HETATM   21  C37 UNL     1       3.750 -14.289   0.000  1.00  0.00     0.007 A 
HETATM   22  C38 UNL     1       5.250 -14.289   0.000  1.00  0.00     0.005 A 
HETATM   23  C39 UNL     1       6.000 -12.990   0.000  1.00  0.00     0.024 A 
HETATM   24  C40 UNL     1       3.750  -9.093   0.000  1.00  0.00     0.212 A 
HETATM   25  O12 UNL     1       3.000  -7.794   0.000  1.00  0.00    -0.169 OA
HETATM   26  N6  UNL     1       3.000 -10.392   0.000  1.00  0.00    -0.290 N 
HETATM   27  C41 UNL     1       1.500 -10.392   0.000  1.00  0.00     0.079 A 
HETATM   28  C42 UNL     1       0.750 -11.691   0.000  1.00  0.00     0.134 A 
HETATM   29  C43 UNL     1      -0.750 -11.691   0.000  1.00  0.00     0.260 A 
HETATM   30  F1  UNL     1      -1.500 -12.990   0.000  1.00  0.00    -0.177 F 
HETATM   31  F2  UNL     1      -1.342 -10.905   0.000  1.00  0.00    -0.182 F 
HETATM   32  C44 UNL     1       0.750  -9.093   0.000  1.00  0.00     0.162 A 
HETATM   33  O13 UNL     1       1.500  -7.794   0.000  1.00  0.00    -0.298 OA
HETATM   34  C45 UNL     1      -0.750  -9.093   0.000  1.00  0.00     0.259 A 
HETATM   35  O14 UNL     1      -1.342  -9.879   0.000  1.00  0.00    -0.155 OA
HETATM   36  O15 UNL     1      -1.500  -7.794   0.000  1.00  0.00    -0.284 OA
ENDROOT
BRANCH   1  37
HETATM   37  N3  UNL     1       3.750  -1.299   0.000  1.00  0.00    -0.215 NA
HETATM   38  C11 UNL     1       5.250  -1.299   0.000  1.00  0.00     0.227 C 
HETATM   39  O7  UNL     1       6.000  -2.598   0.000  1.00  0.00    -0.168 OA
BRANCH  38  40
HETATM   40  C7  UNL     1       6.000  -0.000   0.000  1.00  0.00     0.108 A 
HETATM   41  N2  UNL     1       5.250   1.299   0.000  1.00  0.00    -0.222 NA
HETATM   42  C6  UNL     1       6.000   2.598   0.000  1.00  0.00     0.193 A 
HETATM   43  O4  UNL     1       7.500   2.598   0.000  1.00  0.00    -0.305 OA
HETATM   44  C9  UNL     1       8.250   1.299   0.000  1.00  0.00     0.215 A 
HETATM   45  C8  UNL     1       7.500  -0.000   0.000  1.00  0.00     0.091 A 
BRANCH  42  46
HETATM   46  C3  UNL     1       5.250   3.897   0.000  1.00  0.00     0.112 C 
BRANCH  46  47
HETATM   47  N1  UNL     1       3.750   3.897   0.000  1.00  0.00    -0.224 NA
HETATM   48  C2  UNL     1       3.000   5.196   0.000  1.00  0.00     0.190 C 
HETATM   49  C1  UNL     1       1.500   5.196   0.000  1.00  0.00     0.083 C 
HETATM   50  O1  UNL     1       3.750   6.495   0.000  1.00  0.00    -0.174 OA
ENDBRANCH  46  47
BRANCH  46  51
HETATM   51  C4  UNL     1       6.000   5.196   0.000  1.00  0.00     0.147 C 
BRANCH  51  52
HETATM   52  C5  UNL     1       7.500   5.196   0.000  1.00  0.00     0.192 C 
HETATM   53  O2  UNL     1       8.250   3.897   0.000  1.00  0.00    -0.647 OA
HETATM   54  O3  UNL     1       8.250   6.495   0.000  1.00  0.00    -0.647 OA
ENDBRANCH  51  52
ENDBRANCH  46  51
ENDBRANCH  42  46
BRANCH  44  55
HETATM   55  C10 UNL     1       9.750   1.299   0.000  1.00  0.00     0.215 C 
HETATM   56  O5  UNL     1      10.500  -0.000   0.000  1.00  0.00    -0.646 OA
HETATM   57  O6  UNL     1      10.500   2.598   0.000  1.00  0.00    -0.646 OA
ENDBRANCH  44  55
ENDBRANCH  38  40
ENDBRANCH   1  37
BRANCH   2  58
HETATM   58  C14 UNL     1       0.750  -1.299   0.000  1.00  0.00    -0.043 A 
HETATM   59  C15 UNL     1       1.500   0.000   0.000  1.00  0.00     0.022 A 
HETATM   60  C16 UNL     1       0.750   1.299   0.000  1.00  0.00     0.004 A 
HETATM   61  C17 UNL     1      -0.750   1.299   0.000  1.00  0.00     0.001 A 
HETATM   62  C18 UNL     1      -1.500   0.000   0.000  1.00  0.00     0.004 A 
HETATM   63  C19 UNL     1      -0.750  -1.299   0.000  1.00  0.00     0.022 A 
ENDBRANCH   2  58
BRANCH  12  64
HETATM   64  C28 UNL     1       7.500  -5.196   0.000  1.00  0.00     0.061 C 
BRANCH  64  65
HETATM   65  C29 UNL     1       8.250  -6.495   0.000  1.00  0.00     0.104 C 
BRANCH  65  66
HETATM   66  C30 UNL     1       9.750  -6.495   0.000  1.00  0.00     0.186 C 
HETATM   67  O9  UNL     1      10.500  -5.196   0.000  1.00  0.00    -0.647 OA
HETATM   68  O10 UNL     1      10.500  -7.794   0.000  1.00  0.00    -0.647 OA
ENDBRANCH  65  66
ENDBRANCH  64  65
ENDBRANCH  12  64
TORSDOF 11
