REMARK  8 active torsions:
REMARK  status: ('A' for Active; 'I' for Inactive)
REMARK    1  A    between atoms: C6_7  and  C7_9 
REMARK    2  A    between atoms: C7_9  and  N2_10 
REMARK    3  A    between atoms: C7_9  and  C18_23 
REMARK       I    between atoms: N2_10  and  C8_11 
REMARK    4  A    between atoms: C8_11  and  C9_13 
REMARK    5  A    between atoms: C28_35  and  C29_36 
REMARK    6  A    between atoms: C30_39  and  C35_44 
REMARK       I    between atoms: C35_44  and  N6_46 
REMARK    7  A    between atoms: N6_46  and  S1_47 
REMARK    8  A    between atoms: S1_47  and  N7_50 
ROOT
HETATM    1  C1  UNL     1      -6.549   2.049   0.000  1.00  0.00    -0.097 A 
HETATM    2  C2  UNL     1      -5.250   1.299   0.000  1.00  0.00     0.155 A 
HETATM    3  C3  UNL     1      -3.951   0.549   0.000  1.00  0.00     0.013 A 
HETATM    4  C4  UNL     1      -4.500   2.598   0.000  1.00  0.00     0.033 C 
HETATM    5  C5  UNL     1      -6.000   0.000   0.000  1.00  0.00     0.126 A 
HETATM    6  N1  UNL     1      -5.250  -1.299   0.000  1.00  0.00    -0.219 NA
HETATM    7  C6  UNL     1      -3.750  -1.299   0.000  1.00  0.00     0.208 A 
HETATM    8  O1  UNL     1      -3.000   0.000   0.000  1.00  0.00    -0.249 OA
HETATM    9  C24 UNL     1      -7.500   0.000   0.000  1.00  0.00     0.214 A 
HETATM   10  O3  UNL     1      -8.250  -1.299   0.000  1.00  0.00    -0.169 OA
HETATM   11  N4  UNL     1      -8.250   1.299   0.000  1.00  0.00    -0.283 N 
HETATM   12  C25 UNL     1      -7.640   2.669   0.000  1.00  0.00     0.074 A 
HETATM   13  C26 UNL     1      -8.755   3.673   0.000  1.00  0.00     0.046 A 
HETATM   14  C27 UNL     1     -10.054   2.923   0.000  1.00  0.00     0.054 A 
HETATM   15  C28 UNL     1      -9.742   1.456   0.000  1.00  0.00     0.085 A 
HETATM   16  C40 UNL     1      -7.873   4.887   0.000  1.00  0.00     0.006 A 
HETATM   17  C41 UNL     1      -6.525   4.229   0.000  1.00  0.00     0.000 C 
HETATM   18  C42 UNL     1      -7.460   6.329   0.000  1.00  0.00     0.000 C 
HETATM   19  C43 UNL     1      -9.365   5.043   0.000  1.00  0.00     0.006 A 
HETATM   20  C44 UNL     1     -10.846   4.809   0.000  1.00  0.00     0.000 A 
HETATM   21  C45 UNL     1     -11.081   6.290   0.000  1.00  0.00     0.000 A 
HETATM   22  C46 UNL     1      -9.599   6.525   0.000  1.00  0.00     0.000 A 
ENDROOT
BRANCH   7  23
HETATM   23  C7  UNL     1      -3.000  -2.598   0.000  1.00  0.00     0.117 C 
BRANCH  23  24
HETATM   24  N2  UNL     1      -1.500  -2.598   0.000  1.00  0.00    -0.216 NA
HETATM   25  C8  UNL     1      -0.750  -1.299   0.000  1.00  0.00     0.230 C 
HETATM   26  O2  UNL     1      -1.500   0.000   0.000  1.00  0.00    -0.168 OA
BRANCH  25  27
HETATM   27  C9  UNL     1       0.750  -1.299   0.000  1.00  0.00     0.115 A 
HETATM   28  N3  UNL     1       1.500  -2.598   0.000  1.00  0.00    -0.267 NA
HETATM   29  C10 UNL     1       3.000  -2.598   0.000  1.00  0.00     0.130 A 
HETATM   30  C11 UNL     1       3.750  -1.299   0.000  1.00  0.00     0.048 A 
HETATM   31  C12 UNL     1       3.000   0.000   0.000  1.00  0.00    -0.045 A 
HETATM   32  C13 UNL     1       3.750   1.299   0.000  1.00  0.00     0.022 A 
HETATM   33  C17 UNL     1       1.500   0.000   0.000  1.00  0.00    -0.009 A 
HETATM   34  C14 UNL     1       3.000   2.598   0.000  1.00  0.00     0.005 A 
HETATM   35  C15 UNL     1       1.500   2.598   0.000  1.00  0.00     0.005 A 
HETATM   36  C16 UNL     1       0.750   1.299   0.000  1.00  0.00     0.027 A 
ENDBRANCH  25  27
ENDBRANCH  23  24
BRANCH  23  37
HETATM   37  C18 UNL     1      -3.750  -3.897   0.000  1.00  0.00    -0.023 A 
HETATM   38  C19 UNL     1      -5.250  -3.897   0.000  1.00  0.00     0.024 A 
HETATM   39  C20 UNL     1      -6.000  -5.196   0.000  1.00  0.00     0.004 A 
HETATM   40  C21 UNL     1      -5.250  -6.495   0.000  1.00  0.00     0.001 A 
HETATM   41  C22 UNL     1      -3.750  -6.495   0.000  1.00  0.00     0.004 A 
HETATM   42  C23 UNL     1      -3.000  -5.196   0.000  1.00  0.00     0.024 A 
ENDBRANCH  23  37
ENDBRANCH   7  23
BRANCH  15  43
HETATM   43  C29 UNL     1     -10.745   0.341   0.000  1.00  0.00     0.191 A 
HETATM   44  O4  UNL     1     -12.213   0.653   0.000  1.00  0.00    -0.294 OA
HETATM   45  C33 UNL     1     -13.262  -0.081   0.000  1.00  0.00     0.074 A 
HETATM   46  C32 UNL     1     -12.558  -1.405   0.000  1.00  0.00     0.005 A 
HETATM   47  C34 UNL     1     -14.761  -0.029   0.000  1.00  0.00     0.058 C 
HETATM   48  C30 UNL     1     -11.286  -2.200   0.000  1.00  0.00     0.167 A 
HETATM   49  C31 UNL     1     -12.610  -2.904   0.000  1.00  0.00     0.060 A 
HETATM   50  N5  UNL     1     -10.282  -1.085   0.000  1.00  0.00    -0.239 NA
BRANCH  48  51
HETATM   51  C35 UNL     1     -10.362  -3.382   0.000  1.00  0.00     0.226 C 
HETATM   52  O5  UNL     1      -8.877  -3.173   0.000  1.00  0.00    -0.171 OA
HETATM   53  N6  UNL     1     -10.924  -4.773   0.000  1.00  0.00    -0.119 NA
BRANCH  53  54
HETATM   54  S1  UNL     1     -10.001  -5.955   0.000  1.00  0.00     0.346 S 
HETATM   55  O6  UNL     1     -11.183  -6.878   0.000  1.00  0.00    -0.180 OA
HETATM   56  O7  UNL     1      -8.819  -5.032   0.000  1.00  0.00    -0.180 OA
BRANCH  54  57
HETATM   57  N7  UNL     1      -9.077  -7.137   0.000  1.00  0.00    -0.260 N 
HETATM   58  C36 UNL     1      -7.578  -7.085   0.000  1.00  0.00     0.115 A 
HETATM   59  C37 UNL     1      -7.065  -8.494   0.000  1.00  0.00     0.027 A 
HETATM   60  C38 UNL     1      -8.247  -9.418   0.000  1.00  0.00     0.027 A 
HETATM   61  C39 UNL     1      -9.491  -8.579   0.000  1.00  0.00     0.115 A 
ENDBRANCH  54  57
ENDBRANCH  53  54
ENDBRANCH  48  51
ENDBRANCH  15  43
TORSDOF 8
