REMARK  4 active torsions:
REMARK  status: ('A' for Active; 'I' for Inactive)
REMARK    1  A    between atoms: C2_3  and  C13_23 
REMARK    2  A    between atoms: C6_8  and  C9_11 
REMARK       I    between atoms: C9_11  and  N3_13 
REMARK    3  A    between atoms: N3_13  and  C10_14 
REMARK    4  A    between atoms: C13_23  and  C14_25 
ROOT
HETATM    1  C1  UNL     1      -2.640  -3.189   0.000  1.00  0.00     0.132 C 
HETATM    2  N1  UNL     1      -1.214  -2.726   0.000  1.00  0.00    -0.311 N 
HETATM    3  C2  UNL     1      -0.000  -3.607   0.000  1.00  0.00     0.174 A 
HETATM    4  N2  UNL     1       1.214  -2.726   0.000  1.00  0.00    -0.229 NA
HETATM    5  C3  UNL     1       0.750  -1.299   0.000  1.00  0.00     0.073 A 
HETATM    6  C4  UNL     1       1.500   0.000   0.000  1.00  0.00     0.051 A 
HETATM    7  C5  UNL     1       0.750   1.299   0.000  1.00  0.00     0.032 A 
HETATM    8  C6  UNL     1      -0.750   1.299   0.000  1.00  0.00     0.006 A 
HETATM    9  C7  UNL     1      -1.500   0.000   0.000  1.00  0.00     0.071 A 
HETATM   10  C8  UNL     1      -0.750  -1.299   0.000  1.00  0.00     0.056 A 
ENDROOT
BRANCH   8  11
HETATM   11  C9  UNL     1      -1.500   2.598   0.000  1.00  0.00     0.205 C 
HETATM   12  O1  UNL     1      -3.000   2.598   0.000  1.00  0.00    -0.170 OA
HETATM   13  N3  UNL     1      -0.750   3.897   0.000  1.00  0.00    -0.220 NA
BRANCH  13  14
HETATM   14  C10 UNL     1      -1.500   5.196   0.000  1.00  0.00     0.126 A 
HETATM   15  C11 UNL     1      -0.750   6.495   0.000  1.00  0.00     0.171 A 
HETATM   16  P1  UNL     1      -1.500   7.794   0.000  1.00  0.00     0.299 P 
HETATM   17  O2  UNL     1      -2.250   9.093   0.000  1.00  0.00    -0.644 OA
HETATM   18  O3  UNL     1      -0.201   8.544   0.000  1.00  0.00    -0.644 OA
HETATM   19  O4  UNL     1      -2.799   7.044   0.000  1.00  0.00    -0.140 OA
HETATM   20  O5  UNL     1      -3.750   6.495   0.000  1.00  0.00    -0.158 OA
HETATM   21  C12 UNL     1      -3.000   5.196   0.000  1.00  0.00     0.275 A 
HETATM   22  O6  UNL     1      -3.750   3.897   0.000  1.00  0.00    -0.159 OA
ENDBRANCH  13  14
ENDBRANCH   8  11
BRANCH   3  23
HETATM   23  C13 UNL     1      -0.000  -5.107   0.000  1.00  0.00     0.209 C 
HETATM   24  F1  UNL     1       1.299  -5.857   0.000  1.00  0.00    -0.198 F 
BRANCH  23  25
HETATM   25  C14 UNL     1      -1.299  -5.857   0.000  1.00  0.00     0.193 A 
HETATM   26  N4  UNL     1      -2.669  -5.247   0.000  1.00  0.00    -0.228 NA
HETATM   27  C15 UNL     1      -3.673  -6.362   0.000  1.00  0.00     0.074 A 
HETATM   28  C16 UNL     1      -5.173  -6.362   0.000  1.00  0.00     0.047 A 
HETATM   29  C20 UNL     1      -2.923  -7.661   0.000  1.00  0.00     0.074 A 
HETATM   30  C17 UNL     1      -5.923  -7.661   0.000  1.00  0.00     0.007 A 
HETATM   31  C18 UNL     1      -5.173  -8.960   0.000  1.00  0.00     0.007 A 
HETATM   32  C19 UNL     1      -3.673  -8.960   0.000  1.00  0.00     0.047 A 
HETATM   33  N5  UNL     1      -1.456  -7.349   0.000  1.00  0.00    -0.228 NA
ENDBRANCH  23  25
ENDBRANCH   3  23
TORSDOF 4
