REMARK  5 active torsions:
REMARK  status: ('A' for Active; 'I' for Inactive)
REMARK    1  A    between atoms: C5_5  and  N1_6 
REMARK       I    between atoms: N1_6  and  C6_7 
REMARK    2  A    between atoms: C6_7  and  C7_9 
REMARK    3  A    between atoms: C7_9  and  C8_11 
REMARK    4  A    between atoms: C13_19  and  C16_24 
REMARK    5  A    between atoms: C16_24  and  C17_26 
ROOT
HETATM    1  C1  UNL     1       9.526  -3.897   0.000  1.00  0.00     0.031 C 
HETATM    2  C2  UNL     1       8.026  -3.897   0.000  1.00  0.00     0.004 A 
HETATM    3  C3  UNL     1       7.276  -5.196   0.000  1.00  0.00     0.170 A 
HETATM    4  C4  UNL     1       7.276  -2.598   0.000  1.00  0.00     0.075 A 
HETATM    5  C5  UNL     1       5.776  -2.598   0.000  1.00  0.00     0.108 A 
HETATM    6  C12 UNL     1       5.026  -3.897   0.000  1.00  0.00     0.214 A 
HETATM    7  O3  UNL     1       3.526  -3.897   0.000  1.00  0.00    -0.169 OA
HETATM    8  N2  UNL     1       5.776  -5.196   0.000  1.00  0.00    -0.265 N 
HETATM    9  C13 UNL     1       5.026  -6.495   0.000  1.00  0.00     0.086 A 
HETATM   10  C14 UNL     1       5.776  -7.794   0.000  1.00  0.00     0.132 A 
HETATM   11  C15 UNL     1       7.276  -7.794   0.000  1.00  0.00     0.232 A 
HETATM   12  F1  UNL     1       8.026  -9.093   0.000  1.00  0.00    -0.179 F 
HETATM   13  F2  UNL     1       8.026  -6.495   0.000  1.00  0.00    -0.290 F 
ENDROOT
BRANCH   5  14
HETATM   14  N1  UNL     1       5.026  -1.299   0.000  1.00  0.00    -0.219 NA
HETATM   15  C6  UNL     1       3.526  -1.299   0.000  1.00  0.00     0.238 C 
HETATM   16  O1  UNL     1       2.776  -2.598   0.000  1.00  0.00    -0.167 OA
BRANCH  15  17
HETATM   17  C7  UNL     1       2.776   0.000   0.000  1.00  0.00     0.176 C 
HETATM   18  O2  UNL     1       3.526   1.299   0.000  1.00  0.00    -0.186 OA
BRANCH  17  19
HETATM   19  C8  UNL     1       1.276   0.000   0.000  1.00  0.00     0.032 A 
HETATM   20  C9  UNL     1       0.394   1.214   0.000  1.00  0.00     0.036 A 
HETATM   21  C10 UNL     1      -1.032   0.750   0.000  1.00  0.00     0.017 A 
HETATM   22  C11 UNL     1      -1.032  -0.750   0.000  1.00  0.00     0.062 A 
HETATM   23  S1  UNL     1       0.394  -1.214   0.000  1.00  0.00    -0.116 SA
ENDBRANCH  17  19
ENDBRANCH  15  17
ENDBRANCH   5  14
BRANCH   9  24
HETATM   24  C16 UNL     1       3.526  -6.495   0.000  1.00  0.00     0.207 C 
HETATM   25  O4  UNL     1       2.776  -5.196   0.000  1.00  0.00    -0.182 OA
BRANCH  24  26
HETATM   26  C17 UNL     1       2.776  -7.794   0.000  1.00  0.00     0.239 C 
HETATM   27  O5  UNL     1       3.526  -9.093   0.000  1.00  0.00    -0.642 OA
HETATM   28  O6  UNL     1       1.276  -7.794   0.000  1.00  0.00    -0.642 OA
ENDBRANCH  24  26
ENDBRANCH   9  24
TORSDOF 5
