REMARK  15 active torsions:
REMARK  status: ('A' for Active; 'I' for Inactive)
REMARK    1  A    between atoms: C4_4  and  C31_47 
REMARK    2  A    between atoms: C5_6  and  C6_8 
REMARK       I    between atoms: N2_12  and  C10_13 
REMARK    3  A    between atoms: C10_13  and  C11_15 
REMARK    4  A    between atoms: C12_17  and  C13_19 
REMARK    5  A    between atoms: C14_21  and  C15_23 
REMARK    6  A    between atoms: C15_23  and  C16_24 
REMARK    7  A    between atoms: C15_23  and  N5_28 
REMARK    8  A    between atoms: C16_24  and  C17_25 
REMARK    9  A    between atoms: N5_28  and  C18_29 
REMARK   10  A    between atoms: C19_31  and  C20_32 
REMARK   11  A    between atoms: C20_32  and  C21_33 
REMARK   12  A    between atoms: C24_40  and  C26_42 
REMARK   13  A    between atoms: C31_47  and  C32_49 
REMARK       I    between atoms: C32_49  and  N7_51 
REMARK   14  A    between atoms: N7_51  and  C33_52 
REMARK   15  A    between atoms: C33_52  and  C34_53 
ROOT
HETATM    1  C11 UNL     1       6.672 -12.848   0.000  1.00  0.00     0.120 A 
HETATM    2  N3  UNL     1       8.139 -12.536   0.000  1.00  0.00    -0.218 NA
HETATM    3  C12 UNL     1       9.143 -13.651   0.000  1.00  0.00     0.196 A 
HETATM    4  O3  UNL     1       8.679 -15.078   0.000  1.00  0.00    -0.309 OA
HETATM    5  C28 UNL     1       6.208 -14.275   0.000  1.00  0.00     0.007 A 
HETATM    6  C29 UNL     1       7.212 -15.389   0.000  1.00  0.00     0.174 A 
HETATM    7  C30 UNL     1       4.741 -14.586   0.000  1.00  0.00     0.031 C 
ENDROOT
BRANCH   1   8
HETATM    8  C10 UNL     1       5.668 -11.733   0.000  1.00  0.00     0.211 C 
HETATM    9  N2  UNL     1       6.132 -10.307   0.000  1.00  0.00    -0.306 N 
HETATM   10  C6  UNL     1       5.250  -9.093   0.000  1.00  0.00     0.080 A 
HETATM   11  C9  UNL     1       7.558  -9.843   0.000  1.00  0.00     0.108 A 
HETATM   12  C7  UNL     1       6.132  -7.880   0.000  1.00  0.00     0.050 A 
HETATM   13  C8  UNL     1       7.558  -8.343   0.000  1.00  0.00     0.031 A 
HETATM   14  O2  UNL     1       4.201 -12.045   0.000  1.00  0.00    -0.169 OA
BRANCH  10  15
HETATM   15  C5  UNL     1       3.750  -9.093   0.000  1.00  0.00     0.190 A 
HETATM   16  N1  UNL     1       3.000  -7.794   0.000  1.00  0.00    -0.224 NA
HETATM   17  C4  UNL     1       1.500  -7.794   0.000  1.00  0.00     0.092 A 
HETATM   18  C3  UNL     1       0.750  -9.093   0.000  1.00  0.00     0.078 A 
HETATM   19  C2  UNL     1       1.500 -10.392   0.000  1.00  0.00     0.129 A 
HETATM   20  C1  UNL     1       0.750 -11.691   0.000  1.00  0.00     0.033 C 
HETATM   21  O1  UNL     1       3.000 -10.392   0.000  1.00  0.00    -0.316 OA
BRANCH  17  22
HETATM   22  C31 UNL     1       0.750  -6.495   0.000  1.00  0.00     0.188 C 
HETATM   23  O11 UNL     1      -0.750  -6.495   0.000  1.00  0.00    -0.185 OA
BRANCH  22  24
HETATM   24  C32 UNL     1       1.500  -5.196   0.000  1.00  0.00     0.235 C 
HETATM   25  O12 UNL     1       3.000  -5.196   0.000  1.00  0.00    -0.167 OA
HETATM   26  N7  UNL     1       0.750  -3.897   0.000  1.00  0.00    -0.244 NA
BRANCH  26  27
HETATM   27  C33 UNL     1       1.500  -2.598   0.000  1.00  0.00     0.128 C 
BRANCH  27  28
HETATM   28  C34 UNL     1       0.750  -1.299   0.000  1.00  0.00     0.025 A 
HETATM   29  C35 UNL     1       1.500   0.000   0.000  1.00  0.00     0.002 A 
HETATM   30  C36 UNL     1       0.750   1.299   0.000  1.00  0.00     0.000 A 
HETATM   31  C37 UNL     1      -0.750   1.299   0.000  1.00  0.00     0.000 A 
HETATM   32  C38 UNL     1      -1.500   0.000   0.000  1.00  0.00     0.000 A 
HETATM   33  C39 UNL     1      -0.750  -1.299   0.000  1.00  0.00     0.002 A 
ENDBRANCH  27  28
ENDBRANCH  26  27
ENDBRANCH  22  24
ENDBRANCH  17  22
ENDBRANCH  10  15
ENDBRANCH   1   8
BRANCH   3  34
HETATM   34  C13 UNL     1      10.610 -13.339   0.000  1.00  0.00     0.119 A 
HETATM   35  N4  UNL     1      11.073 -11.912   0.000  1.00  0.00    -0.218 NA
HETATM   36  C14 UNL     1      12.541 -11.601   0.000  1.00  0.00     0.193 A 
HETATM   37  O4  UNL     1      13.544 -12.715   0.000  1.00  0.00    -0.309 OA
HETATM   38  C25 UNL     1      13.081 -14.142   0.000  1.00  0.00     0.174 A 
HETATM   39  C24 UNL     1      11.614 -14.454   0.000  1.00  0.00     0.007 A 
BRANCH  36  40
HETATM   40  C15 UNL     1      13.004 -10.174   0.000  1.00  0.00     0.113 C 
BRANCH  40  41
HETATM   41  C16 UNL     1      14.472  -9.862   0.000  1.00  0.00     0.147 C 
BRANCH  41  42
HETATM   42  C17 UNL     1      15.475 -10.977   0.000  1.00  0.00     0.192 C 
HETATM   43  O5  UNL     1      15.012 -12.403   0.000  1.00  0.00    -0.647 OA
HETATM   44  O6  UNL     1      16.942 -10.665   0.000  1.00  0.00    -0.647 OA
ENDBRANCH  41  42
ENDBRANCH  40  41
BRANCH  40  45
HETATM   45  N5  UNL     1      12.001  -9.059   0.000  1.00  0.00    -0.222 NA
BRANCH  45  46
HETATM   46  C18 UNL     1      12.464  -7.633   0.000  1.00  0.00     0.193 A 
HETATM   47  O7  UNL     1      13.931  -7.321   0.000  1.00  0.00    -0.305 OA
HETATM   48  C23 UNL     1      14.395  -5.894   0.000  1.00  0.00     0.224 A 
HETATM   49  C22 UNL     1      13.391  -4.780   0.000  1.00  0.00     0.220 A 
HETATM   50  N6  UNL     1      11.924  -5.091   0.000  1.00  0.00    -0.222 NA
HETATM   51  O10 UNL     1      13.855  -3.353   0.000  1.00  0.00    -0.171 OA
HETATM   52  C19 UNL     1      11.460  -6.518   0.000  1.00  0.00     0.113 A 
BRANCH  52  53
HETATM   53  C20 UNL     1       9.993  -6.830   0.000  1.00  0.00     0.147 C 
BRANCH  53  54
HETATM   54  C21 UNL     1       8.989  -5.715   0.000  1.00  0.00     0.192 C 
HETATM   55  O8  UNL     1       9.453  -4.289   0.000  1.00  0.00    -0.647 OA
HETATM   56  O9  UNL     1       7.522  -6.027   0.000  1.00  0.00    -0.647 OA
ENDBRANCH  53  54
ENDBRANCH  52  53
ENDBRANCH  45  46
ENDBRANCH  40  45
ENDBRANCH  36  40
BRANCH  39  57
HETATM   57  C26 UNL     1      11.150 -15.880   0.000  1.00  0.00     0.026 C 
HETATM   58  C27 UNL     1      12.154 -16.995   0.000  1.00  0.00     0.005 C 
ENDBRANCH  39  57
ENDBRANCH   3  34
TORSDOF 15
