REMARK  8 active torsions:
REMARK  status: ('A' for Active; 'I' for Inactive)
REMARK    1  A    between atoms: O1_2  and  C2_3 
REMARK    2  A    between atoms: C6_7  and  O2_8 
REMARK    3  A    between atoms: O2_8  and  C7_9 
REMARK    4  A    between atoms: C7_9  and  C8_10 
REMARK    5  A    between atoms: C21_26  and  C23_30 
REMARK       I    between atoms: C23_30  and  N4_32 
REMARK    6  A    between atoms: N4_32  and  S1_33 
REMARK    7  A    between atoms: S1_33  and  C24_36 
REMARK    8  A    between atoms: C28_40  and  C31_44 
ROOT
HETATM    1  C8  UNL     1      -5.515  -4.499   0.000  1.00  0.00     0.058 A 
HETATM    2  C9  UNL     1      -4.053  -4.833   0.000  1.00  0.00     0.090 A 
HETATM    3  C10 UNL     1      -3.719  -3.370   0.000  1.00  0.00     0.093 A 
HETATM    4  N1  UNL     1      -5.181  -3.037   0.000  1.00  0.00    -0.277 N 
HETATM    5  C11 UNL     1      -6.354  -2.102   0.000  1.00  0.00     0.267 A 
HETATM    6  O3  UNL     1      -7.527  -3.037   0.000  1.00  0.00    -0.150 OA
HETATM    7  N2  UNL     1      -7.005  -0.750   0.000  1.00  0.00    -0.289 N 
HETATM    8  C12 UNL     1      -8.467  -1.084   0.000  1.00  0.00     0.134 C 
HETATM    9  C13 UNL     1      -7.005   0.750   0.000  1.00  0.00     0.079 A 
HETATM   10  C14 UNL     1      -6.354   2.102   0.000  1.00  0.00     0.019 A 
HETATM   11  C15 UNL     1      -5.181   3.037   0.000  1.00  0.00     0.002 A 
HETATM   12  C16 UNL     1      -3.719   3.370   0.000  1.00  0.00     0.000 A 
HETATM   13  C17 UNL     1      -2.257   3.037   0.000  1.00  0.00    -0.001 A 
HETATM   14  C18 UNL     1      -1.084   2.102   0.000  1.00  0.00    -0.006 A 
HETATM   15  C19 UNL     1      -0.433   0.750   0.000  1.00  0.00    -0.014 A 
HETATM   16  C20 UNL     1       0.866   0.000   0.000  1.00  0.00     0.059 A 
HETATM   17  C21 UNL     1      -0.433  -0.750   0.000  1.00  0.00     0.166 A 
HETATM   18  N3  UNL     1      -1.084  -2.102   0.000  1.00  0.00    -0.237 NA
HETATM   19  C22 UNL     1      -2.257  -3.037   0.000  1.00  0.00     0.222 A 
HETATM   20  O4  UNL     1      -1.606  -4.388   0.000  1.00  0.00    -0.168 OA
ENDROOT
BRANCH   1  21
HETATM   21  C7  UNL     1      -6.785  -5.297   0.000  1.00  0.00     0.188 C 
BRANCH  21  22
HETATM   22  O2  UNL     1      -6.729  -6.796   0.000  1.00  0.00    -0.329 OA
BRANCH  22  23
HETATM   23  C6  UNL     1      -7.999  -7.594   0.000  1.00  0.00     0.075 A 
HETATM   24  C5  UNL     1      -7.943  -9.093   0.000  1.00  0.00     0.010 A 
HETATM   25  C4  UNL     1      -6.617  -9.794   0.000  1.00  0.00     0.032 A 
HETATM   26  C29 UNL     1      -9.213  -9.891   0.000  1.00  0.00     0.059 A 
HETATM   27  C3  UNL     1      -6.561 -11.293   0.000  1.00  0.00     0.035 A 
HETATM   28  C2  UNL     1      -7.831 -12.091   0.000  1.00  0.00     0.122 A 
HETATM   29  C30 UNL     1      -9.157 -11.390   0.000  1.00  0.00     0.075 A 
HETATM   30  N5  UNL     1     -10.539  -9.190   0.000  1.00  0.00    -0.255 NA
HETATM   31  C28 UNL     1     -10.595  -7.691   0.000  1.00  0.00     0.057 A 
HETATM   32  C27 UNL     1      -9.325  -6.893   0.000  1.00  0.00     0.096 A 
BRANCH  28  33
HETATM   33  O1  UNL     1      -7.775 -13.590   0.000  1.00  0.00    -0.354 OA
HETATM   34  C1  UNL     1      -9.045 -14.388   0.000  1.00  0.00     0.174 C 
ENDBRANCH  28  33
BRANCH  31  35
HETATM   35  C31 UNL     1     -11.922  -6.990   0.000  1.00  0.00    -0.030 A 
HETATM   36  C32 UNL     1     -11.978  -5.491   0.000  1.00  0.00     0.023 A 
HETATM   37  C33 UNL     1     -13.304  -4.790   0.000  1.00  0.00     0.004 A 
HETATM   38  C34 UNL     1     -14.574  -5.589   0.000  1.00  0.00     0.001 A 
HETATM   39  C35 UNL     1     -14.518  -7.088   0.000  1.00  0.00     0.004 A 
HETATM   40  C36 UNL     1     -13.192  -7.788   0.000  1.00  0.00     0.023 A 
ENDBRANCH  31  35
ENDBRANCH  22  23
ENDBRANCH  21  22
ENDBRANCH   1  21
BRANCH  17  41
HETATM   41  C23 UNL     1       0.667  -1.770   0.000  1.00  0.00     0.224 C 
HETATM   42  O5  UNL     1       0.333  -3.233   0.000  1.00  0.00    -0.171 OA
HETATM   43  N4  UNL     1       2.100  -1.328   0.000  1.00  0.00    -0.137 NA
BRANCH  43  44
HETATM   44  S1  UNL     1       3.200  -2.348   0.000  1.00  0.00     0.265 S 
HETATM   45  O6  UNL     1       2.179  -3.448   0.000  1.00  0.00    -0.203 OA
HETATM   46  O7  UNL     1       4.220  -1.249   0.000  1.00  0.00    -0.203 OA
BRANCH  44  47
HETATM   47  C24 UNL     1       4.299  -3.369   0.000  1.00  0.00     0.130 A 
HETATM   48  C25 UNL     1       5.761  -3.702   0.000  1.00  0.00     0.019 A 
HETATM   49  C26 UNL     1       4.741  -4.802   0.000  1.00  0.00     0.019 A 
ENDBRANCH  44  47
ENDBRANCH  43  44
ENDBRANCH  17  41
TORSDOF 8
