REMARK  5 active torsions:
REMARK  status: ('A' for Active; 'I' for Inactive)
REMARK    1  A    between atoms: O1_2  and  C2_3 
REMARK    2  A    between atoms: C5_6  and  C8_9 
REMARK    3  A    between atoms: N1_19  and  C16_20 
REMARK    4  A    between atoms: C22_28  and  C25_33 
REMARK    5  A    between atoms: C25_33  and  C26_35 
ROOT
HETATM    1  C8  UNL     1      -3.000   0.000   0.000  1.00  0.00     0.134 A 
HETATM    2  O2  UNL     1      -3.750  -1.299   0.000  1.00  0.00    -0.307 OA
HETATM    3  C9  UNL     1      -5.250  -1.299   0.000  1.00  0.00     0.090 A 
HETATM    4  C10 UNL     1      -6.000   0.000   0.000  1.00  0.00     0.062 A 
HETATM    5  C11 UNL     1      -7.500   0.000   0.000  1.00  0.00     0.046 A 
HETATM    6  C12 UNL     1      -8.250  -1.299   0.000  1.00  0.00     0.007 A 
HETATM    7  C13 UNL     1      -7.500  -2.598   0.000  1.00  0.00     0.007 A 
HETATM    8  C14 UNL     1      -6.000  -2.598   0.000  1.00  0.00     0.053 A 
HETATM    9  C15 UNL     1      -3.750   1.299   0.000  1.00  0.00     0.220 A 
HETATM   10  O3  UNL     1      -3.000   2.598   0.000  1.00  0.00    -0.169 OA
HETATM   11  N1  UNL     1      -5.250   1.299   0.000  1.00  0.00    -0.286 N 
ENDROOT
BRANCH  11  12
HETATM   12  C16 UNL     1      -6.000   2.598   0.000  1.00  0.00     0.089 A 
HETATM   13  C17 UNL     1      -7.500   2.598   0.000  1.00  0.00     0.074 A 
HETATM   14  C18 UNL     1      -8.250   3.897   0.000  1.00  0.00     0.004 A 
HETATM   15  C19 UNL     1      -9.750   3.897   0.000  1.00  0.00     0.031 C 
HETATM   16  C20 UNL     1      -7.500   5.196   0.000  1.00  0.00     0.170 A 
HETATM   17  N2  UNL     1      -6.000   5.196   0.000  1.00  0.00    -0.265 N 
HETATM   18  F2  UNL     1      -8.250   6.495   0.000  1.00  0.00    -0.290 F 
HETATM   19  C21 UNL     1      -5.250   3.897   0.000  1.00  0.00     0.212 A 
HETATM   20  C22 UNL     1      -5.250   6.495   0.000  1.00  0.00     0.086 A 
HETATM   21  O4  UNL     1      -3.750   3.897   0.000  1.00  0.00    -0.169 OA
HETATM   22  C23 UNL     1      -6.000   7.794   0.000  1.00  0.00     0.132 A 
HETATM   23  C24 UNL     1      -7.500   7.794   0.000  1.00  0.00     0.232 A 
HETATM   24  F1  UNL     1      -8.250   9.093   0.000  1.00  0.00    -0.179 F 
BRANCH  20  25
HETATM   25  C25 UNL     1      -3.750   6.495   0.000  1.00  0.00     0.207 C 
HETATM   26  O5  UNL     1      -3.000   5.196   0.000  1.00  0.00    -0.182 OA
BRANCH  25  27
HETATM   27  C26 UNL     1      -3.000   7.794   0.000  1.00  0.00     0.239 C 
HETATM   28  O6  UNL     1      -3.750   9.093   0.000  1.00  0.00    -0.642 OA
HETATM   29  O7  UNL     1      -1.500   7.794   0.000  1.00  0.00    -0.642 OA
ENDBRANCH  25  27
ENDBRANCH  20  25
ENDBRANCH  11  12
BRANCH   1  30
HETATM   30  C5  UNL     1      -1.500   0.000   0.000  1.00  0.00    -0.018 A 
HETATM   31  C4  UNL     1      -0.750  -1.299   0.000  1.00  0.00     0.027 A 
HETATM   32  C3  UNL     1       0.750  -1.299   0.000  1.00  0.00     0.034 A 
HETATM   33  C2  UNL     1       1.500   0.000   0.000  1.00  0.00     0.116 A 
HETATM   34  C7  UNL     1       0.750   1.299   0.000  1.00  0.00     0.034 A 
HETATM   35  C6  UNL     1      -0.750   1.299   0.000  1.00  0.00     0.027 A 
BRANCH  33  36
HETATM   36  O1  UNL     1       3.000   0.000   0.000  1.00  0.00    -0.354 OA
HETATM   37  C1  UNL     1       3.750  -1.299   0.000  1.00  0.00     0.174 C 
ENDBRANCH  33  36
ENDBRANCH   1  30
TORSDOF 5
