REMARK  4 active torsions:
REMARK  status: ('A' for Active; 'I' for Inactive)
REMARK    1  A    between atoms: C2_2  and  C3_3 
REMARK    2  A    between atoms: C2_2  and  C10_12 
REMARK    3  A    between atoms: C14_17  and  C18_22 
REMARK       I    between atoms: C18_22  and  N5_24 
REMARK    4  A    between atoms: N5_24  and  C19_25 
ROOT
HETATM    1  C10 UNL     1       1.299  -5.857   0.000  1.00  0.00     0.142 A 
HETATM    2  N3  UNL     1       1.456  -7.349   0.000  1.00  0.00    -0.232 NA
HETATM    3  C11 UNL     1       2.923  -7.661   0.000  1.00  0.00     0.073 A 
HETATM    4  C12 UNL     1       3.673  -8.960   0.000  1.00  0.00     0.051 A 
HETATM    5  C13 UNL     1       5.173  -8.960   0.000  1.00  0.00     0.032 A 
HETATM    6  C14 UNL     1       5.923  -7.661   0.000  1.00  0.00     0.006 A 
HETATM    7  C15 UNL     1       5.173  -6.362   0.000  1.00  0.00     0.071 A 
HETATM    8  C16 UNL     1       3.673  -6.362   0.000  1.00  0.00     0.056 A 
HETATM    9  N4  UNL     1       2.669  -5.247   0.000  1.00  0.00    -0.313 N 
HETATM   10  C17 UNL     1       2.981  -3.780   0.000  1.00  0.00     0.132 C 
ENDROOT
BRANCH   6  11
HETATM   11  C18 UNL     1       7.423  -7.661   0.000  1.00  0.00     0.205 C 
HETATM   12  O1  UNL     1       8.173  -6.362   0.000  1.00  0.00    -0.170 OA
HETATM   13  N5  UNL     1       8.173  -8.960   0.000  1.00  0.00    -0.220 NA
BRANCH  13  14
HETATM   14  C19 UNL     1       9.673  -8.960   0.000  1.00  0.00     0.126 C 
HETATM   15  C20 UNL     1      10.423 -10.259   0.000  1.00  0.00     0.171 C 
HETATM   16  P1  UNL     1      11.923 -10.259   0.000  1.00  0.00     0.299 P 
HETATM   17  O2  UNL     1      13.423 -10.259   0.000  1.00  0.00    -0.644 OA
HETATM   18  O3  UNL     1      11.923 -11.759   0.000  1.00  0.00    -0.644 OA
HETATM   19  O4  UNL     1      11.923  -8.759   0.000  1.00  0.00    -0.140 OA
HETATM   20  O5  UNL     1      11.923  -7.661   0.000  1.00  0.00    -0.158 OA
HETATM   21  C21 UNL     1      10.423  -7.661   0.000  1.00  0.00     0.275 C 
HETATM   22  O6  UNL     1       9.673  -6.362   0.000  1.00  0.00    -0.159 OA
ENDBRANCH  13  14
ENDBRANCH   6  11
BRANCH   1  23
HETATM   23  C2  UNL     1       0.000  -5.107   0.000  1.00  0.00     0.048 C 
HETATM   24  C1  UNL     1      -1.299  -5.857   0.000  1.00  0.00     0.037 C 
BRANCH  23  25
HETATM   25  C3  UNL     1       0.000  -3.607   0.000  1.00  0.00     0.161 A 
HETATM   26  N1  UNL     1       1.214  -2.726   0.000  1.00  0.00    -0.230 NA
HETATM   27  C4  UNL     1       0.750  -1.299   0.000  1.00  0.00     0.074 A 
HETATM   28  C5  UNL     1       1.500   0.000   0.000  1.00  0.00     0.047 A 
HETATM   29  C9  UNL     1      -0.750  -1.299   0.000  1.00  0.00     0.074 A 
HETATM   30  C6  UNL     1       0.750   1.299   0.000  1.00  0.00     0.007 A 
HETATM   31  C7  UNL     1      -0.750   1.299   0.000  1.00  0.00     0.007 A 
HETATM   32  C8  UNL     1      -1.500   0.000   0.000  1.00  0.00     0.047 A 
HETATM   33  N2  UNL     1      -1.214  -2.726   0.000  1.00  0.00    -0.230 NA
ENDBRANCH  23  25
ENDBRANCH   1  23
TORSDOF 4
