REMARK  10 active torsions:
REMARK  status: ('A' for Active; 'I' for Inactive)
REMARK    1  A    between atoms: C2_2  and  C3_3 
REMARK    2  A    between atoms: C3_3  and  N1_4 
REMARK    3  A    between atoms: C3_3  and  C35_46 
REMARK       I    between atoms: N1_4  and  C4_5 
REMARK    4  A    between atoms: C4_5  and  C5_7 
REMARK    5  A    between atoms: C7_9  and  O5_34 
REMARK       I    between atoms: N2_11  and  C9_12 
REMARK    6  A    between atoms: C9_12  and  C10_14 
REMARK    7  A    between atoms: C11_16  and  C12_18 
REMARK    8  A    between atoms: C13_20  and  C14_22 
REMARK    9  A    between atoms: O5_34  and  C24_35 
REMARK   10  A    between atoms: C24_35  and  C25_36 
ROOT
HETATM    1  C5  UNL     1      -4.255  -8.869   0.000  1.00  0.00     0.085 A 
HETATM    2  C6  UNL     1      -3.140  -7.865   0.000  1.00  0.00     0.079 A 
HETATM    3  C7  UNL     1      -3.750  -6.495   0.000  1.00  0.00     0.144 A 
HETATM    4  C8  UNL     1      -5.242  -6.652   0.000  1.00  0.00     0.138 A 
HETATM    5  N2  UNL     1      -5.554  -8.119   0.000  1.00  0.00    -0.303 N 
HETATM    6  C9  UNL     1      -6.924  -8.729   0.000  1.00  0.00     0.212 C 
HETATM    7  O2  UNL     1      -7.081 -10.221   0.000  1.00  0.00    -0.169 OA
ENDROOT
BRANCH   1   8
HETATM    8  C4  UNL     1      -4.098 -10.361   0.000  1.00  0.00     0.224 C 
HETATM    9  N1  UNL     1      -5.311 -11.243   0.000  1.00  0.00    -0.225 NA
HETATM   10  O1  UNL     1      -2.728 -10.971   0.000  1.00  0.00    -0.168 OA
BRANCH   9  11
HETATM   11  C3  UNL     1      -5.155 -12.734   0.000  1.00  0.00     0.072 C 
BRANCH  11  12
HETATM   12  C2  UNL     1      -6.368 -13.616   0.000  1.00  0.00     0.044 C 
HETATM   13  C1  UNL     1      -6.211 -15.108   0.000  1.00  0.00     0.006 C 
ENDBRANCH  11  12
BRANCH  11  14
HETATM   14  C35 UNL     1      -3.784 -13.345   0.000  1.00  0.00     0.223 C 
HETATM   15  O6  UNL     1      -3.627 -14.836   0.000  1.00  0.00    -0.214 OA
ENDBRANCH  11  14
ENDBRANCH   9  11
ENDBRANCH   1   8
BRANCH   6  16
HETATM   16  C10 UNL     1      -8.137  -7.848   0.000  1.00  0.00     0.120 A 
HETATM   17  N3  UNL     1      -7.981  -6.356   0.000  1.00  0.00    -0.218 NA
HETATM   18  C11 UNL     1      -9.194  -5.474   0.000  1.00  0.00     0.196 A 
HETATM   19  O3  UNL     1     -10.565  -6.084   0.000  1.00  0.00    -0.309 OA
HETATM   20  C22 UNL     1     -10.721  -7.576   0.000  1.00  0.00     0.174 A 
HETATM   21  C21 UNL     1      -9.508  -8.458   0.000  1.00  0.00     0.007 A 
HETATM   22  C23 UNL     1      -9.665  -9.950   0.000  1.00  0.00     0.031 C 
BRANCH  18  23
HETATM   23  C12 UNL     1      -9.037  -3.982   0.000  1.00  0.00     0.119 A 
HETATM   24  N4  UNL     1      -7.667  -3.372   0.000  1.00  0.00    -0.218 NA
HETATM   25  C13 UNL     1      -7.510  -1.881   0.000  1.00  0.00     0.194 A 
HETATM   26  O4  UNL     1      -8.724  -0.999   0.000  1.00  0.00    -0.309 OA
HETATM   27  C19 UNL     1     -10.094  -1.609   0.000  1.00  0.00     0.174 A 
HETATM   28  C18 UNL     1     -10.251  -3.101   0.000  1.00  0.00     0.007 A 
HETATM   29  C20 UNL     1     -11.621  -3.711   0.000  1.00  0.00     0.031 C 
BRANCH  25  30
HETATM   30  C14 UNL     1      -6.140  -1.270   0.000  1.00  0.00     0.119 A 
HETATM   31  C15 UNL     1      -4.926  -2.152   0.000  1.00  0.00     0.169 A 
HETATM   32  N5  UNL     1      -3.556  -1.542   0.000  1.00  0.00    -0.287 NA
HETATM   33  C16 UNL     1      -3.399  -0.050   0.000  1.00  0.00     0.146 A 
HETATM   34  C17 UNL     1      -4.613   0.832   0.000  1.00  0.00     0.151 A 
HETATM   35  N6  UNL     1      -5.983   0.221   0.000  1.00  0.00    -0.267 NA
ENDBRANCH  25  30
ENDBRANCH  18  23
ENDBRANCH   6  16
BRANCH   3  36
HETATM   36  O5  UNL     1      -3.000  -5.196   0.000  1.00  0.00    -0.354 OA
BRANCH  36  37
HETATM   37  C24 UNL     1      -1.500  -5.196   0.000  1.00  0.00     0.143 C 
BRANCH  37  38
HETATM   38  C25 UNL     1      -0.750  -3.897   0.000  1.00  0.00     0.034 A 
HETATM   39  C26 UNL     1       0.750  -3.897   0.000  1.00  0.00     0.007 A 
HETATM   40  C27 UNL     1       1.500  -2.598   0.000  1.00  0.00     0.021 A 
HETATM   41  C28 UNL     1       0.750  -1.299   0.000  1.00  0.00    -0.052 A 
HETATM   42  C29 UNL     1       1.500   0.000   0.000  1.00  0.00     0.021 A 
HETATM   43  C33 UNL     1      -0.750  -1.299   0.000  1.00  0.00    -0.052 A 
HETATM   44  C30 UNL     1       0.750   1.299   0.000  1.00  0.00     0.005 A 
HETATM   45  C31 UNL     1      -0.750   1.299   0.000  1.00  0.00     0.005 A 
HETATM   46  C32 UNL     1      -1.500   0.000   0.000  1.00  0.00     0.021 A 
HETATM   47  C34 UNL     1      -1.500  -2.598   0.000  1.00  0.00     0.024 A 
ENDBRANCH  37  38
ENDBRANCH  36  37
ENDBRANCH   3  36
TORSDOF 10
