REMARK  8 active torsions:
REMARK  status: ('A' for Active; 'I' for Inactive)
REMARK    1  A    between atoms: O1_2  and  C2_3 
REMARK    2  A    between atoms: C6_7  and  O2_8 
REMARK    3  A    between atoms: O2_8  and  C7_9 
REMARK    4  A    between atoms: C21_26  and  C23_30 
REMARK       I    between atoms: C23_30  and  N4_32 
REMARK    5  A    between atoms: N4_32  and  S1_33 
REMARK    6  A    between atoms: S1_33  and  C24_36 
REMARK    7  A    between atoms: C29_41  and  C32_46 
REMARK    8  A    between atoms: C33_48  and  C35_51 
ROOT
HETATM    1  C7  UNL     1      -4.572  -5.805   0.000  1.00  0.00     0.149 A 
HETATM    2  C8  UNL     1      -3.273  -5.055   0.000  1.00  0.00     0.080 A 
HETATM    3  C9  UNL     1      -3.584  -3.587   0.000  1.00  0.00     0.086 A 
HETATM    4  N1  UNL     1      -5.076  -3.431   0.000  1.00  0.00    -0.289 N 
HETATM    5  C10 UNL     1      -5.686  -4.801   0.000  1.00  0.00     0.140 A 
HETATM    6  C11 UNL     1      -6.375  -2.681   0.000  1.00  0.00     0.282 A 
HETATM    7  O3  UNL     1      -7.379  -3.796   0.000  1.00  0.00    -0.149 OA
HETATM    8  N2  UNL     1      -7.257  -1.467   0.000  1.00  0.00    -0.203 NA
HETATM    9  C12 UNL     1      -7.569   0.000   0.000  1.00  0.00     0.103 A 
HETATM   10  C13 UNL     1      -7.257   1.467   0.000  1.00  0.00     0.021 A 
HETATM   11  C14 UNL     1      -6.375   2.681   0.000  1.00  0.00     0.002 A 
HETATM   12  C15 UNL     1      -5.076   3.431   0.000  1.00  0.00     0.000 A 
HETATM   13  C16 UNL     1      -3.584   3.587   0.000  1.00  0.00    -0.000 A 
HETATM   14  C17 UNL     1      -2.158   3.124   0.000  1.00  0.00    -0.001 A 
HETATM   15  C18 UNL     1      -1.043   2.120   0.000  1.00  0.00    -0.006 A 
HETATM   16  C19 UNL     1      -0.433   0.750   0.000  1.00  0.00    -0.014 A 
HETATM   17  C20 UNL     1       0.866   0.000   0.000  1.00  0.00     0.059 A 
HETATM   18  C21 UNL     1      -0.433  -0.750   0.000  1.00  0.00     0.166 A 
HETATM   19  N3  UNL     1      -1.043  -2.120   0.000  1.00  0.00    -0.237 NA
HETATM   20  C22 UNL     1      -2.158  -3.124   0.000  1.00  0.00     0.221 A 
HETATM   21  O4  UNL     1      -1.408  -4.423   0.000  1.00  0.00    -0.168 OA
ENDROOT
BRANCH   1  22
HETATM   22  O2  UNL     1      -4.728  -7.296   0.000  1.00  0.00    -0.335 OA
BRANCH  22  23
HETATM   23  C6  UNL     1      -6.099  -7.907   0.000  1.00  0.00     0.075 A 
HETATM   24  C5  UNL     1      -6.255  -9.398   0.000  1.00  0.00     0.015 A 
HETATM   25  C4  UNL     1      -5.042 -10.280   0.000  1.00  0.00     0.036 A 
HETATM   26  C30 UNL     1      -7.626 -10.008   0.000  1.00  0.00     0.091 A 
HETATM   27  C3  UNL     1      -5.199 -11.772   0.000  1.00  0.00     0.057 A 
HETATM   28  C2  UNL     1      -6.569 -12.382   0.000  1.00  0.00     0.084 A 
HETATM   29  C31 UNL     1      -7.783 -11.500   0.000  1.00  0.00     0.093 A 
HETATM   30 CL1  UNL     1      -9.153 -12.110   0.000  1.00  0.00    -0.079 Cl
HETATM   31  N5  UNL     1      -8.839  -9.127   0.000  1.00  0.00    -0.247 NA
HETATM   32  C29 UNL     1      -8.682  -7.635   0.000  1.00  0.00     0.089 A 
HETATM   33  C28 UNL     1      -7.312  -7.025   0.000  1.00  0.00     0.099 A 
BRANCH  28  34
HETATM   34  O1  UNL     1      -6.726 -13.874   0.000  1.00  0.00    -0.332 OA
HETATM   35  C1  UNL     1      -8.096 -14.484   0.000  1.00  0.00     0.181 C 
ENDBRANCH  28  34
BRANCH  32  36
HETATM   36  C32 UNL     1      -9.896  -6.753   0.000  1.00  0.00     0.120 A 
HETATM   37  N6  UNL     1     -11.323  -7.217   0.000  1.00  0.00    -0.242 NA
HETATM   38  C33 UNL     1     -12.204  -6.003   0.000  1.00  0.00     0.063 A 
HETATM   39  C34 UNL     1     -11.323  -4.790   0.000  1.00  0.00     0.109 A 
HETATM   40  S2  UNL     1      -9.896  -5.253   0.000  1.00  0.00    -0.087 SA
BRANCH  38  41
HETATM   41  C35 UNL     1     -13.704  -6.003   0.000  1.00  0.00    -0.029 C 
HETATM   42  C36 UNL     1     -14.454  -4.704   0.000  1.00  0.00     0.028 C 
HETATM   43  C37 UNL     1     -14.454  -7.302   0.000  1.00  0.00     0.028 C 
ENDBRANCH  38  41
ENDBRANCH  32  36
ENDBRANCH  22  23
ENDBRANCH   1  22
BRANCH  18  44
HETATM   44  C23 UNL     1       0.682  -1.754   0.000  1.00  0.00     0.224 C 
HETATM   45  O5  UNL     1       0.370  -3.221   0.000  1.00  0.00    -0.171 OA
HETATM   46  N4  UNL     1       2.108  -1.290   0.000  1.00  0.00    -0.137 NA
BRANCH  46  47
HETATM   47  S1  UNL     1       3.223  -2.294   0.000  1.00  0.00     0.264 S 
HETATM   48  O6  UNL     1       2.219  -3.409   0.000  1.00  0.00    -0.203 OA
HETATM   49  O7  UNL     1       4.227  -1.179   0.000  1.00  0.00    -0.203 OA
BRANCH  47  50
HETATM   50  C24 UNL     1       4.338  -3.298   0.000  1.00  0.00     0.115 A 
HETATM   51  C25 UNL     1       3.543  -4.570   0.000  1.00  0.00     0.018 C 
HETATM   52  C26 UNL     1       5.729  -3.860   0.000  1.00  0.00     0.018 A 
HETATM   53  C27 UNL     1       5.520  -2.374   0.000  1.00  0.00     0.018 A 
ENDBRANCH  47  50
ENDBRANCH  46  47
ENDBRANCH  18  44
TORSDOF 8
