REMARK  8 active torsions:
REMARK  status: ('A' for Active; 'I' for Inactive)
REMARK    1  A    between atoms: C2_2  and  N1_5 
REMARK       I    between atoms: N1_5  and  C5_6 
REMARK       I    between atoms: C5_6  and  N2_8 
REMARK    2  A    between atoms: N2_8  and  C6_9 
REMARK    3  A    between atoms: C17_22  and  C18_23 
REMARK       I    between atoms: C18_23  and  N4_25 
REMARK    4  A    between atoms: N4_25  and  C19_26 
REMARK    5  A    between atoms: C19_26  and  C20_27 
REMARK    6  A    between atoms: C19_26  and  C24_31 
REMARK    7  A    between atoms: C20_27  and  C21_28 
REMARK    8  A    between atoms: C24_31  and  C25_33 
ROOT
HETATM    1  C6  UNL     1      -0.750  -3.897   0.000  1.00  0.00     0.123 A 
HETATM    2  C7  UNL     1      -1.500  -5.196   0.000  1.00  0.00    -0.004 A 
HETATM    3  C8  UNL     1      -3.000  -5.196   0.000  1.00  0.00     0.028 A 
HETATM    4  C9  UNL     1      -3.750  -6.495   0.000  1.00  0.00     0.005 A 
HETATM    5  C10 UNL     1      -3.000  -7.794   0.000  1.00  0.00     0.005 A 
HETATM    6  C11 UNL     1      -1.500  -7.794   0.000  1.00  0.00     0.027 A 
HETATM    7  C12 UNL     1      -0.750  -6.495   0.000  1.00  0.00    -0.013 A 
HETATM    8  C13 UNL     1       0.750  -3.897   0.000  1.00  0.00     0.215 A 
HETATM    9  O2  UNL     1       1.500  -2.598   0.000  1.00  0.00    -0.169 OA
HETATM   10  N3  UNL     1       1.500  -5.196   0.000  1.00  0.00    -0.289 N 
HETATM   11  C14 UNL     1       0.890  -6.566   0.000  1.00  0.00     0.039 A 
HETATM   12  C15 UNL     1       2.005  -7.570   0.000  1.00  0.00     0.044 A 
HETATM   13  C16 UNL     1       3.304  -6.820   0.000  1.00  0.00     0.048 A 
HETATM   14  C17 UNL     1       2.992  -5.353   0.000  1.00  0.00     0.087 A 
HETATM   15  C26 UNL     1       3.304  -8.320   0.000  1.00  0.00     0.011 A 
HETATM   16  C27 UNL     1       4.781  -8.581   0.000  1.00  0.00     0.001 C 
HETATM   17  C28 UNL     1       2.791  -9.730   0.000  1.00  0.00     0.001 C 
ENDROOT
BRANCH  14  18
HETATM   18  C18 UNL     1       3.995  -4.238   0.000  1.00  0.00     0.225 C 
HETATM   19  O3  UNL     1       3.532  -2.812   0.000  1.00  0.00    -0.168 OA
HETATM   20  N4  UNL     1       5.463  -4.550   0.000  1.00  0.00    -0.221 NA
BRANCH  20  21
HETATM   21  C19 UNL     1       6.466  -3.435   0.000  1.00  0.00     0.090 C 
BRANCH  21  22
HETATM   22  C20 UNL     1       7.934  -3.747   0.000  1.00  0.00     0.048 C 
BRANCH  22  23
HETATM   23  C21 UNL     1       8.397  -5.174   0.000  1.00  0.00     0.006 A 
HETATM   24  C22 UNL     1       8.085  -6.641   0.000  1.00  0.00     0.000 A 
HETATM   25  C23 UNL     1       9.512  -6.178   0.000  1.00  0.00     0.000 A 
ENDBRANCH  22  23
ENDBRANCH  21  22
BRANCH  21  26
HETATM   26  C24 UNL     1       6.003  -2.009   0.000  1.00  0.00     0.183 C 
HETATM   27  O4  UNL     1       4.536  -1.697   0.000  1.00  0.00    -0.186 OA
BRANCH  26  28
HETATM   28  C25 UNL     1       7.007  -0.894   0.000  1.00  0.00     0.227 C 
HETATM   29  O5  UNL     1       8.474  -1.206   0.000  1.00  0.00    -0.173 OA
HETATM   30  N5  UNL     1       6.543   0.532   0.000  1.00  0.00    -0.069 NA
ENDBRANCH  26  28
ENDBRANCH  21  26
ENDBRANCH  20  21
ENDBRANCH  14  18
BRANCH   1  31
HETATM   31  N2  UNL     1      -1.500  -2.598   0.000  1.00  0.00    -0.200 NA
HETATM   32  C5  UNL     1      -0.750  -1.299   0.000  1.00  0.00     0.296 C 
HETATM   33  N1  UNL     1      -1.500  -0.000   0.000  1.00  0.00    -0.234 NA
HETATM   34  O1  UNL     1       0.750  -1.299   0.000  1.00  0.00    -0.147 OA
BRANCH  33  35
HETATM   35  C2  UNL     1      -0.750   1.299   0.000  1.00  0.00     0.088 C 
HETATM   36  C1  UNL     1      -2.049   2.049   0.000  1.00  0.00     0.025 C 
HETATM   37  C3  UNL     1       0.549   0.549   0.000  1.00  0.00     0.025 C 
HETATM   38  C4  UNL     1      -0.000   2.598   0.000  1.00  0.00     0.025 C 
ENDBRANCH  33  35
ENDBRANCH   1  31
TORSDOF 8
