REMARK  8 active torsions:
REMARK  status: ('A' for Active; 'I' for Inactive)
REMARK    1  A    between atoms: C2_2  and  C3_3 
REMARK    2  A    between atoms: C3_3  and  N1_4 
REMARK    3  A    between atoms: N1_4  and  C4_5 
REMARK    4  A    between atoms: N1_4  and  S1_7 
REMARK    5  A    between atoms: S1_7  and  N2_10 
REMARK       I    between atoms: N2_10  and  C6_11 
REMARK    6  A    between atoms: C6_11  and  C7_13 
REMARK    7  A    between atoms: C12_19  and  C13_21 
REMARK    8  A    between atoms: N7_40  and  C26_41 
ROOT
HETATM    1  C13 UNL     1       2.374  -4.163   0.000  1.00  0.00     0.080 A 
HETATM    2  C14 UNL     1       0.907  -3.852   0.000  1.00  0.00     0.049 A 
HETATM    3  C15 UNL     1       0.750  -2.360   0.000  1.00  0.00     0.027 A 
HETATM    4  C16 UNL     1       2.120  -1.750   0.000  1.00  0.00     0.108 A 
HETATM    5  N4  UNL     1       3.124  -2.864   0.000  1.00  0.00    -0.306 N 
HETATM    6  C17 UNL     1       4.616  -2.708   0.000  1.00  0.00     0.209 A 
HETATM    7  O5  UNL     1       5.497  -3.921   0.000  1.00  0.00    -0.170 OA
HETATM    8  C18 UNL     1       5.226  -1.337   0.000  1.00  0.00     0.115 A 
HETATM    9  N5  UNL     1       4.344  -0.124   0.000  1.00  0.00    -0.220 NA
HETATM   10  C19 UNL     1       4.954   1.247   0.000  1.00  0.00     0.209 A 
HETATM   11  O6  UNL     1       6.446   1.403   0.000  1.00  0.00    -0.250 OA
HETATM   12  C20 UNL     1       4.073   2.460   0.000  1.00  0.00     0.123 A 
HETATM   13  N6  UNL     1       2.581   2.303   0.000  1.00  0.00    -0.217 NA
HETATM   14  C21 UNL     1       1.699   3.517   0.000  1.00  0.00     0.198 A 
HETATM   15  O7  UNL     1       2.309   4.887   0.000  1.00  0.00    -0.293 OA
HETATM   16  C22 UNL     1       0.207   3.360   0.000  1.00  0.00     0.093 A 
HETATM   17  C23 UNL     1      -0.543   2.061   0.000  1.00  0.00    -0.009 A 
HETATM   18  C24 UNL     1      -2.010   2.373   0.000  1.00  0.00     0.051 A 
HETATM   19  C25 UNL     1      -2.167   3.865   0.000  1.00  0.00     0.106 A 
HETATM   20  N7  UNL     1      -0.796   4.475   0.000  1.00  0.00    -0.345 N 
HETATM   21  C28 UNL     1       4.683   3.830   0.000  1.00  0.00     0.018 A 
HETATM   22  C29 UNL     1       6.175   3.987   0.000  1.00  0.00     0.030 A 
HETATM   23  C30 UNL     1       6.785   5.358   0.000  1.00  0.00     0.005 A 
HETATM   24  C31 UNL     1       5.903   6.571   0.000  1.00  0.00     0.007 A 
HETATM   25  C32 UNL     1       4.411   6.414   0.000  1.00  0.00     0.051 A 
HETATM   26  C33 UNL     1       3.801   5.044   0.000  1.00  0.00     0.077 A 
HETATM   27  C34 UNL     1       6.718  -1.180   0.000  1.00  0.00     0.108 A 
HETATM   28  C35 UNL     1       6.561   0.311   0.000  1.00  0.00     0.001 A 
HETATM   29  C36 UNL     1       6.875  -2.672   0.000  1.00  0.00     0.021 C 
HETATM   30  C37 UNL     1       8.210  -1.024   0.000  1.00  0.00     0.021 C 
HETATM   31  C38 UNL     1      -0.750  -2.360   0.000  1.00  0.00     0.003 A 
HETATM   32  C39 UNL     1      -1.010  -3.837   0.000  1.00  0.00     0.000 C 
HETATM   33  C40 UNL     1      -2.159  -1.847   0.000  1.00  0.00     0.000 C 
HETATM   34  C41 UNL     1      -0.000  -1.061   0.000  1.00  0.00     0.010 A 
HETATM   35  C42 UNL     1       1.061   0.000   0.000  1.00  0.00     0.022 A 
HETATM   36  C43 UNL     1       0.000   1.061   0.000  1.00  0.00    -0.047 A 
HETATM   37  C44 UNL     1      -1.061   0.000   0.000  1.00  0.00     0.022 A 
ENDROOT
BRANCH   1  38
HETATM   38  C12 UNL     1       2.984  -5.534   0.000  1.00  0.00     0.190 A 
HETATM   39  N3  UNL     1       2.102  -6.747   0.000  1.00  0.00    -0.239 NA
HETATM   40  C7  UNL     1       2.712  -8.117   0.000  1.00  0.00     0.167 A 
HETATM   41  C8  UNL     1       3.755  -9.197   0.000  1.00  0.00     0.060 A 
HETATM   42  C9  UNL     1       4.168  -7.755   0.000  1.00  0.00     0.005 A 
HETATM   43  C10 UNL     1       5.247  -6.713   0.000  1.00  0.00     0.074 A 
HETATM   44  C11 UNL     1       6.689  -7.126   0.000  1.00  0.00     0.058 C 
HETATM   45  O4  UNL     1       4.476  -5.691   0.000  1.00  0.00    -0.294 OA
BRANCH  40  46
HETATM   46  C6  UNL     1       1.469  -8.956   0.000  1.00  0.00     0.226 C 
HETATM   47  N2  UNL     1       1.574 -10.453   0.000  1.00  0.00    -0.119 NA
HETATM   48  O3  UNL     1       0.121  -8.299   0.000  1.00  0.00    -0.171 OA
BRANCH  47  49
HETATM   49  S1  UNL     1       0.330 -11.291   0.000  1.00  0.00     0.346 S 
HETATM   50  O1  UNL     1       1.169 -12.535   0.000  1.00  0.00    -0.180 OA
HETATM   51  O2  UNL     1      -0.509 -10.048   0.000  1.00  0.00    -0.180 OA
BRANCH  49  52
HETATM   52  N1  UNL     1      -0.913 -12.130   0.000  1.00  0.00    -0.260 N 
BRANCH  52  53
HETATM   53  C3  UNL     1      -0.809 -13.627   0.000  1.00  0.00     0.115 C 
BRANCH  53  54
HETATM   54  C2  UNL     1      -2.052 -14.465   0.000  1.00  0.00     0.025 C 
HETATM   55  C1  UNL     1      -1.948 -15.962   0.000  1.00  0.00     0.002 C 
ENDBRANCH  53  54
ENDBRANCH  52  53
BRANCH  52  56
HETATM   56  C4  UNL     1      -2.262 -11.473   0.000  1.00  0.00     0.115 C 
HETATM   57  C5  UNL     1      -3.505 -12.312   0.000  1.00  0.00     0.027 C 
ENDBRANCH  52  56
ENDBRANCH  49  52
ENDBRANCH  47  49
ENDBRANCH  40  46
ENDBRANCH   1  38
BRANCH  20  58
HETATM   58  C26 UNL     1      -0.484   5.942   0.000  1.00  0.00     0.102 C 
HETATM   59  C27 UNL     1      -1.599   6.946   0.000  1.00  0.00     0.026 C 
ENDBRANCH  20  58
TORSDOF 8
