REMARK  8 active torsions:
REMARK  status: ('A' for Active; 'I' for Inactive)
REMARK    1  A    between atoms: O1_2  and  C2_3 
REMARK    2  A    between atoms: C3_5  and  N1_11 
REMARK       I    between atoms: N1_11  and  C5_12 
REMARK    3  A    between atoms: C5_12  and  C6_14 
REMARK    4  A    between atoms: C10_19  and  C13_23 
REMARK    5  A    between atoms: C13_23  and  C14_26 
REMARK    6  A    between atoms: C18_31  and  C22_36 
REMARK       I    between atoms: C22_36  and  N6_38 
REMARK    7  A    between atoms: N6_38  and  C23_39 
REMARK    8  A    between atoms: C25_45  and  O12_47 
ROOT
HETATM    1  C13 UNL     1      -4.423   2.554   0.000  1.00  0.00     0.354 C 
HETATM    2  F1  UNL     1      -3.673   3.853   0.000  1.00  0.00    -0.192 F 
HETATM    3  F2  UNL     1      -5.173   1.255   0.000  1.00  0.00    -0.192 F 
ENDROOT
BRANCH   1   4
HETATM    4  C10 UNL     1      -3.124   1.804   0.000  1.00  0.00     0.274 A 
HETATM    5  N2  UNL     1      -2.967   0.312   0.000  1.00  0.00    -0.246 NA
HETATM    6  C9  UNL     1      -1.500   0.000   0.000  1.00  0.00     0.070 A 
HETATM    7  C8  UNL     1      -0.750  -1.299   0.000  1.00  0.00     0.051 A 
HETATM    8  C11 UNL     1      -0.750   1.299   0.000  1.00  0.00     0.073 A 
HETATM    9  C7  UNL     1       0.750  -1.299   0.000  1.00  0.00     0.032 A 
HETATM   10  C6  UNL     1       1.500   0.000   0.000  1.00  0.00     0.006 A 
HETATM   11  C12 UNL     1       0.750   1.299   0.000  1.00  0.00     0.072 A 
HETATM   12  N3  UNL     1      -1.754   2.414   0.000  1.00  0.00    -0.246 NA
BRANCH  10  13
HETATM   13  C5  UNL     1       3.000   0.000   0.000  1.00  0.00     0.205 C 
HETATM   14  N1  UNL     1       3.750  -1.299   0.000  1.00  0.00    -0.220 NA
HETATM   15  O6  UNL     1       3.750   1.299   0.000  1.00  0.00    -0.170 OA
BRANCH  14  16
HETATM   16  C3  UNL     1       5.250  -1.299   0.000  1.00  0.00     0.123 A 
HETATM   17  C2  UNL     1       6.000   0.000   0.000  1.00  0.00     0.243 A 
HETATM   18  O2  UNL     1       7.500   0.000   0.000  1.00  0.00    -0.161 OA
HETATM   19  O5  UNL     1       7.500  -1.098   0.000  1.00  0.00    -0.140 OA
HETATM   20  P1  UNL     1       7.500  -2.598   0.000  1.00  0.00     0.299 P 
HETATM   21  C4  UNL     1       6.000  -2.598   0.000  1.00  0.00     0.171 A 
HETATM   22  O3  UNL     1       9.000  -2.598   0.000  1.00  0.00    -0.644 OA
HETATM   23  O4  UNL     1       7.500  -4.098   0.000  1.00  0.00    -0.644 OA
BRANCH  17  24
HETATM   24  O1  UNL     1       5.250   1.299   0.000  1.00  0.00    -0.305 OA
HETATM   25  C1  UNL     1       6.000   2.598   0.000  1.00  0.00     0.184 C 
ENDBRANCH  17  24
ENDBRANCH  14  16
ENDBRANCH  10  13
ENDBRANCH   1   4
BRANCH   1  26
HETATM   26  C14 UNL     1      -5.722   3.304   0.000  1.00  0.00     0.185 A 
HETATM   27  N4  UNL     1      -5.879   4.795   0.000  1.00  0.00    -0.231 NA
HETATM   28  C15 UNL     1      -7.346   5.107   0.000  1.00  0.00     0.073 A 
HETATM   29  C16 UNL     1      -8.096   6.406   0.000  1.00  0.00     0.051 A 
HETATM   30  C20 UNL     1      -8.096   3.808   0.000  1.00  0.00     0.056 A 
HETATM   31  C17 UNL     1      -9.596   6.406   0.000  1.00  0.00     0.032 A 
HETATM   32  C18 UNL     1     -10.346   5.107   0.000  1.00  0.00     0.006 A 
HETATM   33  C19 UNL     1      -9.596   3.808   0.000  1.00  0.00     0.071 A 
HETATM   34  N5  UNL     1      -7.092   2.693   0.000  1.00  0.00    -0.312 N 
HETATM   35  C21 UNL     1      -7.404   1.226   0.000  1.00  0.00     0.132 C 
BRANCH  32  36
HETATM   36  C22 UNL     1     -11.846   5.107   0.000  1.00  0.00     0.205 C 
HETATM   37  O7  UNL     1     -12.596   3.808   0.000  1.00  0.00    -0.170 OA
HETATM   38  N6  UNL     1     -12.596   6.406   0.000  1.00  0.00    -0.220 NA
BRANCH  38  39
HETATM   39  C23 UNL     1     -14.096   6.406   0.000  1.00  0.00     0.123 C 
HETATM   40  C24 UNL     1     -14.846   7.705   0.000  1.00  0.00     0.171 C 
HETATM   41  P2  UNL     1     -16.346   7.705   0.000  1.00  0.00     0.299 P 
HETATM   42  O8  UNL     1     -17.846   7.705   0.000  1.00  0.00    -0.644 OA
HETATM   43  O9  UNL     1     -16.346   9.205   0.000  1.00  0.00    -0.644 OA
HETATM   44  O10 UNL     1     -16.346   6.205   0.000  1.00  0.00    -0.140 OA
HETATM   45  O11 UNL     1     -16.346   5.107   0.000  1.00  0.00    -0.161 OA
HETATM   46  C25 UNL     1     -14.846   5.107   0.000  1.00  0.00     0.243 C 
BRANCH  46  47
HETATM   47  O12 UNL     1     -14.096   3.808   0.000  1.00  0.00    -0.305 OA
HETATM   48  C26 UNL     1     -14.846   2.509   0.000  1.00  0.00     0.184 C 
ENDBRANCH  46  47
ENDBRANCH  38  39
ENDBRANCH  32  36
ENDBRANCH   1  26
TORSDOF 8
