REMARK  20 active torsions:
REMARK  status: ('A' for Active; 'I' for Inactive)
REMARK       I    between atoms: C2_2  and  N1_4 
REMARK    1  A    between atoms: N1_4  and  C3_5 
REMARK    2  A    between atoms: C3_5  and  C4_6 
REMARK    3  A    between atoms: C3_5  and  C6_10 
REMARK    4  A    between atoms: C4_6  and  C5_7 
REMARK    5  A    between atoms: C7_13  and  C11_19 
REMARK    6  A    between atoms: C9_15  and  C10_16 
REMARK       I    between atoms: C11_19  and  N3_21 
REMARK    7  A    between atoms: N3_21  and  C12_22 
REMARK    8  A    between atoms: C13_23  and  C14_24 
REMARK    9  A    between atoms: C26_36  and  N4_38 
REMARK   10  A    between atoms: N4_38  and  C27_39 
REMARK   11  A    between atoms: C27_39  and  C28_40 
REMARK   12  A    between atoms: C27_39  and  C31_45 
REMARK   13  A    between atoms: C28_40  and  C29_41 
REMARK   14  A    between atoms: C29_41  and  C30_42 
REMARK       I    between atoms: C31_45  and  N5_47 
REMARK   15  A    between atoms: N5_47  and  C32_48 
REMARK   16  A    between atoms: C41_59  and  C42_60 
REMARK   17  A    between atoms: C43_62  and  N7_64 
REMARK   18  A    between atoms: N7_64  and  C44_65 
REMARK   19  A    between atoms: C44_65  and  C45_66 
REMARK   20  A    between atoms: C45_66  and  C46_67 
ROOT
HETATM    1  C12 UNL     1       3.000  -2.598   0.000  1.00  0.00     0.124 A 
HETATM    2  C13 UNL     1       1.500  -2.598   0.000  1.00  0.00     0.011 A 
HETATM    3  C20 UNL     1       0.750  -3.897   0.000  1.00  0.00    -0.003 A 
HETATM    4  C21 UNL     1      -0.750  -3.897   0.000  1.00  0.00     0.028 A 
HETATM    5  C22 UNL     1      -1.500  -5.196   0.000  1.00  0.00     0.005 A 
HETATM    6  C23 UNL     1      -0.750  -6.495   0.000  1.00  0.00     0.007 A 
HETATM    7  C24 UNL     1       0.750  -6.495   0.000  1.00  0.00     0.051 A 
HETATM    8  C25 UNL     1       1.500  -5.196   0.000  1.00  0.00     0.075 A 
HETATM    9  C26 UNL     1       3.750  -3.897   0.000  1.00  0.00     0.200 A 
HETATM   10  O8  UNL     1       3.000  -5.196   0.000  1.00  0.00    -0.293 OA
ENDROOT
BRANCH   9  11
HETATM   11  N4  UNL     1       5.250  -3.897   0.000  1.00  0.00    -0.222 NA
BRANCH  11  12
HETATM   12  C27 UNL     1       6.000  -5.196   0.000  1.00  0.00     0.105 C 
BRANCH  12  13
HETATM   13  C28 UNL     1       7.500  -5.196   0.000  1.00  0.00     0.061 C 
BRANCH  13  14
HETATM   14  C29 UNL     1       8.250  -6.495   0.000  1.00  0.00     0.104 C 
BRANCH  14  15
HETATM   15  C30 UNL     1       9.750  -6.495   0.000  1.00  0.00     0.186 C 
HETATM   16  O9  UNL     1      10.500  -5.196   0.000  1.00  0.00    -0.647 OA
HETATM   17  O10 UNL     1      10.500  -7.794   0.000  1.00  0.00    -0.647 OA
ENDBRANCH  14  15
ENDBRANCH  13  14
ENDBRANCH  12  13
BRANCH  12  18
HETATM   18  C31 UNL     1       5.250  -6.495   0.000  1.00  0.00     0.226 C 
HETATM   19  O11 UNL     1       3.750  -6.495   0.000  1.00  0.00    -0.168 OA
HETATM   20  N5  UNL     1       6.000  -7.794   0.000  1.00  0.00    -0.220 NA
BRANCH  20  21
HETATM   21  C32 UNL     1       5.250  -9.093   0.000  1.00  0.00     0.108 A 
HETATM   22  C33 UNL     1       6.000 -10.392   0.000  1.00  0.00     0.073 A 
HETATM   23  C34 UNL     1       5.250 -11.691   0.000  1.00  0.00    -0.020 A 
HETATM   24  C35 UNL     1       3.750 -11.691   0.000  1.00  0.00     0.077 A 
HETATM   25  C39 UNL     1       6.000 -12.990   0.000  1.00  0.00     0.024 A 
HETATM   26  C36 UNL     1       3.000 -12.990   0.000  1.00  0.00     0.095 A 
HETATM   27  N6  UNL     1       3.000 -10.392   0.000  1.00  0.00    -0.283 N 
HETATM   28  C37 UNL     1       3.750 -14.289   0.000  1.00  0.00     0.053 A 
HETATM   29  O13 UNL     1       1.500 -12.990   0.000  1.00  0.00    -0.292 OA
HETATM   30  C38 UNL     1       5.250 -14.289   0.000  1.00  0.00     0.011 A 
HETATM   31  C43 UNL     1       0.750 -11.691   0.000  1.00  0.00     0.191 A 
HETATM   32  C41 UNL     1       1.500 -10.392   0.000  1.00  0.00     0.100 A 
HETATM   33  C40 UNL     1       3.750  -9.093   0.000  1.00  0.00     0.212 A 
HETATM   34  O12 UNL     1       3.000  -7.794   0.000  1.00  0.00    -0.169 OA
BRANCH  31  35
HETATM   35  N7  UNL     1      -0.750 -11.691   0.000  1.00  0.00    -0.247 NA
BRANCH  35  36
HETATM   36  C44 UNL     1      -1.500 -12.990   0.000  1.00  0.00     0.128 C 
BRANCH  36  37
HETATM   37  C45 UNL     1      -3.000 -12.990   0.000  1.00  0.00     0.026 C 
BRANCH  37  38
HETATM   38  C46 UNL     1      -3.750 -14.289   0.000  1.00  0.00     0.002 A 
HETATM   39  C47 UNL     1      -5.250 -14.289   0.000  1.00  0.00     0.000 A 
HETATM   40  C48 UNL     1      -6.000 -15.588   0.000  1.00  0.00     0.000 A 
HETATM   41  C49 UNL     1      -5.250 -16.887   0.000  1.00  0.00     0.000 A 
HETATM   42  C50 UNL     1      -3.750 -16.887   0.000  1.00  0.00     0.000 A 
HETATM   43  C51 UNL     1      -3.000 -15.588   0.000  1.00  0.00     0.000 A 
ENDBRANCH  37  38
ENDBRANCH  36  37
ENDBRANCH  35  36
ENDBRANCH  31  35
BRANCH  32  44
HETATM   44  C42 UNL     1       0.750  -9.093   0.000  1.00  0.00     0.139 C 
HETATM   45  S1  UNL     1      -0.750  -9.093   0.000  1.00  0.00    -0.103 SA
ENDBRANCH  32  44
ENDBRANCH  20  21
ENDBRANCH  12  18
ENDBRANCH  11  12
ENDBRANCH   9  11
BRANCH   1  46
HETATM   46  N3  UNL     1       3.750  -1.299   0.000  1.00  0.00    -0.215 NA
HETATM   47  C11 UNL     1       5.250  -1.299   0.000  1.00  0.00     0.227 C 
HETATM   48  O7  UNL     1       6.000  -2.598   0.000  1.00  0.00    -0.168 OA
BRANCH  47  49
HETATM   49  C7  UNL     1       6.000  -0.000   0.000  1.00  0.00     0.108 A 
HETATM   50  N2  UNL     1       5.250   1.299   0.000  1.00  0.00    -0.222 NA
HETATM   51  C6  UNL     1       6.000   2.598   0.000  1.00  0.00     0.193 A 
HETATM   52  O4  UNL     1       7.500   2.598   0.000  1.00  0.00    -0.305 OA
HETATM   53  C9  UNL     1       8.250   1.299   0.000  1.00  0.00     0.215 A 
HETATM   54  C8  UNL     1       7.500  -0.000   0.000  1.00  0.00     0.091 A 
BRANCH  51  55
HETATM   55  C3  UNL     1       5.250   3.897   0.000  1.00  0.00     0.112 C 
BRANCH  55  56
HETATM   56  N1  UNL     1       3.750   3.897   0.000  1.00  0.00    -0.224 NA
HETATM   57  C2  UNL     1       3.000   5.196   0.000  1.00  0.00     0.190 C 
HETATM   58  C1  UNL     1       1.500   5.196   0.000  1.00  0.00     0.083 C 
HETATM   59  O1  UNL     1       3.750   6.495   0.000  1.00  0.00    -0.174 OA
ENDBRANCH  55  56
BRANCH  55  60
HETATM   60  C4  UNL     1       6.000   5.196   0.000  1.00  0.00     0.147 C 
BRANCH  60  61
HETATM   61  C5  UNL     1       7.500   5.196   0.000  1.00  0.00     0.192 C 
HETATM   62  O2  UNL     1       8.250   6.495   0.000  1.00  0.00    -0.647 OA
HETATM   63  O3  UNL     1       8.250   3.897   0.000  1.00  0.00    -0.647 OA
ENDBRANCH  60  61
ENDBRANCH  55  60
ENDBRANCH  51  55
BRANCH  53  64
HETATM   64  C10 UNL     1       9.750   1.299   0.000  1.00  0.00     0.215 C 
HETATM   65  O5  UNL     1      10.500  -0.000   0.000  1.00  0.00    -0.646 OA
HETATM   66  O6  UNL     1      10.500   2.598   0.000  1.00  0.00    -0.646 OA
ENDBRANCH  53  64
ENDBRANCH  47  49
ENDBRANCH   1  46
BRANCH   2  67
HETATM   67  C14 UNL     1       0.750  -1.299   0.000  1.00  0.00    -0.043 A 
HETATM   68  C15 UNL     1       1.500   0.000   0.000  1.00  0.00     0.022 A 
HETATM   69  C16 UNL     1       0.750   1.299   0.000  1.00  0.00     0.004 A 
HETATM   70  C17 UNL     1      -0.750   1.299   0.000  1.00  0.00     0.001 A 
HETATM   71  C18 UNL     1      -1.500   0.000   0.000  1.00  0.00     0.004 A 
HETATM   72  C19 UNL     1      -0.750  -1.299   0.000  1.00  0.00     0.022 A 
ENDBRANCH   2  67
TORSDOF 20
