REMARK  15 active torsions:
REMARK  status: ('A' for Active; 'I' for Inactive)
REMARK    1  A    between atoms: O1_2  and  C2_3 
REMARK    2  A    between atoms: C2_3  and  C3_5 
REMARK    3  A    between atoms: C6_8  and  C7_9 
REMARK    4  A    between atoms: C7_9  and  C8_10 
REMARK    5  A    between atoms: C8_10  and  N1_11 
REMARK       I    between atoms: N1_11  and  C9_12 
REMARK    6  A    between atoms: C9_12  and  C10_14 
REMARK    7  A    between atoms: C12_18  and  C13_20 
REMARK    8  A    between atoms: C13_20  and  C14_21 
REMARK    9  A    between atoms: C13_20  and  N3_25 
REMARK   10  A    between atoms: C14_21  and  C15_22 
REMARK       I    between atoms: N3_25  and  C18_26 
REMARK   11  A    between atoms: C18_26  and  C19_28 
REMARK   12  A    between atoms: C21_30  and  C22_31 
REMARK   13  A    between atoms: C23_35  and  O9_37 
REMARK   14  A    between atoms: O9_37  and  C24_38 
REMARK   15  A    between atoms: C24_38  and  C25_39 
ROOT
HETATM    1  C13 UNL     1     -10.500   0.000   0.000  1.00  0.00     0.103 C 
ENDROOT
BRANCH   1   2
HETATM    2  C12 UNL     1      -9.750   1.299   0.000  1.00  0.00     0.203 A 
HETATM    3  N2  UNL     1      -8.250   1.299   0.000  1.00  0.00    -0.220 NA
HETATM    4  C10 UNL     1      -7.500   2.598   0.000  1.00  0.00     0.118 A 
HETATM    5  C11 UNL     1      -8.250   3.897   0.000  1.00  0.00     0.137 A 
HETATM    6  S1  UNL     1      -9.750   3.897   0.000  1.00  0.00     0.019 SA
HETATM    7  O4  UNL     1     -10.500   2.598   0.000  1.00  0.00    -0.256 OA
BRANCH   4   8
HETATM    8  C9  UNL     1      -6.000   2.598   0.000  1.00  0.00     0.223 C 
HETATM    9  N1  UNL     1      -5.250   1.299   0.000  1.00  0.00    -0.245 NA
HETATM   10  O3  UNL     1      -5.250   3.897   0.000  1.00  0.00    -0.168 OA
BRANCH   9  11
HETATM   11  C8  UNL     1      -3.750   1.299   0.000  1.00  0.00     0.128 C 
BRANCH  11  12
HETATM   12  C7  UNL     1      -3.000   0.000   0.000  1.00  0.00     0.026 C 
BRANCH  12  13
HETATM   13  C6  UNL     1      -1.500   0.000   0.000  1.00  0.00     0.003 A 
HETATM   14  C5  UNL     1      -0.750  -1.299   0.000  1.00  0.00     0.005 A 
HETATM   15  C4  UNL     1       0.750  -1.299   0.000  1.00  0.00     0.026 A 
HETATM   16  C3  UNL     1       1.500   0.000   0.000  1.00  0.00     0.005 A 
HETATM   17  C29 UNL     1       0.750   1.299   0.000  1.00  0.00     0.026 A 
HETATM   18  C28 UNL     1      -0.750   1.299   0.000  1.00  0.00     0.005 A 
BRANCH  16  19
HETATM   19  C2  UNL     1       3.000   0.000   0.000  1.00  0.00     0.220 C 
HETATM   20  O2  UNL     1       3.750   1.299   0.000  1.00  0.00    -0.164 OA
BRANCH  19  21
HETATM   21  O1  UNL     1       3.750  -1.299   0.000  1.00  0.00    -0.307 OA
HETATM   22  C1  UNL     1       5.250  -1.299   0.000  1.00  0.00     0.184 C 
ENDBRANCH  19  21
ENDBRANCH  16  19
ENDBRANCH  12  13
ENDBRANCH  11  12
ENDBRANCH   9  11
ENDBRANCH   4   8
ENDBRANCH   1   2
BRANCH   1  23
HETATM   23  C14 UNL     1     -12.000   0.000   0.000  1.00  0.00     0.050 C 
BRANCH  23  24
HETATM   24  C15 UNL     1     -12.750  -1.299   0.000  1.00  0.00     0.006 C 
HETATM   25  C16 UNL     1     -14.250  -1.299   0.000  1.00  0.00     0.000 C 
HETATM   26  C17 UNL     1     -12.000  -2.598   0.000  1.00  0.00     0.000 C 
ENDBRANCH  23  24
ENDBRANCH   1  23
BRANCH   1  27
HETATM   27  N3  UNL     1      -9.750  -1.299   0.000  1.00  0.00    -0.220 NA
HETATM   28  C18 UNL     1      -8.250  -1.299   0.000  1.00  0.00     0.226 C 
HETATM   29  O5  UNL     1      -7.500   0.000   0.000  1.00  0.00    -0.168 OA
BRANCH  28  30
HETATM   30  C19 UNL     1      -7.500  -2.598   0.000  1.00  0.00     0.110 A 
HETATM   31  C20 UNL     1      -6.000  -2.598   0.000  1.00  0.00     0.091 A 
HETATM   32  C21 UNL     1      -5.250  -3.897   0.000  1.00  0.00     0.217 A 
HETATM   33  O8  UNL     1      -6.000  -5.196   0.000  1.00  0.00    -0.287 OA
HETATM   34  C23 UNL     1      -7.500  -5.196   0.000  1.00  0.00     0.290 A 
HETATM   35  N4  UNL     1      -8.250  -3.897   0.000  1.00  0.00    -0.201 NA
BRANCH  32  36
HETATM   36  C22 UNL     1      -3.750  -3.897   0.000  1.00  0.00     0.215 C 
HETATM   37  O6  UNL     1      -3.000  -2.598   0.000  1.00  0.00    -0.646 OA
HETATM   38  O7  UNL     1      -3.000  -5.196   0.000  1.00  0.00    -0.646 OA
ENDBRANCH  32  36
BRANCH  34  39
HETATM   39  O9  UNL     1      -8.250  -6.495   0.000  1.00  0.00    -0.296 OA
BRANCH  39  40
HETATM   40  C24 UNL     1      -7.500  -7.794   0.000  1.00  0.00     0.152 C 
BRANCH  40  41
HETATM   41  C25 UNL     1      -8.250  -9.093   0.000  1.00  0.00     0.030 C 
HETATM   42  C26 UNL     1      -7.500 -10.392   0.000  1.00  0.00     0.003 C 
HETATM   43  C27 UNL     1      -9.750  -9.093   0.000  1.00  0.00     0.003 C 
ENDBRANCH  40  41
ENDBRANCH  39  40
ENDBRANCH  34  39
ENDBRANCH  28  30
ENDBRANCH   1  27
TORSDOF 15
