REMARK  7 active torsions:
REMARK  status: ('A' for Active; 'I' for Inactive)
REMARK    1  A    between atoms: O1_2  and  C2_3 
REMARK    2  A    between atoms: C6_7  and  O2_8 
REMARK    3  A    between atoms: O2_8  and  C7_9 
REMARK    4  A    between atoms: C10_12  and  C13_15 
REMARK    5  A    between atoms: C16_21  and  O5_23 
REMARK    6  A    between atoms: O5_23  and  C17_24 
REMARK    7  A    between atoms: C40_54  and  C43_58 
ROOT
HETATM    1  C13 UNL     1      -9.750  -1.299   0.000  1.00  0.00     0.119 C 
HETATM    2  N1  UNL     1     -10.500  -2.598   0.000  1.00  0.00    -0.216 NA
HETATM    3  C14 UNL     1     -12.000  -2.598   0.000  1.00  0.00     0.230 C 
HETATM    4  O3  UNL     1     -12.750  -1.299   0.000  1.00  0.00    -0.168 OA
HETATM    5  C15 UNL     1     -12.750  -3.897   0.000  1.00  0.00     0.142 A 
HETATM    6  N2  UNL     1     -12.000  -5.196   0.000  1.00  0.00    -0.198 NA
HETATM    7  C16 UNL     1     -12.750  -6.495   0.000  1.00  0.00     0.301 A 
HETATM    8  O4  UNL     1     -14.250  -6.495   0.000  1.00  0.00    -0.229 OA
HETATM    9  C21 UNL     1     -14.250  -3.897   0.000  1.00  0.00     0.222 A 
HETATM   10  C22 UNL     1     -14.250  -5.397   0.000  1.00  0.00     0.029 A 
HETATM   11  C23 UNL     1     -14.250  -2.397   0.000  1.00  0.00     0.027 C 
HETATM   12  C24 UNL     1     -15.750  -3.897   0.000  1.00  0.00    -0.101 C 
HETATM   13  C25 UNL     1     -10.500   0.000   0.000  1.00  0.00     0.230 C 
HETATM   14  O6  UNL     1      -9.750   1.299   0.000  1.00  0.00    -0.168 OA
HETATM   15  N3  UNL     1     -12.000   0.000   0.000  1.00  0.00    -0.223 NA
HETATM   16  C26 UNL     1     -12.750   1.299   0.000  1.00  0.00     0.061 A 
HETATM   17  C27 UNL     1     -12.000   2.598   0.000  1.00  0.00     0.046 A 
HETATM   18  C28 UNL     1     -12.750   3.897   0.000  1.00  0.00     0.007 A 
HETATM   19  C29 UNL     1     -14.250   3.897   0.000  1.00  0.00     0.005 A 
HETATM   20  C30 UNL     1     -15.000   2.598   0.000  1.00  0.00     0.031 A 
HETATM   21  C31 UNL     1     -14.250   1.299   0.000  1.00  0.00     0.034 A 
HETATM   22  C32 UNL     1     -15.000   0.000   0.000  1.00  0.00     0.200 C 
HETATM   23  O7  UNL     1     -14.250  -1.299   0.000  1.00  0.00    -0.249 OA
HETATM   24  N4  UNL     1     -16.500   0.000   0.000  1.00  0.00    -0.133 NA
HETATM   25  S1  UNL     1     -17.250  -1.299   0.000  1.00  0.00     0.283 S 
HETATM   26  O8  UNL     1     -15.951  -2.049   0.000  1.00  0.00    -0.199 OA
HETATM   27  O9  UNL     1     -18.549  -0.549   0.000  1.00  0.00    -0.199 OA
HETATM   28  C33 UNL     1     -18.000  -2.598   0.000  1.00  0.00     0.086 A 
HETATM   29  C34 UNL     1     -19.500  -2.598   0.000  1.00  0.00     0.040 A 
HETATM   30  C35 UNL     1     -20.250  -3.897   0.000  1.00  0.00     0.006 A 
HETATM   31  C36 UNL     1     -19.500  -5.196   0.000  1.00  0.00     0.006 A 
HETATM   32  C37 UNL     1     -18.000  -5.196   0.000  1.00  0.00     0.034 A 
HETATM   33  C38 UNL     1     -17.250  -3.897   0.000  1.00  0.00     0.018 A 
ENDROOT
BRANCH   1  34
HETATM   34  C10 UNL     1      -8.250  -1.299   0.000  1.00  0.00    -0.023 A 
HETATM   35  C9  UNL     1      -7.500   0.000   0.000  1.00  0.00     0.026 A 
HETATM   36  C8  UNL     1      -6.000   0.000   0.000  1.00  0.00     0.035 A 
HETATM   37  C7  UNL     1      -5.250  -1.299   0.000  1.00  0.00     0.122 A 
HETATM   38  C12 UNL     1      -6.000  -2.598   0.000  1.00  0.00     0.035 A 
HETATM   39  C11 UNL     1      -7.500  -2.598   0.000  1.00  0.00     0.026 A 
BRANCH  37  40
HETATM   40  O2  UNL     1      -3.750  -1.299   0.000  1.00  0.00    -0.337 OA
BRANCH  40  41
HETATM   41  C6  UNL     1      -3.000   0.000   0.000  1.00  0.00     0.075 A 
HETATM   42  C5  UNL     1      -1.500   0.000   0.000  1.00  0.00     0.010 A 
HETATM   43  C4  UNL     1      -0.750  -1.299   0.000  1.00  0.00     0.032 A 
HETATM   44  C41 UNL     1      -0.750   1.299   0.000  1.00  0.00     0.059 A 
HETATM   45  C3  UNL     1       0.750  -1.299   0.000  1.00  0.00     0.035 A 
HETATM   46  C2  UNL     1       1.500   0.000   0.000  1.00  0.00     0.122 A 
HETATM   47  C42 UNL     1       0.750   1.299   0.000  1.00  0.00     0.075 A 
HETATM   48  N5  UNL     1      -1.500   2.598   0.000  1.00  0.00    -0.255 NA
HETATM   49  C40 UNL     1      -3.000   2.598   0.000  1.00  0.00     0.057 A 
HETATM   50  C39 UNL     1      -3.750   1.299   0.000  1.00  0.00     0.096 A 
BRANCH  46  51
HETATM   51  O1  UNL     1       3.000   0.000   0.000  1.00  0.00    -0.354 OA
HETATM   52  C1  UNL     1       3.750  -1.299   0.000  1.00  0.00     0.174 C 
ENDBRANCH  46  51
BRANCH  49  53
HETATM   53  C43 UNL     1      -3.750   3.897   0.000  1.00  0.00    -0.030 A 
HETATM   54  C44 UNL     1      -3.000   5.196   0.000  1.00  0.00     0.023 A 
HETATM   55  C45 UNL     1      -3.750   6.495   0.000  1.00  0.00     0.004 A 
HETATM   56  C46 UNL     1      -5.250   6.495   0.000  1.00  0.00     0.001 A 
HETATM   57  C47 UNL     1      -6.000   5.196   0.000  1.00  0.00     0.004 A 
HETATM   58  C48 UNL     1      -5.250   3.897   0.000  1.00  0.00     0.023 A 
ENDBRANCH  49  53
ENDBRANCH  40  41
ENDBRANCH  37  40
ENDBRANCH   1  34
BRANCH   7  59
HETATM   59  O5  UNL     1     -12.000  -7.794   0.000  1.00  0.00    -0.300 OA
BRANCH  59  60
HETATM   60  C17 UNL     1     -12.750  -9.093   0.000  1.00  0.00     0.102 C 
HETATM   61  C18 UNL     1     -11.451  -9.843   0.000  1.00  0.00     0.030 C 
HETATM   62  C19 UNL     1     -14.049  -8.343   0.000  1.00  0.00     0.030 C 
HETATM   63  C20 UNL     1     -13.500 -10.392   0.000  1.00  0.00     0.030 C 
ENDBRANCH  59  60
ENDBRANCH   7  59
TORSDOF 7
