REMARK WARNING: 32 MAX_TORS EXCEEDED!!!
REMARK  39 active torsions:
REMARK  status: ('A' for Active; 'I' for Inactive)
REMARK    1  A    between atoms: C1_1  and  C10_16 
REMARK    2  A    between atoms: C1_1  and  F2_24 
REMARK    3  A    between atoms: C2_2  and  C6_8 
REMARK    4  A    between atoms: C2_2  and  N3_12 
REMARK    5  A    between atoms: C2_2  and  O4_17 
REMARK    6  A    between atoms: C2_2  and  C11_20 
REMARK    7  A    between atoms: C2_2  and  C16_28 
REMARK    8  A    between atoms: C2_2  and  C18_30 
REMARK    9  A    between atoms: C3_3  and  N1_4 
REMARK   10  A    between atoms: C3_3  and  C9_11 
REMARK   11  A    between atoms: C3_3  and  C17_29 
REMARK   12  A    between atoms: N1_4  and  C11_20 
REMARK   13  A    between atoms: N1_4  and  C18_30 
REMARK   14  A    between atoms: N2_6  and  C9_11 
REMARK   15  A    between atoms: N2_6  and  O7_22 
REMARK   16  A    between atoms: N2_6  and  C17_29 
REMARK   17  A    between atoms: C5_7  and  O3_15 
REMARK   18  A    between atoms: C6_8  and  O2_14 
REMARK   19  A    between atoms: C7_9  and  O1_13 
REMARK   20  A    between atoms: C8_10  and  O2_14 
REMARK   21  A    between atoms: C9_11  and  O3_15 
REMARK   22  A    between atoms: N3_12  and  C12_21 
REMARK   23  A    between atoms: O1_13  and  C10_16 
REMARK   24  A    between atoms: O1_13  and  F2_24 
REMARK   25  A    between atoms: O2_14  and  O4_17 
REMARK   26  A    between atoms: O2_14  and  C11_20 
REMARK   27  A    between atoms: O2_14  and  C16_28 
REMARK   28  A    between atoms: O4_17  and  C16_28 
REMARK   29  A    between atoms: O7_22  and  C17_29 
REMARK   30  A    between atoms: C14_26  and  C24_36 
REMARK   31  A    between atoms: C15_27  and  C18_30 
REMARK   32  A    between atoms: C16_28  and  C17_29 
REMARK   33  A    between atoms: C18_30  and  C21_33 
REMARK   34  A    between atoms: C19_31  and  C20_32 
REMARK   35  A    between atoms: C19_31  and  C23_35 
REMARK   36  A    between atoms: C20_32  and  C22_34 
REMARK   37  A    between atoms: C20_32  and  C24_36 
REMARK   38  A    between atoms: C22_34  and  C23_35 
REMARK   39  A    between atoms: C23_35  and  C24_36 
ROOT
HETATM    1  C1  UNL     1      10.342  -7.592   0.000  1.00  0.00     0.215 A 
HETATM    2  C2  UNL     1       6.037  -7.592   0.000  1.00  0.00     0.000 A 
HETATM    3  C3  UNL     1       8.192  -7.179   0.000  1.00  0.00     0.061 A 
HETATM    4  N1  UNL     1       6.754  -7.179   0.000  1.00  0.00     0.000 N 
HETATM    5  C4  UNL     1       9.629  -7.179   0.000  1.00  0.00     0.170 A 
HETATM    6  N2  UNL     1       8.904  -7.592   0.000  1.00  0.00     0.000 N 
HETATM    7  C5  UNL     1       7.475  -7.592   0.000  1.00  0.00     0.005 A 
HETATM    8  C6  UNL     1       4.600  -8.417   0.000  1.00  0.00     0.000 A 
HETATM    9  C7  UNL     1      10.350  -8.417   0.000  1.00  0.00     0.184 A 
HETATM   10  C8  UNL     1       5.317  -7.179   0.000  1.00  0.00     0.000 A 
HETATM   11  C9  UNL     1       9.629  -6.342   0.000  1.00  0.00     0.199 A 
HETATM   12  N3  UNL     1       4.592  -7.592   0.000  1.00  0.00     0.000 N 
HETATM   13  O1  UNL     1      11.062  -7.175   0.000  1.00  0.00     0.000 OA
HETATM   14  O2  UNL     1       6.037  -8.417   0.000  1.00  0.00     0.000 OA
HETATM   15  O3  UNL     1       8.192  -6.342   0.000  1.00  0.00     0.000 OA
HETATM   16  C10 UNL     1      10.342  -5.929   0.000  1.00  0.00     0.234 A 
HETATM   17  O4  UNL     1       5.317  -8.817   0.000  1.00  0.00     0.000 OA
HETATM   18  O5  UNL     1      11.062  -8.825   0.000  1.00  0.00    -0.329 OA
HETATM   19  O6  UNL     1       3.879  -8.829   0.000  1.00  0.00     0.000 OA
HETATM   20  C11 UNL     1       7.475  -8.417   0.000  1.00  0.00     0.005 A 
HETATM   21  C12 UNL     1       5.317  -6.354   0.000  1.00  0.00     0.000 A 
HETATM   22  O7  UNL     1       9.629  -8.829   0.000  1.00  0.00     0.000 OA
HETATM   23  F1  UNL     1      10.342  -5.104   0.000  1.00  0.00    -0.333 F 
HETATM   24  F2  UNL     1      11.067  -6.342   0.000  1.00  0.00    -0.418 F 
HETATM   25  C13 UNL     1       3.892  -9.654   0.000  1.00  0.00     0.000 A 
HETATM   26  C14 UNL     1       3.179 -10.079   0.000  1.00  0.00     0.000 A 
HETATM   27  C15 UNL     1       4.604  -5.942   0.000  1.00  0.00     0.000 A 
HETATM   28  C16 UNL     1       6.754  -8.829   0.000  1.00  0.00     0.001 A 
HETATM   29  C17 UNL     1       8.188  -8.825   0.000  1.00  0.00     0.005 A 
HETATM   30  C18 UNL     1       6.029  -5.942   0.000  1.00  0.00     0.000 A 
HETATM   31  C19 UNL     1       3.179 -10.904   0.000  1.00  0.00     0.000 A 
HETATM   32  C20 UNL     1       2.462  -9.667   0.000  1.00  0.00     0.000 A 
HETATM   33  C21 UNL     1       4.600  -5.117   0.000  1.00  0.00     0.000 A 
HETATM   34  C22 UNL     1       2.467 -11.325   0.000  1.00  0.00     0.000 A 
HETATM   35  C23 UNL     1       1.742 -10.088   0.000  1.00  0.00     0.000 A 
HETATM   36  C24 UNL     1       1.742 -10.917   0.000  1.00  0.00     0.000 A 
ENDROOT
TORSDOF 39
