REMARK  13 active torsions:
REMARK  status: ('A' for Active; 'I' for Inactive)
REMARK    1  A    between atoms: C4_4  and  N1_5 
REMARK       I    between atoms: N1_5  and  C5_6 
REMARK    2  A    between atoms: C5_6  and  C6_8 
REMARK       I    between atoms: N2_12  and  C10_13 
REMARK    3  A    between atoms: C10_13  and  C11_15 
REMARK    4  A    between atoms: C12_17  and  C13_19 
REMARK    5  A    between atoms: C14_21  and  C15_23 
REMARK    6  A    between atoms: C15_23  and  C16_24 
REMARK    7  A    between atoms: C15_23  and  N5_28 
REMARK    8  A    between atoms: C16_24  and  C17_25 
REMARK    9  A    between atoms: N5_28  and  C18_29 
REMARK   10  A    between atoms: C19_31  and  C20_32 
REMARK   11  A    between atoms: C20_32  and  C21_33 
REMARK   12  A    between atoms: C24_40  and  C26_42 
REMARK   13  A    between atoms: C32_49  and  C33_52 
ROOT
HETATM    1  C11 UNL     1      -0.146  -3.755   0.000  1.00  0.00     0.120 A 
HETATM    2  N3  UNL     1      -1.613  -3.443   0.000  1.00  0.00    -0.218 NA
HETATM    3  C12 UNL     1      -2.617  -4.558   0.000  1.00  0.00     0.196 A 
HETATM    4  O3  UNL     1      -2.153  -5.984   0.000  1.00  0.00    -0.309 OA
HETATM    5  C28 UNL     1       0.318  -5.181   0.000  1.00  0.00     0.007 A 
HETATM    6  C29 UNL     1      -0.686  -6.296   0.000  1.00  0.00     0.174 A 
HETATM    7  C30 UNL     1       1.785  -5.493   0.000  1.00  0.00     0.031 C 
ENDROOT
BRANCH   3   8
HETATM    8  C13 UNL     1      -4.084  -4.246   0.000  1.00  0.00     0.119 A 
HETATM    9  N4  UNL     1      -4.548  -2.819   0.000  1.00  0.00    -0.218 NA
HETATM   10  C14 UNL     1      -6.015  -2.507   0.000  1.00  0.00     0.193 A 
HETATM   11  O4  UNL     1      -7.019  -3.622   0.000  1.00  0.00    -0.309 OA
HETATM   12  C25 UNL     1      -6.555  -5.049   0.000  1.00  0.00     0.174 A 
HETATM   13  C24 UNL     1      -5.088  -5.361   0.000  1.00  0.00     0.007 A 
BRANCH  10  14
HETATM   14  C15 UNL     1      -6.478  -1.081   0.000  1.00  0.00     0.113 C 
BRANCH  14  15
HETATM   15  C16 UNL     1      -7.946  -0.769   0.000  1.00  0.00     0.147 C 
BRANCH  15  16
HETATM   16  C17 UNL     1      -8.949  -1.884   0.000  1.00  0.00     0.192 C 
HETATM   17  O5  UNL     1      -8.486  -3.310   0.000  1.00  0.00    -0.647 OA
HETATM   18  O6  UNL     1     -10.416  -1.572   0.000  1.00  0.00    -0.647 OA
ENDBRANCH  15  16
ENDBRANCH  14  15
BRANCH  14  19
HETATM   19  N5  UNL     1      -5.475   0.034   0.000  1.00  0.00    -0.222 NA
BRANCH  19  20
HETATM   20  C18 UNL     1      -5.938   1.460   0.000  1.00  0.00     0.193 A 
HETATM   21  O7  UNL     1      -7.405   1.772   0.000  1.00  0.00    -0.305 OA
HETATM   22  C23 UNL     1      -7.869   3.199   0.000  1.00  0.00     0.224 A 
HETATM   23  C22 UNL     1      -6.865   4.314   0.000  1.00  0.00     0.220 A 
HETATM   24  N6  UNL     1      -5.398   4.002   0.000  1.00  0.00    -0.222 NA
HETATM   25  O10 UNL     1      -7.329   5.740   0.000  1.00  0.00    -0.171 OA
HETATM   26  C19 UNL     1      -4.934   2.575   0.000  1.00  0.00     0.113 A 
BRANCH  26  27
HETATM   27  C20 UNL     1      -3.467   2.263   0.000  1.00  0.00     0.147 C 
BRANCH  27  28
HETATM   28  C21 UNL     1      -2.463   3.378   0.000  1.00  0.00     0.192 C 
HETATM   29  O8  UNL     1      -2.927   4.805   0.000  1.00  0.00    -0.647 OA
HETATM   30  O9  UNL     1      -0.996   3.066   0.000  1.00  0.00    -0.647 OA
ENDBRANCH  27  28
ENDBRANCH  26  27
ENDBRANCH  19  20
ENDBRANCH  14  19
ENDBRANCH  10  14
BRANCH  13  31
HETATM   31  C26 UNL     1      -4.624  -6.787   0.000  1.00  0.00     0.026 C 
HETATM   32  C27 UNL     1      -5.628  -7.902   0.000  1.00  0.00     0.005 C 
ENDBRANCH  13  31
ENDBRANCH   3   8
BRANCH   1  33
HETATM   33  C10 UNL     1       0.858  -2.640   0.000  1.00  0.00     0.211 C 
HETATM   34  N2  UNL     1       0.394  -1.214   0.000  1.00  0.00    -0.306 N 
HETATM   35  C6  UNL     1       1.276   0.000   0.000  1.00  0.00     0.083 A 
HETATM   36  C9  UNL     1      -1.032  -0.750   0.000  1.00  0.00     0.108 A 
HETATM   37  C7  UNL     1       0.394   1.214   0.000  1.00  0.00     0.050 A 
HETATM   38  C8  UNL     1      -1.032   0.750   0.000  1.00  0.00     0.031 A 
HETATM   39  O2  UNL     1       2.325  -2.952   0.000  1.00  0.00    -0.169 OA
BRANCH  35  40
HETATM   40  C5  UNL     1       2.776   0.000   0.000  1.00  0.00     0.224 C 
HETATM   41  N1  UNL     1       3.526  -1.299   0.000  1.00  0.00    -0.221 NA
HETATM   42  O1  UNL     1       3.526   1.299   0.000  1.00  0.00    -0.168 OA
BRANCH  41  43
HETATM   43  C4  UNL     1       5.026  -1.299   0.000  1.00  0.00     0.094 A 
HETATM   44  C3  UNL     1       5.776  -2.598   0.000  1.00  0.00     0.096 A 
HETATM   45  C2  UNL     1       7.276  -2.598   0.000  1.00  0.00     0.065 A 
HETATM   46  C1  UNL     1       8.026  -3.897   0.000  1.00  0.00     0.056 C 
HETATM   47  F2  UNL     1       7.276  -1.500   0.000  1.00  0.00    -0.325 F 
HETATM   48  C32 UNL     1       7.276   0.000   0.000  1.00  0.00     0.367 A 
HETATM   49  C31 UNL     1       5.776   0.000   0.000  1.00  0.00     0.189 A 
HETATM   50  F1  UNL     1       7.276   1.500   0.000  1.00  0.00    -0.191 F 
HETATM   51  O11 UNL     1       5.026   1.299   0.000  1.00  0.00    -0.188 OA
BRANCH  48  52
HETATM   52  C33 UNL     1       8.776   0.000   0.000  1.00  0.00     0.459 C 
HETATM   53  F3  UNL     1      10.276   0.000   0.000  1.00  0.00    -0.165 F 
HETATM   54  F4  UNL     1       8.776  -1.500   0.000  1.00  0.00    -0.165 F 
HETATM   55  F5  UNL     1       8.776   1.500   0.000  1.00  0.00    -0.165 F 
ENDBRANCH  48  52
ENDBRANCH  41  43
ENDBRANCH  35  40
ENDBRANCH   1  33
TORSDOF 13
