REMARK  11 active torsions:
REMARK  status: ('A' for Active; 'I' for Inactive)
REMARK    1  A    between atoms: C4_4  and  N1_5 
REMARK       I    between atoms: N1_5  and  C5_6 
REMARK    2  A    between atoms: C5_6  and  C6_8 
REMARK    3  A    between atoms: C7_9  and  C8_10 
REMARK    4  A    between atoms: C8_10  and  C9_11 
REMARK    5  A    between atoms: C14_18  and  N3_19 
REMARK       I    between atoms: N3_19  and  C15_20 
REMARK    6  A    between atoms: C15_20  and  C16_22 
REMARK    7  A    between atoms: C16_22  and  N4_23 
REMARK    8  A    between atoms: C16_22  and  C22_32 
REMARK       I    between atoms: N4_23  and  C17_24 
REMARK    9  A    between atoms: C17_24  and  C18_26 
REMARK   10  A    between atoms: C29_40  and  N7_42 
REMARK   11  A    between atoms: N7_42  and  C30_43 
ROOT
HETATM    1  C6  UNL     1       8.382  -3.983   0.000  1.00  0.00     0.102 A 
HETATM    2  C7  UNL     1       9.808  -4.446   0.000  1.00  0.00    -0.019 A 
HETATM    3  C11 UNL     1       9.808  -5.946   0.000  1.00  0.00     0.068 A 
HETATM    4  C12 UNL     1       8.382  -6.410   0.000  1.00  0.00     0.047 A 
HETATM    5  N2  UNL     1       7.500  -5.196   0.000  1.00  0.00    -0.285 N 
HETATM    6  C13 UNL     1       6.000  -5.196   0.000  1.00  0.00     0.216 A 
HETATM    7  O2  UNL     1       5.250  -3.897   0.000  1.00  0.00    -0.169 OA
HETATM    8  C14 UNL     1       5.250  -6.495   0.000  1.00  0.00     0.122 A 
HETATM    9  C25 UNL     1       6.000  -7.794   0.000  1.00  0.00     0.001 A 
HETATM   10  C26 UNL     1       7.500  -7.794   0.000  1.00  0.00     0.011 A 
HETATM   11  C27 UNL     1       5.250  -9.093   0.000  1.00  0.00     0.033 C 
ENDROOT
BRANCH   1  12
HETATM   12  C5  UNL     1       7.918  -2.556   0.000  1.00  0.00     0.228 C 
HETATM   13  N1  UNL     1       8.922  -1.441   0.000  1.00  0.00    -0.221 NA
HETATM   14  O1  UNL     1       6.451  -2.244   0.000  1.00  0.00    -0.168 OA
BRANCH  13  15
HETATM   15  C4  UNL     1       8.458  -0.015   0.000  1.00  0.00     0.092 A 
HETATM   16  C3  UNL     1       9.462   1.100   0.000  1.00  0.00     0.078 A 
HETATM   17  C2  UNL     1       8.998   2.527   0.000  1.00  0.00     0.129 A 
HETATM   18  C1  UNL     1      10.002   3.641   0.000  1.00  0.00     0.033 C 
HETATM   19  O6  UNL     1       7.531   2.838   0.000  1.00  0.00    -0.315 OA
HETATM   20  C29 UNL     1       6.528   1.724   0.000  1.00  0.00     0.205 A 
HETATM   21  C28 UNL     1       6.991   0.297   0.000  1.00  0.00     0.185 A 
HETATM   22  O5  UNL     1       5.987  -0.818   0.000  1.00  0.00    -0.185 OA
BRANCH  20  23
HETATM   23  N7  UNL     1       5.060   2.036   0.000  1.00  0.00    -0.221 NA
BRANCH  23  24
HETATM   24  C30 UNL     1       4.597   3.462   0.000  1.00  0.00     0.114 A 
HETATM   25  C31 UNL     1       3.130   3.774   0.000  1.00  0.00     0.074 A 
HETATM   26  C32 UNL     1       2.666   5.201   0.000  1.00  0.00    -0.019 A 
HETATM   27  C33 UNL     1       3.670   6.315   0.000  1.00  0.00     0.072 A 
HETATM   28  C37 UNL     1       1.199   5.513   0.000  1.00  0.00     0.024 A 
HETATM   29  C34 UNL     1       3.206   7.742   0.000  1.00  0.00     0.051 A 
HETATM   30  O8  UNL     1       5.137   6.003   0.000  1.00  0.00    -0.288 OA
HETATM   31  C35 UNL     1       1.739   8.054   0.000  1.00  0.00     0.007 A 
HETATM   32  C36 UNL     1       0.735   6.939   0.000  1.00  0.00     0.005 A 
HETATM   33  C38 UNL     1       5.601   4.577   0.000  1.00  0.00     0.246 A 
HETATM   34  O7  UNL     1       7.068   4.265   0.000  1.00  0.00    -0.162 OA
ENDBRANCH  23  24
ENDBRANCH  20  23
ENDBRANCH  13  15
ENDBRANCH   1  12
BRANCH   2  35
HETATM   35  C8  UNL     1      11.022  -3.564   0.000  1.00  0.00     0.024 C 
BRANCH  35  36
HETATM   36  C9  UNL     1      12.392  -4.175   0.000  1.00  0.00     0.004 C 
HETATM   37  C10 UNL     1      13.606  -3.293   0.000  1.00  0.00     0.000 C 
ENDBRANCH  35  36
ENDBRANCH   2  35
BRANCH   8  38
HETATM   38  N3  UNL     1       3.750  -6.495   0.000  1.00  0.00    -0.215 NA
HETATM   39  C15 UNL     1       3.000  -5.196   0.000  1.00  0.00     0.230 C 
HETATM   40  O3  UNL     1       3.750  -3.897   0.000  1.00  0.00    -0.168 OA
BRANCH  39  41
HETATM   41  C16 UNL     1       1.500  -5.196   0.000  1.00  0.00     0.119 C 
BRANCH  41  42
HETATM   42  N4  UNL     1       0.750  -3.897   0.000  1.00  0.00    -0.216 NA
HETATM   43  C17 UNL     1       1.500  -2.598   0.000  1.00  0.00     0.228 C 
HETATM   44  O4  UNL     1       3.000  -2.598   0.000  1.00  0.00    -0.168 OA
BRANCH  43  45
HETATM   45  C18 UNL     1       0.750  -1.299   0.000  1.00  0.00     0.121 A 
HETATM   46  C19 UNL     1       1.500   0.000   0.000  1.00  0.00     0.169 A 
HETATM   47  N5  UNL     1       0.750   1.299   0.000  1.00  0.00    -0.287 NA
HETATM   48  C20 UNL     1      -0.750   1.299   0.000  1.00  0.00     0.146 A 
HETATM   49  C21 UNL     1      -1.500   0.000   0.000  1.00  0.00     0.151 A 
HETATM   50  N6  UNL     1      -0.750  -1.299   0.000  1.00  0.00    -0.267 NA
ENDBRANCH  43  45
ENDBRANCH  41  42
BRANCH  41  51
HETATM   51  C22 UNL     1       0.750  -6.495   0.000  1.00  0.00    -0.022 C 
HETATM   52  C23 UNL     1       1.500  -7.794   0.000  1.00  0.00     0.028 C 
HETATM   53  C24 UNL     1      -0.750  -6.495   0.000  1.00  0.00     0.028 C 
ENDBRANCH  41  51
ENDBRANCH  39  41
ENDBRANCH   8  38
TORSDOF 11
