REMARK  16 active torsions:
REMARK  status: ('A' for Active; 'I' for Inactive)
REMARK    1  A    between atoms: O1_2  and  C2_3 
REMARK    2  A    between atoms: C2_3  and  C3_5 
REMARK    3  A    between atoms: C3_5  and  C4_7 
REMARK    4  A    between atoms: C4_7  and  C5_8 
REMARK    5  A    between atoms: C4_7  and  N1_12 
REMARK    6  A    between atoms: C5_8  and  C6_9 
REMARK       I    between atoms: N1_12  and  C7_13 
REMARK    7  A    between atoms: C7_13  and  C8_15 
REMARK    8  A    between atoms: C8_15  and  C9_16 
REMARK    9  A    between atoms: C8_15  and  N2_23 
REMARK   10  A    between atoms: C9_16  and  C10_17 
REMARK       I    between atoms: N2_23  and  C16_24 
REMARK   11  A    between atoms: C16_24  and  C17_26 
REMARK   12  A    between atoms: C21_33  and  C22_35 
REMARK   13  A    between atoms: C26_41  and  C27_42 
REMARK   14  A    between atoms: C29_48  and  C30_49 
REMARK   15  A    between atoms: C30_49  and  C31_50 
REMARK   16  A    between atoms: C34_57  and  C41_64 
ROOT
HETATM    1  C17 UNL     1      -3.000  -5.196   0.000  1.00  0.00     0.107 A 
HETATM    2  C18 UNL     1      -3.750  -6.495   0.000  1.00  0.00     0.080 A 
HETATM    3  C19 UNL     1      -5.250  -6.495   0.000  1.00  0.00     0.034 A 
HETATM    4  C20 UNL     1      -6.000  -7.794   0.000  1.00  0.00     0.229 A 
HETATM    5  O6  UNL     1      -5.250  -9.093   0.000  1.00  0.00    -0.163 OA
HETATM    6  O7  UNL     1      -7.500  -7.794   0.000  1.00  0.00    -0.288 OA
HETATM    7  N3  UNL     1      -3.750  -3.897   0.000  1.00  0.00    -0.243 NA
HETATM    8  C21 UNL     1      -5.250  -3.897   0.000  1.00  0.00     0.117 A 
HETATM    9  O8  UNL     1      -6.000  -5.196   0.000  1.00  0.00     0.000 OA
HETATM   10  C41 UNL     1      -8.250  -3.897   0.000  1.00  0.00    -0.020 A 
HETATM   11  C42 UNL     1      -9.750  -3.897   0.000  1.00  0.00     0.027 A 
HETATM   12  C43 UNL     1     -10.500  -5.196   0.000  1.00  0.00     0.011 A 
HETATM   13  C44 UNL     1      -9.750  -6.495   0.000  1.00  0.00     0.052 A 
HETATM   14  C45 UNL     1      -8.250  -6.495   0.000  1.00  0.00     0.080 A 
HETATM   15  C46 UNL     1      -7.500  -5.196   0.000  1.00  0.00     0.016 A 
ENDROOT
BRANCH   1  16
HETATM   16  C16 UNL     1      -1.500  -5.196   0.000  1.00  0.00     0.227 C 
HETATM   17  N2  UNL     1      -0.750  -6.495   0.000  1.00  0.00    -0.220 NA
HETATM   18  O5  UNL     1      -0.750  -3.897   0.000  1.00  0.00    -0.168 OA
BRANCH  17  19
HETATM   19  C8  UNL     1       0.750  -6.495   0.000  1.00  0.00     0.105 C 
BRANCH  19  20
HETATM   20  C7  UNL     1       1.500  -5.196   0.000  1.00  0.00     0.226 C 
HETATM   21  N1  UNL     1       0.750  -3.897   0.000  1.00  0.00    -0.221 NA
HETATM   22  O4  UNL     1       3.000  -5.196   0.000  1.00  0.00    -0.168 OA
BRANCH  21  23
HETATM   23  C4  UNL     1       1.500  -2.598   0.000  1.00  0.00     0.100 C 
BRANCH  23  24
HETATM   24  C3  UNL     1       3.000  -2.598   0.000  1.00  0.00     0.194 C 
HETATM   25  O3  UNL     1       3.750  -3.897   0.000  1.00  0.00    -0.184 OA
BRANCH  24  26
HETATM   26  C2  UNL     1       3.750  -1.299   0.000  1.00  0.00     0.255 C 
HETATM   27  O2  UNL     1       3.000  -0.000   0.000  1.00  0.00    -0.161 OA
BRANCH  26  28
HETATM   28  O1  UNL     1       5.250  -1.299   0.000  1.00  0.00    -0.305 OA
HETATM   29  C1  UNL     1       6.000  -0.000   0.000  1.00  0.00     0.184 C 
ENDBRANCH  26  28
ENDBRANCH  24  26
ENDBRANCH  23  24
BRANCH  23  30
HETATM   30  C5  UNL     1       0.750  -1.299   0.000  1.00  0.00     0.136 C 
BRANCH  30  31
HETATM   31  C6  UNL     1      -0.750  -1.299   0.000  1.00  0.00     0.262 C 
HETATM   32  F1  UNL     1      -1.500   0.000   0.000  1.00  0.00    -0.176 F 
HETATM   33  F2  UNL     1      -1.500  -2.598   0.000  1.00  0.00    -0.176 F 
ENDBRANCH  30  31
ENDBRANCH  23  30
ENDBRANCH  21  23
ENDBRANCH  19  20
BRANCH  19  34
HETATM   34  C9  UNL     1       1.500  -7.794   0.000  1.00  0.00     0.050 C 
BRANCH  34  35
HETATM   35  C10 UNL     1       0.750  -9.093   0.000  1.00  0.00     0.006 A 
HETATM   36  C11 UNL     1       1.500 -10.392   0.000  1.00  0.00     0.000 A 
HETATM   37  C12 UNL     1       0.750 -11.691   0.000  1.00  0.00     0.000 A 
HETATM   38  C13 UNL     1      -0.750 -11.691   0.000  1.00  0.00     0.000 A 
HETATM   39  C14 UNL     1      -1.500 -10.392   0.000  1.00  0.00     0.000 A 
HETATM   40  C15 UNL     1      -0.750  -9.093   0.000  1.00  0.00     0.000 A 
ENDBRANCH  34  35
ENDBRANCH  19  34
ENDBRANCH  17  19
ENDBRANCH   1  16
BRANCH   8  41
HETATM   41  C22 UNL     1      -6.000  -2.598   0.000  1.00  0.00     0.097 A 
HETATM   42  N4  UNL     1      -5.250  -1.299   0.000  1.00  0.00    -0.238 NA
HETATM   43  C23 UNL     1      -6.000   0.000   0.000  1.00  0.00     0.238 A 
HETATM   44  O9  UNL     1      -6.774   0.193   0.000  1.00  0.00    -0.326 OA
HETATM   45  C24 UNL     1      -5.250   1.299   0.000  1.00  0.00     0.090 A 
HETATM   46  C40 UNL     1      -7.500   0.000   0.000  1.00  0.00     0.183 A 
HETATM   47  C25 UNL     1      -3.750   1.299   0.000  1.00  0.00     0.087 A 
HETATM   48  N5  UNL     1      -6.000   2.598   0.000  1.00  0.00    -0.226 NA
HETATM   49  C26 UNL     1      -3.000   2.598   0.000  1.00  0.00     0.215 A 
HETATM   50  O12 UNL     1      -3.750   3.897   0.000  1.00  0.00    -0.305 OA
HETATM   51  C28 UNL     1      -5.250   3.897   0.000  1.00  0.00     0.193 A 
HETATM   52  C29 UNL     1      -6.000   5.196   0.000  1.00  0.00     0.112 A 
HETATM   53  N6  UNL     1      -7.500   5.196   0.000  1.00  0.00    -0.227 NA
HETATM   54  C32 UNL     1      -8.250   3.897   0.000  1.00  0.00     0.154 A 
HETATM   55  O15 UNL     1      -7.500   2.598   0.000  1.00  0.00    -0.318 OA
HETATM   56  C33 UNL     1      -9.750   3.897   0.000  1.00  0.00     0.080 C 
HETATM   57  C39 UNL     1      -8.250   1.299   0.000  1.00  0.00     0.156 A 
HETATM   58  C38 UNL     1      -9.750   1.299   0.000  1.00  0.00     0.034 A 
HETATM   59  C37 UNL     1     -10.500  -0.000   0.000  1.00  0.00     0.007 A 
HETATM   60  C36 UNL     1      -9.750  -1.299   0.000  1.00  0.00     0.025 A 
HETATM   61  C35 UNL     1      -8.250  -1.299   0.000  1.00  0.00    -0.012 A 
HETATM   62  C34 UNL     1      -7.500  -2.598   0.000  1.00  0.00     0.009 A 
BRANCH  49  63
HETATM   63  C27 UNL     1      -1.500   2.598   0.000  1.00  0.00     0.215 C 
HETATM   64  O10 UNL     1      -0.750   3.897   0.000  1.00  0.00    -0.646 OA
HETATM   65  O11 UNL     1      -0.750   1.299   0.000  1.00  0.00    -0.646 OA
ENDBRANCH  49  63
BRANCH  52  66
HETATM   66  C30 UNL     1      -5.250   6.495   0.000  1.00  0.00     0.147 C 
BRANCH  66  67
HETATM   67  C31 UNL     1      -6.000   7.794   0.000  1.00  0.00     0.192 C 
HETATM   68  O13 UNL     1      -7.500   7.794   0.000  1.00  0.00    -0.647 OA
HETATM   69  O14 UNL     1      -5.250   9.093   0.000  1.00  0.00    -0.647 OA
ENDBRANCH  66  67
ENDBRANCH  52  66
ENDBRANCH   8  41
TORSDOF 16
