REMARK WARNING: 32 MAX_TORS EXCEEDED!!!
REMARK  70 active torsions:
REMARK  status: ('A' for Active; 'I' for Inactive)
REMARK    1  A    between atoms: C1_2  and  C37_55 
REMARK    2  A    between atoms: C1_2  and  C38_56 
REMARK    3  A    between atoms: C2_4  and  C6_9 
REMARK    4  A    between atoms: C3_5  and  C6_9 
REMARK    5  A    between atoms: C3_5  and  C18_26 
REMARK    6  A    between atoms: C3_5  and  C21_30 
REMARK    7  A    between atoms: C4_6  and  C5_8 
REMARK    8  A    between atoms: N1_7  and  C5_8 
REMARK    9  A    between atoms: N1_7  and  C11_14 
REMARK   10  A    between atoms: N1_7  and  CL1_39 
REMARK   11  A    between atoms: C5_8  and  C6_9 
REMARK   12  A    between atoms: C5_8  and  C7_10 
REMARK   13  A    between atoms: C5_8  and  C8_11 
REMARK   14  A    between atoms: C5_8  and  C9_12 
REMARK   15  A    between atoms: C5_8  and  O2_25 
REMARK   16  A    between atoms: C6_9  and  C9_12 
REMARK   17  A    between atoms: C6_9  and  C10_13 
REMARK   18  A    between atoms: C7_10  and  C10_13 
REMARK   19  A    between atoms: C8_11  and  C10_13 
REMARK   20  A    between atoms: C8_11  and  CL1_39 
REMARK   21  A    between atoms: C9_12  and  C10_13 
REMARK   22  A    between atoms: C9_12  and  O1_19 
REMARK   23  A    between atoms: C9_12  and  C14_20 
REMARK   24  A    between atoms: C11_14  and  S1_17 
REMARK   25  A    between atoms: N2_15  and  C13_18 
REMARK   26  A    between atoms: N2_15  and  C17_24 
REMARK   27  A    between atoms: C12_16  and  C13_18 
REMARK   28  A    between atoms: C12_16  and  C17_24 
REMARK   29  A    between atoms: S1_17  and  C13_18 
REMARK   30  A    between atoms: S1_17  and  N3_21 
REMARK   31  A    between atoms: O1_19  and  CL1_39 
REMARK   32  A    between atoms: C16_23  and  C17_24 
REMARK   33  A    between atoms: C17_24  and  O4_38 
REMARK   34  A    between atoms: C17_24  and  O8_52 
REMARK   35  A    between atoms: C18_26  and  C20_29 
REMARK   36  A    between atoms: C19_27  and  C21_30 
REMARK   37  A    between atoms: C19_27  and  N5_34 
REMARK   38  A    between atoms: N4_28  and  C21_30 
REMARK   39  A    between atoms: C20_29  and  C21_30 
REMARK   40  A    between atoms: C20_29  and  C22_31 
REMARK   41  A    between atoms: C21_30  and  C25_36 
REMARK   42  A    between atoms: C22_31  and  C27_41 
REMARK   43  A    between atoms: C23_32  and  O3_33 
REMARK   44  A    between atoms: O3_33  and  N6_37 
REMARK   45  A    between atoms: O3_33  and  C27_41 
REMARK   46  A    between atoms: N5_34  and  C24_35 
REMARK   47  A    between atoms: C25_36  and  C34_50 
REMARK   48  A    between atoms: C25_36  and  O8_52 
REMARK   49  A    between atoms: N6_37  and  O4_38 
REMARK   50  A    between atoms: O4_38  and  C34_50 
REMARK   51  A    between atoms: O4_38  and  O8_52 
REMARK   52  A    between atoms: C26_40  and  C27_41 
REMARK   53  A    between atoms: C26_40  and  C28_42 
REMARK   54  A    between atoms: C26_40  and  C29_43 
REMARK   55  A    between atoms: C26_40  and  O6_45 
REMARK   56  A    between atoms: C27_41  and  C28_42 
REMARK   57  A    between atoms: C27_41  and  C36_54 
REMARK   58  A    between atoms: O6_45  and  C38_56 
REMARK   59  A    between atoms: C30_46  and  C39_57 
REMARK   60  A    between atoms: C30_46  and  C40_58 
REMARK   61  A    between atoms: C32_48  and  C34_50 
REMARK   62  A    between atoms: C33_49  and  C34_50 
REMARK   63  A    between atoms: C33_49  and  O7_51 
REMARK   64  A    between atoms: C33_49  and  C35_53 
REMARK   65  A    between atoms: C37_55  and  C40_58 
REMARK   66  A    between atoms: C37_55  and  C38_56 
REMARK   67  A    between atoms: C37_55  and  C39_57 
REMARK   68  A    between atoms: C38_56  and  C39_57 
REMARK   69  A    between atoms: C38_56  and  C40_58 
REMARK   70  A    between atoms: C39_57  and  C40_58 
ROOT
HETATM    1  F1  UNL     1       7.579 -16.538   0.000  1.00  0.00    -0.360 F 
HETATM    2  C1  UNL     1       7.796 -15.742   0.000  1.00  0.00     0.168 A 
HETATM    3  F2  UNL     1       6.998 -15.952   0.000  1.00  0.00    -0.360 F 
HETATM    4  C39 UNL     1       8.607 -15.570   0.000  1.00  0.00     0.135 A 
HETATM    5  C40 UNL     1       8.052 -14.955   0.000  1.00  0.00     0.135 A 
ENDROOT
BRANCH   2   6
HETATM    6  C37 UNL     1       8.470 -14.242   0.000  1.00  0.00     0.105 A 
HETATM    7  C30 UNL     1       9.278 -14.412   0.000  1.00  0.00     0.068 A 
HETATM    8  O5  UNL     1       9.892 -13.861   0.000  1.00  0.00     0.000 OA
HETATM    9  C38 UNL     1       9.361 -15.236   0.000  1.00  0.00     0.105 A 
HETATM   10  C29 UNL     1      10.676 -14.117   0.000  1.00  0.00     0.005 A 
HETATM   11  N5  UNL     1      11.290 -13.566   0.000  1.00  0.00     0.000 N 
HETATM   12  C23 UNL     1      12.100 -13.728   0.000  1.00  0.00     0.000 A 
HETATM   13  C22 UNL     1      12.645 -13.108   0.000  1.00  0.00     0.000 A 
HETATM   14  O6  UNL     1      10.846 -14.924   0.000  1.00  0.00     0.000 OA
HETATM   15  C24 UNL     1      12.364 -14.509   0.000  1.00  0.00     0.000 A 
HETATM   16  N4  UNL     1      12.380 -12.327   0.000  1.00  0.00     0.000 N 
HETATM   17  C26 UNL     1      11.819 -15.129   0.000  1.00  0.00     0.000 A 
HETATM   18  C27 UNL     1      13.173 -14.671   0.000  1.00  0.00     0.000 A 
HETATM   19  C28 UNL     1      12.575 -15.304   0.000  1.00  0.00     0.000 A 
HETATM   20  C19 UNL     1      11.593 -12.081   0.000  1.00  0.00     0.000 A 
HETATM   21  C20 UNL     1      12.857 -11.653   0.000  1.00  0.00     0.000 A 
HETATM   22  C18 UNL     1      11.585 -11.253   0.000  1.00  0.00     0.003 A 
HETATM   23  O3  UNL     1      13.453 -13.270   0.000  1.00  0.00     0.000 OA
HETATM   24  C25 UNL     1      13.682 -11.644   0.000  1.00  0.00     0.000 A 
HETATM   25  O2  UNL     1      10.870 -10.840   0.000  1.00  0.00     0.000 OA
HETATM   26  C2  UNL     1      10.871 -10.015   0.000  1.00  0.00     0.016 A 
HETATM   27  C3  UNL     1      11.587  -9.602   0.000  1.00  0.00     0.018 A 
HETATM   28  C21 UNL     1      12.365 -10.992   0.000  1.00  0.00     0.002 A 
HETATM   29  C5  UNL     1      10.156  -9.602   0.000  1.00  0.00     0.029 A 
HETATM   30  C4  UNL     1      11.584  -8.771   0.000  1.00  0.00     0.027 A 
HETATM   31  C10 UNL     1       9.445 -10.013   0.000  1.00  0.00     0.030 A 
HETATM   32  N1  UNL     1      10.869  -8.362   0.000  1.00  0.00     0.000 N 
HETATM   33  C11 UNL     1      12.295  -8.358   0.000  1.00  0.00     0.042 A 
HETATM   34  C6  UNL     1      10.158  -8.777   0.000  1.00  0.00     0.031 A 
HETATM   35  N2  UNL     1      13.072  -8.635   0.000  1.00  0.00     0.000 N 
HETATM   36  C13 UNL     1      12.319  -7.533   0.000  1.00  0.00     0.048 A 
HETATM   37  C7  UNL     1       9.445  -8.364   0.000  1.00  0.00     0.044 A 
HETATM   38  C8  UNL     1       8.730  -8.775   0.000  1.00  0.00     0.038 A 
HETATM   39 CL1  UNL     1       9.447  -7.539   0.000  1.00  0.00    -0.254 Cl
HETATM   40  C9  UNL     1       8.732  -9.604   0.000  1.00  0.00     0.030 A 
HETATM   41  O1  UNL     1       8.015  -8.363   0.000  1.00  0.00     0.000 OA
HETATM   42  C14 UNL     1       7.301  -8.775   0.000  1.00  0.00     0.015 A 
HETATM   43  C12 UNL     1      13.576  -7.981   0.000  1.00  0.00     0.040 A 
HETATM   44  S1  UNL     1      13.110  -7.300   0.000  1.00  0.00    -0.181 SA
HETATM   45  N3  UNL     1      14.400  -8.005   0.000  1.00  0.00     0.000 N 
HETATM   46  C15 UNL     1      14.793  -8.731   0.000  1.00  0.00     0.010 A 
HETATM   47  C16 UNL     1      15.617  -8.754   0.000  1.00  0.00     0.002 A 
HETATM   48  C17 UNL     1      14.360  -9.433   0.000  1.00  0.00     0.010 A 
HETATM   49  N6  UNL     1      14.103 -12.353   0.000  1.00  0.00     0.000 N 
HETATM   50  O4  UNL     1      14.086 -10.925   0.000  1.00  0.00     0.000 OA
HETATM   51  C31 UNL     1      14.928 -12.343   0.000  1.00  0.00     0.000 A 
HETATM   52  C32 UNL     1      15.343 -13.053   0.000  1.00  0.00     0.000 A 
HETATM   53  C34 UNL     1      15.137 -11.542   0.000  1.00  0.00     0.000 A 
HETATM   54  C33 UNL     1      15.752 -12.337   0.000  1.00  0.00     0.000 A 
HETATM   55  O7  UNL     1      15.933 -11.323   0.000  1.00  0.00     0.000 OA
HETATM   56  O8  UNL     1      14.550 -10.962   0.000  1.00  0.00     0.000 OA
HETATM   57  C35 UNL     1      15.347 -13.878   0.000  1.00  0.00     0.000 A 
HETATM   58  C36 UNL     1      14.635 -14.294   0.000  1.00  0.00     0.000 A 
ENDBRANCH   2   6
TORSDOF 70
