REMARK  3 active torsions:
REMARK  status: ('A' for Active; 'I' for Inactive)
REMARK       I    between atoms: C2_2  and  N1_4 
REMARK    1  A    between atoms: N1_4  and  C3_5 
REMARK    2  A    between atoms: C4_6  and  C5_7 
REMARK    3  A    between atoms: N7_64  and  C44_65 
ROOT
HETATM    1  C3  UNL     1       3.897  -1.357   0.000  1.00  0.00     0.130 A 
HETATM    2  C4  UNL     1       5.196  -0.607   0.000  1.00  0.00     0.084 A 
HETATM    3  C6  UNL     1       3.897  -2.857   0.000  1.00  0.00     0.201 A 
HETATM    4  O4  UNL     1       5.196  -3.607   0.000  1.00  0.00    -0.289 OA
HETATM    5  N2  UNL     1       2.598  -3.607   0.000  1.00  0.00    -0.222 NA
HETATM    6  C7  UNL     1       2.598  -5.107   0.000  1.00  0.00     0.105 A 
HETATM    7  C8  UNL     1       1.299  -5.857   0.000  1.00  0.00     0.055 A 
HETATM    8  C9  UNL     1       0.000  -5.107   0.000  1.00  0.00     0.071 A 
HETATM    9  C10 UNL     1      -1.299  -5.857   0.000  1.00  0.00     0.275 A 
HETATM   10  O5  UNL     1      -1.299  -7.357   0.000  1.00  0.00    -0.291 OA
HETATM   11  O6  UNL     1      -2.598  -5.107   0.000  1.00  0.00    -0.190 OA
HETATM   12  C11 UNL     1       3.897  -5.857   0.000  1.00  0.00     0.227 A 
HETATM   13  O7  UNL     1       3.897  -7.357   0.000  1.00  0.00    -0.168 OA
HETATM   14  N3  UNL     1       5.196  -5.107   0.000  1.00  0.00    -0.217 NA
HETATM   15  C12 UNL     1       6.495  -5.857   0.000  1.00  0.00     0.102 A 
HETATM   16  C13 UNL     1       7.794  -5.107   0.000  1.00  0.00     0.013 A 
HETATM   17  C14 UNL     1       7.794  -3.607   0.000  1.00  0.00     0.002 A 
HETATM   18  C15 UNL     1       9.093  -2.857   0.000  1.00  0.00     0.029 A 
HETATM   19  C16 UNL     1       9.093  -1.357   0.000  1.00  0.00     0.009 A 
HETATM   20  C17 UNL     1       7.794  -0.607   0.000  1.00  0.00     0.029 A 
HETATM   21  C18 UNL     1       6.495  -1.357   0.000  1.00  0.00     0.008 A 
HETATM   22  C19 UNL     1       6.495  -2.857   0.000  1.00  0.00     0.094 A 
HETATM   23  C20 UNL     1       9.093  -5.857   0.000  1.00  0.00    -0.019 A 
HETATM   24  C21 UNL     1       9.093  -7.357   0.000  1.00  0.00     0.016 A 
HETATM   25  C22 UNL     1      10.392  -8.107   0.000  1.00  0.00     0.080 A 
HETATM   26  C23 UNL     1      11.691  -7.357   0.000  1.00  0.00     0.052 A 
HETATM   27  C24 UNL     1      11.691  -5.857   0.000  1.00  0.00     0.011 A 
HETATM   28  C25 UNL     1      10.392  -5.107   0.000  1.00  0.00     0.027 A 
HETATM   29  C26 UNL     1       6.495  -7.357   0.000  1.00  0.00     0.118 A 
HETATM   30  O8  UNL     1       7.794  -8.107   0.000  1.00  0.00     0.000 OA
HETATM   31  N4  UNL     1       5.196  -8.107   0.000  1.00  0.00    -0.243 NA
HETATM   32  C27 UNL     1       5.196  -9.607   0.000  1.00  0.00     0.107 A 
HETATM   33  C28 UNL     1       6.495 -10.357   0.000  1.00  0.00     0.080 A 
HETATM   34  C29 UNL     1       7.794  -9.607   0.000  1.00  0.00     0.034 A 
HETATM   35  C30 UNL     1       9.093 -10.357   0.000  1.00  0.00     0.229 A 
HETATM   36  O9  UNL     1       9.093 -11.857   0.000  1.00  0.00    -0.163 OA
HETATM   37  O10 UNL     1      10.392  -9.607   0.000  1.00  0.00    -0.288 OA
HETATM   38  C31 UNL     1       3.897 -10.357   0.000  1.00  0.00     0.227 A 
HETATM   39  O11 UNL     1       3.897 -11.857   0.000  1.00  0.00    -0.168 OA
HETATM   40  N5  UNL     1       2.598  -9.607   0.000  1.00  0.00    -0.219 NA
HETATM   41  C32 UNL     1       1.299 -10.357   0.000  1.00  0.00     0.108 A 
HETATM   42  C33 UNL     1       1.299 -11.857   0.000  1.00  0.00     0.073 A 
HETATM   43  C34 UNL     1       0.000 -12.607   0.000  1.00  0.00    -0.021 A 
HETATM   44  C35 UNL     1       0.000 -14.107   0.000  1.00  0.00     0.024 A 
HETATM   45  C36 UNL     1      -1.299 -14.857   0.000  1.00  0.00     0.011 A 
HETATM   46  C37 UNL     1      -2.598 -14.107   0.000  1.00  0.00     0.046 A 
HETATM   47  C38 UNL     1      -2.598 -12.607   0.000  1.00  0.00     0.058 A 
HETATM   48  C39 UNL     1      -1.299 -11.857   0.000  1.00  0.00     0.070 A 
HETATM   49  C40 UNL     1       0.000  -9.607   0.000  1.00  0.00     0.212 A 
HETATM   50  O12 UNL     1      -0.000  -8.107   0.000  1.00  0.00    -0.169 OA
HETATM   51  N6  UNL     1      -1.299 -10.357   0.000  1.00  0.00    -0.279 N 
HETATM   52  C41 UNL     1      -2.598  -9.607   0.000  1.00  0.00     0.141 A 
HETATM   53  C42 UNL     1      -2.598  -8.107   0.000  1.00  0.00     0.171 A 
HETATM   54  S1  UNL     1      -3.897  -7.357   0.000  1.00  0.00    -0.050 SA
HETATM   55  C43 UNL     1      -3.897 -10.357   0.000  1.00  0.00     0.217 A 
HETATM   56  O13 UNL     1      -5.196  -9.607   0.000  1.00  0.00    -0.169 OA
HETATM   57  N7  UNL     1      -3.897 -11.857   0.000  1.00  0.00    -0.294 N 
ENDROOT
BRANCH  57  58
HETATM   58  C44 UNL     1      -5.196 -12.607   0.000  1.00  0.00     0.029 A 
HETATM   59  C45 UNL     1      -5.353 -14.099   0.000  1.00  0.00     0.061 A 
HETATM   60  C46 UNL     1      -6.820 -14.411   0.000  1.00  0.00    -0.046 A 
HETATM   61  C47 UNL     1      -7.570 -15.710   0.000  1.00  0.00     0.022 A 
HETATM   62  C51 UNL     1      -7.570 -13.112   0.000  1.00  0.00    -0.046 A 
HETATM   63  C48 UNL     1      -9.070 -15.710   0.000  1.00  0.00     0.005 A 
HETATM   64  C49 UNL     1      -9.820 -14.411   0.000  1.00  0.00     0.005 A 
HETATM   65  C50 UNL     1      -9.070 -13.112   0.000  1.00  0.00     0.022 A 
HETATM   66  C52 UNL     1      -6.566 -11.997   0.000  1.00  0.00     0.061 A 
ENDBRANCH  57  58
BRANCH   1  67
HETATM   67  N1  UNL     1       2.598  -0.607   0.000  1.00  0.00    -0.220 NA
HETATM   68  C2  UNL     1       1.299  -1.357   0.000  1.00  0.00     0.190 C 
HETATM   69  C1  UNL     1      -0.000  -0.607   0.000  1.00  0.00     0.083 C 
HETATM   70  O1  UNL     1       1.299  -2.857   0.000  1.00  0.00    -0.174 OA
ENDBRANCH   1  67
BRANCH   2  71
HETATM   71  C5  UNL     1       5.196   0.893   0.000  1.00  0.00     0.212 C 
HETATM   72  O2  UNL     1       3.897   1.643   0.000  1.00  0.00    -0.644 OA
HETATM   73  O3  UNL     1       6.495   1.643   0.000  1.00  0.00    -0.644 OA
ENDBRANCH   2  71
TORSDOF 3
