REMARK  6 active torsions:
REMARK  status: ('A' for Active; 'I' for Inactive)
REMARK    1  A    between atoms: C10_13  and  C17_20 
REMARK    2  A    between atoms: C18_23  and  C24_30 
REMARK       I    between atoms: C24_30  and  N4_32 
REMARK    3  A    between atoms: C28_36  and  C29_37 
REMARK    4  A    between atoms: C30_40  and  C35_45 
REMARK       I    between atoms: C35_45  and  N6_47 
REMARK    5  A    between atoms: N6_47  and  S1_48 
REMARK    6  A    between atoms: S1_48  and  N7_51 
ROOT
HETATM    1  C24 UNL     1       2.984  -5.534   0.000  1.00  0.00     0.212 C 
HETATM    2  O4  UNL     1       4.476  -5.691   0.000  1.00  0.00    -0.169 OA
HETATM    3  N4  UNL     1       2.374  -4.163   0.000  1.00  0.00    -0.306 N 
HETATM    4  C25 UNL     1       0.907  -3.852   0.000  1.00  0.00     0.108 A 
HETATM    5  C26 UNL     1       0.750  -2.360   0.000  1.00  0.00     0.027 A 
HETATM    6  C27 UNL     1       2.120  -1.750   0.000  1.00  0.00     0.049 A 
HETATM    7  C28 UNL     1       3.124  -2.864   0.000  1.00  0.00     0.080 A 
HETATM    8  C40 UNL     1      -0.750  -2.360   0.000  1.00  0.00     0.002 A 
HETATM    9  C41 UNL     1      -1.010  -3.837   0.000  1.00  0.00     0.000 C 
HETATM   10  C42 UNL     1      -2.159  -1.847   0.000  1.00  0.00     0.000 C 
HETATM   11  C43 UNL     1      -0.000  -1.061   0.000  1.00  0.00     0.002 A 
HETATM   12  C44 UNL     1       1.061   0.000   0.000  1.00  0.00     0.000 A 
HETATM   13  C45 UNL     1       0.000   1.061   0.000  1.00  0.00     0.000 A 
HETATM   14  C46 UNL     1      -1.061   0.000   0.000  1.00  0.00     0.000 A 
ENDROOT
BRANCH   1  15
HETATM   15  C18 UNL     1       2.102  -6.747   0.000  1.00  0.00     0.123 A 
HETATM   16  N3  UNL     1       0.611  -6.590   0.000  1.00  0.00    -0.217 NA
HETATM   17  C17 UNL     1      -0.271  -7.804   0.000  1.00  0.00     0.200 A 
HETATM   18  O2  UNL     1       0.339  -9.174   0.000  1.00  0.00    -0.290 OA
HETATM   19  C20 UNL     1       1.831  -9.331   0.000  1.00  0.00     0.107 A 
HETATM   20  C19 UNL     1       2.712  -8.117   0.000  1.00  0.00     0.023 A 
HETATM   21  C21 UNL     1       2.441 -10.701   0.000  1.00  0.00     0.193 A 
HETATM   22  C23 UNL     1       4.204  -8.274   0.000  1.00  0.00     0.062 A 
HETATM   23  C22 UNL     1       4.814  -9.645   0.000  1.00  0.00     0.148 A 
HETATM   24  O3  UNL     1       3.933 -10.858   0.000  1.00  0.00    -0.347 OA
BRANCH  17  25
HETATM   25  C10 UNL     1      -1.763  -7.647   0.000  1.00  0.00     0.118 A 
HETATM   26  N2  UNL     1      -2.373  -6.277   0.000  1.00  0.00    -0.240 NA
HETATM   27  C9  UNL     1      -3.865  -6.120   0.000  1.00  0.00     0.112 A 
HETATM   28  C8  UNL     1      -4.475  -4.750   0.000  1.00  0.00     0.056 A 
HETATM   29  O1  UNL     1      -4.746  -7.333   0.000  1.00  0.00     0.000 OA
HETATM   30  N1  UNL     1      -5.967  -4.593   0.000  1.00  0.00    -0.337 N 
HETATM   31  C7  UNL     1      -3.593  -3.536   0.000  1.00  0.00     0.045 A 
HETATM   32  C2  UNL     1      -6.848  -5.806   0.000  1.00  0.00     0.015 A 
HETATM   33  C4  UNL     1      -6.577  -3.223   0.000  1.00  0.00     0.105 A 
HETATM   34  C1  UNL     1      -8.340  -5.650   0.000  1.00  0.00     0.045 C 
HETATM   35  C3  UNL     1      -6.238  -7.177   0.000  1.00  0.00     0.045 A 
HETATM   36  C5  UNL     1      -5.695  -2.009   0.000  1.00  0.00     0.025 A 
HETATM   37  C6  UNL     1      -4.203  -2.166   0.000  1.00  0.00     0.008 A 
HETATM   38  C12 UNL     1      -4.136  -8.704   0.000  1.00  0.00    -0.029 A 
HETATM   39  C11 UNL     1      -2.644  -8.861   0.000  1.00  0.00    -0.005 A 
HETATM   40  C13 UNL     1      -5.018  -9.917   0.000  1.00  0.00     0.026 A 
HETATM   41  C16 UNL     1      -2.034 -10.231   0.000  1.00  0.00     0.028 A 
HETATM   42  C15 UNL     1      -2.916 -11.444   0.000  1.00  0.00     0.005 A 
HETATM   43  C14 UNL     1      -4.408 -11.288   0.000  1.00  0.00     0.005 A 
ENDBRANCH  17  25
ENDBRANCH   1  15
BRANCH   7  44
HETATM   44  C29 UNL     1       4.616  -2.708   0.000  1.00  0.00     0.190 A 
HETATM   45  O5  UNL     1       5.226  -1.337   0.000  1.00  0.00    -0.294 OA
HETATM   46  C33 UNL     1       6.436  -0.920   0.000  1.00  0.00     0.074 A 
HETATM   47  C32 UNL     1       7.094  -2.268   0.000  1.00  0.00     0.005 A 
HETATM   48  C34 UNL     1       7.275   0.324   0.000  1.00  0.00     0.058 C 
HETATM   49  C30 UNL     1       6.989  -3.764   0.000  1.00  0.00     0.167 A 
HETATM   50  C31 UNL     1       8.337  -3.107   0.000  1.00  0.00     0.060 A 
HETATM   51  N5  UNL     1       5.497  -3.921   0.000  1.00  0.00    -0.239 NA
BRANCH  49  52
HETATM   52  C35 UNL     1       7.403  -5.206   0.000  1.00  0.00     0.226 C 
HETATM   53  O6  UNL     1       6.361  -6.285   0.000  1.00  0.00    -0.171 OA
HETATM   54  N6  UNL     1       8.858  -5.569   0.000  1.00  0.00    -0.119 NA
BRANCH  54  55
HETATM   55  S1  UNL     1       9.272  -7.011   0.000  1.00  0.00     0.346 S 
HETATM   56  O7  UNL     1      10.713  -6.598   0.000  1.00  0.00    -0.180 OA
HETATM   57  O8  UNL     1       7.830  -7.424   0.000  1.00  0.00    -0.180 OA
BRANCH  55  58
HETATM   58  N7  UNL     1       9.685  -8.453   0.000  1.00  0.00    -0.260 N 
HETATM   59  C36 UNL     1       8.762  -9.635   0.000  1.00  0.00     0.115 A 
HETATM   60  C37 UNL     1       9.600 -10.878   0.000  1.00  0.00     0.027 A 
HETATM   61  C38 UNL     1      11.042 -10.465   0.000  1.00  0.00     0.027 A 
HETATM   62  C39 UNL     1      11.095  -8.966   0.000  1.00  0.00     0.115 A 
ENDBRANCH  55  58
ENDBRANCH  54  55
ENDBRANCH  49  52
ENDBRANCH   7  44
TORSDOF 6
