REMARK  7 active torsions:
REMARK  status: ('A' for Active; 'I' for Inactive)
REMARK    1  A    between atoms: C2_2  and  C3_3 
REMARK    2  A    between atoms: C3_3  and  C4_4 
REMARK    3  A    between atoms: C6_8  and  N2_9 
REMARK       I    between atoms: N2_9  and  C7_10 
REMARK    4  A    between atoms: C7_10  and  C8_12 
REMARK    5  A    between atoms: C9_14  and  O4_16 
REMARK    6  A    between atoms: O4_16  and  C10_17 
REMARK    7  A    between atoms: C31_45  and  C32_47 
ROOT
HETATM    1  C4  UNL     1       7.055  -2.176   0.000  1.00  0.00     0.168 A 
HETATM    2  N1  UNL     1       5.756  -2.926   0.000  1.00  0.00    -0.374 NA
HETATM    3  C5  UNL     1       4.289  -3.238   0.000  1.00  0.00     0.278 A 
HETATM    4  O1  UNL     1       4.367  -4.736   0.000  1.00  0.00    -0.153 OA
HETATM    5  C6  UNL     1       2.797  -3.081   0.000  1.00  0.00     0.132 A 
HETATM    6  C18 UNL     1       0.750  -1.299   0.000  1.00  0.00    -0.022 A 
HETATM    7  C19 UNL     1       1.500   0.000   0.000  1.00  0.00     0.026 A 
HETATM    8  C20 UNL     1       0.750   1.299   0.000  1.00  0.00     0.035 A 
HETATM    9  C21 UNL     1      -0.750   1.299   0.000  1.00  0.00     0.124 A 
HETATM   10  O5  UNL     1      -0.593   2.791   0.000  1.00  0.00    -0.311 OA
HETATM   11  C22 UNL     1       0.017   4.161   0.000  1.00  0.00     0.219 A 
HETATM   12  C23 UNL     1       1.021   5.276   0.000  1.00  0.00    -0.030 A 
HETATM   13  C24 UNL     1       2.320   6.026   0.000  1.00  0.00     0.163 A 
HETATM   14  C25 UNL     1       3.787   6.338   0.000  1.00  0.00    -0.024 A 
HETATM   15  C26 UNL     1       5.279   6.181   0.000  1.00  0.00    -0.006 A 
HETATM   16  C27 UNL     1       6.649   5.571   0.000  1.00  0.00    -0.000 A 
HETATM   17  C28 UNL     1       7.764   4.567   0.000  1.00  0.00     0.005 A 
HETATM   18  C29 UNL     1       8.514   3.268   0.000  1.00  0.00     0.076 A 
HETATM   19  S1  UNL     1       8.825   1.801   0.000  1.00  0.00     0.369 S 
HETATM   20  O6  UNL     1      10.039   2.683   0.000  1.00  0.00    -0.177 OA
HETATM   21  O7  UNL     1      10.125   1.051   0.000  1.00  0.00    -0.177 OA
HETATM   22  N4  UNL     1       8.669   0.309   0.000  1.00  0.00    -0.280 NA
HETATM   23  C30 UNL     1       8.059  -1.061   0.000  1.00  0.00     0.300 A 
HETATM   24  O8  UNL     1       9.317  -1.878   0.000  1.00  0.00    -0.152 OA
HETATM   25  N5  UNL     1       1.092   6.962   0.000  1.00  0.00    -0.211 NA
HETATM   26  C31 UNL     1      -0.390   6.727   0.000  1.00  0.00     0.159 A 
HETATM   27  N6  UNL     1      -0.927   5.327   0.000  1.00  0.00    -0.197 NA
HETATM   28  C38 UNL     1      -1.500   0.000   0.000  1.00  0.00     0.035 A 
HETATM   29  C39 UNL     1      -0.750  -1.299   0.000  1.00  0.00     0.026 A 
ENDROOT
BRANCH   5  30
HETATM   30  N2  UNL     1       2.409  -4.530   0.000  1.00  0.00    -0.215 NA
HETATM   31  C7  UNL     1       0.960  -4.918   0.000  1.00  0.00     0.228 C 
HETATM   32  O2  UNL     1      -0.101  -3.857   0.000  1.00  0.00    -0.168 OA
BRANCH  31  33
HETATM   33  C8  UNL     1       0.572  -6.367   0.000  1.00  0.00     0.118 A 
HETATM   34  N3  UNL     1       1.632  -7.428   0.000  1.00  0.00    -0.200 NA
HETATM   35  C9  UNL     1       1.244  -8.877   0.000  1.00  0.00     0.301 A 
HETATM   36  O3  UNL     1      -0.205  -9.265   0.000  1.00  0.00    -0.231 OA
HETATM   37  C15 UNL     1      -0.489  -8.204   0.000  1.00  0.00     0.003 A 
HETATM   38  C14 UNL     1      -0.877  -6.755   0.000  1.00  0.00     0.108 A 
HETATM   39  C16 UNL     1      -1.266  -5.306   0.000  1.00  0.00     0.021 C 
HETATM   40  C17 UNL     1      -2.326  -7.144   0.000  1.00  0.00     0.021 C 
BRANCH  35  41
HETATM   41  O4  UNL     1       2.305  -9.937   0.000  1.00  0.00    -0.300 OA
BRANCH  41  42
HETATM   42  C10 UNL     1       1.916 -11.386   0.000  1.00  0.00     0.102 C 
HETATM   43  C11 UNL     1       3.365 -11.774   0.000  1.00  0.00     0.030 C 
HETATM   44  C12 UNL     1       0.468 -10.998   0.000  1.00  0.00     0.030 C 
HETATM   45  C13 UNL     1       1.528 -12.835   0.000  1.00  0.00     0.030 C 
ENDBRANCH  41  42
ENDBRANCH  35  41
ENDBRANCH  31  33
ENDBRANCH   5  30
BRANCH   1  46
HETATM   46  C3  UNL     1       7.999  -3.342   0.000  1.00  0.00     0.064 C 
BRANCH  46  47
HETATM   47  C2  UNL     1       7.461  -4.742   0.000  1.00  0.00     0.008 C 
HETATM   48  C1  UNL     1       8.405  -5.908   0.000  1.00  0.00     0.000 C 
ENDBRANCH  46  47
ENDBRANCH   1  46
BRANCH  26  49
HETATM   49  C32 UNL     1      -1.333   7.893   0.000  1.00  0.00    -0.008 A 
HETATM   50  C33 UNL     1      -0.796   9.293   0.000  1.00  0.00     0.025 A 
HETATM   51  C34 UNL     1      -1.740  10.459   0.000  1.00  0.00     0.004 A 
HETATM   52  C35 UNL     1      -3.221  10.224   0.000  1.00  0.00     0.001 A 
HETATM   53  C36 UNL     1      -3.759   8.824   0.000  1.00  0.00     0.004 A 
HETATM   54  C37 UNL     1      -2.815   7.658   0.000  1.00  0.00     0.025 A 
ENDBRANCH  26  49
TORSDOF 7
