REMARK  7 active torsions:
REMARK  status: ('A' for Active; 'I' for Inactive)
REMARK    1  A    between atoms: C3_3  and  N1_4 
REMARK       I    between atoms: N1_4  and  C4_5 
REMARK    2  A    between atoms: C4_5  and  C5_7 
REMARK    3  A    between atoms: C11_15  and  N3_16 
REMARK       I    between atoms: N3_16  and  C12_17 
REMARK    4  A    between atoms: C12_17  and  C13_19 
REMARK    5  A    between atoms: C13_19  and  N4_20 
REMARK    6  A    between atoms: C13_19  and  C19_29 
REMARK       I    between atoms: N4_20  and  C14_21 
REMARK    7  A    between atoms: C14_21  and  C15_23 
ROOT
HETATM    1  C5  UNL     1       8.382  -3.983   0.000  1.00  0.00     0.102 A 
HETATM    2  C6  UNL     1       9.808  -4.446   0.000  1.00  0.00    -0.018 A 
HETATM    3  C7  UNL     1      11.022  -3.564   0.000  1.00  0.00     0.028 C 
HETATM    4  C8  UNL     1       9.808  -5.946   0.000  1.00  0.00     0.068 A 
HETATM    5  C9  UNL     1       8.382  -6.410   0.000  1.00  0.00     0.047 A 
HETATM    6  N2  UNL     1       7.500  -5.196   0.000  1.00  0.00    -0.285 N 
HETATM    7  C10 UNL     1       6.000  -5.196   0.000  1.00  0.00     0.216 A 
HETATM    8  O2  UNL     1       5.250  -3.897   0.000  1.00  0.00    -0.169 OA
HETATM    9  C11 UNL     1       5.250  -6.495   0.000  1.00  0.00     0.122 A 
HETATM   10  C22 UNL     1       6.000  -7.794   0.000  1.00  0.00     0.001 A 
HETATM   11  C23 UNL     1       7.500  -7.794   0.000  1.00  0.00     0.011 A 
HETATM   12  C24 UNL     1       5.250  -9.093   0.000  1.00  0.00     0.033 C 
ENDROOT
BRANCH   1  13
HETATM   13  C4  UNL     1       7.918  -2.556   0.000  1.00  0.00     0.228 C 
HETATM   14  N1  UNL     1       8.922  -1.441   0.000  1.00  0.00    -0.221 NA
HETATM   15  O1  UNL     1       6.451  -2.244   0.000  1.00  0.00    -0.168 OA
BRANCH  14  16
HETATM   16  C3  UNL     1       8.458  -0.015   0.000  1.00  0.00     0.088 A 
HETATM   17  C2  UNL     1       9.462   1.100   0.000  1.00  0.00     0.048 A 
HETATM   18  C1  UNL     1       8.998   2.527   0.000  1.00  0.00     0.007 A 
HETATM   19  O6  UNL     1       7.531   2.838   0.000  1.00  0.00     0.000 OA
HETATM   20  C26 UNL     1       6.528   1.724   0.000  1.00  0.00     0.127 A 
HETATM   21  C30 UNL     1       7.068   4.265   0.000  1.00  0.00    -0.029 A 
HETATM   22  C25 UNL     1       6.991   0.297   0.000  1.00  0.00     0.164 A 
HETATM   23  N7  UNL     1       5.060   2.036   0.000  1.00  0.00    -0.246 NA
HETATM   24  O5  UNL     1       5.987  -0.818   0.000  1.00  0.00    -0.187 OA
HETATM   25  C27 UNL     1       4.597   3.462   0.000  1.00  0.00     0.055 A 
HETATM   26  C28 UNL     1       3.130   3.774   0.000  1.00  0.00     0.052 C 
HETATM   27  C29 UNL     1       5.601   4.577   0.000  1.00  0.00    -0.013 A 
HETATM   28  C34 UNL     1       5.137   6.003   0.000  1.00  0.00     0.027 A 
HETATM   29  C33 UNL     1       6.141   7.118   0.000  1.00  0.00     0.005 A 
HETATM   30  C32 UNL     1       7.608   6.806   0.000  1.00  0.00     0.005 A 
HETATM   31  C31 UNL     1       8.071   5.380   0.000  1.00  0.00     0.026 A 
ENDBRANCH  14  16
ENDBRANCH   1  13
BRANCH   9  32
HETATM   32  N3  UNL     1       3.750  -6.495   0.000  1.00  0.00    -0.215 NA
HETATM   33  C12 UNL     1       3.000  -5.196   0.000  1.00  0.00     0.230 C 
HETATM   34  O3  UNL     1       3.750  -3.897   0.000  1.00  0.00    -0.168 OA
BRANCH  33  35
HETATM   35  C13 UNL     1       1.500  -5.196   0.000  1.00  0.00     0.119 C 
BRANCH  35  36
HETATM   36  N4  UNL     1       0.750  -3.897   0.000  1.00  0.00    -0.216 NA
HETATM   37  C14 UNL     1       1.500  -2.598   0.000  1.00  0.00     0.228 C 
HETATM   38  O4  UNL     1       3.000  -2.598   0.000  1.00  0.00    -0.168 OA
BRANCH  37  39
HETATM   39  C15 UNL     1       0.750  -1.299   0.000  1.00  0.00     0.121 A 
HETATM   40  C16 UNL     1       1.500   0.000   0.000  1.00  0.00     0.169 A 
HETATM   41  N5  UNL     1       0.750   1.299   0.000  1.00  0.00    -0.287 NA
HETATM   42  C17 UNL     1      -0.750   1.299   0.000  1.00  0.00     0.146 A 
HETATM   43  C18 UNL     1      -1.500   0.000   0.000  1.00  0.00     0.151 A 
HETATM   44  N6  UNL     1      -0.750  -1.299   0.000  1.00  0.00    -0.267 NA
ENDBRANCH  37  39
ENDBRANCH  35  36
BRANCH  35  45
HETATM   45  C19 UNL     1       0.750  -6.495   0.000  1.00  0.00    -0.022 C 
HETATM   46  C20 UNL     1       1.500  -7.794   0.000  1.00  0.00     0.028 C 
HETATM   47  C21 UNL     1      -0.750  -6.495   0.000  1.00  0.00     0.028 C 
ENDBRANCH  35  45
ENDBRANCH  33  35
ENDBRANCH   9  32
TORSDOF 7
