REMARK  6 active torsions:
REMARK  status: ('A' for Active; 'I' for Inactive)
REMARK    1  A    between atoms: C6_7  and  C7_9 
REMARK    2  A    between atoms: C8_11  and  C9_13 
REMARK    3  A    between atoms: C12_16  and  C37_52 
REMARK    4  A    between atoms: N3_17  and  C13_18 
REMARK    5  A    between atoms: C28_35  and  C29_36 
REMARK    6  A    between atoms: C30_39  and  C35_44 
ROOT
HETATM    1  C1  UNL     1       0.454  -8.082   0.000  1.00  0.00     0.013 A 
HETATM    2  C2  UNL     1       0.611  -6.590   0.000  1.00  0.00     0.155 A 
HETATM    3  C3  UNL     1       0.767  -5.099   0.000  1.00  0.00    -0.097 A 
HETATM    4  C4  UNL     1      -0.881  -6.434   0.000  1.00  0.00     0.033 C 
HETATM    5  C5  UNL     1       2.102  -6.747   0.000  1.00  0.00     0.126 A 
HETATM    6  N1  UNL     1       2.712  -8.117   0.000  1.00  0.00    -0.219 NA
HETATM    7  C6  UNL     1       1.831  -9.331   0.000  1.00  0.00     0.209 A 
HETATM    8  O1  UNL     1       0.339  -9.174   0.000  1.00  0.00    -0.249 OA
HETATM    9  C24 UNL     1       2.984  -5.534   0.000  1.00  0.00     0.214 A 
HETATM   10  O3  UNL     1       4.476  -5.691   0.000  1.00  0.00    -0.169 OA
HETATM   11  N4  UNL     1       2.374  -4.163   0.000  1.00  0.00    -0.283 N 
HETATM   12  C25 UNL     1       0.907  -3.852   0.000  1.00  0.00     0.074 A 
HETATM   13  C26 UNL     1       0.750  -2.360   0.000  1.00  0.00     0.046 A 
HETATM   14  C27 UNL     1       2.120  -1.750   0.000  1.00  0.00     0.054 A 
HETATM   15  C28 UNL     1       3.124  -2.864   0.000  1.00  0.00     0.085 A 
HETATM   16  C40 UNL     1      -0.750  -2.360   0.000  1.00  0.00     0.006 A 
HETATM   17  C41 UNL     1      -1.010  -3.837   0.000  1.00  0.00     0.000 C 
HETATM   18  C42 UNL     1      -2.159  -1.847   0.000  1.00  0.00     0.000 C 
HETATM   19  C43 UNL     1      -0.000  -1.061   0.000  1.00  0.00     0.006 A 
HETATM   20  C44 UNL     1       1.061   0.000   0.000  1.00  0.00     0.000 A 
HETATM   21  C45 UNL     1       0.000   1.061   0.000  1.00  0.00     0.000 A 
HETATM   22  C46 UNL     1      -1.061   0.000   0.000  1.00  0.00     0.000 A 
ENDROOT
BRANCH  15  23
HETATM   23  C29 UNL     1       4.616  -2.708   0.000  1.00  0.00     0.191 A 
HETATM   24  O4  UNL     1       5.226  -1.337   0.000  1.00  0.00    -0.294 OA
HETATM   25  C33 UNL     1       6.436  -0.920   0.000  1.00  0.00     0.074 A 
HETATM   26  C32 UNL     1       7.094  -2.268   0.000  1.00  0.00     0.005 A 
HETATM   27  C34 UNL     1       7.275   0.324   0.000  1.00  0.00     0.058 C 
HETATM   28  C30 UNL     1       6.989  -3.764   0.000  1.00  0.00     0.164 A 
HETATM   29  C31 UNL     1       8.337  -3.107   0.000  1.00  0.00     0.060 A 
HETATM   30  N5  UNL     1       5.497  -3.921   0.000  1.00  0.00    -0.239 NA
BRANCH  28  31
HETATM   31  C35 UNL     1       7.403  -5.206   0.000  1.00  0.00     0.189 A 
HETATM   32  O5  UNL     1       6.361  -6.285   0.000  1.00  0.00    -0.318 OA
HETATM   33  C15 UNL     1       6.980  -7.390   0.000  1.00  0.00     0.134 A 
HETATM   34  C14 UNL     1       7.730  -8.689   0.000  1.00  0.00     0.101 A 
HETATM   35  C16 UNL     1       5.513  -7.701   0.000  1.00  0.00     0.037 A 
HETATM   36  O7  UNL     1       7.830  -7.424   0.000  1.00  0.00     0.000 OA
HETATM   37  C13 UNL     1       6.726  -9.803   0.000  1.00  0.00     0.026 A 
HETATM   38  C36 UNL     1       8.762  -9.635   0.000  1.00  0.00     0.051 A 
HETATM   39  C17 UNL     1       5.356  -9.193   0.000  1.00  0.00     0.043 A 
HETATM   40  N7  UNL     1       9.685  -8.453   0.000  1.00  0.00    -0.264 N 
HETATM   41  C37 UNL     1       9.600 -10.878   0.000  1.00  0.00     0.004 A 
HETATM   42  S1  UNL     1       9.272  -7.011   0.000  1.00  0.00     0.249 S 
HETATM   43  C39 UNL     1      11.095  -8.966   0.000  1.00  0.00     0.122 A 
HETATM   44  N6  UNL     1       8.858  -5.569   0.000  1.00  0.00    -0.145 NA
HETATM   45  O6  UNL     1      10.713  -6.598   0.000  1.00  0.00    -0.209 OA
HETATM   46  C38 UNL     1      11.042 -10.465   0.000  1.00  0.00     0.054 A 
BRANCH  37  47
HETATM   47  N3  UNL     1       7.038 -11.271   0.000  1.00  0.00    -0.318 N 
HETATM   48  C9  UNL     1       6.035 -12.385   0.000  1.00  0.00     0.082 A 
HETATM   49  C10 UNL     1       6.785 -13.684   0.000  1.00  0.00     0.054 A 
HETATM   50  C11 UNL     1       8.252 -13.372   0.000  1.00  0.00     0.050 A 
HETATM   51  C12 UNL     1       8.409 -11.881   0.000  1.00  0.00     0.038 A 
BRANCH  48  52
HETATM   52  C8  UNL     1       4.543 -12.229   0.000  1.00  0.00     0.195 A 
HETATM   53  N2  UNL     1       3.933 -10.858   0.000  1.00  0.00    -0.218 NA
HETATM   54  C7  UNL     1       2.441 -10.701   0.000  1.00  0.00     0.123 A 
HETATM   55  C18 UNL     1       1.559 -11.915   0.000  1.00  0.00     0.018 A 
HETATM   56  C19 UNL     1       2.169 -13.285   0.000  1.00  0.00     0.077 A 
HETATM   57  C23 UNL     1       0.068 -11.758   0.000  1.00  0.00     0.030 A 
HETATM   58  C20 UNL     1       1.288 -14.499   0.000  1.00  0.00     0.051 A 
HETATM   59  O2  UNL     1       3.661 -13.442   0.000  1.00  0.00    -0.293 OA
HETATM   60  C21 UNL     1      -0.204 -14.342   0.000  1.00  0.00     0.007 A 
HETATM   61  C22 UNL     1      -0.814 -12.972   0.000  1.00  0.00     0.005 A 
ENDBRANCH  48  52
ENDBRANCH  37  47
ENDBRANCH  28  31
ENDBRANCH  15  23
TORSDOF 6
