REMARK WARNING: 32 MAX_TORS EXCEEDED!!!
REMARK  66 active torsions:
REMARK  status: ('A' for Active; 'I' for Inactive)
REMARK    1  A    between atoms: C1_1  and  C5_6 
REMARK    2  A    between atoms: C2_2  and  C5_6 
REMARK    3  A    between atoms: C2_2  and  C17_23 
REMARK    4  A    between atoms: C2_2  and  C20_27 
REMARK    5  A    between atoms: C3_3  and  C4_5 
REMARK    6  A    between atoms: N1_4  and  C4_5 
REMARK    7  A    between atoms: N1_4  and  C10_11 
REMARK    8  A    between atoms: N1_4  and  CL1_36 
REMARK    9  A    between atoms: C4_5  and  C5_6 
REMARK   10  A    between atoms: C4_5  and  C6_7 
REMARK   11  A    between atoms: C4_5  and  C7_8 
REMARK   12  A    between atoms: C4_5  and  C8_9 
REMARK   13  A    between atoms: C4_5  and  O2_22 
REMARK   14  A    between atoms: C5_6  and  C8_9 
REMARK   15  A    between atoms: C5_6  and  C9_10 
REMARK   16  A    between atoms: C6_7  and  C9_10 
REMARK   17  A    between atoms: C7_8  and  C9_10 
REMARK   18  A    between atoms: C7_8  and  CL1_36 
REMARK   19  A    between atoms: C8_9  and  C9_10 
REMARK   20  A    between atoms: C8_9  and  O1_16 
REMARK   21  A    between atoms: C8_9  and  C13_17 
REMARK   22  A    between atoms: C10_11  and  S1_14 
REMARK   23  A    between atoms: N2_12  and  C12_15 
REMARK   24  A    between atoms: N2_12  and  C16_21 
REMARK   25  A    between atoms: C11_13  and  C12_15 
REMARK   26  A    between atoms: C11_13  and  C16_21 
REMARK   27  A    between atoms: S1_14  and  C12_15 
REMARK   28  A    between atoms: S1_14  and  N3_18 
REMARK   29  A    between atoms: O1_16  and  CL1_36 
REMARK   30  A    between atoms: C15_20  and  C16_21 
REMARK   31  A    between atoms: C16_21  and  O4_35 
REMARK   32  A    between atoms: C16_21  and  O8_49 
REMARK   33  A    between atoms: C17_23  and  C19_26 
REMARK   34  A    between atoms: C18_24  and  C20_27 
REMARK   35  A    between atoms: C18_24  and  N5_31 
REMARK   36  A    between atoms: N4_25  and  C20_27 
REMARK   37  A    between atoms: C19_26  and  C20_27 
REMARK   38  A    between atoms: C19_26  and  C21_28 
REMARK   39  A    between atoms: C20_27  and  C24_33 
REMARK   40  A    between atoms: C21_28  and  C26_38 
REMARK   41  A    between atoms: C22_29  and  O3_30 
REMARK   42  A    between atoms: O3_30  and  N6_34 
REMARK   43  A    between atoms: O3_30  and  C26_38 
REMARK   44  A    between atoms: N5_31  and  C23_32 
REMARK   45  A    between atoms: C24_33  and  C33_47 
REMARK   46  A    between atoms: C24_33  and  O8_49 
REMARK   47  A    between atoms: N6_34  and  O4_35 
REMARK   48  A    between atoms: O4_35  and  C33_47 
REMARK   49  A    between atoms: O4_35  and  O8_49 
REMARK   50  A    between atoms: C25_37  and  C26_38 
REMARK   51  A    between atoms: C25_37  and  C27_39 
REMARK   52  A    between atoms: C25_37  and  C28_40 
REMARK   53  A    between atoms: C25_37  and  O6_42 
REMARK   54  A    between atoms: C26_38  and  C27_39 
REMARK   55  A    between atoms: C26_38  and  C35_51 
REMARK   56  A    between atoms: O6_42  and  C37_53 
REMARK   57  A    between atoms: C31_45  and  C33_47 
REMARK   58  A    between atoms: C32_46  and  C33_47 
REMARK   59  A    between atoms: C32_46  and  O7_48 
REMARK   60  A    between atoms: C32_46  and  C34_50 
REMARK   61  A    between atoms: C36_52  and  C37_53 
REMARK   62  A    between atoms: C36_52  and  C38_54 
REMARK   63  A    between atoms: C36_52  and  C40_56 
REMARK   64  A    between atoms: C37_53  and  C39_55 
REMARK   65  A    between atoms: C38_54  and  C39_55 
REMARK   66  A    between atoms: C39_55  and  C40_56 
ROOT
HETATM    1  C1  UNL     1      10.737   0.435   0.000  1.00  0.00     0.016 A 
HETATM    2  C2  UNL     1      11.454   0.848   0.000  1.00  0.00     0.018 A 
HETATM    3  C3  UNL     1      11.451   1.679   0.000  1.00  0.00     0.027 A 
HETATM    4  N1  UNL     1      10.735   2.088   0.000  1.00  0.00     0.000 N 
HETATM    5  C4  UNL     1      10.022   0.848   0.000  1.00  0.00     0.029 A 
HETATM    6  C5  UNL     1      10.025   1.673   0.000  1.00  0.00     0.031 A 
HETATM    7  C6  UNL     1       9.312   2.086   0.000  1.00  0.00     0.044 A 
HETATM    8  C7  UNL     1       8.597   1.675   0.000  1.00  0.00     0.038 A 
HETATM    9  C8  UNL     1       8.598   0.846   0.000  1.00  0.00     0.030 A 
HETATM   10  C9  UNL     1       9.312   0.437   0.000  1.00  0.00     0.030 A 
HETATM   11  C10 UNL     1      12.162   2.092   0.000  1.00  0.00     0.042 A 
HETATM   12  N2  UNL     1      12.939   1.815   0.000  1.00  0.00     0.000 N 
HETATM   13  C11 UNL     1      13.443   2.469   0.000  1.00  0.00     0.040 A 
HETATM   14  S1  UNL     1      12.977   3.150   0.000  1.00  0.00    -0.181 SA
HETATM   15  C12 UNL     1      12.185   2.917   0.000  1.00  0.00     0.048 A 
HETATM   16  O1  UNL     1       7.882   2.087   0.000  1.00  0.00     0.000 OA
HETATM   17  C13 UNL     1       7.168   1.675   0.000  1.00  0.00     0.015 A 
HETATM   18  N3  UNL     1      14.267   2.445   0.000  1.00  0.00     0.000 N 
HETATM   19  C14 UNL     1      14.659   1.719   0.000  1.00  0.00     0.010 A 
HETATM   20  C15 UNL     1      15.484   1.696   0.000  1.00  0.00     0.002 A 
HETATM   21  C16 UNL     1      14.226   1.017   0.000  1.00  0.00     0.010 A 
HETATM   22  O2  UNL     1      10.737  -0.390   0.000  1.00  0.00     0.000 OA
HETATM   23  C17 UNL     1      11.451  -0.803   0.000  1.00  0.00     0.003 A 
HETATM   24  C18 UNL     1      11.459  -1.631   0.000  1.00  0.00     0.000 A 
HETATM   25  N4  UNL     1      12.247  -1.877   0.000  1.00  0.00     0.000 N 
HETATM   26  C19 UNL     1      12.724  -1.204   0.000  1.00  0.00     0.000 A 
HETATM   27  C20 UNL     1      12.231  -0.542   0.000  1.00  0.00     0.002 A 
HETATM   28  C21 UNL     1      12.511  -2.658   0.000  1.00  0.00     0.000 A 
HETATM   29  C22 UNL     1      11.966  -3.278   0.000  1.00  0.00     0.000 A 
HETATM   30  O3  UNL     1      13.320  -2.820   0.000  1.00  0.00     0.000 OA
HETATM   31  N5  UNL     1      11.157  -3.116   0.000  1.00  0.00     0.000 N 
HETATM   32  C23 UNL     1      12.230  -4.059   0.000  1.00  0.00     0.000 A 
HETATM   33  C24 UNL     1      13.549  -1.194   0.000  1.00  0.00     0.000 A 
HETATM   34  N6  UNL     1      13.970  -1.903   0.000  1.00  0.00     0.000 N 
HETATM   35  O4  UNL     1      13.953  -0.474   0.000  1.00  0.00     0.000 OA
HETATM   36 CL1  UNL     1       9.313   2.911   0.000  1.00  0.00    -0.254 Cl
HETATM   37  C25 UNL     1      11.686  -4.679   0.000  1.00  0.00     0.000 A 
HETATM   38  C26 UNL     1      13.039  -4.221   0.000  1.00  0.00     0.000 A 
HETATM   39  C27 UNL     1      12.442  -4.854   0.000  1.00  0.00     0.000 A 
HETATM   40  C28 UNL     1      10.543  -3.667   0.000  1.00  0.00     0.000 A 
HETATM   41  O5  UNL     1       9.759  -3.411   0.000  1.00  0.00     0.000 OA
HETATM   42  O6  UNL     1      10.713  -4.474   0.000  1.00  0.00     0.000 OA
HETATM   43  C29 UNL     1       9.145  -3.962   0.000  1.00  0.00     0.000 A 
HETATM   44  C30 UNL     1      14.795  -1.893   0.000  1.00  0.00     0.000 A 
HETATM   45  C31 UNL     1      15.210  -2.603   0.000  1.00  0.00     0.000 A 
HETATM   46  C32 UNL     1      15.618  -1.887   0.000  1.00  0.00     0.000 A 
HETATM   47  C33 UNL     1      15.004  -1.092   0.000  1.00  0.00     0.000 A 
HETATM   48  O7  UNL     1      15.800  -0.873   0.000  1.00  0.00     0.000 OA
HETATM   49  O8  UNL     1      14.417  -0.512   0.000  1.00  0.00     0.000 OA
HETATM   50  C34 UNL     1      15.214  -3.428   0.000  1.00  0.00     0.000 A 
HETATM   51  C35 UNL     1      14.501  -3.844   0.000  1.00  0.00     0.000 A 
HETATM   52  C36 UNL     1       8.341  -3.793   0.000  1.00  0.00     0.000 A 
HETATM   53  C37 UNL     1       9.232  -4.787   0.000  1.00  0.00     0.000 A 
HETATM   54  C38 UNL     1       8.478  -5.121   0.000  1.00  0.00     0.000 A 
HETATM   55  C39 UNL     1       7.926  -4.511   0.000  1.00  0.00     0.000 A 
HETATM   56  C40 UNL     1       7.673  -5.294   0.000  1.00  0.00     0.000 A 
ENDROOT
TORSDOF 66
