REMARK  13 active torsions:
REMARK  status: ('A' for Active; 'I' for Inactive)
REMARK    1  A    between atoms: O1_2  and  C2_3 
REMARK    2  A    between atoms: C9_11  and  C22_29 
REMARK    3  A    between atoms: O5_20  and  C14_21 
REMARK    4  A    between atoms: C14_21  and  C15_22 
REMARK       I    between atoms: C22_29  and  N3_31 
REMARK    5  A    between atoms: N3_31  and  C23_32 
REMARK    6  A    between atoms: C23_32  and  C24_33 
REMARK    7  A    between atoms: C23_32  and  C26_37 
REMARK    8  A    between atoms: C24_33  and  C25_34 
REMARK       I    between atoms: C26_37  and  N4_39 
REMARK    9  A    between atoms: N4_39  and  C27_40 
REMARK   10  A    between atoms: C27_40  and  C28_41 
REMARK   11  A    between atoms: C28_41  and  C29_42 
REMARK   12  A    between atoms: C32_46  and  C35_50 
REMARK   13  A    between atoms: C37_54  and  C40_58 
ROOT
HETATM    1  C2  UNL     1      -5.250  -6.495   0.000  1.00  0.00     0.126 A 
HETATM    2  C3  UNL     1      -6.000  -5.196   0.000  1.00  0.00     0.057 A 
HETATM    3  C4  UNL     1      -5.250  -3.897   0.000  1.00  0.00    -0.013 A 
HETATM    4  C5  UNL     1      -3.750  -3.897   0.000  1.00  0.00     0.029 A 
HETATM    5  C6  UNL     1      -3.000  -2.598   0.000  1.00  0.00     0.084 A 
HETATM    6  O2  UNL     1      -3.750  -1.299   0.000  1.00  0.00    -0.309 OA
HETATM    7  C7  UNL     1      -5.250  -1.299   0.000  1.00  0.00     0.124 A 
HETATM    8  C8  UNL     1      -6.132  -2.513   0.000  1.00  0.00     0.041 A 
HETATM    9  C9  UNL     1      -7.558  -2.049   0.000  1.00  0.00     0.112 A 
HETATM   10  N1  UNL     1      -7.558  -0.549   0.000  1.00  0.00    -0.273 N 
HETATM   11  C10 UNL     1      -6.132  -0.086   0.000  1.00  0.00     0.121 A 
HETATM   12  C11 UNL     1      -8.772   0.333   0.000  1.00  0.00     0.214 A 
HETATM   13  O3  UNL     1     -10.142  -0.278   0.000  1.00  0.00    -0.169 OA
HETATM   14  C12 UNL     1      -8.615   1.824   0.000  1.00  0.00     0.125 A 
HETATM   15  N2  UNL     1      -9.829   2.706   0.000  1.00  0.00    -0.216 NA
HETATM   16  C13 UNL     1      -9.672   4.198   0.000  1.00  0.00     0.257 A 
HETATM   17  O4  UNL     1     -10.885   5.080   0.000  1.00  0.00    -0.165 OA
HETATM   18  O5  UNL     1      -8.301   4.808   0.000  1.00  0.00     0.000 OA
HETATM   19  C18 UNL     1      -7.245   2.434   0.000  1.00  0.00     0.140 A 
HETATM   20  C19 UNL     1      -6.635   1.064   0.000  1.00  0.00    -0.092 A 
HETATM   21  C20 UNL     1      -7.855   3.805   0.000  1.00  0.00    -0.074 A 
HETATM   22  C21 UNL     1      -5.874   3.045   0.000  1.00  0.00     0.032 C 
HETATM   23  C36 UNL     1      -1.500  -2.598   0.000  1.00  0.00     0.097 A 
HETATM   24  C37 UNL     1      -0.750  -3.897   0.000  1.00  0.00     0.057 A 
HETATM   25  N5  UNL     1      -1.500  -5.196   0.000  1.00  0.00    -0.254 NA
HETATM   26  C38 UNL     1      -3.000  -5.196   0.000  1.00  0.00     0.062 A 
HETATM   27  C39 UNL     1      -3.750  -6.495   0.000  1.00  0.00     0.076 A 
ENDROOT
BRANCH   9  28
HETATM   28  C22 UNL     1      -8.772  -2.931   0.000  1.00  0.00     0.229 C 
HETATM   29  O6  UNL     1      -8.615  -4.423   0.000  1.00  0.00    -0.168 OA
HETATM   30  N3  UNL     1     -10.142  -2.321   0.000  1.00  0.00    -0.219 NA
BRANCH  30  31
HETATM   31  C23 UNL     1     -11.356  -3.202   0.000  1.00  0.00     0.114 C 
BRANCH  31  32
HETATM   32  C24 UNL     1     -12.726  -2.592   0.000  1.00  0.00     0.137 C 
BRANCH  32  33
HETATM   33  C25 UNL     1     -13.940  -3.474   0.000  1.00  0.00     0.262 C 
HETATM   34  F1  UNL     1     -15.310  -2.864   0.000  1.00  0.00    -0.176 F 
HETATM   35  F2  UNL     1     -13.783  -4.966   0.000  1.00  0.00    -0.176 F 
ENDBRANCH  32  33
ENDBRANCH  31  32
BRANCH  31  36
HETATM   36  C26 UNL     1     -11.199  -4.694   0.000  1.00  0.00     0.223 C 
HETATM   37  O7  UNL     1      -9.829  -5.304   0.000  1.00  0.00    -0.168 OA
HETATM   38  N4  UNL     1     -12.412  -5.576   0.000  1.00  0.00    -0.245 NA
BRANCH  38  39
HETATM   39  C27 UNL     1     -12.256  -7.067   0.000  1.00  0.00     0.133 C 
BRANCH  39  40
HETATM   40  C28 UNL     1     -13.469  -7.949   0.000  1.00  0.00     0.057 C 
BRANCH  40  41
HETATM   41  C29 UNL     1     -13.312  -9.441   0.000  1.00  0.00     0.026 A 
HETATM   42  C30 UNL     1     -14.526 -10.323   0.000  1.00  0.00     0.116 A 
HETATM   43  F3  UNL     1     -15.896  -9.713   0.000  1.00  0.00    -0.209 F 
HETATM   44  C31 UNL     1     -14.369 -11.815   0.000  1.00  0.00     0.067 A 
HETATM   45  C32 UNL     1     -12.999 -12.425   0.000  1.00  0.00     0.101 A 
HETATM   46  C33 UNL     1     -11.785 -11.543   0.000  1.00  0.00     0.067 A 
HETATM   47  C34 UNL     1     -11.942 -10.051   0.000  1.00  0.00     0.116 A 
HETATM   48  F4  UNL     1     -10.729  -9.169   0.000  1.00  0.00    -0.209 F 
BRANCH  45  49
HETATM   49  C35 UNL     1     -12.842 -13.916   0.000  1.00  0.00     0.185 C 
HETATM   50  O8  UNL     1     -11.472 -14.526   0.000  1.00  0.00    -0.647 OA
HETATM   51  O9  UNL     1     -14.056 -14.798   0.000  1.00  0.00    -0.647 OA
ENDBRANCH  45  49
ENDBRANCH  40  41
ENDBRANCH  39  40
ENDBRANCH  38  39
ENDBRANCH  31  36
ENDBRANCH  30  31
ENDBRANCH   9  28
BRANCH   1  52
HETATM   52  O1  UNL     1      -6.000  -7.794   0.000  1.00  0.00    -0.353 OA
HETATM   53  C1  UNL     1      -7.500  -7.794   0.000  1.00  0.00     0.174 C 
ENDBRANCH   1  52
BRANCH  24  54
HETATM   54  C40 UNL     1       0.750  -3.897   0.000  1.00  0.00    -0.030 A 
HETATM   55  C41 UNL     1       1.500  -5.196   0.000  1.00  0.00     0.023 A 
HETATM   56  C42 UNL     1       3.000  -5.196   0.000  1.00  0.00     0.004 A 
HETATM   57  C43 UNL     1       3.750  -3.897   0.000  1.00  0.00     0.001 A 
HETATM   58  C44 UNL     1       3.000  -2.598   0.000  1.00  0.00     0.004 A 
HETATM   59  C45 UNL     1       1.500  -2.598   0.000  1.00  0.00     0.023 A 
ENDBRANCH  24  54
BRANCH  18  60
HETATM   60  C14 UNL     1      -8.145   6.300   0.000  1.00  0.00     0.000 C 
BRANCH  60  61
HETATM   61  C15 UNL     1      -6.774   6.910   0.000  1.00  0.00     0.000 C 
HETATM   62  C16 UNL     1      -6.617   8.402   0.000  1.00  0.00     0.000 C 
HETATM   63  C17 UNL     1      -5.561   6.028   0.000  1.00  0.00     0.000 C 
ENDBRANCH  60  61
ENDBRANCH  18  60
TORSDOF 13
