REMARK  5 active torsions:
REMARK  status: ('A' for Active; 'I' for Inactive)
REMARK    1  A    between atoms: C2_3  and  C16_32 
REMARK    2  A    between atoms: C6_8  and  C9_11 
REMARK       I    between atoms: C9_11  and  N3_13 
REMARK    3  A    between atoms: N3_13  and  C10_14 
REMARK    4  A    between atoms: N4_22  and  C13_23 
REMARK    5  A    between atoms: C16_32  and  C17_35 
ROOT
HETATM    1  C1  UNL     1      -2.640  -3.189   0.000  1.00  0.00     0.132 C 
HETATM    2  N1  UNL     1      -1.214  -2.726   0.000  1.00  0.00    -0.312 N 
HETATM    3  C2  UNL     1      -0.000  -3.607   0.000  1.00  0.00     0.185 A 
HETATM    4  N2  UNL     1       1.214  -2.726   0.000  1.00  0.00    -0.231 NA
HETATM    5  C3  UNL     1       0.750  -1.299   0.000  1.00  0.00     0.073 A 
HETATM    6  C4  UNL     1       1.500   0.000   0.000  1.00  0.00     0.051 A 
HETATM    7  C5  UNL     1       0.750   1.299   0.000  1.00  0.00     0.032 A 
HETATM    8  C6  UNL     1      -0.750   1.299   0.000  1.00  0.00     0.006 A 
HETATM    9  C7  UNL     1      -1.500   0.000   0.000  1.00  0.00     0.071 A 
HETATM   10  C8  UNL     1      -0.750  -1.299   0.000  1.00  0.00     0.056 A 
ENDROOT
BRANCH   8  11
HETATM   11  C9  UNL     1      -1.500   2.598   0.000  1.00  0.00     0.205 C 
HETATM   12  O1  UNL     1      -3.000   2.598   0.000  1.00  0.00    -0.170 OA
HETATM   13  N3  UNL     1      -0.750   3.897   0.000  1.00  0.00    -0.221 NA
BRANCH  13  14
HETATM   14  C10 UNL     1      -1.500   5.196   0.000  1.00  0.00     0.118 A 
HETATM   15  C11 UNL     1      -0.750   6.495   0.000  1.00  0.00     0.170 A 
HETATM   16  P1  UNL     1      -1.500   7.794   0.000  1.00  0.00     0.292 P 
HETATM   17  O2  UNL     1      -2.250   9.093   0.000  1.00  0.00    -0.645 OA
HETATM   18  O3  UNL     1      -0.201   8.544   0.000  1.00  0.00    -0.645 OA
HETATM   19  O4  UNL     1      -2.799   7.044   0.000  1.00  0.00    -0.180 OA
HETATM   20  N4  UNL     1      -3.750   6.495   0.000  1.00  0.00    -0.183 N 
HETATM   21  C12 UNL     1      -3.000   5.196   0.000  1.00  0.00     0.232 A 
HETATM   22  O5  UNL     1      -3.750   3.897   0.000  1.00  0.00    -0.168 OA
BRANCH  20  23
HETATM   23  C13 UNL     1      -5.250   6.495   0.000  1.00  0.00     0.132 C 
HETATM   24  C14 UNL     1      -6.000   7.794   0.000  1.00  0.00     0.172 C 
HETATM   25  P2  UNL     1      -7.500   7.794   0.000  1.00  0.00     0.299 P 
HETATM   26  O6  UNL     1      -9.000   7.794   0.000  1.00  0.00    -0.644 OA
HETATM   27  O7  UNL     1      -7.500   9.294   0.000  1.00  0.00    -0.644 OA
HETATM   28  O8  UNL     1      -7.500   6.294   0.000  1.00  0.00    -0.140 OA
HETATM   29  O9  UNL     1      -7.500   5.196   0.000  1.00  0.00    -0.158 OA
HETATM   30  C15 UNL     1      -6.000   5.196   0.000  1.00  0.00     0.275 C 
HETATM   31  O10 UNL     1      -5.250   3.897   0.000  1.00  0.00    -0.159 OA
ENDBRANCH  20  23
ENDBRANCH  13  14
ENDBRANCH   8  11
BRANCH   3  32
HETATM   32  C16 UNL     1      -0.000  -5.107   0.000  1.00  0.00     0.354 C 
HETATM   33  F1  UNL     1      -1.500  -5.107   0.000  1.00  0.00    -0.192 F 
HETATM   34  F2  UNL     1       1.500  -5.107   0.000  1.00  0.00    -0.192 F 
BRANCH  32  35
HETATM   35  C17 UNL     1      -0.000  -6.607   0.000  1.00  0.00     0.274 A 
HETATM   36  N5  UNL     1      -1.214  -7.489   0.000  1.00  0.00    -0.246 NA
HETATM   37  C18 UNL     1      -0.750  -8.916   0.000  1.00  0.00     0.069 A 
HETATM   38  C19 UNL     1      -1.500 -10.215   0.000  1.00  0.00     0.047 A 
HETATM   39  C23 UNL     1       0.750  -8.916   0.000  1.00  0.00     0.069 A 
HETATM   40  C20 UNL     1      -0.750 -11.514   0.000  1.00  0.00     0.007 A 
HETATM   41  C21 UNL     1       0.750 -11.514   0.000  1.00  0.00     0.007 A 
HETATM   42  C22 UNL     1       1.500 -10.215   0.000  1.00  0.00     0.047 A 
HETATM   43  N6  UNL     1       1.214  -7.489   0.000  1.00  0.00    -0.246 NA
ENDBRANCH  32  35
ENDBRANCH   3  32
TORSDOF 5
