REMARK  5 active torsions:
REMARK  status: ('A' for Active; 'I' for Inactive)
REMARK       I    between atoms: C2_2  and  N1_4 
REMARK    1  A    between atoms: N1_4  and  C3_5 
REMARK    2  A    between atoms: C3_5  and  C4_6 
REMARK    3  A    between atoms: C3_5  and  C6_10 
REMARK    4  A    between atoms: C4_6  and  C5_7 
REMARK    5  A    between atoms: C13_23  and  C14_24 
ROOT
HETATM    1  C6  UNL     1       1.299  -1.357   0.000  1.00  0.00     0.197 A 
HETATM    2  O4  UNL     1       1.299  -2.857   0.000  1.00  0.00    -0.288 OA
HETATM    3  N2  UNL     1       0.000  -0.607   0.000  1.00  0.00    -0.221 NA
HETATM    4  C7  UNL     1      -1.299  -1.357   0.000  1.00  0.00     0.111 A 
HETATM    5  C8  UNL     1      -1.299  -2.857   0.000  1.00  0.00     0.105 A 
HETATM    6  C9  UNL     1       0.000  -3.607   0.000  1.00  0.00     0.134 A 
HETATM    7  C10 UNL     1       0.000  -5.107   0.000  1.00  0.00     0.252 A 
HETATM    8  O5  UNL     1      -1.299  -5.857   0.000  1.00  0.00    -0.276 OA
HETATM    9  O6  UNL     1       1.299  -5.857   0.000  1.00  0.00    -0.161 OA
HETATM   10  C11 UNL     1      -2.598  -0.607   0.000  1.00  0.00     0.227 A 
HETATM   11  O7  UNL     1      -3.897  -1.357   0.000  1.00  0.00    -0.168 OA
HETATM   12  N3  UNL     1      -2.598   0.893   0.000  1.00  0.00    -0.217 NA
HETATM   13  C12 UNL     1      -3.897   1.643   0.000  1.00  0.00     0.102 A 
HETATM   14  C13 UNL     1      -3.897   3.143   0.000  1.00  0.00     0.007 A 
HETATM   15  C20 UNL     1      -5.196   3.893   0.000  1.00  0.00    -0.020 A 
HETATM   16  C21 UNL     1      -5.196   5.393   0.000  1.00  0.00     0.027 A 
HETATM   17  C22 UNL     1      -6.495   6.143   0.000  1.00  0.00     0.011 A 
HETATM   18  C23 UNL     1      -7.794   5.393   0.000  1.00  0.00     0.052 A 
HETATM   19  C24 UNL     1      -7.794   3.893   0.000  1.00  0.00     0.080 A 
HETATM   20  C25 UNL     1      -6.495   3.143   0.000  1.00  0.00     0.016 A 
HETATM   21  C26 UNL     1      -5.196   0.893   0.000  1.00  0.00     0.118 A 
HETATM   22  O8  UNL     1      -6.495   1.643   0.000  1.00  0.00     0.000 OA
HETATM   23  N4  UNL     1      -5.196  -0.607   0.000  1.00  0.00    -0.243 NA
HETATM   24  C27 UNL     1      -6.495  -1.357   0.000  1.00  0.00     0.107 A 
HETATM   25  C28 UNL     1      -7.794  -0.607   0.000  1.00  0.00     0.080 A 
HETATM   26  C29 UNL     1      -7.794   0.893   0.000  1.00  0.00     0.034 A 
HETATM   27  C30 UNL     1      -9.093   1.643   0.000  1.00  0.00     0.229 A 
HETATM   28  O9  UNL     1     -10.392   0.893   0.000  1.00  0.00    -0.163 OA
HETATM   29  O10 UNL     1      -9.093   3.143   0.000  1.00  0.00    -0.288 OA
HETATM   30  C31 UNL     1      -6.495  -2.857   0.000  1.00  0.00     0.227 A 
HETATM   31  O11 UNL     1      -7.794  -3.607   0.000  1.00  0.00    -0.168 OA
HETATM   32  N5  UNL     1      -5.196  -3.607   0.000  1.00  0.00    -0.219 NA
HETATM   33  C32 UNL     1      -5.196  -5.107   0.000  1.00  0.00     0.108 A 
HETATM   34  C33 UNL     1      -6.495  -5.857   0.000  1.00  0.00     0.073 A 
HETATM   35  C34 UNL     1      -6.495  -7.357   0.000  1.00  0.00    -0.020 A 
HETATM   36  C35 UNL     1      -5.196  -8.107   0.000  1.00  0.00     0.077 A 
HETATM   37  C36 UNL     1      -5.196  -9.607   0.000  1.00  0.00     0.093 A 
HETATM   38  C37 UNL     1      -6.495 -10.357   0.000  1.00  0.00     0.053 A 
HETATM   39  C38 UNL     1      -7.794  -9.607   0.000  1.00  0.00     0.011 A 
HETATM   40  C39 UNL     1      -7.794  -8.107   0.000  1.00  0.00     0.024 A 
HETATM   41  C40 UNL     1      -3.897  -5.857   0.000  1.00  0.00     0.212 A 
HETATM   42  O12 UNL     1      -2.598  -5.107   0.000  1.00  0.00    -0.169 OA
HETATM   43  N6  UNL     1      -3.897  -7.357   0.000  1.00  0.00    -0.280 N 
HETATM   44  C41 UNL     1      -2.598  -8.107   0.000  1.00  0.00     0.118 A 
HETATM   45  C42 UNL     1      -1.299  -7.357   0.000  1.00  0.00     0.176 A 
HETATM   46  C43 UNL     1       0.000  -8.107   0.000  1.00  0.00     0.303 A 
HETATM   47  F1  UNL     1       0.193  -8.881   0.000  1.00  0.00    -0.170 F 
HETATM   48  F2  UNL     1       1.299  -7.357   0.000  1.00  0.00    -0.170 F 
HETATM   49  C44 UNL     1      -2.598  -9.607   0.000  1.00  0.00     0.137 A 
HETATM   50  O13 UNL     1      -3.897 -10.357   0.000  1.00  0.00    -0.307 OA
HETATM   51  C45 UNL     1      -1.299 -10.357   0.000  1.00  0.00     0.125 A 
HETATM   52  O14 UNL     1       0.071  -9.747   0.000  1.00  0.00     0.000 OA
HETATM   53  C46 UNL     1       1.075 -10.862   0.000  1.00  0.00    -0.011 A 
HETATM   54  C47 UNL     1       2.575 -10.862   0.000  1.00  0.00     0.027 A 
HETATM   55  C48 UNL     1       3.325 -12.161   0.000  1.00  0.00     0.005 A 
HETATM   56  C49 UNL     1       2.575 -13.460   0.000  1.00  0.00     0.007 A 
HETATM   57  C50 UNL     1       1.075 -13.460   0.000  1.00  0.00     0.045 A 
HETATM   58  C51 UNL     1       0.325 -12.161   0.000  1.00  0.00     0.055 A 
HETATM   59  N7  UNL     1      -1.142 -11.849   0.000  1.00  0.00    -0.247 NA
ENDROOT
BRANCH   1  60
HETATM   60  C3  UNL     1       2.598  -0.607   0.000  1.00  0.00     0.113 C 
BRANCH  60  61
HETATM   61  N1  UNL     1       2.598   0.893   0.000  1.00  0.00    -0.224 NA
HETATM   62  C2  UNL     1       3.897   1.643   0.000  1.00  0.00     0.190 C 
HETATM   63  C1  UNL     1       3.897   3.143   0.000  1.00  0.00     0.083 C 
HETATM   64  O1  UNL     1       5.196   0.893   0.000  1.00  0.00    -0.174 OA
ENDBRANCH  60  61
BRANCH  60  65
HETATM   65  C4  UNL     1       3.897  -1.357   0.000  1.00  0.00     0.147 C 
BRANCH  65  66
HETATM   66  C5  UNL     1       3.897  -2.857   0.000  1.00  0.00     0.192 C 
HETATM   67  O2  UNL     1       2.598  -3.607   0.000  1.00  0.00    -0.647 OA
HETATM   68  O3  UNL     1       5.196  -3.607   0.000  1.00  0.00    -0.647 OA
ENDBRANCH  65  66
ENDBRANCH  60  65
ENDBRANCH   1  60
BRANCH  14  69
HETATM   69  C14 UNL     1      -2.598   3.893   0.000  1.00  0.00    -0.043 A 
HETATM   70  C15 UNL     1      -1.299   3.143   0.000  1.00  0.00     0.022 A 
HETATM   71  C16 UNL     1       0.000   3.893   0.000  1.00  0.00     0.004 A 
HETATM   72  C17 UNL     1       0.000   5.393   0.000  1.00  0.00     0.001 A 
HETATM   73  C18 UNL     1      -1.299   6.143   0.000  1.00  0.00     0.004 A 
HETATM   74  C19 UNL     1      -2.598   5.393   0.000  1.00  0.00     0.022 A 
ENDBRANCH  14  69
TORSDOF 5
