REMARK WARNING: 32 MAX_TORS EXCEEDED!!!
REMARK  42 active torsions:
REMARK  status: ('A' for Active; 'I' for Inactive)
REMARK    1  A    between atoms: C1_1  and  C10_18 
REMARK    2  A    between atoms: C1_1  and  C20_32 
REMARK    3  A    between atoms: C2_2  and  N3_12 
REMARK    4  A    between atoms: C2_2  and  C11_20 
REMARK    5  A    between atoms: C2_2  and  C18_30 
REMARK    6  A    between atoms: C3_3  and  F1_24 
REMARK    7  A    between atoms: C3_3  and  C20_32 
REMARK    8  A    between atoms: C4_4  and  N2_7 
REMARK    9  A    between atoms: C4_4  and  C8_10 
REMARK   10  A    between atoms: C4_4  and  C14_26 
REMARK   11  A    between atoms: C4_4  and  C20_32 
REMARK   12  A    between atoms: C5_5  and  C13_22 
REMARK   13  A    between atoms: C5_5  and  C16_28 
REMARK   14  A    between atoms: C5_5  and  C17_29 
REMARK   15  A    between atoms: C5_5  and  C19_31 
REMARK   16  A    between atoms: N1_6  and  C8_10 
REMARK   17  A    between atoms: N1_6  and  C14_26 
REMARK   18  A    between atoms: N1_6  and  C20_32 
REMARK   19  A    between atoms: N2_7  and  C11_20 
REMARK   20  A    between atoms: N2_7  and  C18_30 
REMARK   21  A    between atoms: C6_8  and  C8_10 
REMARK   22  A    between atoms: C6_8  and  O2_14 
REMARK   23  A    between atoms: C6_8  and  C10_18 
REMARK   24  A    between atoms: C7_9  and  O3_15 
REMARK   25  A    between atoms: C8_10  and  O5_17 
REMARK   26  A    between atoms: C8_10  and  O7_23 
REMARK   27  A    between atoms: C9_11  and  O5_17 
REMARK   28  A    between atoms: C9_11  and  C20_32 
REMARK   29  A    between atoms: N3_12  and  C13_22 
REMARK   30  A    between atoms: O2_14  and  C20_32 
REMARK   31  A    between atoms: O3_15  and  C11_20 
REMARK   32  A    between atoms: O4_16  and  C13_22 
REMARK   33  A    between atoms: O4_16  and  C16_28 
REMARK   34  A    between atoms: O4_16  and  C19_31 
REMARK   35  A    between atoms: C10_18  and  O7_23 
REMARK   36  A    between atoms: F1_24  and  F2_25 
REMARK   37  A    between atoms: C15_27  and  C16_28 
REMARK   38  A    between atoms: C15_27  and  C17_29 
REMARK   39  A    between atoms: C16_28  and  C17_29 
REMARK   40  A    between atoms: C18_30  and  C19_31 
REMARK   41  A    between atoms: C19_31  and  C22_34 
REMARK   42  A    between atoms: C20_32  and  C21_33 
ROOT
HETATM    1  C1  UNL     1       3.254  -0.442   0.000  1.00  0.00     0.187 A 
HETATM    2  C2  UNL     1      -1.038  -0.442   0.000  1.00  0.00     0.001 A 
HETATM    3  C3  UNL     1       2.538  -0.029   0.000  1.00  0.00     0.158 A 
HETATM    4  C4  UNL     1       1.104  -0.029   0.000  1.00  0.00     0.069 A 
HETATM    5  C5  UNL     1      -3.183  -0.029   0.000  1.00  0.00     0.000 A 
HETATM    6  N1  UNL     1       1.817  -0.442   0.000  1.00  0.00     0.000 N 
HETATM    7  N2  UNL     1      -0.321  -0.029   0.000  1.00  0.00     0.000 N 
HETATM    8  C6  UNL     1       3.967  -0.029   0.000  1.00  0.00     0.210 A 
HETATM    9  C7  UNL     1      -1.746  -0.029   0.000  1.00  0.00     0.000 A 
HETATM   10  C8  UNL     1       2.538   0.800   0.000  1.00  0.00     0.183 A 
HETATM   11  C9  UNL     1       0.392  -0.442   0.000  1.00  0.00     0.012 A 
HETATM   12  N3  UNL     1      -2.471  -0.442   0.000  1.00  0.00     0.000 N 
HETATM   13  O1  UNL     1      -3.896  -0.442   0.000  1.00  0.00     0.000 OA
HETATM   14  O2  UNL     1       3.254  -1.267   0.000  1.00  0.00     0.000 OA
HETATM   15  O3  UNL     1      -1.038  -1.267   0.000  1.00  0.00     0.000 OA
HETATM   16  O4  UNL     1      -3.183   0.800   0.000  1.00  0.00     0.000 OA
HETATM   17  O5  UNL     1       1.104   0.800   0.000  1.00  0.00     0.000 OA
HETATM   18  C10 UNL     1       3.254   1.208   0.000  1.00  0.00     0.211 A 
HETATM   19  O6  UNL     1       4.679  -0.442   0.000  1.00  0.00    -0.342 OA
HETATM   20  C11 UNL     1       0.392  -1.267   0.000  1.00  0.00     0.012 A 
HETATM   21  C12 UNL     1      -4.608  -0.029   0.000  1.00  0.00     0.000 A 
HETATM   22  C13 UNL     1      -1.746   0.800   0.000  1.00  0.00     0.000 A 
HETATM   23  O7  UNL     1       3.967   0.800   0.000  1.00  0.00     0.000 OA
HETATM   24  F1  UNL     1       2.454   1.425   0.000  1.00  0.00    -0.417 F 
HETATM   25  F2  UNL     1       3.254   2.033   0.000  1.00  0.00    -0.357 F 
HETATM   26  C14 UNL     1       1.104  -1.679   0.000  1.00  0.00     0.012 A 
HETATM   27  C15 UNL     1      -5.321  -0.442   0.000  1.00  0.00     0.000 A 
HETATM   28  C16 UNL     1      -4.608   0.800   0.000  1.00  0.00     0.000 A 
HETATM   29  C17 UNL     1      -4.396  -0.829   0.000  1.00  0.00     0.000 A 
HETATM   30  C18 UNL     1      -1.038   1.208   0.000  1.00  0.00     0.000 A 
HETATM   31  C19 UNL     1      -2.471   1.208   0.000  1.00  0.00     0.000 A 
HETATM   32  C20 UNL     1       1.817  -1.267   0.000  1.00  0.00     0.056 A 
HETATM   33  C21 UNL     1       1.104  -2.504   0.000  1.00  0.00     0.006 A 
HETATM   34  C22 UNL     1      -1.038   2.033   0.000  1.00  0.00     0.000 A 
ENDROOT
TORSDOF 42
