REMARK  8 active torsions:
REMARK  status: ('A' for Active; 'I' for Inactive)
REMARK    1  A    between atoms: O1_2  and  C2_3 
REMARK    2  A    between atoms: C6_7  and  O2_8 
REMARK    3  A    between atoms: O2_8  and  C7_9 
REMARK    4  A    between atoms: C22_26  and  C24_30 
REMARK       I    between atoms: C24_30  and  N3_32 
REMARK    5  A    between atoms: N3_32  and  S1_33 
REMARK    6  A    between atoms: S1_33  and  C25_36 
REMARK    7  A    between atoms: C29_40  and  C32_45 
REMARK    8  A    between atoms: C33_47  and  C35_50 
ROOT
HETATM    1  C7  UNL     1      -4.964  -5.454   0.000  1.00  0.00     0.130 A 
HETATM    2  C8  UNL     1      -3.584  -4.864   0.000  1.00  0.00     0.060 A 
HETATM    3  C9  UNL     1      -3.719  -3.370   0.000  1.00  0.00     0.023 A 
HETATM    4  C10 UNL     1      -5.181  -3.037   0.000  1.00  0.00     0.022 A 
HETATM    5  C11 UNL     1      -5.951  -4.324   0.000  1.00  0.00     0.060 A 
HETATM    6  C12 UNL     1      -6.354  -2.102   0.000  1.00  0.00     0.190 A 
HETATM    7  O3  UNL     1      -7.527  -3.037   0.000  1.00  0.00    -0.171 OA
HETATM    8  N1  UNL     1      -7.005  -0.750   0.000  1.00  0.00    -0.304 N 
HETATM    9  C13 UNL     1      -8.467  -1.084   0.000  1.00  0.00     0.133 C 
HETATM   10  C14 UNL     1      -7.005   0.750   0.000  1.00  0.00     0.077 A 
HETATM   11  C15 UNL     1      -6.354   2.102   0.000  1.00  0.00     0.019 A 
HETATM   12  C16 UNL     1      -5.181   3.037   0.000  1.00  0.00     0.002 A 
HETATM   13  C17 UNL     1      -3.719   3.370   0.000  1.00  0.00     0.000 A 
HETATM   14  C18 UNL     1      -2.257   3.037   0.000  1.00  0.00    -0.001 A 
HETATM   15  C19 UNL     1      -1.084   2.102   0.000  1.00  0.00    -0.006 A 
HETATM   16  C20 UNL     1      -0.433   0.750   0.000  1.00  0.00    -0.014 A 
HETATM   17  C21 UNL     1       0.866   0.000   0.000  1.00  0.00     0.059 A 
HETATM   18  C22 UNL     1      -0.433  -0.750   0.000  1.00  0.00     0.165 A 
HETATM   19  N2  UNL     1      -1.084  -2.102   0.000  1.00  0.00    -0.238 NA
HETATM   20  C23 UNL     1      -2.257  -3.037   0.000  1.00  0.00     0.205 A 
HETATM   21  O4  UNL     1      -1.606  -4.388   0.000  1.00  0.00    -0.170 OA
ENDROOT
BRANCH   1  22
HETATM   22  O2  UNL     1      -5.298  -6.916   0.000  1.00  0.00    -0.337 OA
BRANCH  22  23
HETATM   23  C6  UNL     1      -6.731  -7.359   0.000  1.00  0.00     0.075 A 
HETATM   24  C5  UNL     1      -7.065  -8.821   0.000  1.00  0.00     0.015 A 
HETATM   25  C4  UNL     1      -5.965  -9.841   0.000  1.00  0.00     0.036 A 
HETATM   26  C30 UNL     1      -8.498  -9.263   0.000  1.00  0.00     0.091 A 
HETATM   27  C3  UNL     1      -6.299 -11.303   0.000  1.00  0.00     0.057 A 
HETATM   28  C2  UNL     1      -7.732 -11.746   0.000  1.00  0.00     0.084 A 
HETATM   29  C31 UNL     1      -8.832 -10.725   0.000  1.00  0.00     0.093 A 
HETATM   30 CL1  UNL     1     -10.265 -11.168   0.000  1.00  0.00    -0.079 Cl
HETATM   31  N4  UNL     1      -9.598  -8.243   0.000  1.00  0.00    -0.247 NA
HETATM   32  C29 UNL     1      -9.264  -6.780   0.000  1.00  0.00     0.089 A 
HETATM   33  C28 UNL     1      -7.830  -6.338   0.000  1.00  0.00     0.099 A 
BRANCH  28  34
HETATM   34  O1  UNL     1      -8.066 -13.208   0.000  1.00  0.00    -0.332 OA
HETATM   35  C1  UNL     1      -9.499 -13.650   0.000  1.00  0.00     0.181 C 
ENDBRANCH  28  34
BRANCH  32  36
HETATM   36  C32 UNL     1     -10.364  -5.760   0.000  1.00  0.00     0.120 A 
HETATM   37  N5  UNL     1     -11.835  -6.050   0.000  1.00  0.00    -0.242 NA
HETATM   38  C33 UNL     1     -12.566  -4.740   0.000  1.00  0.00     0.063 A 
HETATM   39  C34 UNL     1     -11.545  -3.640   0.000  1.00  0.00     0.109 A 
HETATM   40  S2  UNL     1     -10.184  -4.271   0.000  1.00  0.00    -0.087 SA
BRANCH  38  41
HETATM   41  C35 UNL     1     -14.055  -4.561   0.000  1.00  0.00    -0.029 C 
HETATM   42  C36 UNL     1     -14.645  -3.182   0.000  1.00  0.00     0.028 C 
HETATM   43  C37 UNL     1     -14.955  -5.761   0.000  1.00  0.00     0.028 C 
ENDBRANCH  38  41
ENDBRANCH  32  36
ENDBRANCH  22  23
ENDBRANCH   1  22
BRANCH  18  44
HETATM   44  C24 UNL     1       0.667  -1.770   0.000  1.00  0.00     0.224 C 
HETATM   45  O5  UNL     1       0.333  -3.233   0.000  1.00  0.00    -0.171 OA
HETATM   46  N3  UNL     1       2.100  -1.328   0.000  1.00  0.00    -0.137 NA
BRANCH  46  47
HETATM   47  S1  UNL     1       3.200  -2.348   0.000  1.00  0.00     0.265 S 
HETATM   48  O6  UNL     1       2.179  -3.448   0.000  1.00  0.00    -0.203 OA
HETATM   49  O7  UNL     1       4.220  -1.249   0.000  1.00  0.00    -0.203 OA
BRANCH  47  50
HETATM   50  C25 UNL     1       4.299  -3.369   0.000  1.00  0.00     0.130 A 
HETATM   51  C26 UNL     1       5.761  -3.702   0.000  1.00  0.00     0.019 A 
HETATM   52  C27 UNL     1       4.741  -4.802   0.000  1.00  0.00     0.019 A 
ENDBRANCH  47  50
ENDBRANCH  46  47
ENDBRANCH  18  44
TORSDOF 8
