REMARK  8 active torsions:
REMARK  status: ('A' for Active; 'I' for Inactive)
REMARK    1  A    between atoms: C10_13  and  C17_20 
REMARK       I    between atoms: C17_20  and  N3_22 
REMARK    2  A    between atoms: N3_22  and  C18_23 
REMARK    3  A    between atoms: C18_23  and  C19_24 
REMARK    4  A    between atoms: C18_23  and  C24_29 
REMARK       I    between atoms: C24_29  and  N4_31 
REMARK    5  A    between atoms: C28_35  and  C29_36 
REMARK    6  A    between atoms: C30_39  and  C35_44 
REMARK       I    between atoms: C35_44  and  N6_46 
REMARK    7  A    between atoms: N6_46  and  S1_47 
REMARK    8  A    between atoms: S1_47  and  N7_50 
ROOT
HETATM    1  C24 UNL     1       2.984  -5.534   0.000  1.00  0.00     0.211 C 
HETATM    2  O3  UNL     1       4.476  -5.691   0.000  1.00  0.00    -0.169 OA
HETATM    3  N4  UNL     1       2.374  -4.163   0.000  1.00  0.00    -0.306 N 
HETATM    4  C25 UNL     1       0.907  -3.852   0.000  1.00  0.00     0.108 A 
HETATM    5  C26 UNL     1       0.750  -2.360   0.000  1.00  0.00     0.027 A 
HETATM    6  C27 UNL     1       2.120  -1.750   0.000  1.00  0.00     0.049 A 
HETATM    7  C28 UNL     1       3.124  -2.864   0.000  1.00  0.00     0.080 A 
HETATM    8  C40 UNL     1      -0.750  -2.360   0.000  1.00  0.00     0.002 A 
HETATM    9  C41 UNL     1      -1.010  -3.837   0.000  1.00  0.00     0.000 C 
HETATM   10  C42 UNL     1      -2.159  -1.847   0.000  1.00  0.00     0.000 C 
HETATM   11  C43 UNL     1      -0.000  -1.061   0.000  1.00  0.00     0.002 A 
HETATM   12  C44 UNL     1       1.061   0.000   0.000  1.00  0.00     0.000 A 
HETATM   13  C45 UNL     1       0.000   1.061   0.000  1.00  0.00     0.000 A 
HETATM   14  C46 UNL     1      -1.061   0.000   0.000  1.00  0.00     0.000 A 
ENDROOT
BRANCH   1  15
HETATM   15  C18 UNL     1       2.102  -6.747   0.000  1.00  0.00     0.118 C 
BRANCH  15  16
HETATM   16  N3  UNL     1       0.611  -6.590   0.000  1.00  0.00    -0.216 NA
HETATM   17  C17 UNL     1      -0.271  -7.804   0.000  1.00  0.00     0.230 C 
HETATM   18  O2  UNL     1       0.339  -9.174   0.000  1.00  0.00    -0.168 OA
BRANCH  17  19
HETATM   19  C10 UNL     1      -1.763  -7.647   0.000  1.00  0.00     0.121 A 
HETATM   20  N2  UNL     1      -2.373  -6.277   0.000  1.00  0.00    -0.239 NA
HETATM   21  C9  UNL     1      -3.865  -6.120   0.000  1.00  0.00     0.112 A 
HETATM   22  C8  UNL     1      -4.475  -4.750   0.000  1.00  0.00     0.056 A 
HETATM   23  O1  UNL     1      -4.746  -7.333   0.000  1.00  0.00     0.000 OA
HETATM   24  N1  UNL     1      -5.967  -4.593   0.000  1.00  0.00    -0.337 N 
HETATM   25  C7  UNL     1      -3.593  -3.536   0.000  1.00  0.00     0.045 A 
HETATM   26  C2  UNL     1      -6.848  -5.806   0.000  1.00  0.00     0.015 A 
HETATM   27  C4  UNL     1      -6.577  -3.223   0.000  1.00  0.00     0.105 A 
HETATM   28  C1  UNL     1      -8.340  -5.650   0.000  1.00  0.00     0.045 C 
HETATM   29  C3  UNL     1      -6.238  -7.177   0.000  1.00  0.00     0.045 A 
HETATM   30  C5  UNL     1      -5.695  -2.009   0.000  1.00  0.00     0.025 A 
HETATM   31  C6  UNL     1      -4.203  -2.166   0.000  1.00  0.00     0.008 A 
HETATM   32  C12 UNL     1      -4.136  -8.704   0.000  1.00  0.00    -0.029 A 
HETATM   33  C11 UNL     1      -2.644  -8.861   0.000  1.00  0.00    -0.005 A 
HETATM   34  C13 UNL     1      -5.018  -9.917   0.000  1.00  0.00     0.026 A 
HETATM   35  C16 UNL     1      -2.034 -10.231   0.000  1.00  0.00     0.028 A 
HETATM   36  C15 UNL     1      -2.916 -11.444   0.000  1.00  0.00     0.005 A 
HETATM   37  C14 UNL     1      -4.408 -11.288   0.000  1.00  0.00     0.005 A 
ENDBRANCH  17  19
ENDBRANCH  15  16
BRANCH  15  38
HETATM   38  C19 UNL     1       2.712  -8.117   0.000  1.00  0.00    -0.023 A 
HETATM   39  C20 UNL     1       4.180  -8.429   0.000  1.00  0.00     0.024 A 
HETATM   40  C21 UNL     1       4.337  -9.921   0.000  1.00  0.00     0.005 A 
HETATM   41  C22 UNL     1       2.966 -10.531   0.000  1.00  0.00     0.005 A 
HETATM   42  C23 UNL     1       1.962  -9.416   0.000  1.00  0.00     0.024 A 
ENDBRANCH  15  38
ENDBRANCH   1  15
BRANCH   7  43
HETATM   43  C29 UNL     1       4.616  -2.708   0.000  1.00  0.00     0.190 A 
HETATM   44  O4  UNL     1       5.226  -1.337   0.000  1.00  0.00    -0.294 OA
HETATM   45  C33 UNL     1       6.436  -0.920   0.000  1.00  0.00     0.074 A 
HETATM   46  C32 UNL     1       7.094  -2.268   0.000  1.00  0.00     0.005 A 
HETATM   47  C34 UNL     1       7.275   0.324   0.000  1.00  0.00     0.058 C 
HETATM   48  C30 UNL     1       6.989  -3.764   0.000  1.00  0.00     0.167 A 
HETATM   49  C31 UNL     1       8.337  -3.107   0.000  1.00  0.00     0.060 A 
HETATM   50  N5  UNL     1       5.497  -3.921   0.000  1.00  0.00    -0.239 NA
BRANCH  48  51
HETATM   51  C35 UNL     1       7.403  -5.206   0.000  1.00  0.00     0.226 C 
HETATM   52  O5  UNL     1       6.361  -6.285   0.000  1.00  0.00    -0.171 OA
HETATM   53  N6  UNL     1       8.858  -5.569   0.000  1.00  0.00    -0.119 NA
BRANCH  53  54
HETATM   54  S1  UNL     1       9.272  -7.011   0.000  1.00  0.00     0.346 S 
HETATM   55  O6  UNL     1      10.713  -6.598   0.000  1.00  0.00    -0.180 OA
HETATM   56  O7  UNL     1       7.830  -7.424   0.000  1.00  0.00    -0.180 OA
BRANCH  54  57
HETATM   57  N7  UNL     1       9.685  -8.453   0.000  1.00  0.00    -0.260 N 
HETATM   58  C36 UNL     1       8.762  -9.635   0.000  1.00  0.00     0.115 A 
HETATM   59  C37 UNL     1       9.600 -10.878   0.000  1.00  0.00     0.027 A 
HETATM   60  C38 UNL     1      11.042 -10.465   0.000  1.00  0.00     0.027 A 
HETATM   61  C39 UNL     1      11.095  -8.966   0.000  1.00  0.00     0.115 A 
ENDBRANCH  54  57
ENDBRANCH  53  54
ENDBRANCH  48  51
ENDBRANCH   7  43
TORSDOF 8
