REMARK  7 active torsions:
REMARK  status: ('A' for Active; 'I' for Inactive)
REMARK    1  A    between atoms: O1_2  and  C2_3 
REMARK    2  A    between atoms: C6_7  and  O2_8 
REMARK    3  A    between atoms: O2_8  and  C7_9 
REMARK    4  A    between atoms: C20_25  and  C22_29 
REMARK       I    between atoms: C22_29  and  N3_31 
REMARK    5  A    between atoms: N3_31  and  S1_32 
REMARK    6  A    between atoms: S1_32  and  C23_35 
REMARK    7  A    between atoms: C27_39  and  C30_43 
ROOT
HETATM    1  C7  UNL     1      -4.964  -5.454   0.000  1.00  0.00     0.149 A 
HETATM    2  C8  UNL     1      -3.584  -4.864   0.000  1.00  0.00     0.080 A 
HETATM    3  C9  UNL     1      -3.719  -3.370   0.000  1.00  0.00     0.087 A 
HETATM    4  N1  UNL     1      -5.181  -3.037   0.000  1.00  0.00    -0.285 N 
HETATM    5  C10 UNL     1      -5.951  -4.324   0.000  1.00  0.00     0.140 A 
HETATM    6  C11 UNL     1      -6.354  -2.102   0.000  1.00  0.00     0.304 A 
HETATM    7  O3  UNL     1      -7.527  -3.037   0.000  1.00  0.00    -0.142 OA
HETATM    8  O4  UNL     1      -7.005  -0.750   0.000  1.00  0.00    -0.268 OA
HETATM    9  C12 UNL     1      -7.005   0.750   0.000  1.00  0.00     0.126 A 
HETATM   10  C13 UNL     1      -6.354   2.102   0.000  1.00  0.00     0.027 A 
HETATM   11  C14 UNL     1      -5.181   3.037   0.000  1.00  0.00     0.002 A 
HETATM   12  C15 UNL     1      -3.719   3.370   0.000  1.00  0.00     0.000 A 
HETATM   13  C16 UNL     1      -2.257   3.037   0.000  1.00  0.00    -0.001 A 
HETATM   14  C17 UNL     1      -1.084   2.102   0.000  1.00  0.00    -0.006 A 
HETATM   15  C18 UNL     1      -0.433   0.750   0.000  1.00  0.00    -0.014 A 
HETATM   16  C19 UNL     1       0.866   0.000   0.000  1.00  0.00     0.059 A 
HETATM   17  C20 UNL     1      -0.433  -0.750   0.000  1.00  0.00     0.166 A 
HETATM   18  N2  UNL     1      -1.084  -2.102   0.000  1.00  0.00    -0.237 NA
HETATM   19  C21 UNL     1      -2.257  -3.037   0.000  1.00  0.00     0.221 A 
HETATM   20  O5  UNL     1      -1.606  -4.388   0.000  1.00  0.00    -0.168 OA
ENDROOT
BRANCH   1  21
HETATM   21  O2  UNL     1      -5.298  -6.916   0.000  1.00  0.00    -0.335 OA
BRANCH  21  22
HETATM   22  C6  UNL     1      -6.731  -7.359   0.000  1.00  0.00     0.075 A 
HETATM   23  C5  UNL     1      -7.065  -8.821   0.000  1.00  0.00     0.010 A 
HETATM   24  C4  UNL     1      -5.965  -9.841   0.000  1.00  0.00     0.032 A 
HETATM   25  C28 UNL     1      -8.498  -9.263   0.000  1.00  0.00     0.059 A 
HETATM   26  C3  UNL     1      -6.299 -11.303   0.000  1.00  0.00     0.035 A 
HETATM   27  C2  UNL     1      -7.732 -11.746   0.000  1.00  0.00     0.122 A 
HETATM   28  C29 UNL     1      -8.832 -10.725   0.000  1.00  0.00     0.075 A 
HETATM   29  N4  UNL     1      -9.598  -8.243   0.000  1.00  0.00    -0.255 NA
HETATM   30  C27 UNL     1      -9.264  -6.780   0.000  1.00  0.00     0.057 A 
HETATM   31  C26 UNL     1      -7.830  -6.338   0.000  1.00  0.00     0.096 A 
BRANCH  27  32
HETATM   32  O1  UNL     1      -8.066 -13.208   0.000  1.00  0.00    -0.354 OA
HETATM   33  C1  UNL     1      -9.499 -13.650   0.000  1.00  0.00     0.174 C 
ENDBRANCH  27  32
BRANCH  30  34
HETATM   34  C30 UNL     1     -10.364  -5.760   0.000  1.00  0.00    -0.030 A 
HETATM   35  C31 UNL     1     -10.030  -4.298   0.000  1.00  0.00     0.023 A 
HETATM   36  C32 UNL     1     -11.129  -3.277   0.000  1.00  0.00     0.004 A 
HETATM   37  C33 UNL     1     -12.563  -3.720   0.000  1.00  0.00     0.001 A 
HETATM   38  C34 UNL     1     -12.896  -5.182   0.000  1.00  0.00     0.004 A 
HETATM   39  C35 UNL     1     -11.797  -6.202   0.000  1.00  0.00     0.023 A 
ENDBRANCH  30  34
ENDBRANCH  21  22
ENDBRANCH   1  21
BRANCH  17  40
HETATM   40  C22 UNL     1       0.667  -1.770   0.000  1.00  0.00     0.224 C 
HETATM   41  O6  UNL     1       0.333  -3.233   0.000  1.00  0.00    -0.171 OA
HETATM   42  N3  UNL     1       2.100  -1.328   0.000  1.00  0.00    -0.137 NA
BRANCH  42  43
HETATM   43  S1  UNL     1       3.200  -2.348   0.000  1.00  0.00     0.265 S 
HETATM   44  O7  UNL     1       2.179  -3.448   0.000  1.00  0.00    -0.203 OA
HETATM   45  O8  UNL     1       4.220  -1.249   0.000  1.00  0.00    -0.203 OA
BRANCH  43  46
HETATM   46  C23 UNL     1       4.299  -3.369   0.000  1.00  0.00     0.130 A 
HETATM   47  C24 UNL     1       5.761  -3.702   0.000  1.00  0.00     0.019 A 
HETATM   48  C25 UNL     1       4.741  -4.802   0.000  1.00  0.00     0.019 A 
ENDBRANCH  43  46
ENDBRANCH  42  43
ENDBRANCH  17  40
TORSDOF 7
