REMARK WARNING: 32 MAX_TORS EXCEEDED!!!
REMARK  53 active torsions:
REMARK  status: ('A' for Active; 'I' for Inactive)
REMARK    1  A    between atoms: C1_1  and  C12_18 
REMARK    2  A    between atoms: C1_1  and  F1_30 
REMARK    3  A    between atoms: C1_1  and  C24_38 
REMARK    4  A    between atoms: C2_2  and  C5_7 
REMARK    5  A    between atoms: C2_2  and  N3_12 
REMARK    6  A    between atoms: C2_2  and  O7_22 
REMARK    7  A    between atoms: C2_2  and  C13_23 
REMARK    8  A    between atoms: C2_2  and  C22_36 
REMARK    9  A    between atoms: C3_3  and  C24_38 
REMARK   10  A    between atoms: C4_4  and  N2_6 
REMARK   11  A    between atoms: C4_4  and  C7_9 
REMARK   12  A    between atoms: C4_4  and  C21_35 
REMARK   13  A    between atoms: C4_4  and  C24_38 
REMARK   14  A    between atoms: N1_5  and  C7_9 
REMARK   15  A    between atoms: N1_5  and  O8_27 
REMARK   16  A    between atoms: N1_5  and  C21_35 
REMARK   17  A    between atoms: N1_5  and  C24_38 
REMARK   18  A    between atoms: N2_6  and  C13_23 
REMARK   19  A    between atoms: N2_6  and  C22_36 
REMARK   20  A    between atoms: C5_7  and  O2_16 
REMARK   21  A    between atoms: C5_7  and  C17_29 
REMARK   22  A    between atoms: C5_7  and  C19_33 
REMARK   23  A    between atoms: C6_8  and  O1_15 
REMARK   24  A    between atoms: C6_8  and  C24_38 
REMARK   25  A    between atoms: C7_9  and  O3_17 
REMARK   26  A    between atoms: C8_10  and  O2_16 
REMARK   27  A    between atoms: C9_11  and  O3_17 
REMARK   28  A    between atoms: C9_11  and  C24_38 
REMARK   29  A    between atoms: N3_12  and  C16_26 
REMARK   30  A    between atoms: C11_14  and  C17_29 
REMARK   31  A    between atoms: O1_15  and  C12_18 
REMARK   32  A    between atoms: O1_15  and  F1_30 
REMARK   33  A    between atoms: O2_16  and  O7_22 
REMARK   34  A    between atoms: O2_16  and  C13_23 
REMARK   35  A    between atoms: O2_16  and  C18_32 
REMARK   36  A    between atoms: O4_19  and  C14_24 
REMARK   37  A    between atoms: O4_19  and  C17_29 
REMARK   38  A    between atoms: O4_19  and  C19_33 
REMARK   39  A    between atoms: C14_24  and  C15_25 
REMARK   40  A    between atoms: C14_24  and  C17_29 
REMARK   41  A    between atoms: C14_24  and  C20_34 
REMARK   42  A    between atoms: C15_25  and  C17_29 
REMARK   43  A    between atoms: C15_25  and  C19_33 
REMARK   44  A    between atoms: O8_27  and  C21_35 
REMARK   45  A    between atoms: O8_27  and  C24_38 
REMARK   46  A    between atoms: C17_29  and  C19_33 
REMARK   47  A    between atoms: C17_29  and  C20_34 
REMARK   48  A    between atoms: C18_32  and  C19_33 
REMARK   49  A    between atoms: C18_32  and  C20_34 
REMARK   50  A    between atoms: C19_33  and  C20_34 
REMARK   51  A    between atoms: C22_36  and  C23_37 
REMARK   52  A    between atoms: C23_37  and  C26_40 
REMARK   53  A    between atoms: C24_38  and  C25_39 
ROOT
HETATM    1  C1  UNL     1       9.925  -5.200   0.000  1.00  0.00     0.180 A 
HETATM    2  C2  UNL     1       5.617  -5.200   0.000  1.00  0.00     0.001 A 
HETATM    3  C3  UNL     1       9.204  -4.787   0.000  1.00  0.00     0.155 A 
HETATM    4  C4  UNL     1       7.767  -4.787   0.000  1.00  0.00     0.062 A 
HETATM    5  N1  UNL     1       8.488  -5.200   0.000  1.00  0.00     0.000 N 
HETATM    6  N2  UNL     1       6.338  -4.787   0.000  1.00  0.00     0.000 N 
HETATM    7  C5  UNL     1       4.179  -6.017   0.000  1.00  0.00     0.009 A 
HETATM    8  C6  UNL     1       9.929  -6.025   0.000  1.00  0.00     0.156 A 
HETATM    9  C7  UNL     1       9.204  -3.954   0.000  1.00  0.00     0.194 A 
HETATM   10  C8  UNL     1       4.900  -4.787   0.000  1.00  0.00     0.000 A 
HETATM   11  C9  UNL     1       7.054  -5.200   0.000  1.00  0.00     0.012 A 
HETATM   12  N3  UNL     1       4.179  -5.200   0.000  1.00  0.00     0.000 N 
HETATM   13  O1  UNL     1      10.642  -4.779   0.000  1.00  0.00     0.000 OA
HETATM   14  O2  UNL     1       5.617  -6.025   0.000  1.00  0.00     0.000 OA
HETATM   15  O3  UNL     1       7.767  -3.954   0.000  1.00  0.00     0.000 OA
HETATM   16  C12 UNL     1       9.925  -3.538   0.000  1.00  0.00     0.229 A 
HETATM   17  O4  UNL     1       3.462  -6.429   0.000  1.00  0.00     0.000 OA
HETATM   18  O5  UNL     1      10.642  -6.429   0.000  1.00  0.00    -0.336 OA
HETATM   19  O7  UNL     1       4.888  -6.438   0.000  1.00  0.00     0.000 OA
HETATM   20  C13 UNL     1       7.054  -6.025   0.000  1.00  0.00     0.012 A 
HETATM   21  C16 UNL     1       4.900  -3.954   0.000  1.00  0.00     0.000 A 
HETATM   22  O8  UNL     1       9.213  -6.438   0.000  1.00  0.00     0.000 OA
HETATM   23  C17 UNL     1       4.167  -7.667   0.000  1.00  0.00     0.050 A 
HETATM   24  F1  UNL     1      10.642  -3.954   0.000  1.00  0.00    -0.421 F 
HETATM   25  F2  UNL     1       9.925  -2.712   0.000  1.00  0.00    -0.333 F 
HETATM   26  C18 UNL     1       4.879  -7.263   0.000  1.00  0.00     0.014 A 
HETATM   27  C21 UNL     1       7.767  -6.442   0.000  1.00  0.00     0.012 A 
HETATM   28  C22 UNL     1       5.617  -3.538   0.000  1.00  0.00     0.000 A 
HETATM   29  C23 UNL     1       4.179  -3.538   0.000  1.00  0.00     0.000 A 
HETATM   30  C24 UNL     1       8.488  -6.025   0.000  1.00  0.00     0.070 A 
HETATM   31  C25 UNL     1       7.767  -7.275   0.000  1.00  0.00     0.008 A 
HETATM   32  C26 UNL     1       5.617  -2.712   0.000  1.00  0.00     0.000 A 
ENDROOT
BRANCH   7  33
HETATM   33  C19 UNL     1       3.454  -7.250   0.000  1.00  0.00     0.050 A 
HETATM   34  C14 UNL     1       2.737  -7.654   0.000  1.00  0.00     0.087 A 
HETATM   35  C11 UNL     1       2.729  -8.479   0.000  1.00  0.00     0.117 A 
HETATM   36  C10 UNL     1       2.017  -8.892   0.000  1.00  0.00     0.187 A 
HETATM   37  C15 UNL     1       3.450  -8.900   0.000  1.00  0.00     0.087 A 
HETATM   38  O6  UNL     1       1.304  -8.479   0.000  1.00  0.00    -0.327 OA
HETATM   39  O9  UNL     1       2.004  -9.717   0.000  1.00  0.00    -0.327 OA
HETATM   40  C20 UNL     1       4.162  -8.492   0.000  1.00  0.00     0.053 A 
ENDBRANCH   7  33
TORSDOF 53
