REMARK  5 active torsions:
REMARK  status: ('A' for Active; 'I' for Inactive)
REMARK    1  A    between atoms: C2_2  and  C3_3 
REMARK    2  A    between atoms: C3_3  and  N1_4 
REMARK    3  A    between atoms: C3_3  and  C37_54 
REMARK       I    between atoms: N1_4  and  C4_5 
REMARK    4  A    between atoms: C4_5  and  C5_7 
REMARK    5  A    between atoms: C20_32  and  C21_33 
ROOT
HETATM    1  C5  UNL     1       3.304  -6.820   0.000  1.00  0.00     0.085 A 
HETATM    2  C6  UNL     1       2.992  -5.353   0.000  1.00  0.00     0.079 A 
HETATM    3  C7  UNL     1       1.500  -5.196   0.000  1.00  0.00     0.144 A 
HETATM    4  C8  UNL     1       0.890  -6.566   0.000  1.00  0.00     0.138 A 
HETATM    5  N2  UNL     1       2.005  -7.570   0.000  1.00  0.00    -0.303 N 
HETATM    6  C9  UNL     1       1.848  -9.062   0.000  1.00  0.00     0.212 A 
HETATM    7  O2  UNL     1       3.061  -9.944   0.000  1.00  0.00    -0.169 OA
HETATM    8  C10 UNL     1       0.477  -9.672   0.000  1.00  0.00     0.120 A 
HETATM    9  N3  UNL     1      -0.736  -8.790   0.000  1.00  0.00    -0.218 NA
HETATM   10  C11 UNL     1      -2.106  -9.400   0.000  1.00  0.00     0.196 A 
HETATM   11  O3  UNL     1      -2.263 -10.892   0.000  1.00  0.00    -0.309 OA
HETATM   12  C12 UNL     1      -3.320  -8.519   0.000  1.00  0.00     0.119 A 
HETATM   13  N4  UNL     1      -3.163  -7.027   0.000  1.00  0.00    -0.218 NA
HETATM   14  C13 UNL     1      -4.377  -6.145   0.000  1.00  0.00     0.198 A 
HETATM   15  O4  UNL     1      -5.747  -6.755   0.000  1.00  0.00    -0.309 OA
HETATM   16  C14 UNL     1      -4.220  -4.654   0.000  1.00  0.00     0.144 A 
HETATM   17  C15 UNL     1      -5.433  -3.772   0.000  1.00  0.00     0.136 A 
HETATM   18  C16 UNL     1      -6.804  -4.382   0.000  1.00  0.00     0.247 A 
HETATM   19  O5  UNL     1      -6.960  -5.874   0.000  1.00  0.00    -0.162 OA
HETATM   20  O6  UNL     1      -8.017  -3.500   0.000  1.00  0.00    -0.299 OA
HETATM   21  N5  UNL     1      -2.849  -4.043   0.000  1.00  0.00    -0.216 NA
HETATM   22  C17 UNL     1      -2.693  -2.552   0.000  1.00  0.00     0.195 A 
HETATM   23  O7  UNL     1      -1.322  -1.942   0.000  1.00  0.00    -0.293 OA
HETATM   24  C18 UNL     1      -3.906  -1.670   0.000  1.00  0.00     0.087 A 
HETATM   25  C19 UNL     1      -3.749  -0.178   0.000  1.00  0.00     0.089 A 
HETATM   26  C20 UNL     1      -4.963   0.704   0.000  1.00  0.00     0.215 A 
HETATM   27  N6  UNL     1      -5.277  -2.280   0.000  1.00  0.00    -0.285 N 
HETATM   28  C22 UNL     1      -6.490  -1.398   0.000  1.00  0.00     0.171 A 
HETATM   29  O10 UNL     1      -6.333   0.093   0.000  1.00  0.00    -0.308 OA
HETATM   30  C23 UNL     1      -7.860  -2.009   0.000  1.00  0.00     0.220 A 
HETATM   31  C24 UNL     1      -4.690  -9.129   0.000  1.00  0.00     0.007 A 
HETATM   32  C25 UNL     1      -5.904  -8.247   0.000  1.00  0.00     0.174 A 
HETATM   33  C26 UNL     1      -4.847 -10.621   0.000  1.00  0.00     0.031 C 
HETATM   34  C27 UNL     1       0.321 -11.164   0.000  1.00  0.00     0.007 A 
HETATM   35  C28 UNL     1      -1.050 -11.774   0.000  1.00  0.00     0.174 A 
HETATM   36  C29 UNL     1       1.534 -12.046   0.000  1.00  0.00     0.031 C 
HETATM   37  O11 UNL     1       0.750  -3.897   0.000  1.00  0.00    -0.350 OA
HETATM   38  C30 UNL     1       1.500  -2.598   0.000  1.00  0.00     0.166 A 
HETATM   39  C31 UNL     1       0.750  -1.299   0.000  1.00  0.00     0.004 A 
HETATM   40  C32 UNL     1       1.500   0.000   0.000  1.00  0.00     0.026 A 
HETATM   41  C33 UNL     1       0.750   1.299   0.000  1.00  0.00     0.005 A 
HETATM   42  C34 UNL     1      -0.750   1.299   0.000  1.00  0.00     0.007 A 
HETATM   43  C35 UNL     1      -1.500   0.000   0.000  1.00  0.00     0.051 A 
HETATM   44  C36 UNL     1      -0.750  -1.299   0.000  1.00  0.00     0.074 A 
ENDROOT
BRANCH   1  45
HETATM   45  C4  UNL     1       4.674  -7.430   0.000  1.00  0.00     0.224 C 
HETATM   46  N1  UNL     1       4.831  -8.922   0.000  1.00  0.00    -0.225 NA
HETATM   47  O1  UNL     1       5.888  -6.549   0.000  1.00  0.00    -0.168 OA
BRANCH  46  48
HETATM   48  C3  UNL     1       6.201  -9.532   0.000  1.00  0.00     0.072 C 
BRANCH  48  49
HETATM   49  C2  UNL     1       6.358 -11.024   0.000  1.00  0.00     0.044 C 
HETATM   50  C1  UNL     1       7.728 -11.634   0.000  1.00  0.00     0.006 C 
ENDBRANCH  48  49
BRANCH  48  51
HETATM   51  C37 UNL     1       7.415  -8.650   0.000  1.00  0.00     0.223 C 
HETATM   52  O12 UNL     1       8.785  -9.261   0.000  1.00  0.00    -0.214 OA
ENDBRANCH  48  51
ENDBRANCH  46  48
ENDBRANCH   1  45
BRANCH  26  53
HETATM   53  C21 UNL     1      -4.806   2.195   0.000  1.00  0.00     0.215 C 
HETATM   54  O8  UNL     1      -3.436   2.805   0.000  1.00  0.00    -0.646 OA
HETATM   55  O9  UNL     1      -6.020   3.077   0.000  1.00  0.00    -0.646 OA
ENDBRANCH  26  53
TORSDOF 5
