REMARK  12 active torsions:
REMARK  status: ('A' for Active; 'I' for Inactive)
REMARK    1  A    between atoms: C2_2  and  C3_3 
REMARK    2  A    between atoms: C3_3  and  N1_4 
REMARK    3  A    between atoms: C3_3  and  C31_46 
REMARK       I    between atoms: N1_4  and  C4_5 
REMARK    4  A    between atoms: C4_5  and  C5_7 
REMARK    5  A    between atoms: C7_9  and  O5_34 
REMARK    6  A    between atoms: C10_14  and  N3_15 
REMARK       I    between atoms: N3_15  and  C11_16 
REMARK    7  A    between atoms: C11_16  and  C12_18 
REMARK    8  A    between atoms: C12_18  and  N4_19 
REMARK    9  A    between atoms: C12_18  and  C18_28 
REMARK       I    between atoms: N4_19  and  C13_20 
REMARK   10  A    between atoms: C13_20  and  C14_22 
REMARK   11  A    between atoms: O5_34  and  C24_35 
REMARK       I    between atoms: C24_35  and  N7_37 
REMARK   12  A    between atoms: N7_37  and  C25_38 
ROOT
HETATM    1  C5  UNL     1       8.382  -6.410   0.000  1.00  0.00     0.093 A 
HETATM    2  C6  UNL     1       9.808  -5.946   0.000  1.00  0.00     0.101 A 
HETATM    3  C7  UNL     1       9.808  -4.446   0.000  1.00  0.00     0.103 A 
HETATM    4  C8  UNL     1       8.382  -3.983   0.000  1.00  0.00     0.085 A 
HETATM    5  N2  UNL     1       7.500  -5.196   0.000  1.00  0.00    -0.283 N 
HETATM    6  C9  UNL     1       6.000  -5.196   0.000  1.00  0.00     0.216 A 
HETATM    7  O2  UNL     1       5.250  -6.495   0.000  1.00  0.00    -0.169 OA
HETATM    8  C10 UNL     1       5.250  -3.897   0.000  1.00  0.00     0.122 A 
HETATM    9  C21 UNL     1       6.000  -2.598   0.000  1.00  0.00     0.001 A 
HETATM   10  C22 UNL     1       7.500  -2.598   0.000  1.00  0.00     0.017 A 
HETATM   11  C23 UNL     1       5.250  -1.299   0.000  1.00  0.00     0.033 C 
ENDROOT
BRANCH   8  12
HETATM   12  N3  UNL     1       3.750  -3.897   0.000  1.00  0.00    -0.215 NA
HETATM   13  C11 UNL     1       3.000  -5.196   0.000  1.00  0.00     0.230 C 
HETATM   14  O3  UNL     1       3.750  -6.495   0.000  1.00  0.00    -0.168 OA
BRANCH  13  15
HETATM   15  C12 UNL     1       1.500  -5.196   0.000  1.00  0.00     0.119 C 
BRANCH  15  16
HETATM   16  N4  UNL     1       0.750  -6.495   0.000  1.00  0.00    -0.216 NA
HETATM   17  C13 UNL     1       1.500  -7.794   0.000  1.00  0.00     0.228 C 
HETATM   18  O4  UNL     1       3.000  -7.794   0.000  1.00  0.00    -0.168 OA
BRANCH  17  19
HETATM   19  C14 UNL     1       0.750  -9.093   0.000  1.00  0.00     0.121 A 
HETATM   20  C15 UNL     1       1.500 -10.392   0.000  1.00  0.00     0.169 A 
HETATM   21  N5  UNL     1       0.750 -11.691   0.000  1.00  0.00    -0.287 NA
HETATM   22  C16 UNL     1      -0.750 -11.691   0.000  1.00  0.00     0.146 A 
HETATM   23  C17 UNL     1      -1.500 -10.392   0.000  1.00  0.00     0.151 A 
HETATM   24  N6  UNL     1      -0.750  -9.093   0.000  1.00  0.00    -0.267 NA
ENDBRANCH  17  19
ENDBRANCH  15  16
BRANCH  15  25
HETATM   25  C18 UNL     1       0.750  -3.897   0.000  1.00  0.00    -0.022 C 
HETATM   26  C19 UNL     1       1.500  -2.598   0.000  1.00  0.00     0.028 C 
HETATM   27  C20 UNL     1      -0.750  -3.897   0.000  1.00  0.00     0.028 C 
ENDBRANCH  15  25
ENDBRANCH  13  15
ENDBRANCH   8  12
BRANCH   1  28
HETATM   28  C4  UNL     1       7.918  -7.836   0.000  1.00  0.00     0.225 C 
HETATM   29  N1  UNL     1       8.922  -8.951   0.000  1.00  0.00    -0.225 NA
HETATM   30  O1  UNL     1       6.451  -8.148   0.000  1.00  0.00    -0.168 OA
BRANCH  29  31
HETATM   31  C3  UNL     1       8.458 -10.378   0.000  1.00  0.00     0.072 C 
BRANCH  31  32
HETATM   32  C2  UNL     1       9.462 -11.492   0.000  1.00  0.00     0.044 C 
HETATM   33  C1  UNL     1       8.998 -12.919   0.000  1.00  0.00     0.006 C 
ENDBRANCH  31  32
BRANCH  31  34
HETATM   34  C31 UNL     1       6.991 -10.689   0.000  1.00  0.00     0.223 C 
HETATM   35  O7  UNL     1       6.528 -12.116   0.000  1.00  0.00    -0.214 OA
ENDBRANCH  31  34
ENDBRANCH  29  31
ENDBRANCH   1  28
BRANCH   3  36
HETATM   36  O5  UNL     1      11.022  -3.564   0.000  1.00  0.00    -0.271 OA
BRANCH  36  37
HETATM   37  C24 UNL     1      12.392  -4.175   0.000  1.00  0.00     0.323 C 
HETATM   38  O6  UNL     1      12.549  -5.666   0.000  1.00  0.00    -0.141 OA
HETATM   39  N7  UNL     1      13.606  -3.293   0.000  1.00  0.00    -0.202 NA
BRANCH  39  40
HETATM   40  C25 UNL     1      14.976  -3.903   0.000  1.00  0.00     0.075 A 
HETATM   41  C26 UNL     1      15.133  -5.395   0.000  1.00  0.00     0.080 A 
HETATM   42  C27 UNL     1      16.503  -6.005   0.000  1.00  0.00     0.020 A 
HETATM   43 CL1  UNL     1      16.660  -7.497   0.000  1.00  0.00    -0.091 Cl
HETATM   44  C28 UNL     1      17.717  -5.123   0.000  1.00  0.00     0.040 A 
HETATM   45  C29 UNL     1      17.560  -3.631   0.000  1.00  0.00     0.044 A 
HETATM   46  C30 UNL     1      16.189  -3.021   0.000  1.00  0.00     0.050 A 
HETATM   47 CL2  UNL     1      16.033  -1.530   0.000  1.00  0.00    -0.086 Cl
ENDBRANCH  39  40
ENDBRANCH  36  37
ENDBRANCH   3  36
TORSDOF 12
