REMARK  4 active torsions:
REMARK  status: ('A' for Active; 'I' for Inactive)
REMARK    1  A    between atoms: C2_2  and  C3_3 
REMARK    2  A    between atoms: C3_3  and  N1_4 
REMARK    3  A    between atoms: C3_3  and  C36_48 
REMARK       I    between atoms: N1_4  and  C4_5 
REMARK    4  A    between atoms: C4_5  and  C5_7 
ROOT
HETATM    1  C5  UNL     1      -4.255  -8.869   0.000  1.00  0.00     0.085 A 
HETATM    2  C6  UNL     1      -3.140  -7.865   0.000  1.00  0.00     0.080 A 
HETATM    3  C7  UNL     1      -3.750  -6.495   0.000  1.00  0.00     0.152 A 
HETATM    4  C8  UNL     1      -5.242  -6.652   0.000  1.00  0.00     0.138 A 
HETATM    5  N2  UNL     1      -5.554  -8.119   0.000  1.00  0.00    -0.303 N 
HETATM    6  C9  UNL     1      -6.924  -8.729   0.000  1.00  0.00     0.212 A 
HETATM    7  O2  UNL     1      -7.081 -10.221   0.000  1.00  0.00    -0.169 OA
HETATM    8  C10 UNL     1      -8.137  -7.848   0.000  1.00  0.00     0.120 A 
HETATM    9  N3  UNL     1      -7.981  -6.356   0.000  1.00  0.00    -0.218 NA
HETATM   10  C11 UNL     1      -9.194  -5.474   0.000  1.00  0.00     0.196 A 
HETATM   11  O3  UNL     1     -10.565  -6.084   0.000  1.00  0.00    -0.309 OA
HETATM   12  C12 UNL     1      -9.037  -3.982   0.000  1.00  0.00     0.118 A 
HETATM   13  N4  UNL     1      -7.667  -3.372   0.000  1.00  0.00    -0.223 NA
HETATM   14  C13 UNL     1      -7.510  -1.881   0.000  1.00  0.00     0.154 A 
HETATM   15  O4  UNL     1      -8.724  -0.999   0.000  1.00  0.00    -0.313 OA
HETATM   16  C14 UNL     1      -6.140  -1.270   0.000  1.00  0.00     0.071 A 
HETATM   17  C15 UNL     1      -5.983   0.221   0.000  1.00  0.00     0.009 A 
HETATM   18  C16 UNL     1      -4.613   0.832   0.000  1.00  0.00     0.006 A 
HETATM   19  C17 UNL     1      -4.456   2.323   0.000  1.00  0.00     0.065 A 
HETATM   20  C18 UNL     1      -3.086   2.933   0.000  1.00  0.00     0.269 A 
HETATM   21  O5  UNL     1      -1.872   2.052   0.000  1.00  0.00    -0.331 OA
HETATM   22  O6  UNL     1      -2.929   4.425   0.000  1.00  0.00    -0.190 OA
HETATM   23  C19 UNL     1     -10.251  -3.101   0.000  1.00  0.00     0.007 A 
HETATM   24  C20 UNL     1     -10.094  -1.609   0.000  1.00  0.00     0.174 A 
HETATM   25  C21 UNL     1     -11.621  -3.711   0.000  1.00  0.00     0.031 C 
HETATM   26  C22 UNL     1      -9.508  -8.458   0.000  1.00  0.00     0.007 A 
HETATM   27  C23 UNL     1     -10.721  -7.576   0.000  1.00  0.00     0.174 A 
HETATM   28  C24 UNL     1      -9.665  -9.950   0.000  1.00  0.00     0.031 C 
HETATM   29  O7  UNL     1      -3.000  -5.196   0.000  1.00  0.00    -0.309 OA
HETATM   30  C25 UNL     1      -1.500  -5.196   0.000  1.00  0.00     0.221 A 
HETATM   31  O8  UNL     1      -0.750  -6.495   0.000  1.00  0.00    -0.164 OA
HETATM   32  C26 UNL     1      -0.750  -3.897   0.000  1.00  0.00     0.009 A 
HETATM   33  C27 UNL     1       0.750  -3.897   0.000  1.00  0.00     0.031 A 
HETATM   34  C28 UNL     1       1.500  -2.598   0.000  1.00  0.00     0.026 A 
HETATM   35  C29 UNL     1       0.750  -1.299   0.000  1.00  0.00    -0.051 A 
HETATM   36  C30 UNL     1       1.500   0.000   0.000  1.00  0.00     0.024 A 
HETATM   37  C31 UNL     1       0.750   1.299   0.000  1.00  0.00     0.034 A 
HETATM   38  C32 UNL     1      -0.750   1.299   0.000  1.00  0.00     0.122 A 
HETATM   39  C33 UNL     1      -1.500   0.000   0.000  1.00  0.00     0.051 A 
HETATM   40  C34 UNL     1      -0.750  -1.299   0.000  1.00  0.00    -0.045 A 
HETATM   41  C35 UNL     1      -1.500  -2.598   0.000  1.00  0.00     0.048 A 
ENDROOT
BRANCH   1  42
HETATM   42  C4  UNL     1      -4.098 -10.361   0.000  1.00  0.00     0.224 C 
HETATM   43  N1  UNL     1      -5.311 -11.243   0.000  1.00  0.00    -0.225 NA
HETATM   44  O1  UNL     1      -2.728 -10.971   0.000  1.00  0.00    -0.168 OA
BRANCH  43  45
HETATM   45  C3  UNL     1      -5.155 -12.734   0.000  1.00  0.00     0.072 C 
BRANCH  45  46
HETATM   46  C2  UNL     1      -6.368 -13.616   0.000  1.00  0.00     0.044 C 
HETATM   47  C1  UNL     1      -6.211 -15.108   0.000  1.00  0.00     0.006 C 
ENDBRANCH  45  46
BRANCH  45  48
HETATM   48  C36 UNL     1      -3.784 -13.345   0.000  1.00  0.00     0.223 C 
HETATM   49  O9  UNL     1      -3.627 -14.836   0.000  1.00  0.00    -0.214 OA
ENDBRANCH  45  48
ENDBRANCH  43  45
ENDBRANCH   1  42
TORSDOF 4
