REMARK  9 active torsions:
REMARK  status: ('A' for Active; 'I' for Inactive)
REMARK    1  A    between atoms: C2_2  and  C3_3 
REMARK    2  A    between atoms: C3_3  and  N1_4 
REMARK    3  A    between atoms: C3_3  and  C35_47 
REMARK       I    between atoms: N1_4  and  C4_5 
REMARK    4  A    between atoms: C4_5  and  C5_7 
REMARK    5  A    between atoms: C7_9  and  O5_34 
REMARK    6  A    between atoms: C11_16  and  C12_18 
REMARK    7  A    between atoms: C13_20  and  C14_22 
REMARK    8  A    between atoms: O5_34  and  C24_35 
REMARK    9  A    between atoms: C24_35  and  C25_37 
ROOT
HETATM    1  C5  UNL     1      -7.558  -4.647   0.000  1.00  0.00     0.093 A 
HETATM    2  C6  UNL     1      -6.132  -5.111   0.000  1.00  0.00     0.101 A 
HETATM    3  C7  UNL     1      -5.250  -3.897   0.000  1.00  0.00     0.102 A 
HETATM    4  C8  UNL     1      -6.132  -2.684   0.000  1.00  0.00     0.085 A 
HETATM    5  N2  UNL     1      -7.558  -3.147   0.000  1.00  0.00    -0.283 N 
HETATM    6  C9  UNL     1      -8.772  -2.265   0.000  1.00  0.00     0.216 A 
HETATM    7  O2  UNL     1     -10.142  -2.876   0.000  1.00  0.00    -0.169 OA
HETATM    8  C10 UNL     1      -8.615  -0.774   0.000  1.00  0.00     0.124 A 
HETATM    9  N3  UNL     1      -9.829   0.108   0.000  1.00  0.00    -0.218 NA
HETATM   10  C11 UNL     1      -9.672   1.600   0.000  1.00  0.00     0.196 A 
HETATM   11  O3  UNL     1      -8.301   2.210   0.000  1.00  0.00    -0.309 OA
HETATM   12  C21 UNL     1      -7.245  -0.164   0.000  1.00  0.00     0.031 A 
HETATM   13  C22 UNL     1      -7.088   1.328   0.000  1.00  0.00     0.179 A 
HETATM   14  C23 UNL     1      -6.031  -1.045   0.000  1.00  0.00     0.019 A 
ENDROOT
BRANCH   3  15
HETATM   15  O5  UNL     1      -3.750  -3.897   0.000  1.00  0.00    -0.286 OA
BRANCH  15  16
HETATM   16  C24 UNL     1      -3.000  -5.196   0.000  1.00  0.00     0.228 C 
HETATM   17  O6  UNL     1      -3.750  -6.495   0.000  1.00  0.00    -0.163 OA
BRANCH  16  18
HETATM   18  C25 UNL     1      -1.500  -5.196   0.000  1.00  0.00     0.022 A 
HETATM   19  C26 UNL     1      -0.750  -6.495   0.000  1.00  0.00     0.031 A 
HETATM   20  C27 UNL     1       0.750  -6.495   0.000  1.00  0.00     0.009 A 
HETATM   21  C28 UNL     1       1.500  -5.196   0.000  1.00  0.00     0.022 A 
HETATM   22  C29 UNL     1       0.750  -3.897   0.000  1.00  0.00    -0.048 A 
HETATM   23  C30 UNL     1       1.500  -2.598   0.000  1.00  0.00     0.022 A 
HETATM   24  C34 UNL     1      -0.750  -3.897   0.000  1.00  0.00    -0.030 A 
HETATM   25  C31 UNL     1       0.750  -1.299   0.000  1.00  0.00     0.005 A 
HETATM   26  C32 UNL     1      -0.750  -1.299   0.000  1.00  0.00     0.005 A 
HETATM   27  C33 UNL     1      -1.500  -2.598   0.000  1.00  0.00     0.025 A 
ENDBRANCH  16  18
ENDBRANCH  15  16
ENDBRANCH   3  15
BRANCH   1  28
HETATM   28  C4  UNL     1      -8.772  -5.529   0.000  1.00  0.00     0.225 C 
HETATM   29  N1  UNL     1     -10.142  -4.919   0.000  1.00  0.00    -0.225 NA
HETATM   30  O1  UNL     1      -8.615  -7.021   0.000  1.00  0.00    -0.168 OA
BRANCH  29  31
HETATM   31  C3  UNL     1     -11.356  -5.800   0.000  1.00  0.00     0.072 C 
BRANCH  31  32
HETATM   32  C2  UNL     1     -12.726  -5.190   0.000  1.00  0.00     0.044 C 
HETATM   33  C1  UNL     1     -13.940  -6.072   0.000  1.00  0.00     0.006 C 
ENDBRANCH  31  32
BRANCH  31  34
HETATM   34  C35 UNL     1     -11.199  -7.292   0.000  1.00  0.00     0.223 C 
HETATM   35  O7  UNL     1     -12.412  -8.174   0.000  1.00  0.00    -0.214 OA
ENDBRANCH  31  34
ENDBRANCH  29  31
ENDBRANCH   1  28
BRANCH  10  36
HETATM   36  C12 UNL     1     -10.885   2.482   0.000  1.00  0.00     0.119 A 
HETATM   37  N4  UNL     1     -12.256   1.871   0.000  1.00  0.00    -0.218 NA
HETATM   38  C13 UNL     1     -13.469   2.753   0.000  1.00  0.00     0.194 A 
HETATM   39  O4  UNL     1     -13.312   4.245   0.000  1.00  0.00    -0.309 OA
HETATM   40  C19 UNL     1     -11.942   4.855   0.000  1.00  0.00     0.174 A 
HETATM   41  C18 UNL     1     -10.729   3.973   0.000  1.00  0.00     0.007 A 
HETATM   42  C20 UNL     1      -9.358   4.583   0.000  1.00  0.00     0.031 C 
BRANCH  38  43
HETATM   43  C14 UNL     1     -14.839   2.143   0.000  1.00  0.00     0.119 A 
HETATM   44  C15 UNL     1     -14.996   0.651   0.000  1.00  0.00     0.169 A 
HETATM   45  N5  UNL     1     -16.366   0.041   0.000  1.00  0.00    -0.287 NA
HETATM   46  C16 UNL     1     -17.580   0.923   0.000  1.00  0.00     0.146 A 
HETATM   47  C17 UNL     1     -17.423   2.414   0.000  1.00  0.00     0.151 A 
HETATM   48  N6  UNL     1     -16.053   3.025   0.000  1.00  0.00    -0.267 NA
ENDBRANCH  38  43
ENDBRANCH  10  36
TORSDOF 9
