REMARK  5 active torsions:
REMARK  status: ('A' for Active; 'I' for Inactive)
REMARK    1  A    between atoms: C2_2  and  C3_3 
REMARK    2  A    between atoms: C20_26  and  C21_27 
REMARK    3  A    between atoms: C22_30  and  C27_35 
REMARK       I    between atoms: C27_35  and  N5_37 
REMARK    4  A    between atoms: N5_37  and  S1_38 
REMARK    5  A    between atoms: S1_38  and  N6_41 
ROOT
HETATM    1  C3  UNL     1      -6.099  -2.946   0.000  1.00  0.00     0.103 A 
HETATM    2  C4  UNL     1      -5.942  -4.438   0.000  1.00  0.00     0.069 A 
HETATM    3  C5  UNL     1      -4.475  -4.750   0.000  1.00  0.00     0.097 A 
HETATM    4  C6  UNL     1      -3.865  -6.120   0.000  1.00  0.00     0.196 A 
HETATM    5  O1  UNL     1      -4.746  -7.333   0.000  1.00  0.00    -0.293 OA
HETATM    6  N1  UNL     1      -2.373  -6.277   0.000  1.00  0.00    -0.218 NA
HETATM    7  C7  UNL     1      -1.763  -7.647   0.000  1.00  0.00     0.123 A 
HETATM    8  C8  UNL     1      -2.644  -8.861   0.000  1.00  0.00     0.018 A 
HETATM    9  C9  UNL     1      -4.136  -8.704   0.000  1.00  0.00     0.077 A 
HETATM   10  C10 UNL     1      -5.018  -9.917   0.000  1.00  0.00     0.051 A 
HETATM   11  C11 UNL     1      -4.408 -11.288   0.000  1.00  0.00     0.007 A 
HETATM   12  C12 UNL     1      -2.916 -11.444   0.000  1.00  0.00     0.005 A 
HETATM   13  C13 UNL     1      -2.034 -10.231   0.000  1.00  0.00     0.030 A 
HETATM   14  C14 UNL     1      -0.271  -7.804   0.000  1.00  0.00     0.209 A 
HETATM   15  O2  UNL     1       0.339  -9.174   0.000  1.00  0.00    -0.250 OA
HETATM   16  N2  UNL     1       0.611  -6.590   0.000  1.00  0.00    -0.220 NA
HETATM   17  C15 UNL     1       2.102  -6.747   0.000  1.00  0.00     0.115 A 
HETATM   18  C16 UNL     1       2.984  -5.534   0.000  1.00  0.00     0.209 A 
HETATM   19  O3  UNL     1       4.476  -5.691   0.000  1.00  0.00    -0.170 OA
HETATM   20  N3  UNL     1       2.374  -4.163   0.000  1.00  0.00    -0.306 N 
HETATM   21  C17 UNL     1       0.907  -3.852   0.000  1.00  0.00     0.108 A 
HETATM   22  C18 UNL     1       0.750  -2.360   0.000  1.00  0.00     0.031 A 
HETATM   23  C19 UNL     1       2.120  -1.750   0.000  1.00  0.00     0.050 A 
HETATM   24  C20 UNL     1       3.124  -2.864   0.000  1.00  0.00     0.080 A 
HETATM   25  C32 UNL     1      -0.750  -2.360   0.000  1.00  0.00     0.027 A 
HETATM   26  C33 UNL     1      -1.010  -3.837   0.000  1.00  0.00    -0.012 A 
HETATM   27  C34 UNL     1      -2.159  -1.847   0.000  1.00  0.00     0.049 A 
HETATM   28  C35 UNL     1      -0.000  -1.061   0.000  1.00  0.00     0.006 A 
HETATM   29  C36 UNL     1       1.061   0.000   0.000  1.00  0.00     0.000 A 
HETATM   30  C37 UNL     1       0.000   1.061   0.000  1.00  0.00     0.000 A 
HETATM   31  C38 UNL     1      -1.061   0.000   0.000  1.00  0.00     0.000 A 
HETATM   32  C39 UNL     1       2.712  -8.117   0.000  1.00  0.00     0.108 A 
HETATM   33  C40 UNL     1       1.342  -8.728   0.000  1.00  0.00     0.001 A 
HETATM   34  C41 UNL     1       4.083  -7.507   0.000  1.00  0.00     0.021 C 
HETATM   35  C42 UNL     1       3.323  -9.488   0.000  1.00  0.00     0.021 C 
HETATM   36  N7  UNL     1      -3.725  -3.451   0.000  1.00  0.00    -0.260 N 
HETATM   37  C43 UNL     1      -2.233  -3.294   0.000  1.00  0.00     0.051 A 
HETATM   38  N8  UNL     1      -4.729  -2.336   0.000  1.00  0.00    -0.119 NA
ENDROOT
BRANCH  24  39
HETATM   39  C21 UNL     1       4.616  -2.708   0.000  1.00  0.00     0.190 A 
HETATM   40  O4  UNL     1       5.226  -1.337   0.000  1.00  0.00    -0.294 OA
HETATM   41  C25 UNL     1       6.436  -0.920   0.000  1.00  0.00     0.074 A 
HETATM   42  C24 UNL     1       7.094  -2.268   0.000  1.00  0.00     0.005 A 
HETATM   43  C26 UNL     1       7.275   0.324   0.000  1.00  0.00     0.058 C 
HETATM   44  C22 UNL     1       6.989  -3.764   0.000  1.00  0.00     0.167 A 
HETATM   45  C23 UNL     1       8.337  -3.107   0.000  1.00  0.00     0.060 A 
HETATM   46  N4  UNL     1       5.497  -3.921   0.000  1.00  0.00    -0.239 NA
BRANCH  44  47
HETATM   47  C27 UNL     1       7.403  -5.206   0.000  1.00  0.00     0.226 C 
HETATM   48  O5  UNL     1       6.361  -6.285   0.000  1.00  0.00    -0.171 OA
HETATM   49  N5  UNL     1       8.858  -5.569   0.000  1.00  0.00    -0.119 NA
BRANCH  49  50
HETATM   50  S1  UNL     1       9.272  -7.011   0.000  1.00  0.00     0.346 S 
HETATM   51  O6  UNL     1      10.713  -6.598   0.000  1.00  0.00    -0.180 OA
HETATM   52  O7  UNL     1       7.830  -7.424   0.000  1.00  0.00    -0.180 OA
BRANCH  50  53
HETATM   53  N6  UNL     1       9.685  -8.453   0.000  1.00  0.00    -0.260 N 
HETATM   54  C28 UNL     1       8.762  -9.635   0.000  1.00  0.00     0.115 A 
HETATM   55  C29 UNL     1       9.600 -10.878   0.000  1.00  0.00     0.027 A 
HETATM   56  C30 UNL     1      11.042 -10.465   0.000  1.00  0.00     0.027 A 
HETATM   57  C31 UNL     1      11.095  -8.966   0.000  1.00  0.00     0.115 A 
ENDBRANCH  50  53
ENDBRANCH  49  50
ENDBRANCH  44  47
ENDBRANCH  24  39
BRANCH   1  58
HETATM   58  C2  UNL     1      -7.398  -2.196   0.000  1.00  0.00     0.020 C 
HETATM   59  C1  UNL     1      -7.398  -0.696   0.000  1.00  0.00     0.002 C 
ENDBRANCH   1  58
TORSDOF 5
