REMARK  9 active torsions:
REMARK  status: ('A' for Active; 'I' for Inactive)
REMARK    1  A    between atoms: C4_4  and  C10_13 
REMARK    2  A    between atoms: C5_6  and  N2_8 
REMARK    3  A    between atoms: N2_8  and  C6_9 
REMARK       I    between atoms: C10_13  and  N3_15 
REMARK    4  A    between atoms: C14_19  and  C15_20 
REMARK       I    between atoms: C15_20  and  N4_22 
REMARK    5  A    between atoms: N4_22  and  C16_23 
REMARK    6  A    between atoms: C16_23  and  C17_24 
REMARK    7  A    between atoms: C16_23  and  C21_28 
REMARK    8  A    between atoms: C17_24  and  C18_25 
REMARK    9  A    between atoms: C21_28  and  C22_30 
ROOT
HETATM    1  C10 UNL     1      -4.241   0.000   0.000  1.00  0.00     0.212 C 
HETATM    2  O2  UNL     1      -4.991   1.299   0.000  1.00  0.00    -0.169 OA
HETATM    3  N3  UNL     1      -2.741   0.000   0.000  1.00  0.00    -0.306 N 
HETATM    4  C11 UNL     1      -1.860  -1.214   0.000  1.00  0.00     0.108 A 
HETATM    5  C12 UNL     1      -0.433  -0.750   0.000  1.00  0.00     0.029 A 
HETATM    6  C13 UNL     1      -0.433   0.750   0.000  1.00  0.00     0.044 A 
HETATM    7  C14 UNL     1      -1.860   1.214   0.000  1.00  0.00     0.082 A 
HETATM    8  C23 UNL     1       0.866   0.000   0.000  1.00  0.00     0.007 A 
HETATM    9  C24 UNL     1       1.830   1.149   0.000  1.00  0.00     0.001 C 
HETATM   10  C25 UNL     1       1.830  -1.149   0.000  1.00  0.00     0.001 C 
ENDROOT
BRANCH   1  11
HETATM   11  C4  UNL     1      -4.991  -1.299   0.000  1.00  0.00     0.121 A 
HETATM   12  C2  UNL     1      -6.491  -1.299   0.000  1.00  0.00     0.007 A 
HETATM   13  C1  UNL     1      -7.241  -2.598   0.000  1.00  0.00     0.176 A 
HETATM   14  C3  UNL     1      -7.241   0.000   0.000  1.00  0.00     0.031 C 
HETATM   15  O1  UNL     1      -6.491  -3.897   0.000  1.00  0.00    -0.296 OA
HETATM   16  C5  UNL     1      -4.991  -3.897   0.000  1.00  0.00     0.266 A 
HETATM   17  N1  UNL     1      -4.241  -2.598   0.000  1.00  0.00    -0.203 NA
BRANCH  16  18
HETATM   18  N2  UNL     1      -4.241  -5.196   0.000  1.00  0.00    -0.236 NA
BRANCH  18  19
HETATM   19  C6  UNL     1      -4.991  -6.495   0.000  1.00  0.00     0.088 C 
HETATM   20  C7  UNL     1      -3.692  -7.245   0.000  1.00  0.00     0.025 C 
HETATM   21  C8  UNL     1      -6.290  -5.745   0.000  1.00  0.00     0.025 C 
HETATM   22  C9  UNL     1      -5.741  -7.794   0.000  1.00  0.00     0.025 C 
ENDBRANCH  18  19
ENDBRANCH  16  18
ENDBRANCH   1  11
BRANCH   7  23
HETATM   23  C15 UNL     1      -2.323   2.640   0.000  1.00  0.00     0.224 C 
HETATM   24  O3  UNL     1      -3.790   2.952   0.000  1.00  0.00    -0.168 OA
HETATM   25  N4  UNL     1      -1.319   3.755   0.000  1.00  0.00    -0.221 NA
BRANCH  25  26
HETATM   26  C16 UNL     1      -1.783   5.181   0.000  1.00  0.00     0.090 C 
BRANCH  26  27
HETATM   27  C17 UNL     1      -0.779   6.296   0.000  1.00  0.00     0.048 C 
BRANCH  27  28
HETATM   28  C18 UNL     1       0.688   5.984   0.000  1.00  0.00     0.006 A 
HETATM   29  C19 UNL     1       1.803   4.981   0.000  1.00  0.00     0.000 A 
HETATM   30  C20 UNL     1       2.115   6.448   0.000  1.00  0.00     0.000 A 
ENDBRANCH  27  28
ENDBRANCH  26  27
BRANCH  26  31
HETATM   31  C21 UNL     1      -3.250   5.493   0.000  1.00  0.00     0.183 C 
HETATM   32  O4  UNL     1      -4.254   4.379   0.000  1.00  0.00    -0.186 OA
BRANCH  31  33
HETATM   33  C22 UNL     1      -3.714   6.920   0.000  1.00  0.00     0.227 C 
HETATM   34  O5  UNL     1      -2.710   8.035   0.000  1.00  0.00    -0.173 OA
HETATM   35  N5  UNL     1      -5.181   7.232   0.000  1.00  0.00    -0.069 NA
ENDBRANCH  31  33
ENDBRANCH  26  31
ENDBRANCH  25  26
ENDBRANCH   7  23
TORSDOF 9
