REMARK  8 active torsions:
REMARK  status: ('A' for Active; 'I' for Inactive)
REMARK    1  A    between atoms: C5_5  and  N1_6 
REMARK       I    between atoms: N1_6  and  C6_7 
REMARK    2  A    between atoms: C6_7  and  C7_9 
REMARK    3  A    between atoms: C7_9  and  N2_10 
REMARK    4  A    between atoms: C7_9  and  C13_18 
REMARK       I    between atoms: N2_10  and  C8_11 
REMARK    5  A    between atoms: C8_11  and  O3_13 
REMARK    6  A    between atoms: O3_13  and  C9_14 
REMARK    7  A    between atoms: C19_26  and  C22_31 
REMARK    8  A    between atoms: C22_31  and  C23_33 
ROOT
HETATM    1  C1  UNL     1       9.526  -3.897   0.000  1.00  0.00     0.031 C 
HETATM    2  C2  UNL     1       8.026  -3.897   0.000  1.00  0.00     0.004 A 
HETATM    3  C3  UNL     1       7.276  -5.196   0.000  1.00  0.00     0.170 A 
HETATM    4  C4  UNL     1       7.276  -2.598   0.000  1.00  0.00     0.075 A 
HETATM    5  C5  UNL     1       5.776  -2.598   0.000  1.00  0.00     0.108 A 
HETATM    6  C18 UNL     1       5.026  -3.897   0.000  1.00  0.00     0.214 A 
HETATM    7  O4  UNL     1       3.526  -3.897   0.000  1.00  0.00    -0.169 OA
HETATM    8  N3  UNL     1       5.776  -5.196   0.000  1.00  0.00    -0.265 N 
HETATM    9  C19 UNL     1       5.026  -6.495   0.000  1.00  0.00     0.086 A 
HETATM   10  C20 UNL     1       5.776  -7.794   0.000  1.00  0.00     0.132 A 
HETATM   11  C21 UNL     1       7.276  -7.794   0.000  1.00  0.00     0.232 A 
HETATM   12  F1  UNL     1       8.026  -9.093   0.000  1.00  0.00    -0.179 F 
HETATM   13  F2  UNL     1       8.026  -6.495   0.000  1.00  0.00    -0.290 F 
ENDROOT
BRANCH   5  14
HETATM   14  N1  UNL     1       5.026  -1.299   0.000  1.00  0.00    -0.219 NA
HETATM   15  C6  UNL     1       3.526  -1.299   0.000  1.00  0.00     0.230 C 
HETATM   16  O1  UNL     1       2.776  -2.598   0.000  1.00  0.00    -0.168 OA
BRANCH  15  17
HETATM   17  C7  UNL     1       2.776   0.000   0.000  1.00  0.00     0.121 C 
BRANCH  17  18
HETATM   18  N2  UNL     1       3.526   1.299   0.000  1.00  0.00    -0.196 NA
HETATM   19  C8  UNL     1       5.026   1.299   0.000  1.00  0.00     0.319 C 
HETATM   20  O2  UNL     1       5.776  -0.000   0.000  1.00  0.00    -0.141 OA
BRANCH  19  21
HETATM   21  O3  UNL     1       5.776   2.598   0.000  1.00  0.00    -0.299 OA
BRANCH  21  22
HETATM   22  C9  UNL     1       7.276   2.598   0.000  1.00  0.00     0.102 C 
HETATM   23  C10 UNL     1       7.276   4.098   0.000  1.00  0.00     0.030 C 
HETATM   24  C11 UNL     1       7.276   1.098   0.000  1.00  0.00     0.030 C 
HETATM   25  C12 UNL     1       8.776   2.598   0.000  1.00  0.00     0.030 C 
ENDBRANCH  21  22
ENDBRANCH  19  21
ENDBRANCH  17  18
BRANCH  17  26
HETATM   26  C13 UNL     1       1.276   0.000   0.000  1.00  0.00    -0.023 A 
HETATM   27  C14 UNL     1       0.394   1.214   0.000  1.00  0.00     0.024 A 
HETATM   28  C15 UNL     1      -1.032   0.750   0.000  1.00  0.00     0.005 A 
HETATM   29  C16 UNL     1      -1.032  -0.750   0.000  1.00  0.00     0.005 A 
HETATM   30  C17 UNL     1       0.394  -1.214   0.000  1.00  0.00     0.024 A 
ENDBRANCH  17  26
ENDBRANCH  15  17
ENDBRANCH   5  14
BRANCH   9  31
HETATM   31  C22 UNL     1       3.526  -6.495   0.000  1.00  0.00     0.207 C 
HETATM   32  O5  UNL     1       2.776  -5.196   0.000  1.00  0.00    -0.182 OA
BRANCH  31  33
HETATM   33  C23 UNL     1       2.776  -7.794   0.000  1.00  0.00     0.239 C 
HETATM   34  O6  UNL     1       3.526  -9.093   0.000  1.00  0.00    -0.642 OA
HETATM   35  O7  UNL     1       1.276  -7.794   0.000  1.00  0.00    -0.642 OA
ENDBRANCH  31  33
ENDBRANCH   9  31
TORSDOF 8
