REMARK  8 active torsions:
REMARK  status: ('A' for Active; 'I' for Inactive)
REMARK    1  A    between atoms: C20_24  and  C22_28 
REMARK    2  A    between atoms: C29_37  and  N4_39 
REMARK    3  A    between atoms: N4_39  and  S1_40 
REMARK    4  A    between atoms: S1_40  and  C30_43 
REMARK    5  A    between atoms: C30_43  and  C31_44 
REMARK    6  A    between atoms: C31_44  and  C32_45 
REMARK    7  A    between atoms: C32_45  and  C33_46 
REMARK    8  A    between atoms: C35_49  and  C36_51 
ROOT
HETATM    1  C1  UNL     1      -7.088   4.086   0.000  1.00  0.00     0.158 A 
HETATM    2  C2  UNL     1      -8.028   2.917   0.000  1.00  0.00     0.079 A 
HETATM    3  C3  UNL     1      -9.103   1.871   0.000  1.00  0.00     0.010 C 
HETATM    4  C4  UNL     1      -9.074   3.992   0.000  1.00  0.00     0.010 C 
HETATM    5  C5  UNL     1      -6.982   1.841   0.000  1.00  0.00     0.168 A 
HETATM    6  N1  UNL     1      -7.871   0.633   0.000  1.00  0.00    -0.354 NA
HETATM    7  C6  UNL     1      -8.318  -0.799   0.000  1.00  0.00     0.386 A 
HETATM    8  O1  UNL     1      -9.804  -0.593   0.000  1.00  0.00    -0.128 OA
HETATM    9  O2  UNL     1      -8.277  -2.298   0.000  1.00  0.00    -0.207 OA
HETATM   10  C7  UNL     1      -7.751  -3.703   0.000  1.00  0.00     0.079 A 
HETATM   11  C8  UNL     1      -6.798  -4.861   0.000  1.00  0.00     0.016 A 
HETATM   12  C9  UNL     1      -5.520  -5.646   0.000  1.00  0.00    -0.005 A 
HETATM   13  C10 UNL     1      -4.056  -5.974   0.000  1.00  0.00    -0.024 A 
HETATM   14  C11 UNL     1      -2.565  -5.809   0.000  1.00  0.00     0.163 A 
HETATM   15  C12 UNL     1      -1.208  -5.169   0.000  1.00  0.00    -0.030 A 
HETATM   16  C13 UNL     1      -0.133  -4.123   0.000  1.00  0.00     0.219 A 
HETATM   17  O3  UNL     1       0.544  -2.785   0.000  1.00  0.00    -0.311 OA
HETATM   18  C14 UNL     1       0.750  -1.299   0.000  1.00  0.00     0.124 A 
HETATM   19  C15 UNL     1       1.500   0.000   0.000  1.00  0.00     0.035 A 
HETATM   20  C16 UNL     1       0.750   1.299   0.000  1.00  0.00     0.027 A 
HETATM   21  C17 UNL     1      -0.750   1.299   0.000  1.00  0.00    -0.011 A 
HETATM   22  C18 UNL     1      -1.500   0.000   0.000  1.00  0.00     0.027 A 
HETATM   23  C19 UNL     1      -0.750  -1.299   0.000  1.00  0.00     0.035 A 
HETATM   24  C20 UNL     1      -2.808   3.022   0.000  1.00  0.00     0.170 A 
HETATM   25  N2  UNL     1      -4.306   3.104   0.000  1.00  0.00    -0.373 NA
HETATM   26  C21 UNL     1      -5.750   2.696   0.000  1.00  0.00     0.256 A 
HETATM   27  O4  UNL     1      -6.220   4.121   0.000  1.00  0.00    -0.303 OA
HETATM   28  N5  UNL     1       0.425  -5.562   0.000  1.00  0.00    -0.197 NA
HETATM   29  C35 UNL     1      -0.215  -6.918   0.000  1.00  0.00     0.159 A 
HETATM   30  N6  UNL     1      -1.710  -7.042   0.000  1.00  0.00    -0.211 NA
ENDROOT
BRANCH  24  31
HETATM   31  C22 UNL     1      -2.480   4.486   0.000  1.00  0.00     0.242 A 
HETATM   32  O5  UNL     1      -3.280   5.059   0.000  1.00  0.00    -0.167 OA
HETATM   33  O6  UNL     1      -3.587   6.038   0.000  1.00  0.00    -0.169 OA
HETATM   34  C29 UNL     1      -3.256   6.965   0.000  1.00  0.00     0.221 A 
HETATM   35  C28 UNL     1      -1.824   7.413   0.000  1.00  0.00     0.036 A 
HETATM   36  C23 UNL     1      -0.721   6.397   0.000  1.00  0.00     0.061 A 
HETATM   37  C27 UNL     1      -1.496   8.877   0.000  1.00  0.00     0.031 A 
HETATM   38  N3  UNL     1      -1.049   4.933   0.000  1.00  0.00    -0.223 NA
HETATM   39  C24 UNL     1       0.711   6.845   0.000  1.00  0.00     0.046 A 
HETATM   40  C25 UNL     1       1.039   8.308   0.000  1.00  0.00     0.007 A 
HETATM   41  C26 UNL     1      -0.065   9.324   0.000  1.00  0.00     0.005 A 
BRANCH  34  42
HETATM   42  N4  UNL     1      -4.360   7.981   0.000  1.00  0.00    -0.135 NA
BRANCH  42  43
HETATM   43  S1  UNL     1      -5.791   7.533   0.000  1.00  0.00     0.266 S 
HETATM   44  O7  UNL     1      -5.343   6.102   0.000  1.00  0.00    -0.203 OA
HETATM   45  O8  UNL     1      -6.239   8.965   0.000  1.00  0.00    -0.203 OA
BRANCH  43  46
HETATM   46  C30 UNL     1      -7.223   7.085   0.000  1.00  0.00     0.146 C 
BRANCH  46  47
HETATM   47  C31 UNL     1      -8.326   8.101   0.000  1.00  0.00     0.019 C 
BRANCH  47  48
HETATM   48  C32 UNL     1      -9.758   7.654   0.000  1.00  0.00     0.001 C 
BRANCH  48  49
HETATM   49  C33 UNL     1     -10.862   8.669   0.000  1.00  0.00     0.000 C 
HETATM   50  C34 UNL     1     -12.293   8.222   0.000  1.00  0.00     0.000 C 
ENDBRANCH  48  49
ENDBRANCH  47  48
ENDBRANCH  46  47
ENDBRANCH  43  46
ENDBRANCH  42  43
ENDBRANCH  34  42
ENDBRANCH  24  31
BRANCH  29  51
HETATM   51  C36 UNL     1       0.639  -8.151   0.000  1.00  0.00    -0.008 A 
HETATM   52  C37 UNL     1      -0.001  -9.507   0.000  1.00  0.00     0.025 A 
HETATM   53  C38 UNL     1       0.854 -10.740   0.000  1.00  0.00     0.004 A 
HETATM   54  C39 UNL     1       2.349 -10.616   0.000  1.00  0.00     0.001 A 
HETATM   55  C40 UNL     1       2.989  -9.260   0.000  1.00  0.00     0.004 A 
HETATM   56  C41 UNL     1       2.134  -8.027   0.000  1.00  0.00     0.025 A 
ENDBRANCH  29  51
TORSDOF 8
