REMARK  7 active torsions:
REMARK  status: ('A' for Active; 'I' for Inactive)
REMARK    1  A    between atoms: C2_2  and  N1_3 
REMARK    2  A    between atoms: N1_3  and  C3_4 
REMARK    3  A    between atoms: N1_3  and  S1_6 
REMARK    4  A    between atoms: S1_6  and  N2_9 
REMARK       I    between atoms: N2_9  and  C5_10 
REMARK    5  A    between atoms: C5_10  and  C6_12 
REMARK    6  A    between atoms: C11_18  and  C12_20 
REMARK    7  A    between atoms: N7_39  and  C25_40 
ROOT
HETATM    1  C12 UNL     1       2.374  -4.163   0.000  1.00  0.00     0.080 A 
HETATM    2  C13 UNL     1       0.907  -3.852   0.000  1.00  0.00     0.049 A 
HETATM    3  C14 UNL     1       0.750  -2.360   0.000  1.00  0.00     0.027 A 
HETATM    4  C15 UNL     1       2.120  -1.750   0.000  1.00  0.00     0.108 A 
HETATM    5  N4  UNL     1       3.124  -2.864   0.000  1.00  0.00    -0.306 N 
HETATM    6  C16 UNL     1       4.616  -2.708   0.000  1.00  0.00     0.212 A 
HETATM    7  O5  UNL     1       5.497  -3.921   0.000  1.00  0.00    -0.169 OA
HETATM    8  C17 UNL     1       5.226  -1.337   0.000  1.00  0.00     0.123 A 
HETATM    9  N5  UNL     1       4.344  -0.124   0.000  1.00  0.00    -0.217 NA
HETATM   10  C18 UNL     1       4.954   1.247   0.000  1.00  0.00     0.200 A 
HETATM   11  O6  UNL     1       6.446   1.403   0.000  1.00  0.00    -0.290 OA
HETATM   12  C19 UNL     1       4.073   2.460   0.000  1.00  0.00     0.122 A 
HETATM   13  N6  UNL     1       2.581   2.303   0.000  1.00  0.00    -0.217 NA
HETATM   14  C20 UNL     1       1.699   3.517   0.000  1.00  0.00     0.198 A 
HETATM   15  O7  UNL     1       2.309   4.887   0.000  1.00  0.00    -0.293 OA
HETATM   16  C21 UNL     1       0.207   3.360   0.000  1.00  0.00     0.093 A 
HETATM   17  C22 UNL     1      -0.543   2.061   0.000  1.00  0.00    -0.009 A 
HETATM   18  C23 UNL     1      -2.010   2.373   0.000  1.00  0.00     0.051 A 
HETATM   19  C24 UNL     1      -2.167   3.865   0.000  1.00  0.00     0.106 A 
HETATM   20  N7  UNL     1      -0.796   4.475   0.000  1.00  0.00    -0.345 N 
HETATM   21  C27 UNL     1       4.683   3.830   0.000  1.00  0.00     0.018 A 
HETATM   22  C28 UNL     1       6.175   3.987   0.000  1.00  0.00     0.030 A 
HETATM   23  C29 UNL     1       6.785   5.358   0.000  1.00  0.00     0.005 A 
HETATM   24  C30 UNL     1       5.903   6.571   0.000  1.00  0.00     0.007 A 
HETATM   25  C31 UNL     1       4.411   6.414   0.000  1.00  0.00     0.051 A 
HETATM   26  C32 UNL     1       3.801   5.044   0.000  1.00  0.00     0.077 A 
HETATM   27  C33 UNL     1       6.718  -1.180   0.000  1.00  0.00     0.023 A 
HETATM   28  C34 UNL     1       7.599  -2.394   0.000  1.00  0.00     0.062 A 
HETATM   29  C35 UNL     1       9.091  -2.237   0.000  1.00  0.00     0.148 A 
HETATM   30  O8  UNL     1       9.701  -0.867   0.000  1.00  0.00    -0.347 OA
HETATM   31  C36 UNL     1       8.820   0.347   0.000  1.00  0.00     0.193 A 
HETATM   32  C37 UNL     1       7.328   0.190   0.000  1.00  0.00     0.107 A 
HETATM   33  C38 UNL     1      -0.750  -2.360   0.000  1.00  0.00     0.003 A 
HETATM   34  C39 UNL     1      -1.010  -3.837   0.000  1.00  0.00     0.000 C 
HETATM   35  C40 UNL     1      -2.159  -1.847   0.000  1.00  0.00     0.000 C 
HETATM   36  C41 UNL     1      -0.000  -1.061   0.000  1.00  0.00     0.010 A 
HETATM   37  C42 UNL     1       1.061   0.000   0.000  1.00  0.00     0.022 A 
HETATM   38  C43 UNL     1       0.000   1.061   0.000  1.00  0.00    -0.047 A 
HETATM   39  C44 UNL     1      -1.061   0.000   0.000  1.00  0.00     0.022 A 
ENDROOT
BRANCH   1  40
HETATM   40  C11 UNL     1       2.984  -5.534   0.000  1.00  0.00     0.190 A 
HETATM   41  N3  UNL     1       2.102  -6.747   0.000  1.00  0.00    -0.239 NA
HETATM   42  C6  UNL     1       2.712  -8.117   0.000  1.00  0.00     0.167 A 
HETATM   43  C7  UNL     1       3.755  -9.197   0.000  1.00  0.00     0.060 A 
HETATM   44  C8  UNL     1       4.168  -7.755   0.000  1.00  0.00     0.005 A 
HETATM   45  C9  UNL     1       5.247  -6.713   0.000  1.00  0.00     0.074 A 
HETATM   46  C10 UNL     1       6.689  -7.126   0.000  1.00  0.00     0.058 C 
HETATM   47  O4  UNL     1       4.476  -5.691   0.000  1.00  0.00    -0.294 OA
BRANCH  42  48
HETATM   48  C5  UNL     1       1.469  -8.956   0.000  1.00  0.00     0.226 C 
HETATM   49  N2  UNL     1       1.574 -10.453   0.000  1.00  0.00    -0.119 NA
HETATM   50  O3  UNL     1       0.121  -8.299   0.000  1.00  0.00    -0.171 OA
BRANCH  49  51
HETATM   51  S1  UNL     1       0.330 -11.291   0.000  1.00  0.00     0.346 S 
HETATM   52  O1  UNL     1       1.169 -12.535   0.000  1.00  0.00    -0.180 OA
HETATM   53  O2  UNL     1      -0.509 -10.048   0.000  1.00  0.00    -0.180 OA
BRANCH  51  54
HETATM   54  N1  UNL     1      -0.913 -12.130   0.000  1.00  0.00    -0.260 N 
BRANCH  54  55
HETATM   55  C2  UNL     1      -2.262 -11.473   0.000  1.00  0.00     0.115 C 
HETATM   56  C1  UNL     1      -3.505 -12.312   0.000  1.00  0.00     0.027 C 
ENDBRANCH  54  55
BRANCH  54  57
HETATM   57  C3  UNL     1      -0.809 -13.627   0.000  1.00  0.00     0.115 C 
HETATM   58  C4  UNL     1      -2.052 -14.465   0.000  1.00  0.00     0.027 C 
ENDBRANCH  54  57
ENDBRANCH  51  54
ENDBRANCH  49  51
ENDBRANCH  42  48
ENDBRANCH   1  40
BRANCH  20  59
HETATM   59  C25 UNL     1      -0.484   5.942   0.000  1.00  0.00     0.102 C 
HETATM   60  C26 UNL     1      -1.599   6.946   0.000  1.00  0.00     0.026 C 
ENDBRANCH  20  59
TORSDOF 7
