REMARK WARNING: 32 MAX_TORS EXCEEDED!!!
REMARK  66 active torsions:
REMARK  status: ('A' for Active; 'I' for Inactive)
REMARK    1  A    between atoms: C1_1  and  C5_8 
REMARK    2  A    between atoms: C1_1  and  O3_10 
REMARK    3  A    between atoms: C2_2  and  C4_4 
REMARK    4  A    between atoms: C2_2  and  O1_5 
REMARK    5  A    between atoms: C2_2  and  C12_17 
REMARK    6  A    between atoms: C3_3  and  C11_16 
REMARK    7  A    between atoms: C4_4  and  N1_7 
REMARK    8  A    between atoms: C4_4  and  C11_16 
REMARK    9  A    between atoms: C5_8  and  C10_15 
REMARK   10  A    between atoms: C5_8  and  O4_18 
REMARK   11  A    between atoms: C6_9  and  O3_10 
REMARK   12  A    between atoms: C6_9  and  C9_13 
REMARK   13  A    between atoms: O3_10  and  C10_15 
REMARK   14  A    between atoms: O3_10  and  O4_18 
REMARK   15  A    between atoms: C7_11  and  N2_14 
REMARK   16  A    between atoms: C8_12  and  N2_14 
REMARK   17  A    between atoms: C8_12  and  C19_30 
REMARK   18  A    between atoms: C9_13  and  N2_14 
REMARK   19  A    between atoms: C9_13  and  C10_15 
REMARK   20  A    between atoms: C9_13  and  N4_20 
REMARK   21  A    between atoms: C9_13  and  C16_26 
REMARK   22  A    between atoms: C10_15  and  C39_52 
REMARK   23  A    between atoms: O4_18  and  N3_19 
REMARK   24  A    between atoms: O4_18  and  C39_52 
REMARK   25  A    between atoms: N4_20  and  C16_26 
REMARK   26  A    between atoms: N4_20  and  C34_47 
REMARK   27  A    between atoms: C13_21  and  C16_26 
REMARK   28  A    between atoms: C13_21  and  C34_47 
REMARK   29  A    between atoms: C13_21  and  C35_48 
REMARK   30  A    between atoms: O5_22  and  C34_47 
REMARK   31  A    between atoms: O5_22  and  C35_48 
REMARK   32  A    between atoms: O5_22  and  C36_49 
REMARK   33  A    between atoms: C15_25  and  C17_27 
REMARK   34  A    between atoms: C16_26  and  C17_27 
REMARK   35  A    between atoms: C18_29  and  C22_34 
REMARK   36  A    between atoms: C19_30  and  C21_33 
REMARK   37  A    between atoms: C19_30  and  C22_34 
REMARK   38  A    between atoms: C19_30  and  C28_40 
REMARK   39  A    between atoms: C20_31  and  C21_33 
REMARK   40  A    between atoms: N5_32  and  C21_33 
REMARK   41  A    between atoms: N5_32  and  C27_39 
REMARK   42  A    between atoms: C21_33  and  C22_34 
REMARK   43  A    between atoms: C21_33  and  C23_35 
REMARK   44  A    between atoms: C21_33  and  C24_36 
REMARK   45  A    between atoms: C21_33  and  C25_37 
REMARK   46  A    between atoms: C22_34  and  C25_37 
REMARK   47  A    between atoms: C22_34  and  C26_38 
REMARK   48  A    between atoms: C23_35  and  C26_38 
REMARK   49  A    between atoms: C23_35  and  C33_46 
REMARK   50  A    between atoms: C24_36  and  C26_38 
REMARK   51  A    between atoms: C25_37  and  C26_38 
REMARK   52  A    between atoms: C25_37  and  O8_45 
REMARK   53  A    between atoms: C27_39  and  C30_42 
REMARK   54  A    between atoms: C27_39  and  C31_43 
REMARK   55  A    between atoms: C28_40  and  C31_43 
REMARK   56  A    between atoms: C28_40  and  C32_44 
REMARK   57  A    between atoms: C29_41  and  C32_44 
REMARK   58  A    between atoms: C30_42  and  C32_44 
REMARK   59  A    between atoms: C31_43  and  C32_44 
REMARK   60  A    between atoms: C34_47  and  C37_50 
REMARK   61  A    between atoms: C34_47  and  C38_51 
REMARK   62  A    between atoms: C35_48  and  C38_51 
REMARK   63  A    between atoms: C35_48  and  C39_52 
REMARK   64  A    between atoms: C36_49  and  C39_52 
REMARK   65  A    between atoms: C37_50  and  C39_52 
REMARK   66  A    between atoms: C38_51  and  C39_52 
ROOT
HETATM    1  C1  UNL     1       1.458 -23.266   0.000  1.00  0.00     0.046 A 
HETATM    2  C2  UNL     1       2.283 -23.266   0.000  1.00  0.00     0.048 A 
HETATM    3  C3  UNL     1       1.870 -22.552   0.000  1.00  0.00     0.082 A 
HETATM    4  C4  UNL     1       2.580 -22.134   0.000  1.00  0.00     0.097 A 
HETATM    5  O1  UNL     1       3.297 -22.538   0.000  1.00  0.00     0.000 OA
HETATM    6  O2  UNL     1       2.574 -21.307   0.000  1.00  0.00    -0.365 OA
HETATM    7  N1  UNL     1       1.155 -22.139   0.000  1.00  0.00     0.000 N 
HETATM    8  C5  UNL     1       0.441 -22.551   0.000  1.00  0.00     0.023 A 
HETATM    9  C6  UNL     1      -0.273 -22.138   0.000  1.00  0.00     0.002 A 
HETATM   10  O3  UNL     1       0.440 -23.376   0.000  1.00  0.00     0.000 OA
HETATM   11  C7  UNL     1      -0.535 -21.352   0.000  1.00  0.00     0.002 A 
HETATM   12  C8  UNL     1      -1.360 -21.358   0.000  1.00  0.00     0.000 A 
HETATM   13  C9  UNL     1      -1.609 -22.145   0.000  1.00  0.00     0.000 A 
HETATM   14  N2  UNL     1      -0.938 -22.625   0.000  1.00  0.00     0.000 N 
HETATM   15  C10 UNL     1      -0.933 -23.450   0.000  1.00  0.00     0.002 A 
HETATM   16  C11 UNL     1       2.168 -23.679   0.000  1.00  0.00     0.048 A 
HETATM   17  C12 UNL     1       2.166 -24.504   0.000  1.00  0.00     0.013 A 
HETATM   18  O4  UNL     1      -0.216 -23.858   0.000  1.00  0.00     0.000 OA
HETATM   19  N3  UNL     1      -1.645 -23.866   0.000  1.00  0.00     0.000 N 
HETATM   20  N4  UNL     1      -2.361 -23.450   0.000  1.00  0.00     0.000 N 
HETATM   21  C13 UNL     1      -3.076 -23.859   0.000  1.00  0.00     0.000 A 
HETATM   22  O5  UNL     1      -3.080 -24.684   0.000  1.00  0.00     0.000 OA
HETATM   23  O6  UNL     1      -3.790 -23.444   0.000  1.00  0.00     0.000 OA
HETATM   24  C14 UNL     1      -3.787 -22.619   0.000  1.00  0.00     0.000 A 
HETATM   25  C15 UNL     1      -3.795 -21.790   0.000  1.00  0.00     0.000 A 
HETATM   26  C16 UNL     1      -2.961 -22.616   0.000  1.00  0.00     0.000 A 
HETATM   27  C17 UNL     1      -4.611 -22.626   0.000  1.00  0.00     0.000 A 
HETATM   28  O7  UNL     1      -2.076 -20.942   0.000  1.00  0.00     0.000 OA
HETATM   29  C18 UNL     1      -2.074 -20.117   0.000  1.00  0.00     0.000 A 
HETATM   30  C19 UNL     1      -1.355 -19.710   0.000  1.00  0.00     0.000 A 
HETATM   31  C20 UNL     1      -1.353 -18.886   0.000  1.00  0.00     0.000 A 
HETATM   32  N5  UNL     1      -2.067 -18.471   0.000  1.00  0.00     0.000 N 
HETATM   33  C21 UNL     1      -2.784 -19.709   0.000  1.00  0.00     0.000 A 
HETATM   34  C22 UNL     1      -2.785 -18.889   0.000  1.00  0.00     0.000 A 
HETATM   35  C23 UNL     1      -3.494 -18.482   0.000  1.00  0.00     0.000 A 
HETATM   36  C24 UNL     1      -4.203 -18.893   0.000  1.00  0.00     0.000 A 
HETATM   37  C25 UNL     1      -4.198 -19.716   0.000  1.00  0.00     0.000 A 
HETATM   38  C26 UNL     1      -3.488 -20.119   0.000  1.00  0.00     0.000 A 
HETATM   39  C27 UNL     1      -0.637 -18.475   0.000  1.00  0.00     0.000 A 
HETATM   40  C28 UNL     1       0.073 -18.891   0.000  1.00  0.00     0.000 A 
HETATM   41  C29 UNL     1       0.788 -18.481   0.000  1.00  0.00     0.000 A 
HETATM   42  C30 UNL     1       0.791 -17.655   0.000  1.00  0.00     0.000 A 
HETATM   43  C31 UNL     1       0.073 -17.241   0.000  1.00  0.00     0.000 A 
HETATM   44  C32 UNL     1      -0.640 -17.653   0.000  1.00  0.00     0.000 A 
HETATM   45  O8  UNL     1      -4.919 -18.484   0.000  1.00  0.00     0.000 OA
HETATM   46  C33 UNL     1      -4.923 -17.659   0.000  1.00  0.00     0.000 A 
HETATM   47  C34 UNL     1      -1.644 -24.691   0.000  1.00  0.00     0.000 A 
HETATM   48  C35 UNL     1      -2.354 -25.104   0.000  1.00  0.00     0.000 A 
HETATM   49  C36 UNL     1      -2.356 -25.925   0.000  1.00  0.00     0.000 A 
HETATM   50  C37 UNL     1      -1.642 -26.341   0.000  1.00  0.00     0.000 A 
HETATM   51  C38 UNL     1      -0.927 -25.929   0.000  1.00  0.00     0.000 A 
HETATM   52  C39 UNL     1      -0.924 -25.101   0.000  1.00  0.00     0.000 A 
ENDROOT
TORSDOF 66
