REMARK  6 active torsions:
REMARK  status: ('A' for Active; 'I' for Inactive)
REMARK    1  A    between atoms: C2_2  and  C3_3 
REMARK    2  A    between atoms: C3_3  and  N1_4 
REMARK    3  A    between atoms: C3_3  and  C34_45 
REMARK       I    between atoms: N1_4  and  C4_5 
REMARK    4  A    between atoms: C4_5  and  C5_7 
REMARK    5  A    between atoms: C12_18  and  C18_28 
REMARK    6  A    between atoms: O5_34  and  C24_35 
ROOT
HETATM    1  C5  UNL     1      -5.308  -5.946   0.000  1.00  0.00     0.087 A 
HETATM    2  C6  UNL     1      -3.882  -6.410   0.000  1.00  0.00     0.071 A 
HETATM    3  C7  UNL     1      -3.000  -5.196   0.000  1.00  0.00    -0.021 A 
HETATM    4  C8  UNL     1      -3.882  -3.983   0.000  1.00  0.00     0.130 A 
HETATM    5  N2  UNL     1      -5.308  -4.446   0.000  1.00  0.00    -0.302 N 
HETATM    6  C9  UNL     1      -6.522  -3.564   0.000  1.00  0.00     0.212 A 
HETATM    7  O2  UNL     1      -7.892  -4.175   0.000  1.00  0.00    -0.169 OA
HETATM    8  C10 UNL     1      -6.365  -2.073   0.000  1.00  0.00     0.120 A 
HETATM    9  N3  UNL     1      -4.995  -1.463   0.000  1.00  0.00    -0.218 NA
HETATM   10  C11 UNL     1      -4.838   0.029   0.000  1.00  0.00     0.196 A 
HETATM   11  O3  UNL     1      -6.051   0.911   0.000  1.00  0.00    -0.309 OA
HETATM   12  C12 UNL     1      -3.468   0.639   0.000  1.00  0.00     0.117 A 
HETATM   13  N4  UNL     1      -2.254  -0.242   0.000  1.00  0.00    -0.216 NA
HETATM   14  C13 UNL     1      -2.411  -1.734   0.000  1.00  0.00     0.231 A 
HETATM   15  O4  UNL     1      -3.781  -2.344   0.000  1.00  0.00    -0.168 OA
HETATM   16  C14 UNL     1      -1.197  -2.616   0.000  1.00  0.00     0.132 A 
HETATM   17  C15 UNL     1      -1.354  -4.108   0.000  1.00  0.00     0.085 A 
HETATM   18  N5  UNL     1      -0.141  -4.989   0.000  1.00  0.00    -0.188 NA
HETATM   19  C16 UNL     1       1.230  -4.379   0.000  1.00  0.00     0.121 A 
HETATM   20  C17 UNL     1       1.387  -2.887   0.000  1.00  0.00     0.145 A 
HETATM   21  N6  UNL     1       0.173  -2.006   0.000  1.00  0.00    -0.264 NA
HETATM   22  C21 UNL     1      -7.579  -1.191   0.000  1.00  0.00     0.007 A 
HETATM   23  C22 UNL     1      -7.422   0.301   0.000  1.00  0.00     0.174 A 
HETATM   24  C23 UNL     1      -8.949  -1.801   0.000  1.00  0.00     0.031 C 
HETATM   25  O5  UNL     1      -1.500  -5.196   0.000  1.00  0.00     0.000 OA
ENDROOT
BRANCH  25  26
HETATM   26  C24 UNL     1      -0.750  -6.495   0.000  1.00  0.00    -0.047 A 
HETATM   27  C25 UNL     1       0.750  -6.495   0.000  1.00  0.00     0.026 A 
HETATM   28  C26 UNL     1       1.500  -7.794   0.000  1.00  0.00     0.026 A 
HETATM   29  C27 UNL     1       0.750  -9.093   0.000  1.00  0.00    -0.051 A 
HETATM   30  C28 UNL     1       1.500 -10.392   0.000  1.00  0.00     0.021 A 
HETATM   31  C32 UNL     1      -0.750  -9.093   0.000  1.00  0.00    -0.048 A 
HETATM   32  C29 UNL     1       0.750 -11.691   0.000  1.00  0.00     0.005 A 
HETATM   33  C30 UNL     1      -0.750 -11.691   0.000  1.00  0.00     0.005 A 
HETATM   34  C31 UNL     1      -1.500 -10.392   0.000  1.00  0.00     0.022 A 
HETATM   35  C33 UNL     1      -1.500  -7.794   0.000  1.00  0.00     0.043 A 
ENDBRANCH  25  26
BRANCH   1  36
HETATM   36  C4  UNL     1      -6.522  -6.828   0.000  1.00  0.00     0.224 C 
HETATM   37  N1  UNL     1      -7.892  -6.218   0.000  1.00  0.00    -0.225 NA
HETATM   38  O1  UNL     1      -6.365  -8.320   0.000  1.00  0.00    -0.168 OA
BRANCH  37  39
HETATM   39  C3  UNL     1      -9.106  -7.099   0.000  1.00  0.00     0.072 C 
BRANCH  39  40
HETATM   40  C2  UNL     1     -10.476  -6.489   0.000  1.00  0.00     0.044 C 
HETATM   41  C1  UNL     1     -11.690  -7.371   0.000  1.00  0.00     0.006 C 
ENDBRANCH  39  40
BRANCH  39  42
HETATM   42  C34 UNL     1      -8.949  -8.591   0.000  1.00  0.00     0.223 C 
HETATM   43  O6  UNL     1     -10.162  -9.473   0.000  1.00  0.00    -0.214 OA
ENDBRANCH  39  42
ENDBRANCH  37  39
ENDBRANCH   1  36
BRANCH  12  44
HETATM   44  C18 UNL     1      -3.311   2.131   0.000  1.00  0.00    -0.022 C 
HETATM   45  C19 UNL     1      -1.940   2.741   0.000  1.00  0.00     0.028 C 
HETATM   46  C20 UNL     1      -4.524   3.013   0.000  1.00  0.00     0.028 C 
ENDBRANCH  12  44
TORSDOF 6
