REMARK  6 active torsions:
REMARK  status: ('A' for Active; 'I' for Inactive)
REMARK    1  A    between atoms: C2_2  and  C4_4 
REMARK    2  A    between atoms: C4_4  and  C5_5 
REMARK    3  A    between atoms: C8_11  and  O3_13 
REMARK    4  A    between atoms: O3_13  and  C9_14 
REMARK    5  A    between atoms: C18_25  and  C24_31 
REMARK    6  A    between atoms: C24_31  and  C25_33 
ROOT
HETATM    1  C5  UNL     1       2.561  -5.196   0.000  1.00  0.00     0.105 A 
HETATM    2  N1  UNL     1       1.061  -5.196   0.000  1.00  0.00    -0.220 NA
HETATM    3  C6  UNL     1       0.311  -3.897   0.000  1.00  0.00     0.228 A 
HETATM    4  O1  UNL     1       1.061  -2.598   0.000  1.00  0.00    -0.168 OA
HETATM    5  C7  UNL     1      -1.189  -3.897   0.000  1.00  0.00     0.122 A 
HETATM    6  N2  UNL     1      -1.939  -5.196   0.000  1.00  0.00    -0.199 NA
HETATM    7  C8  UNL     1      -3.439  -5.196   0.000  1.00  0.00     0.301 A 
HETATM    8  O2  UNL     1      -4.189  -3.897   0.000  1.00  0.00    -0.231 OA
HETATM    9  C13 UNL     1      -1.939  -2.598   0.000  1.00  0.00     0.127 A 
HETATM   10  C14 UNL     1      -3.238  -3.348   0.000  1.00  0.00     0.007 A 
HETATM   11  C15 UNL     1      -0.640  -1.848   0.000  1.00  0.00    -0.013 A 
HETATM   12  C16 UNL     1      -2.689  -1.299   0.000  1.00  0.00     0.025 C 
HETATM   13  C17 UNL     1       3.311  -3.897   0.000  1.00  0.00     0.226 A 
HETATM   14  O4  UNL     1       4.811  -3.897   0.000  1.00  0.00    -0.168 OA
HETATM   15  N3  UNL     1       2.561  -2.598   0.000  1.00  0.00    -0.221 NA
HETATM   16  C18 UNL     1       3.311  -1.299   0.000  1.00  0.00     0.094 A 
HETATM   17  C19 UNL     1       2.561   0.000   0.000  1.00  0.00     0.070 A 
HETATM   18  C20 UNL     1       1.061   0.000   0.000  1.00  0.00    -0.042 A 
HETATM   19  C21 UNL     1      -0.000  -1.061   0.000  1.00  0.00    -0.032 A 
HETATM   20  C22 UNL     1      -1.061   0.000   0.000  1.00  0.00     0.030 A 
HETATM   21  C23 UNL     1       0.000   1.061   0.000  1.00  0.00     0.027 A 
ENDROOT
BRANCH   7  22
HETATM   22  O3  UNL     1      -4.189  -6.495   0.000  1.00  0.00    -0.300 OA
BRANCH  22  23
HETATM   23  C9  UNL     1      -5.689  -6.495   0.000  1.00  0.00     0.102 C 
HETATM   24  C10 UNL     1      -5.689  -7.995   0.000  1.00  0.00     0.030 C 
HETATM   25  C11 UNL     1      -5.689  -4.995   0.000  1.00  0.00     0.030 C 
HETATM   26  C12 UNL     1      -7.189  -6.495   0.000  1.00  0.00     0.030 C 
ENDBRANCH  22  23
ENDBRANCH   7  22
BRANCH   1  27
HETATM   27  C4  UNL     1       3.311  -6.495   0.000  1.00  0.00     0.050 C 
BRANCH  27  28
HETATM   28  C2  UNL     1       2.561  -7.794   0.000  1.00  0.00     0.006 C 
HETATM   29  C1  UNL     1       3.311  -9.093   0.000  1.00  0.00     0.000 C 
HETATM   30  C3  UNL     1       1.061  -7.794   0.000  1.00  0.00     0.000 C 
ENDBRANCH  27  28
ENDBRANCH   1  27
BRANCH  16  31
HETATM   31  C24 UNL     1       4.811  -1.299   0.000  1.00  0.00     0.183 C 
HETATM   32  O5  UNL     1       5.561  -2.598   0.000  1.00  0.00    -0.185 OA
BRANCH  31  33
HETATM   33  C25 UNL     1       5.561  -0.000   0.000  1.00  0.00     0.227 C 
HETATM   34  O6  UNL     1       7.061  -0.000   0.000  1.00  0.00    -0.173 OA
HETATM   35  N4  UNL     1       4.811   1.299   0.000  1.00  0.00    -0.069 NA
ENDBRANCH  31  33
ENDBRANCH  16  31
TORSDOF 6
