REMARK  8 active torsions:
REMARK  status: ('A' for Active; 'I' for Inactive)
REMARK    1  A    between atoms: C4_4  and  N1_5 
REMARK       I    between atoms: N1_5  and  C5_6 
REMARK    2  A    between atoms: C5_6  and  C6_8 
REMARK    3  A    between atoms: C8_10  and  O5_35 
REMARK       I    between atoms: N2_12  and  C10_13 
REMARK    4  A    between atoms: C10_13  and  C11_15 
REMARK    5  A    between atoms: C12_17  and  C13_19 
REMARK    6  A    between atoms: C14_21  and  C15_23 
REMARK    7  A    between atoms: O5_35  and  C25_36 
REMARK       I    between atoms: C25_36  and  N7_38 
REMARK    8  A    between atoms: C36_50  and  C37_52 
ROOT
HETATM    1  C6  UNL     1      -5.554  -8.119   0.000  1.00  0.00     0.085 A 
HETATM    2  C7  UNL     1      -5.242  -6.652   0.000  1.00  0.00     0.080 A 
HETATM    3  C8  UNL     1      -3.750  -6.495   0.000  1.00  0.00     0.153 A 
HETATM    4  C9  UNL     1      -3.140  -7.865   0.000  1.00  0.00     0.139 A 
HETATM    5  N2  UNL     1      -4.255  -8.869   0.000  1.00  0.00    -0.303 N 
HETATM    6  C10 UNL     1      -4.098 -10.361   0.000  1.00  0.00     0.212 C 
HETATM    7  O2  UNL     1      -5.311 -11.243   0.000  1.00  0.00    -0.169 OA
ENDROOT
BRANCH   1   8
HETATM    8  C5  UNL     1      -6.924  -8.729   0.000  1.00  0.00     0.224 C 
HETATM    9  N1  UNL     1      -8.137  -7.848   0.000  1.00  0.00    -0.221 NA
HETATM   10  O1  UNL     1      -7.081 -10.221   0.000  1.00  0.00    -0.168 OA
BRANCH   9  11
HETATM   11  C4  UNL     1      -9.508  -8.458   0.000  1.00  0.00     0.091 A 
HETATM   12  C3  UNL     1     -10.721  -7.576   0.000  1.00  0.00     0.078 A 
HETATM   13  C2  UNL     1     -12.092  -8.186   0.000  1.00  0.00     0.128 A 
HETATM   14  C1  UNL     1     -13.305  -7.304   0.000  1.00  0.00     0.033 C 
HETATM   15  O8  UNL     1     -12.248  -9.678   0.000  1.00  0.00    -0.331 OA
HETATM   16  C36 UNL     1     -11.035 -10.560   0.000  1.00  0.00     0.112 A 
HETATM   17  C35 UNL     1      -9.665  -9.950   0.000  1.00  0.00     0.166 A 
HETATM   18  O7  UNL     1      -8.451 -10.831   0.000  1.00  0.00    -0.187 OA
BRANCH  16  19
HETATM   19  C37 UNL     1     -11.192 -12.051   0.000  1.00  0.00    -0.020 A 
HETATM   20  C38 UNL     1     -12.562 -12.662   0.000  1.00  0.00     0.024 A 
HETATM   21  C39 UNL     1     -12.719 -14.153   0.000  1.00  0.00     0.004 A 
HETATM   22  C40 UNL     1     -11.505 -15.035   0.000  1.00  0.00     0.001 A 
HETATM   23  C41 UNL     1     -10.135 -14.425   0.000  1.00  0.00     0.004 A 
HETATM   24  C42 UNL     1      -9.978 -12.933   0.000  1.00  0.00     0.024 A 
ENDBRANCH  16  19
ENDBRANCH   9  11
ENDBRANCH   1   8
BRANCH   6  25
HETATM   25  C11 UNL     1      -2.728 -10.971   0.000  1.00  0.00     0.120 A 
HETATM   26  N3  UNL     1      -1.514 -10.089   0.000  1.00  0.00    -0.218 NA
HETATM   27  C12 UNL     1      -0.144 -10.700   0.000  1.00  0.00     0.196 A 
HETATM   28  O3  UNL     1       0.013 -12.191   0.000  1.00  0.00    -0.309 OA
HETATM   29  C23 UNL     1      -1.200 -13.073   0.000  1.00  0.00     0.174 A 
HETATM   30  C22 UNL     1      -2.571 -12.463   0.000  1.00  0.00     0.007 A 
HETATM   31  C24 UNL     1      -3.784 -13.345   0.000  1.00  0.00     0.031 C 
BRANCH  27  32
HETATM   32  C13 UNL     1       1.070  -9.818   0.000  1.00  0.00     0.119 A 
HETATM   33  N4  UNL     1       0.913  -8.326   0.000  1.00  0.00    -0.218 NA
HETATM   34  C14 UNL     1       2.127  -7.444   0.000  1.00  0.00     0.194 A 
HETATM   35  O4  UNL     1       3.497  -8.055   0.000  1.00  0.00    -0.309 OA
HETATM   36  C20 UNL     1       3.654  -9.546   0.000  1.00  0.00     0.174 A 
HETATM   37  C19 UNL     1       2.440 -10.428   0.000  1.00  0.00     0.007 A 
HETATM   38  C21 UNL     1       2.597 -11.920   0.000  1.00  0.00     0.031 C 
BRANCH  34  39
HETATM   39  C15 UNL     1       1.970  -5.953   0.000  1.00  0.00     0.119 A 
HETATM   40  C16 UNL     1       3.183  -5.071   0.000  1.00  0.00     0.169 A 
HETATM   41  N5  UNL     1       3.026  -3.579   0.000  1.00  0.00    -0.287 NA
HETATM   42  C17 UNL     1       1.656  -2.969   0.000  1.00  0.00     0.146 A 
HETATM   43  C18 UNL     1       0.443  -3.851   0.000  1.00  0.00     0.151 A 
HETATM   44  N6  UNL     1       0.600  -5.343   0.000  1.00  0.00    -0.267 NA
ENDBRANCH  34  39
ENDBRANCH  27  32
ENDBRANCH   6  25
BRANCH   3  45
HETATM   45  O5  UNL     1      -3.000  -5.196   0.000  1.00  0.00    -0.296 OA
BRANCH  45  46
HETATM   46  C25 UNL     1      -3.750  -3.897   0.000  1.00  0.00     0.296 C 
HETATM   47  O6  UNL     1      -5.250  -3.897   0.000  1.00  0.00    -0.143 OA
HETATM   48  N7  UNL     1      -3.000  -2.598   0.000  1.00  0.00    -0.304 N 
HETATM   49  C26 UNL     1      -3.750  -1.299   0.000  1.00  0.00     0.110 A 
HETATM   50  C34 UNL     1      -1.500  -2.598   0.000  1.00  0.00     0.127 A 
HETATM   51  C27 UNL     1      -3.000   0.000   0.000  1.00  0.00     0.046 A 
HETATM   52  C28 UNL     1      -1.500   0.000   0.000  1.00  0.00    -0.048 A 
HETATM   53  C29 UNL     1      -0.750   1.299   0.000  1.00  0.00     0.021 A 
HETATM   54  C33 UNL     1      -0.750  -1.299   0.000  1.00  0.00    -0.030 A 
HETATM   55  C30 UNL     1       0.750   1.299   0.000  1.00  0.00     0.005 A 
HETATM   56  C31 UNL     1       1.500  -0.000   0.000  1.00  0.00     0.005 A 
HETATM   57  C32 UNL     1       0.750  -1.299   0.000  1.00  0.00     0.023 A 
ENDBRANCH  45  46
ENDBRANCH   3  45
TORSDOF 8
