REMARK  7 active torsions:
REMARK  status: ('A' for Active; 'I' for Inactive)
REMARK    1  A    between atoms: O1_2  and  C2_3 
REMARK    2  A    between atoms: C6_7  and  O2_8 
REMARK    3  A    between atoms: O2_8  and  C7_9 
REMARK    4  A    between atoms: C21_26  and  C23_30 
REMARK       I    between atoms: C23_30  and  N3_32 
REMARK    5  A    between atoms: N3_32  and  S1_33 
REMARK    6  A    between atoms: S1_33  and  C24_36 
REMARK    7  A    between atoms: C28_40  and  C31_44 
ROOT
HETATM    1  C7  UNL     1      -4.572  -5.805   0.000  1.00  0.00     0.149 A 
HETATM    2  C8  UNL     1      -3.273  -5.055   0.000  1.00  0.00     0.080 A 
HETATM    3  C9  UNL     1      -3.584  -3.587   0.000  1.00  0.00     0.087 A 
HETATM    4  N1  UNL     1      -5.076  -3.431   0.000  1.00  0.00    -0.285 N 
HETATM    5  C10 UNL     1      -5.686  -4.801   0.000  1.00  0.00     0.140 A 
HETATM    6  C11 UNL     1      -6.375  -2.681   0.000  1.00  0.00     0.304 A 
HETATM    7  O3  UNL     1      -7.379  -3.796   0.000  1.00  0.00    -0.142 OA
HETATM    8  O4  UNL     1      -7.257  -1.467   0.000  1.00  0.00    -0.268 OA
HETATM    9  C12 UNL     1      -7.569   0.000   0.000  1.00  0.00     0.126 A 
HETATM   10  C13 UNL     1      -7.257   1.467   0.000  1.00  0.00     0.027 A 
HETATM   11  C14 UNL     1      -6.375   2.681   0.000  1.00  0.00     0.002 A 
HETATM   12  C15 UNL     1      -5.076   3.431   0.000  1.00  0.00     0.000 A 
HETATM   13  C16 UNL     1      -3.584   3.587   0.000  1.00  0.00    -0.000 A 
HETATM   14  C17 UNL     1      -2.158   3.124   0.000  1.00  0.00    -0.001 A 
HETATM   15  C18 UNL     1      -1.043   2.120   0.000  1.00  0.00    -0.006 A 
HETATM   16  C19 UNL     1      -0.433   0.750   0.000  1.00  0.00    -0.014 A 
HETATM   17  C20 UNL     1       0.866   0.000   0.000  1.00  0.00     0.059 A 
HETATM   18  C21 UNL     1      -0.433  -0.750   0.000  1.00  0.00     0.166 A 
HETATM   19  N2  UNL     1      -1.043  -2.120   0.000  1.00  0.00    -0.237 NA
HETATM   20  C22 UNL     1      -2.158  -3.124   0.000  1.00  0.00     0.221 A 
HETATM   21  O5  UNL     1      -1.408  -4.423   0.000  1.00  0.00    -0.168 OA
ENDROOT
BRANCH   1  22
HETATM   22  O2  UNL     1      -4.728  -7.296   0.000  1.00  0.00    -0.335 OA
BRANCH  22  23
HETATM   23  C6  UNL     1      -6.099  -7.907   0.000  1.00  0.00     0.075 A 
HETATM   24  C5  UNL     1      -6.255  -9.398   0.000  1.00  0.00     0.010 A 
HETATM   25  C4  UNL     1      -5.042 -10.280   0.000  1.00  0.00     0.032 A 
HETATM   26  C29 UNL     1      -7.626 -10.008   0.000  1.00  0.00     0.059 A 
HETATM   27  C3  UNL     1      -5.199 -11.772   0.000  1.00  0.00     0.035 A 
HETATM   28  C2  UNL     1      -6.569 -12.382   0.000  1.00  0.00     0.122 A 
HETATM   29  C30 UNL     1      -7.783 -11.500   0.000  1.00  0.00     0.075 A 
HETATM   30  N4  UNL     1      -8.839  -9.127   0.000  1.00  0.00    -0.255 NA
HETATM   31  C28 UNL     1      -8.682  -7.635   0.000  1.00  0.00     0.057 A 
HETATM   32  C27 UNL     1      -7.312  -7.025   0.000  1.00  0.00     0.096 A 
BRANCH  28  33
HETATM   33  O1  UNL     1      -6.726 -13.874   0.000  1.00  0.00    -0.354 OA
HETATM   34  C1  UNL     1      -8.096 -14.484   0.000  1.00  0.00     0.174 C 
ENDBRANCH  28  33
BRANCH  31  35
HETATM   35  C31 UNL     1      -9.896  -6.753   0.000  1.00  0.00    -0.030 A 
HETATM   36  C32 UNL     1      -9.739  -5.262   0.000  1.00  0.00     0.023 A 
HETATM   37  C33 UNL     1     -10.953  -4.380   0.000  1.00  0.00     0.004 A 
HETATM   38  C34 UNL     1     -12.323  -4.990   0.000  1.00  0.00     0.001 A 
HETATM   39  C35 UNL     1     -12.480  -6.482   0.000  1.00  0.00     0.004 A 
HETATM   40  C36 UNL     1     -11.266  -7.364   0.000  1.00  0.00     0.023 A 
ENDBRANCH  31  35
ENDBRANCH  22  23
ENDBRANCH   1  22
BRANCH  18  41
HETATM   41  C23 UNL     1       0.682  -1.754   0.000  1.00  0.00     0.224 C 
HETATM   42  O6  UNL     1       0.370  -3.221   0.000  1.00  0.00    -0.171 OA
HETATM   43  N3  UNL     1       2.108  -1.290   0.000  1.00  0.00    -0.137 NA
BRANCH  43  44
HETATM   44  S1  UNL     1       3.223  -2.294   0.000  1.00  0.00     0.265 S 
HETATM   45  O7  UNL     1       2.219  -3.409   0.000  1.00  0.00    -0.203 OA
HETATM   46  O8  UNL     1       4.227  -1.179   0.000  1.00  0.00    -0.203 OA
BRANCH  44  47
HETATM   47  C24 UNL     1       4.338  -3.298   0.000  1.00  0.00     0.130 A 
HETATM   48  C25 UNL     1       5.805  -3.609   0.000  1.00  0.00     0.019 A 
HETATM   49  C26 UNL     1       4.801  -4.724   0.000  1.00  0.00     0.019 A 
ENDBRANCH  44  47
ENDBRANCH  43  44
ENDBRANCH  18  41
TORSDOF 7
