REMARK  6 active torsions:
REMARK  status: ('A' for Active; 'I' for Inactive)
REMARK    1  A    between atoms: C2_3  and  C13_23 
REMARK    2  A    between atoms: C6_8  and  C9_11 
REMARK       I    between atoms: C9_11  and  N3_13 
REMARK    3  A    between atoms: N3_13  and  C10_14 
REMARK    4  A    between atoms: C13_23  and  C14_26 
REMARK    5  A    between atoms: C17_30  and  C21_35 
REMARK       I    between atoms: C21_35  and  N6_37 
REMARK    6  A    between atoms: N6_37  and  C22_38 
ROOT
HETATM    1  C13 UNL     1      -0.000  -5.107   0.000  1.00  0.00     0.354 C 
HETATM    2  F1  UNL     1      -1.500  -5.107   0.000  1.00  0.00    -0.192 F 
HETATM    3  F2  UNL     1       1.500  -5.107   0.000  1.00  0.00    -0.192 F 
ENDROOT
BRANCH   1   4
HETATM    4  C2  UNL     1      -0.000  -3.607   0.000  1.00  0.00     0.185 A 
HETATM    5  N1  UNL     1      -1.214  -2.726   0.000  1.00  0.00    -0.312 N 
HETATM    6  C1  UNL     1      -2.640  -3.189   0.000  1.00  0.00     0.132 C 
HETATM    7  C8  UNL     1      -0.750  -1.299   0.000  1.00  0.00     0.056 A 
HETATM    8  C3  UNL     1       0.750  -1.299   0.000  1.00  0.00     0.073 A 
HETATM    9  C7  UNL     1      -1.500   0.000   0.000  1.00  0.00     0.071 A 
HETATM   10  N2  UNL     1       1.214  -2.726   0.000  1.00  0.00    -0.231 NA
HETATM   11  C4  UNL     1       1.500   0.000   0.000  1.00  0.00     0.051 A 
HETATM   12  C5  UNL     1       0.750   1.299   0.000  1.00  0.00     0.032 A 
HETATM   13  C6  UNL     1      -0.750   1.299   0.000  1.00  0.00     0.006 A 
BRANCH  13  14
HETATM   14  C9  UNL     1      -1.500   2.598   0.000  1.00  0.00     0.205 C 
HETATM   15  O1  UNL     1      -3.000   2.598   0.000  1.00  0.00    -0.170 OA
HETATM   16  N3  UNL     1      -0.750   3.897   0.000  1.00  0.00    -0.220 NA
BRANCH  16  17
HETATM   17  C10 UNL     1      -1.500   5.196   0.000  1.00  0.00     0.126 A 
HETATM   18  C11 UNL     1      -0.750   6.495   0.000  1.00  0.00     0.171 A 
HETATM   19  P1  UNL     1      -1.500   7.794   0.000  1.00  0.00     0.299 P 
HETATM   20  O2  UNL     1      -2.250   9.093   0.000  1.00  0.00    -0.644 OA
HETATM   21  O3  UNL     1      -0.201   8.544   0.000  1.00  0.00    -0.644 OA
HETATM   22  O4  UNL     1      -2.799   7.044   0.000  1.00  0.00    -0.140 OA
HETATM   23  O5  UNL     1      -3.750   6.495   0.000  1.00  0.00    -0.158 OA
HETATM   24  C12 UNL     1      -3.000   5.196   0.000  1.00  0.00     0.275 A 
HETATM   25  O6  UNL     1      -3.750   3.897   0.000  1.00  0.00    -0.159 OA
ENDBRANCH  16  17
ENDBRANCH  13  14
ENDBRANCH   1   4
BRANCH   1  26
HETATM   26  C14 UNL     1      -0.000  -6.607   0.000  1.00  0.00     0.274 A 
HETATM   27  N4  UNL     1      -1.214  -7.489   0.000  1.00  0.00    -0.246 NA
HETATM   28  C15 UNL     1      -0.750  -8.916   0.000  1.00  0.00     0.073 A 
HETATM   29  C16 UNL     1      -1.500 -10.215   0.000  1.00  0.00     0.072 A 
HETATM   30  C20 UNL     1       0.750  -8.916   0.000  1.00  0.00     0.070 A 
HETATM   31  C17 UNL     1      -0.750 -11.514   0.000  1.00  0.00     0.006 A 
HETATM   32  C18 UNL     1       0.750 -11.514   0.000  1.00  0.00     0.032 A 
HETATM   33  C19 UNL     1       1.500 -10.215   0.000  1.00  0.00     0.051 A 
HETATM   34  N5  UNL     1       1.214  -7.489   0.000  1.00  0.00    -0.246 NA
BRANCH  31  35
HETATM   35  C21 UNL     1      -1.500 -12.813   0.000  1.00  0.00     0.205 C 
HETATM   36  O7  UNL     1      -0.750 -14.112   0.000  1.00  0.00    -0.170 OA
HETATM   37  N6  UNL     1      -3.000 -12.813   0.000  1.00  0.00    -0.220 NA
BRANCH  37  38
HETATM   38  C22 UNL     1      -3.750 -14.112   0.000  1.00  0.00     0.126 A 
HETATM   39  C23 UNL     1      -5.250 -14.112   0.000  1.00  0.00     0.171 A 
HETATM   40  P2  UNL     1      -6.000 -15.411   0.000  1.00  0.00     0.299 P 
HETATM   41  O8  UNL     1      -6.750 -16.710   0.000  1.00  0.00    -0.644 OA
HETATM   42  O9  UNL     1      -7.299 -14.661   0.000  1.00  0.00    -0.644 OA
HETATM   43  O10 UNL     1      -4.701 -16.161   0.000  1.00  0.00    -0.140 OA
HETATM   44  O11 UNL     1      -3.750 -16.710   0.000  1.00  0.00    -0.158 OA
HETATM   45  C24 UNL     1      -3.000 -15.411   0.000  1.00  0.00     0.275 A 
HETATM   46  O12 UNL     1      -1.500 -15.411   0.000  1.00  0.00    -0.159 OA
ENDBRANCH  37  38
ENDBRANCH  31  35
ENDBRANCH   1  26
TORSDOF 6
