REMARK  4 active torsions:
REMARK  status: ('A' for Active; 'I' for Inactive)
REMARK    1  A    between atoms: C8_11  and  C38_53 
REMARK    2  A    between atoms: C15_22  and  C16_23 
REMARK    3  A    between atoms: C22_31  and  O5_32 
REMARK    4  A    between atoms: S1_34  and  N7_37 
ROOT
HETATM    1  C1  UNL     1       5.572  -6.756   0.000  1.00  0.00     0.175 A 
HETATM    2  C2  UNL     1       6.998  -7.220   0.000  1.00  0.00     0.134 A 
HETATM    3  N1  UNL     1       7.310  -8.687   0.000  1.00  0.00    -0.346 N 
HETATM    4  C3  UNL     1       8.680  -9.297   0.000  1.00  0.00     0.102 A 
HETATM    5  C4  UNL     1       8.523 -10.789   0.000  1.00  0.00     0.030 A 
HETATM    6  C5  UNL     1       7.056 -11.101   0.000  1.00  0.00     0.049 A 
HETATM    7  C6  UNL     1       6.306  -9.801   0.000  1.00  0.00     0.077 A 
HETATM    8  C7  UNL     1       4.814  -9.645   0.000  1.00  0.00     0.224 A 
HETATM    9  O1  UNL     1       4.204  -8.274   0.000  1.00  0.00    -0.168 OA
HETATM   10  N2  UNL     1       3.933 -10.858   0.000  1.00  0.00    -0.220 NA
HETATM   11  C8  UNL     1       2.441 -10.701   0.000  1.00  0.00     0.102 A 
HETATM   12  C9  UNL     1       1.831  -9.331   0.000  1.00  0.00     0.205 A 
HETATM   13  O2  UNL     1       0.339  -9.174   0.000  1.00  0.00    -0.250 OA
HETATM   14  N3  UNL     1       2.712  -8.117   0.000  1.00  0.00    -0.219 NA
HETATM   15  C10 UNL     1       2.102  -6.747   0.000  1.00  0.00     0.123 A 
HETATM   16  C11 UNL     1       2.984  -5.534   0.000  1.00  0.00     0.179 A 
HETATM   17  O3  UNL     1       4.476  -5.691   0.000  1.00  0.00    -0.313 OA
HETATM   18  N4  UNL     1       2.374  -4.163   0.000  1.00  0.00    -0.285 N 
HETATM   19  C12 UNL     1       0.907  -3.852   0.000  1.00  0.00     0.074 A 
HETATM   20  C13 UNL     1       0.750  -2.360   0.000  1.00  0.00     0.046 A 
HETATM   21  C14 UNL     1       2.120  -1.750   0.000  1.00  0.00     0.054 A 
HETATM   22  C15 UNL     1       3.124  -2.864   0.000  1.00  0.00     0.085 A 
HETATM   23  O5  UNL     1       6.361  -6.285   0.000  1.00  0.00     0.000 OA
HETATM   24  C27 UNL     1      -0.750  -2.360   0.000  1.00  0.00     0.006 A 
HETATM   25  C28 UNL     1      -1.010  -3.837   0.000  1.00  0.00     0.000 C 
HETATM   26  C29 UNL     1      -2.159  -1.847   0.000  1.00  0.00     0.000 C 
HETATM   27  C30 UNL     1      -0.000  -1.061   0.000  1.00  0.00     0.006 A 
HETATM   28  C31 UNL     1       1.061   0.000   0.000  1.00  0.00     0.000 A 
HETATM   29  C32 UNL     1       0.000   1.061   0.000  1.00  0.00     0.000 A 
HETATM   30  C33 UNL     1      -1.061   0.000   0.000  1.00  0.00     0.000 A 
HETATM   31  C34 UNL     1       0.611  -6.590   0.000  1.00  0.00     0.155 A 
HETATM   32  C35 UNL     1       0.454  -8.082   0.000  1.00  0.00     0.013 A 
HETATM   33  C36 UNL     1       0.767  -5.099   0.000  1.00  0.00    -0.097 A 
HETATM   34  C37 UNL     1      -0.881  -6.434   0.000  1.00  0.00     0.033 C 
ENDROOT
BRANCH  11  35
HETATM   35  C38 UNL     1       1.559 -11.915   0.000  1.00  0.00     0.039 A 
HETATM   36  C39 UNL     1       0.517 -10.836   0.000  1.00  0.00     0.006 C 
HETATM   37  C40 UNL     1       2.908 -12.572   0.000  1.00  0.00     0.006 A 
HETATM   38  C41 UNL     1       3.012 -14.069   0.000  1.00  0.00     0.000 A 
HETATM   39  C42 UNL     1       1.769 -14.908   0.000  1.00  0.00     0.000 A 
HETATM   40  C43 UNL     1       0.420 -14.250   0.000  1.00  0.00     0.000 A 
HETATM   41  C44 UNL     1       0.316 -12.754   0.000  1.00  0.00     0.006 A 
ENDBRANCH  11  35
BRANCH  23  42
HETATM   42  C22 UNL     1       7.403  -5.206   0.000  1.00  0.00     0.118 A 
HETATM   43  C17 UNL     1       6.989  -3.764   0.000  1.00  0.00     0.185 A 
HETATM   44  N5  UNL     1       5.497  -3.921   0.000  1.00  0.00    -0.235 NA
HETATM   45  C18 UNL     1       8.337  -3.107   0.000  1.00  0.00     0.121 A 
HETATM   46  C19 UNL     1       7.094  -2.268   0.000  1.00  0.00     0.050 A 
HETATM   47  C16 UNL     1       4.616  -2.708   0.000  1.00  0.00     0.191 A 
HETATM   48  O4  UNL     1       5.226  -1.337   0.000  1.00  0.00    -0.293 OA
HETATM   49  C20 UNL     1       6.436  -0.920   0.000  1.00  0.00     0.080 A 
HETATM   50  C21 UNL     1       7.275   0.324   0.000  1.00  0.00     0.058 C 
HETATM   51  O6  UNL     1       9.185  -3.345   0.000  1.00  0.00    -0.231 OA
HETATM   52  S1  UNL     1       9.900  -4.490   0.000  1.00  0.00     0.266 S 
HETATM   53  N6  UNL     1       8.858  -5.569   0.000  1.00  0.00    -0.157 NA
HETATM   54  O7  UNL     1      10.979  -5.532   0.000  1.00  0.00    -0.196 OA
BRANCH  52  55
HETATM   55  N7  UNL     1      10.942  -3.411   0.000  1.00  0.00    -0.272 N 
HETATM   56  C23 UNL     1      12.428  -3.620   0.000  1.00  0.00     0.114 A 
HETATM   57  C24 UNL     1      13.085  -2.272   0.000  1.00  0.00     0.027 A 
HETATM   58  C25 UNL     1      12.006  -1.230   0.000  1.00  0.00     0.027 A 
HETATM   59  C26 UNL     1      10.682  -1.934   0.000  1.00  0.00     0.114 A 
ENDBRANCH  52  55
ENDBRANCH  23  42
TORSDOF 4
