REMARK  12 active torsions:
REMARK  status: ('A' for Active; 'I' for Inactive)
REMARK    1  A    between atoms: C2_2  and  C3_3 
REMARK    2  A    between atoms: C5_5  and  C16_26 
REMARK    3  A    between atoms: C6_7  and  C7_9 
REMARK    4  A    between atoms: C7_9  and  C8_10 
REMARK    5  A    between atoms: C7_9  and  N2_14 
REMARK    6  A    between atoms: C8_10  and  C9_11 
REMARK    7  A    between atoms: C11_17  and  C12_18 
REMARK    8  A    between atoms: C12_18  and  C13_19 
REMARK    9  A    between atoms: C25_39  and  C26_40 
REMARK       I    between atoms: C26_40  and  N6_42 
REMARK   10  A    between atoms: N6_42  and  C27_43 
REMARK   11  A    between atoms: C27_43  and  C28_44 
REMARK   12  A    between atoms: C27_43  and  C29_46 
ROOT
HETATM    1  C3  UNL     1       3.526   6.495   0.000  1.00  0.00     0.007 A 
HETATM    2  C4  UNL     1       2.776   7.794   0.000  1.00  0.00     0.174 A 
HETATM    3  C5  UNL     1       2.776   5.196   0.000  1.00  0.00     0.119 A 
HETATM    4  N1  UNL     1       1.276   5.196   0.000  1.00  0.00    -0.218 NA
HETATM    5  C6  UNL     1       0.526   6.495   0.000  1.00  0.00     0.191 A 
HETATM    6  O1  UNL     1       1.276   7.794   0.000  1.00  0.00    -0.309 OA
ENDROOT
BRANCH   3   7
HETATM    7  C16 UNL     1       3.526   3.897   0.000  1.00  0.00     0.196 A 
HETATM    8  O8  UNL     1       5.026   3.897   0.000  1.00  0.00    -0.309 OA
HETATM    9  C19 UNL     1       5.776   2.598   0.000  1.00  0.00     0.179 A 
HETATM   10  C18 UNL     1       5.026   1.299   0.000  1.00  0.00     0.030 A 
HETATM   11  C17 UNL     1       3.526   1.299   0.000  1.00  0.00     0.124 A 
HETATM   12  C20 UNL     1       5.776  -0.000   0.000  1.00  0.00     0.013 A 
HETATM   13  N4  UNL     1       2.776   2.598   0.000  1.00  0.00    -0.218 NA
HETATM   14  C21 UNL     1       2.776   0.000   0.000  1.00  0.00     0.215 A 
HETATM   15  O9  UNL     1       1.276  -0.000   0.000  1.00  0.00    -0.169 OA
HETATM   16  N5  UNL     1       3.526  -1.299   0.000  1.00  0.00    -0.288 N 
HETATM   17  C22 UNL     1       5.018  -1.456   0.000  1.00  0.00     0.043 A 
HETATM   18  C25 UNL     1       2.916  -2.669   0.000  1.00  0.00     0.087 A 
HETATM   19  C23 UNL     1       5.330  -2.923   0.000  1.00  0.00     0.051 A 
HETATM   20  C24 UNL     1       4.031  -3.673   0.000  1.00  0.00     0.054 A 
BRANCH  18  21
HETATM   21  C26 UNL     1       1.449  -2.981   0.000  1.00  0.00     0.225 C 
HETATM   22  O10 UNL     1       0.445  -1.867   0.000  1.00  0.00    -0.168 OA
HETATM   23  N6  UNL     1       0.985  -4.408   0.000  1.00  0.00    -0.216 NA
BRANCH  23  24
HETATM   24  C27 UNL     1      -0.482  -4.720   0.000  1.00  0.00     0.141 C 
BRANCH  24  25
HETATM   25  C28 UNL     1      -1.486  -3.605   0.000  1.00  0.00     0.144 C 
HETATM   26  S1  UNL     1      -2.953  -3.917   0.000  1.00  0.00    -0.103 SA
ENDBRANCH  24  25
BRANCH  24  27
HETATM   27  C29 UNL     1      -0.946  -6.146   0.000  1.00  0.00     0.226 C 
HETATM   28  O11 UNL     1       0.058  -7.261   0.000  1.00  0.00    -0.643 OA
HETATM   29  O12 UNL     1      -2.413  -6.458   0.000  1.00  0.00    -0.643 OA
ENDBRANCH  24  27
ENDBRANCH  23  24
ENDBRANCH  18  21
ENDBRANCH   3   7
BRANCH   1  30
HETATM   30  C2  UNL     1       5.026   6.495   0.000  1.00  0.00     0.026 C 
HETATM   31  C1  UNL     1       5.776   7.794   0.000  1.00  0.00     0.005 C 
ENDBRANCH   1  30
BRANCH   5  32
HETATM   32  C7  UNL     1      -0.974   6.495   0.000  1.00  0.00     0.091 C 
BRANCH  32  33
HETATM   33  C8  UNL     1      -1.724   7.794   0.000  1.00  0.00     0.145 C 
BRANCH  33  34
HETATM   34  C9  UNL     1      -0.974   9.093   0.000  1.00  0.00     0.192 C 
HETATM   35  O2  UNL     1       0.526   9.093   0.000  1.00  0.00    -0.647 OA
HETATM   36  O3  UNL     1      -1.724  10.392   0.000  1.00  0.00    -0.647 OA
ENDBRANCH  33  34
ENDBRANCH  32  33
BRANCH  32  37
HETATM   37  N2  UNL     1      -1.724   5.196   0.000  1.00  0.00    -0.298 N 
HETATM   38  C10 UNL     1      -3.224   5.196   0.000  1.00  0.00     0.209 A 
HETATM   39  O4  UNL     1      -3.974   6.495   0.000  1.00  0.00    -0.170 OA
HETATM   40  C11 UNL     1      -3.974   3.897   0.000  1.00  0.00     0.114 A 
HETATM   41  N3  UNL     1      -3.224   2.598   0.000  1.00  0.00    -0.222 NA
HETATM   42  C14 UNL     1      -1.724   2.598   0.000  1.00  0.00     0.212 A 
HETATM   43  O7  UNL     1      -0.974   1.299   0.000  1.00  0.00    -0.172 OA
HETATM   44  C15 UNL     1      -0.974   3.897   0.000  1.00  0.00     0.182 A 
BRANCH  40  45
HETATM   45  C12 UNL     1      -5.474   3.897   0.000  1.00  0.00     0.147 C 
BRANCH  45  46
HETATM   46  C13 UNL     1      -6.224   2.598   0.000  1.00  0.00     0.192 C 
HETATM   47  O5  UNL     1      -5.474   1.299   0.000  1.00  0.00    -0.647 OA
HETATM   48  O6  UNL     1      -7.724   2.598   0.000  1.00  0.00    -0.647 OA
ENDBRANCH  45  46
ENDBRANCH  40  45
ENDBRANCH  32  37
ENDBRANCH   5  32
TORSDOF 12
