REMARK WARNING: 32 MAX_TORS EXCEEDED!!!
REMARK  45 active torsions:
REMARK  status: ('A' for Active; 'I' for Inactive)
REMARK    1  A    between atoms: C1_1  and  C10_16 
REMARK    2  A    between atoms: C1_1  and  F2_24 
REMARK    3  A    between atoms: C2_2  and  C5_7 
REMARK    4  A    between atoms: C2_2  and  N3_12 
REMARK    5  A    between atoms: C2_2  and  C11_17 
REMARK    6  A    between atoms: C2_2  and  O4_18 
REMARK    7  A    between atoms: C2_2  and  C17_29 
REMARK    8  A    between atoms: C2_2  and  C18_30 
REMARK    9  A    between atoms: C4_4  and  N2_6 
REMARK   10  A    between atoms: C4_4  and  C7_9 
REMARK   11  A    between atoms: N1_5  and  C7_9 
REMARK   12  A    between atoms: N1_5  and  O7_22 
REMARK   13  A    between atoms: N2_6  and  C11_17 
REMARK   14  A    between atoms: N2_6  and  C17_29 
REMARK   15  A    between atoms: C5_7  and  O2_14 
REMARK   16  A    between atoms: C6_8  and  O1_13 
REMARK   17  A    between atoms: C7_9  and  O3_15 
REMARK   18  A    between atoms: C8_10  and  O2_14 
REMARK   19  A    between atoms: C9_11  and  O3_15 
REMARK   20  A    between atoms: N3_12  and  C12_21 
REMARK   21  A    between atoms: O1_13  and  C10_16 
REMARK   22  A    between atoms: O1_13  and  F2_24 
REMARK   23  A    between atoms: O2_14  and  C11_17 
REMARK   24  A    between atoms: O2_14  and  O4_18 
REMARK   25  A    between atoms: O2_14  and  C14_26 
REMARK   26  A    between atoms: O2_14  and  C18_30 
REMARK   27  A    between atoms: O2_14  and  C24_36 
REMARK   28  A    between atoms: O4_18  and  C18_30 
REMARK   29  A    between atoms: O4_18  and  C24_36 
REMARK   30  A    between atoms: C14_26  and  C28_40 
REMARK   31  A    between atoms: C15_27  and  C27_39 
REMARK   32  A    between atoms: C16_28  and  C17_29 
REMARK   33  A    between atoms: C17_29  and  C22_34 
REMARK   34  A    between atoms: C18_30  and  C19_31 
REMARK   35  A    between atoms: C18_30  and  C25_37 
REMARK   36  A    between atoms: C19_31  and  C24_36 
REMARK   37  A    between atoms: C19_31  and  C28_40 
REMARK   38  A    between atoms: C20_32  and  C21_33 
REMARK   39  A    between atoms: C20_32  and  C26_38 
REMARK   40  A    between atoms: C21_33  and  C23_35 
REMARK   41  A    between atoms: C21_33  and  C27_39 
REMARK   42  A    between atoms: C23_35  and  C26_38 
REMARK   43  A    between atoms: C24_36  and  C25_37 
REMARK   44  A    between atoms: C25_37  and  C28_40 
REMARK   45  A    between atoms: C26_38  and  C27_39 
ROOT
HETATM    1  C1  UNL     1      11.817  -0.479   0.000  1.00  0.00     0.215 A 
HETATM    2  C2  UNL     1       7.513  -0.479   0.000  1.00  0.00     0.000 A 
HETATM    3  C3  UNL     1      11.104  -0.067   0.000  1.00  0.00     0.170 A 
HETATM    4  C4  UNL     1       9.667  -0.067   0.000  1.00  0.00     0.066 A 
HETATM    5  N1  UNL     1      10.379  -0.479   0.000  1.00  0.00     0.000 N 
HETATM    6  N2  UNL     1       8.229  -0.067   0.000  1.00  0.00     0.000 N 
HETATM    7  C5  UNL     1       6.075  -1.304   0.000  1.00  0.00     0.000 A 
HETATM    8  C6  UNL     1      11.825  -1.304   0.000  1.00  0.00     0.184 A 
HETATM    9  C7  UNL     1      11.104   0.771   0.000  1.00  0.00     0.199 A 
HETATM   10  C8  UNL     1       6.792  -0.067   0.000  1.00  0.00     0.000 A 
HETATM   11  C9  UNL     1       8.950  -0.479   0.000  1.00  0.00     0.005 A 
HETATM   12  N3  UNL     1       6.067  -0.479   0.000  1.00  0.00     0.000 N 
HETATM   13  O1  UNL     1      12.537  -0.062   0.000  1.00  0.00     0.000 OA
HETATM   14  O2  UNL     1       7.513  -1.304   0.000  1.00  0.00     0.000 OA
HETATM   15  O3  UNL     1       9.667   0.771   0.000  1.00  0.00     0.000 OA
HETATM   16  C10 UNL     1      11.817   1.183   0.000  1.00  0.00     0.234 A 
HETATM   17  C11 UNL     1       8.950  -1.304   0.000  1.00  0.00     0.005 A 
HETATM   18  O4  UNL     1       6.792  -1.704   0.000  1.00  0.00     0.000 OA
HETATM   19  O5  UNL     1      12.537  -1.712   0.000  1.00  0.00    -0.329 OA
HETATM   20  O6  UNL     1       5.354  -1.717   0.000  1.00  0.00     0.000 OA
HETATM   21  C12 UNL     1       6.792   0.758   0.000  1.00  0.00     0.000 A 
HETATM   22  O7  UNL     1      11.104  -1.717   0.000  1.00  0.00     0.000 OA
HETATM   23  F1  UNL     1      11.817   2.008   0.000  1.00  0.00    -0.333 F 
HETATM   24  F2  UNL     1      12.542   0.771   0.000  1.00  0.00    -0.418 F 
HETATM   25  C13 UNL     1       5.367  -2.542   0.000  1.00  0.00     0.000 A 
HETATM   26  C14 UNL     1       8.529  -2.017   0.000  1.00  0.00     0.000 A 
HETATM   27  C15 UNL     1       4.654  -2.967   0.000  1.00  0.00     0.000 A 
HETATM   28  C16 UNL     1       6.079   1.171   0.000  1.00  0.00     0.000 A 
HETATM   29  C17 UNL     1       7.504   1.171   0.000  1.00  0.00     0.000 A 
HETATM   30  C18 UNL     1       7.704  -2.004   0.000  1.00  0.00     0.000 A 
HETATM   31  C19 UNL     1       8.938  -2.725   0.000  1.00  0.00     0.000 A 
HETATM   32  C20 UNL     1       4.654  -3.792   0.000  1.00  0.00     0.000 A 
HETATM   33  C21 UNL     1       3.938  -2.554   0.000  1.00  0.00     0.000 A 
HETATM   34  C22 UNL     1       6.075   1.996   0.000  1.00  0.00     0.000 A 
HETATM   35  C23 UNL     1       3.942  -4.213   0.000  1.00  0.00     0.000 A 
HETATM   36  C24 UNL     1       7.287  -2.717   0.000  1.00  0.00     0.000 A 
HETATM   37  C25 UNL     1       8.525  -3.438   0.000  1.00  0.00     0.000 A 
HETATM   38  C26 UNL     1       3.217  -2.975   0.000  1.00  0.00     0.000 A 
HETATM   39  C27 UNL     1       3.217  -3.804   0.000  1.00  0.00     0.000 A 
HETATM   40  C28 UNL     1       7.692  -3.438   0.000  1.00  0.00     0.000 A 
ENDROOT
TORSDOF 45
