REMARK  14 active torsions:
REMARK  status: ('A' for Active; 'I' for Inactive)
REMARK    1  A    between atoms: O1_2  and  C2_3 
REMARK    2  A    between atoms: C4_5  and  O2_6 
REMARK    3  A    between atoms: O2_6  and  C5_7 
REMARK    4  A    between atoms: C8_10  and  C13_15 
REMARK    5  A    between atoms: C10_12  and  C11_13 
REMARK    6  A    between atoms: C16_21  and  O5_23 
REMARK    7  A    between atoms: O5_23  and  C17_24 
REMARK    8  A    between atoms: C32_41  and  N4_43 
REMARK    9  A    between atoms: N4_43  and  S1_44 
REMARK   10  A    between atoms: S1_44  and  C33_47 
REMARK   11  A    between atoms: C33_47  and  C34_48 
REMARK   12  A    between atoms: C34_48  and  C35_49 
REMARK   13  A    between atoms: C35_49  and  C36_50 
REMARK   14  A    between atoms: C38_53  and  C39_55 
ROOT
HETATM    1  C13 UNL     1      -7.500  -2.598   0.000  1.00  0.00     0.120 C 
HETATM    2  N1  UNL     1      -8.250  -3.897   0.000  1.00  0.00    -0.216 NA
HETATM    3  C14 UNL     1      -9.750  -3.897   0.000  1.00  0.00     0.229 C 
HETATM    4  O3  UNL     1     -10.500  -2.598   0.000  1.00  0.00    -0.168 OA
HETATM    5  C15 UNL     1     -10.500  -5.196   0.000  1.00  0.00     0.131 A 
HETATM    6  N2  UNL     1      -9.750  -6.495   0.000  1.00  0.00    -0.199 NA
HETATM    7  C16 UNL     1     -10.500  -7.794   0.000  1.00  0.00     0.301 A 
HETATM    8  O4  UNL     1     -12.000  -7.794   0.000  1.00  0.00    -0.230 OA
HETATM    9  C21 UNL     1     -12.000  -5.196   0.000  1.00  0.00     0.177 A 
HETATM   10  C22 UNL     1     -12.000  -6.696   0.000  1.00  0.00     0.017 A 
HETATM   11  C23 UNL     1     -12.000  -3.696   0.000  1.00  0.00     0.015 C 
HETATM   12  C24 UNL     1     -13.500  -5.196   0.000  1.00  0.00     0.035 C 
HETATM   13  C25 UNL     1      -8.250  -1.299   0.000  1.00  0.00     0.230 C 
HETATM   14  O6  UNL     1      -7.500   0.000   0.000  1.00  0.00    -0.168 OA
HETATM   15  N3  UNL     1      -9.750  -1.299   0.000  1.00  0.00    -0.223 NA
HETATM   16  C26 UNL     1     -10.500   0.000   0.000  1.00  0.00     0.061 A 
HETATM   17  C27 UNL     1      -9.750   1.299   0.000  1.00  0.00     0.046 A 
HETATM   18  C28 UNL     1     -10.500   2.598   0.000  1.00  0.00     0.007 A 
HETATM   19  C29 UNL     1     -12.000   2.598   0.000  1.00  0.00     0.005 A 
HETATM   20  C30 UNL     1     -12.750   1.299   0.000  1.00  0.00     0.031 A 
HETATM   21  C31 UNL     1     -12.000   0.000   0.000  1.00  0.00     0.034 A 
HETATM   22  C32 UNL     1     -12.750  -1.299   0.000  1.00  0.00     0.199 C 
HETATM   23  O7  UNL     1     -12.000  -2.598   0.000  1.00  0.00    -0.250 OA
ENDROOT
BRANCH   1  24
HETATM   24  C8  UNL     1      -6.000  -2.598   0.000  1.00  0.00    -0.018 A 
HETATM   25  C7  UNL     1      -5.250  -1.299   0.000  1.00  0.00     0.031 A 
HETATM   26  C6  UNL     1      -3.750  -1.299   0.000  1.00  0.00     0.055 A 
HETATM   27  C5  UNL     1      -3.000  -2.598   0.000  1.00  0.00     0.072 A 
HETATM   28  C10 UNL     1      -3.750  -3.897   0.000  1.00  0.00    -0.021 A 
HETATM   29  C9  UNL     1      -5.250  -3.897   0.000  1.00  0.00     0.047 A 
BRANCH  27  30
HETATM   30  O2  UNL     1      -1.500  -2.598   0.000  1.00  0.00    -0.297 OA
BRANCH  30  31
HETATM   31  C4  UNL     1      -0.750  -1.299   0.000  1.00  0.00     0.168 A 
HETATM   32  C3  UNL     1       0.750  -1.299   0.000  1.00  0.00     0.143 A 
HETATM   33  C2  UNL     1       1.500   0.000   0.000  1.00  0.00     0.164 A 
HETATM   34  N6  UNL     1       0.750   1.299   0.000  1.00  0.00    -0.208 NA
HETATM   35  C38 UNL     1      -0.750   1.299   0.000  1.00  0.00     0.158 A 
HETATM   36  N5  UNL     1      -1.500   0.000   0.000  1.00  0.00    -0.207 NA
BRANCH  33  37
HETATM   37  O1  UNL     1       3.000   0.000   0.000  1.00  0.00    -0.315 OA
HETATM   38  C1  UNL     1       3.750  -1.299   0.000  1.00  0.00     0.183 C 
ENDBRANCH  33  37
BRANCH  35  39
HETATM   39  C39 UNL     1      -1.500   2.598   0.000  1.00  0.00    -0.008 A 
HETATM   40  C40 UNL     1      -0.750   3.897   0.000  1.00  0.00     0.025 A 
HETATM   41  C41 UNL     1      -1.500   5.196   0.000  1.00  0.00     0.004 A 
HETATM   42  C42 UNL     1      -3.000   5.196   0.000  1.00  0.00     0.001 A 
HETATM   43  C43 UNL     1      -3.750   3.897   0.000  1.00  0.00     0.004 A 
HETATM   44  C44 UNL     1      -3.000   2.598   0.000  1.00  0.00     0.025 A 
ENDBRANCH  35  39
ENDBRANCH  30  31
ENDBRANCH  27  30
BRANCH  28  45
HETATM   45  C11 UNL     1      -3.000  -5.196   0.000  1.00  0.00     0.024 C 
HETATM   46  C12 UNL     1      -3.750  -6.495   0.000  1.00  0.00     0.005 C 
ENDBRANCH  28  45
ENDBRANCH   1  24
BRANCH   7  47
HETATM   47  O5  UNL     1      -9.750  -9.093   0.000  1.00  0.00    -0.300 OA
BRANCH  47  48
HETATM   48  C17 UNL     1     -10.500 -10.392   0.000  1.00  0.00     0.102 C 
HETATM   49  C18 UNL     1      -9.201 -11.142   0.000  1.00  0.00     0.030 C 
HETATM   50  C19 UNL     1     -11.799  -9.642   0.000  1.00  0.00     0.030 C 
HETATM   51  C20 UNL     1     -11.250 -11.691   0.000  1.00  0.00     0.030 C 
ENDBRANCH  47  48
ENDBRANCH   7  47
BRANCH  22  52
HETATM   52  N4  UNL     1     -14.250  -1.299   0.000  1.00  0.00    -0.137 NA
BRANCH  52  53
HETATM   53  S1  UNL     1     -15.000  -2.598   0.000  1.00  0.00     0.266 S 
HETATM   54  O8  UNL     1     -13.701  -3.348   0.000  1.00  0.00    -0.203 OA
HETATM   55  O9  UNL     1     -16.299  -1.848   0.000  1.00  0.00    -0.203 OA
BRANCH  53  56
HETATM   56  C33 UNL     1     -15.750  -3.897   0.000  1.00  0.00     0.146 C 
BRANCH  56  57
HETATM   57  C34 UNL     1     -17.250  -3.897   0.000  1.00  0.00     0.019 C 
BRANCH  57  58
HETATM   58  C35 UNL     1     -18.000  -5.196   0.000  1.00  0.00     0.001 C 
BRANCH  58  59
HETATM   59  C36 UNL     1     -19.500  -5.196   0.000  1.00  0.00     0.000 C 
HETATM   60  C37 UNL     1     -20.250  -6.495   0.000  1.00  0.00     0.000 C 
ENDBRANCH  58  59
ENDBRANCH  57  58
ENDBRANCH  56  57
ENDBRANCH  53  56
ENDBRANCH  52  53
ENDBRANCH  22  52
TORSDOF 14
