REMARK  14 active torsions:
REMARK  status: ('A' for Active; 'I' for Inactive)
REMARK    1  A    between atoms: C2_2  and  C3_3 
REMARK    2  A    between atoms: C5_5  and  C14_23 
REMARK    3  A    between atoms: C6_7  and  C7_9 
REMARK    4  A    between atoms: C7_9  and  C8_10 
REMARK    5  A    between atoms: C7_9  and  N2_14 
REMARK    6  A    between atoms: C8_10  and  C9_11 
REMARK       I    between atoms: N2_14  and  C10_15 
REMARK    7  A    between atoms: C10_15  and  C11_17 
REMARK    8  A    between atoms: C11_17  and  C12_19 
REMARK    9  A    between atoms: C12_19  and  C13_20 
REMARK   10  A    between atoms: C15_26  and  C19_30 
REMARK       I    between atoms: C19_30  and  N5_32 
REMARK   11  A    between atoms: C23_36  and  C24_37 
REMARK       I    between atoms: C24_37  and  N6_39 
REMARK   12  A    between atoms: N6_39  and  C25_40 
REMARK   13  A    between atoms: C25_40  and  C26_41 
REMARK   14  A    between atoms: C25_40  and  C27_43 
ROOT
HETATM    1  C14 UNL     1       3.526   3.897   0.000  1.00  0.00     0.196 A 
HETATM    2  O7  UNL     1       5.026   3.897   0.000  1.00  0.00    -0.309 OA
HETATM    3  N4  UNL     1       2.776   2.598   0.000  1.00  0.00    -0.218 NA
HETATM    4  C15 UNL     1       3.526   1.299   0.000  1.00  0.00     0.120 A 
HETATM    5  C16 UNL     1       5.026   1.299   0.000  1.00  0.00     0.007 A 
HETATM    6  C17 UNL     1       5.776   2.598   0.000  1.00  0.00     0.174 A 
HETATM    7  C18 UNL     1       5.776  -0.000   0.000  1.00  0.00     0.031 C 
ENDROOT
BRANCH   1   8
HETATM    8  C5  UNL     1       2.776   5.196   0.000  1.00  0.00     0.119 A 
HETATM    9  C3  UNL     1       3.526   6.495   0.000  1.00  0.00     0.007 A 
HETATM   10  C4  UNL     1       2.776   7.794   0.000  1.00  0.00     0.174 A 
HETATM   11  O1  UNL     1       1.276   7.794   0.000  1.00  0.00    -0.309 OA
HETATM   12  C6  UNL     1       0.526   6.495   0.000  1.00  0.00     0.193 A 
HETATM   13  N1  UNL     1       1.276   5.196   0.000  1.00  0.00    -0.218 NA
BRANCH   9  14
HETATM   14  C2  UNL     1       5.026   6.495   0.000  1.00  0.00     0.026 C 
HETATM   15  C1  UNL     1       5.776   7.794   0.000  1.00  0.00     0.005 C 
ENDBRANCH   9  14
BRANCH  12  16
HETATM   16  C7  UNL     1      -0.974   6.495   0.000  1.00  0.00     0.113 C 
BRANCH  16  17
HETATM   17  C8  UNL     1      -1.724   7.794   0.000  1.00  0.00     0.147 C 
BRANCH  17  18
HETATM   18  C9  UNL     1      -0.974   9.093   0.000  1.00  0.00     0.192 C 
HETATM   19  O2  UNL     1       0.526   9.093   0.000  1.00  0.00    -0.647 OA
HETATM   20  O3  UNL     1      -1.724  10.392   0.000  1.00  0.00    -0.647 OA
ENDBRANCH  17  18
ENDBRANCH  16  17
BRANCH  16  21
HETATM   21  N2  UNL     1      -1.724   5.196   0.000  1.00  0.00    -0.220 NA
HETATM   22  C10 UNL     1      -3.224   5.196   0.000  1.00  0.00     0.222 C 
HETATM   23  O4  UNL     1      -3.974   6.495   0.000  1.00  0.00    -0.168 OA
BRANCH  22  24
HETATM   24  C11 UNL     1      -3.974   3.897   0.000  1.00  0.00     0.102 C 
HETATM   25  N3  UNL     1      -3.224   2.598   0.000  1.00  0.00    -0.101 NA
BRANCH  24  26
HETATM   26  C12 UNL     1      -5.474   3.897   0.000  1.00  0.00     0.142 C 
BRANCH  26  27
HETATM   27  C13 UNL     1      -6.224   2.598   0.000  1.00  0.00     0.191 C 
HETATM   28  O5  UNL     1      -5.474   1.299   0.000  1.00  0.00    -0.647 OA
HETATM   29  O6  UNL     1      -7.724   2.598   0.000  1.00  0.00    -0.647 OA
ENDBRANCH  26  27
ENDBRANCH  24  26
ENDBRANCH  22  24
ENDBRANCH  16  21
ENDBRANCH  12  16
ENDBRANCH   1   8
BRANCH   4  30
HETATM   30  C19 UNL     1       2.776   0.000   0.000  1.00  0.00     0.211 C 
HETATM   31  O8  UNL     1       3.526  -1.299   0.000  1.00  0.00    -0.169 OA
HETATM   32  N5  UNL     1       1.276   0.000   0.000  1.00  0.00    -0.306 N 
HETATM   33  C20 UNL     1       0.394   1.214   0.000  1.00  0.00     0.108 A 
HETATM   34  C23 UNL     1       0.394  -1.214   0.000  1.00  0.00     0.083 A 
HETATM   35  C21 UNL     1      -1.032   0.750   0.000  1.00  0.00     0.031 A 
HETATM   36  C22 UNL     1      -1.032  -0.750   0.000  1.00  0.00     0.050 A 
BRANCH  34  37
HETATM   37  C24 UNL     1       0.858  -2.640   0.000  1.00  0.00     0.225 C 
HETATM   38  O9  UNL     1       2.325  -2.952   0.000  1.00  0.00    -0.168 OA
HETATM   39  N6  UNL     1      -0.146  -3.755   0.000  1.00  0.00    -0.216 NA
BRANCH  39  40
HETATM   40  C25 UNL     1       0.318  -5.181   0.000  1.00  0.00     0.141 C 
BRANCH  40  41
HETATM   41  C26 UNL     1       1.785  -5.493   0.000  1.00  0.00     0.144 C 
HETATM   42  S1  UNL     1       2.248  -6.920   0.000  1.00  0.00    -0.103 SA
ENDBRANCH  40  41
BRANCH  40  43
HETATM   43  C27 UNL     1      -0.686  -6.296   0.000  1.00  0.00     0.226 C 
HETATM   44  O10 UNL     1      -2.153  -5.984   0.000  1.00  0.00    -0.643 OA
HETATM   45  O11 UNL     1      -0.223  -7.723   0.000  1.00  0.00    -0.643 OA
ENDBRANCH  40  43
ENDBRANCH  39  40
ENDBRANCH  34  37
ENDBRANCH   4  30
TORSDOF 14
