REMARK  10 active torsions:
REMARK  status: ('A' for Active; 'I' for Inactive)
REMARK    1  A    between atoms: C2_2  and  N1_3 
REMARK    2  A    between atoms: N1_3  and  C3_4 
REMARK    3  A    between atoms: N1_3  and  S1_6 
REMARK    4  A    between atoms: S1_6  and  N2_9 
REMARK       I    between atoms: N2_9  and  C5_10 
REMARK    5  A    between atoms: C5_10  and  C6_12 
REMARK    6  A    between atoms: C11_18  and  C12_20 
REMARK       I    between atoms: N4_24  and  C16_25 
REMARK    7  A    between atoms: C16_25  and  C17_27 
REMARK    8  A    between atoms: C17_27  and  N5_28 
REMARK    9  A    between atoms: C17_27  and  C35_50 
REMARK       I    between atoms: N5_28  and  C18_29 
REMARK   10  A    between atoms: C18_29  and  C19_31 
ROOT
HETATM    1  C12 UNL     1       2.374  -4.163   0.000  1.00  0.00     0.080 A 
HETATM    2  C13 UNL     1       0.907  -3.852   0.000  1.00  0.00     0.049 A 
HETATM    3  C14 UNL     1       0.750  -2.360   0.000  1.00  0.00     0.027 A 
HETATM    4  C15 UNL     1       2.120  -1.750   0.000  1.00  0.00     0.108 A 
HETATM    5  N4  UNL     1       3.124  -2.864   0.000  1.00  0.00    -0.306 N 
HETATM    6  C16 UNL     1       4.616  -2.708   0.000  1.00  0.00     0.211 C 
HETATM    7  O5  UNL     1       5.497  -3.921   0.000  1.00  0.00    -0.169 OA
HETATM    8  C40 UNL     1      -0.750  -2.360   0.000  1.00  0.00     0.002 A 
HETATM    9  C41 UNL     1      -1.010  -3.837   0.000  1.00  0.00     0.000 C 
HETATM   10  C42 UNL     1      -2.159  -1.847   0.000  1.00  0.00     0.000 C 
HETATM   11  C43 UNL     1      -0.000  -1.061   0.000  1.00  0.00     0.002 A 
HETATM   12  C44 UNL     1       1.061   0.000   0.000  1.00  0.00     0.000 A 
HETATM   13  C45 UNL     1       0.000   1.061   0.000  1.00  0.00     0.000 A 
HETATM   14  C46 UNL     1      -1.061   0.000   0.000  1.00  0.00     0.000 A 
ENDROOT
BRANCH   1  15
HETATM   15  C11 UNL     1       2.984  -5.534   0.000  1.00  0.00     0.190 A 
HETATM   16  N3  UNL     1       2.102  -6.747   0.000  1.00  0.00    -0.239 NA
HETATM   17  C6  UNL     1       2.712  -8.117   0.000  1.00  0.00     0.167 A 
HETATM   18  C7  UNL     1       3.755  -9.197   0.000  1.00  0.00     0.060 A 
HETATM   19  C8  UNL     1       4.168  -7.755   0.000  1.00  0.00     0.005 A 
HETATM   20  C9  UNL     1       5.247  -6.713   0.000  1.00  0.00     0.074 A 
HETATM   21  C10 UNL     1       6.689  -7.126   0.000  1.00  0.00     0.058 C 
HETATM   22  O4  UNL     1       4.476  -5.691   0.000  1.00  0.00    -0.294 OA
BRANCH  17  23
HETATM   23  C5  UNL     1       1.469  -8.956   0.000  1.00  0.00     0.226 C 
HETATM   24  N2  UNL     1       1.574 -10.453   0.000  1.00  0.00    -0.119 NA
HETATM   25  O3  UNL     1       0.121  -8.299   0.000  1.00  0.00    -0.171 OA
BRANCH  24  26
HETATM   26  S1  UNL     1       0.330 -11.291   0.000  1.00  0.00     0.346 S 
HETATM   27  O1  UNL     1       1.169 -12.535   0.000  1.00  0.00    -0.180 OA
HETATM   28  O2  UNL     1      -0.509 -10.048   0.000  1.00  0.00    -0.180 OA
BRANCH  26  29
HETATM   29  N1  UNL     1      -0.913 -12.130   0.000  1.00  0.00    -0.260 N 
BRANCH  29  30
HETATM   30  C2  UNL     1      -2.262 -11.473   0.000  1.00  0.00     0.115 C 
HETATM   31  C1  UNL     1      -3.505 -12.312   0.000  1.00  0.00     0.027 C 
ENDBRANCH  29  30
BRANCH  29  32
HETATM   32  C3  UNL     1      -0.809 -13.627   0.000  1.00  0.00     0.115 C 
HETATM   33  C4  UNL     1      -2.052 -14.465   0.000  1.00  0.00     0.027 C 
ENDBRANCH  29  32
ENDBRANCH  26  29
ENDBRANCH  24  26
ENDBRANCH  17  23
ENDBRANCH   1  15
BRANCH   6  34
HETATM   34  C17 UNL     1       5.226  -1.337   0.000  1.00  0.00     0.118 C 
BRANCH  34  35
HETATM   35  N5  UNL     1       6.718  -1.180   0.000  1.00  0.00    -0.216 NA
HETATM   36  C18 UNL     1       7.328   0.190   0.000  1.00  0.00     0.229 C 
HETATM   37  O6  UNL     1       6.446   1.403   0.000  1.00  0.00    -0.168 OA
BRANCH  36  38
HETATM   38  C19 UNL     1       8.820   0.347   0.000  1.00  0.00     0.103 A 
HETATM   39  N6  UNL     1       9.701  -0.867   0.000  1.00  0.00    -0.300 N 
HETATM   40  C20 UNL     1      11.193  -0.710   0.000  1.00  0.00     0.175 A 
HETATM   41  C27 UNL     1       9.091  -2.237   0.000  1.00  0.00     0.147 A 
HETATM   42  O7  UNL     1      11.803   0.660   0.000  1.00  0.00    -0.294 OA
HETATM   43  C21 UNL     1      12.075  -1.924   0.000  1.00  0.00     0.076 A 
HETATM   44  C34 UNL     1      10.921   1.874   0.000  1.00  0.00     0.077 A 
HETATM   45  C29 UNL     1       9.430   1.717   0.000  1.00  0.00     0.016 A 
HETATM   46  C33 UNL     1      11.532   3.244   0.000  1.00  0.00     0.051 A 
HETATM   47  C30 UNL     1       8.548   2.930   0.000  1.00  0.00     0.030 A 
HETATM   48  C31 UNL     1       9.158   4.301   0.000  1.00  0.00     0.005 A 
HETATM   49  C32 UNL     1      10.650   4.458   0.000  1.00  0.00     0.007 A 
HETATM   50  C22 UNL     1      13.566  -1.767   0.000  1.00  0.00     0.048 A 
HETATM   51  N7  UNL     1      11.465  -3.294   0.000  1.00  0.00    -0.333 N 
HETATM   52  C23 UNL     1      14.448  -2.980   0.000  1.00  0.00     0.008 A 
HETATM   53  C24 UNL     1      13.838  -4.351   0.000  1.00  0.00     0.025 A 
HETATM   54  C25 UNL     1      12.346  -4.507   0.000  1.00  0.00     0.105 A 
HETATM   55  C26 UNL     1       9.973  -3.451   0.000  1.00  0.00     0.038 A 
HETATM   56  C28 UNL     1       9.363  -4.821   0.000  1.00  0.00     0.047 C 
ENDBRANCH  36  38
ENDBRANCH  34  35
BRANCH  34  57
HETATM   57  C35 UNL     1       4.344  -0.124   0.000  1.00  0.00    -0.023 A 
HETATM   58  C36 UNL     1       4.808   1.303   0.000  1.00  0.00     0.024 A 
HETATM   59  C37 UNL     1       3.594   2.185   0.000  1.00  0.00     0.005 A 
HETATM   60  C38 UNL     1       2.381   1.303   0.000  1.00  0.00     0.005 A 
HETATM   61  C39 UNL     1       2.844  -0.124   0.000  1.00  0.00     0.024 A 
ENDBRANCH  34  57
ENDBRANCH   6  34
TORSDOF 10
