REMARK  9 active torsions:
REMARK  status: ('A' for Active; 'I' for Inactive)
REMARK    1  A    between atoms: C2_2  and  N1_5 
REMARK    2  A    between atoms: N1_5  and  C5_6 
REMARK    3  A    between atoms: C6_9  and  C7_10 
REMARK       I    between atoms: C7_10  and  N3_12 
REMARK    4  A    between atoms: C15_21  and  C16_22 
REMARK       I    between atoms: C16_22  and  N4_24 
REMARK    5  A    between atoms: N4_24  and  C17_25 
REMARK    6  A    between atoms: C17_25  and  C18_26 
REMARK    7  A    between atoms: C17_25  and  C23_31 
REMARK    8  A    between atoms: C18_26  and  C19_27 
REMARK    9  A    between atoms: C23_31  and  C24_33 
ROOT
HETATM    1  C7  UNL     1      -1.496   4.604   0.000  1.00  0.00     0.209 C 
HETATM    2  O2  UNL     1      -2.963   4.915   0.000  1.00  0.00    -0.170 OA
HETATM    3  N3  UNL     1      -1.032   3.177   0.000  1.00  0.00    -0.297 N 
HETATM    4  C8  UNL     1       0.394   2.713   0.000  1.00  0.00     0.159 A 
HETATM    5  C9  UNL     1       0.394   1.214   0.000  1.00  0.00     0.092 A 
HETATM    6  O3  UNL     1       1.276   0.000   0.000  1.00  0.00    -0.338 OA
HETATM    7  C10 UNL     1       0.394  -1.214   0.000  1.00  0.00     0.102 A 
HETATM    8  C11 UNL     1       1.693  -1.964   0.000  1.00  0.00     0.030 C 
HETATM    9  C12 UNL     1      -0.216  -2.584   0.000  1.00  0.00     0.030 C 
HETATM   10  C13 UNL     1      -1.032  -0.750   0.000  1.00  0.00     0.057 A 
HETATM   11  C14 UNL     1      -1.032   0.750   0.000  1.00  0.00     0.020 A 
HETATM   12  C15 UNL     1      -1.914   1.964   0.000  1.00  0.00     0.104 A 
ENDROOT
BRANCH   1  13
HETATM   13  C6  UNL     1      -0.492   5.718   0.000  1.00  0.00     0.116 A 
HETATM   14  N2  UNL     1       0.975   5.407   0.000  1.00  0.00    -0.205 NA
HETATM   15  C5  UNL     1       1.979   6.521   0.000  1.00  0.00     0.277 A 
HETATM   16  O1  UNL     1       1.515   7.948   0.000  1.00  0.00    -0.236 OA
HETATM   17  C26 UNL     1       0.471   7.609   0.000  1.00  0.00     0.002 A 
HETATM   18  C25 UNL     1      -0.956   7.145   0.000  1.00  0.00     0.108 A 
HETATM   19  C27 UNL     1      -2.382   6.681   0.000  1.00  0.00     0.021 C 
HETATM   20  C28 UNL     1      -1.419   8.572   0.000  1.00  0.00     0.021 C 
BRANCH  15  21
HETATM   21  N1  UNL     1       3.446   6.209   0.000  1.00  0.00    -0.235 NA
BRANCH  21  22
HETATM   22  C2  UNL     1       4.450   7.324   0.000  1.00  0.00     0.088 C 
HETATM   23  C1  UNL     1       5.564   6.320   0.000  1.00  0.00     0.025 C 
HETATM   24  C3  UNL     1       3.335   8.328   0.000  1.00  0.00     0.025 C 
HETATM   25  C4  UNL     1       5.453   8.439   0.000  1.00  0.00     0.025 C 
ENDBRANCH  21  22
ENDBRANCH  15  21
ENDBRANCH   1  13
BRANCH  12  26
HETATM   26  C16 UNL     1      -3.414   1.964   0.000  1.00  0.00     0.228 C 
HETATM   27  O4  UNL     1      -4.164   0.664   0.000  1.00  0.00    -0.168 OA
HETATM   28  N4  UNL     1      -4.164   3.263   0.000  1.00  0.00    -0.221 NA
BRANCH  28  29
HETATM   29  C17 UNL     1      -5.664   3.263   0.000  1.00  0.00     0.090 C 
BRANCH  29  30
HETATM   30  C18 UNL     1      -6.414   4.562   0.000  1.00  0.00     0.048 C 
BRANCH  30  31
HETATM   31  C19 UNL     1      -5.664   5.861   0.000  1.00  0.00     0.006 A 
HETATM   32  C20 UNL     1      -6.052   7.309   0.000  1.00  0.00     0.000 A 
HETATM   33  C21 UNL     1      -4.603   7.698   0.000  1.00  0.00     0.000 A 
HETATM   34  C22 UNL     1      -4.215   6.249   0.000  1.00  0.00     0.000 A 
ENDBRANCH  30  31
ENDBRANCH  29  30
BRANCH  29  35
HETATM   35  C23 UNL     1      -6.414   1.964   0.000  1.00  0.00     0.183 C 
HETATM   36  O5  UNL     1      -5.664   0.664   0.000  1.00  0.00    -0.186 OA
BRANCH  35  37
HETATM   37  C24 UNL     1      -7.914   1.964   0.000  1.00  0.00     0.227 C 
HETATM   38  O6  UNL     1      -8.664   0.664   0.000  1.00  0.00    -0.173 OA
HETATM   39  N5  UNL     1      -8.664   3.263   0.000  1.00  0.00    -0.069 NA
ENDBRANCH  35  37
ENDBRANCH  29  35
ENDBRANCH  28  29
ENDBRANCH  12  26
TORSDOF 9
