REMARK  13 active torsions:
REMARK  status: ('A' for Active; 'I' for Inactive)
REMARK       I    between atoms: C2_2  and  N1_4 
REMARK    1  A    between atoms: N1_4  and  C3_5 
REMARK    2  A    between atoms: C3_5  and  C4_6 
REMARK    3  A    between atoms: C3_5  and  C6_10 
REMARK    4  A    between atoms: C4_6  and  C5_7 
REMARK    5  A    between atoms: C7_13  and  C11_19 
REMARK    6  A    between atoms: C9_15  and  C10_16 
REMARK       I    between atoms: C11_19  and  N3_21 
REMARK    7  A    between atoms: N3_21  and  C12_22 
REMARK    8  A    between atoms: C13_23  and  C14_24 
REMARK    9  A    between atoms: C27_39  and  C28_40 
REMARK   10  A    between atoms: C28_40  and  C29_41 
REMARK   11  A    between atoms: C29_41  and  C30_42 
REMARK   12  A    between atoms: C41_59  and  C42_60 
REMARK   13  A    between atoms: C42_60  and  C43_61 
ROOT
HETATM    1  C12 UNL     1       3.000  -2.598   0.000  1.00  0.00     0.124 A 
HETATM    2  C13 UNL     1       1.500  -2.598   0.000  1.00  0.00     0.011 A 
HETATM    3  C20 UNL     1       0.750  -3.897   0.000  1.00  0.00     0.003 A 
HETATM    4  C21 UNL     1      -0.750  -3.897   0.000  1.00  0.00     0.029 A 
HETATM    5  C22 UNL     1      -1.500  -5.196   0.000  1.00  0.00     0.012 A 
HETATM    6  C23 UNL     1      -0.750  -6.495   0.000  1.00  0.00     0.054 A 
HETATM    7  C24 UNL     1       0.750  -6.495   0.000  1.00  0.00     0.102 A 
HETATM    8  C25 UNL     1       1.500  -5.196   0.000  1.00  0.00     0.116 A 
HETATM    9  C26 UNL     1       3.750  -3.897   0.000  1.00  0.00     0.200 A 
HETATM   10  O8  UNL     1       3.000  -5.196   0.000  1.00  0.00    -0.287 OA
HETATM   11  N4  UNL     1       5.250  -3.897   0.000  1.00  0.00    -0.222 NA
HETATM   12  C27 UNL     1       6.000  -5.196   0.000  1.00  0.00     0.105 A 
HETATM   13  C31 UNL     1       5.250  -6.495   0.000  1.00  0.00     0.226 A 
HETATM   14  O11 UNL     1       3.750  -6.495   0.000  1.00  0.00    -0.168 OA
HETATM   15  N5  UNL     1       6.000  -7.794   0.000  1.00  0.00    -0.220 NA
HETATM   16  C32 UNL     1       5.250  -9.093   0.000  1.00  0.00     0.108 A 
HETATM   17  C33 UNL     1       6.000 -10.392   0.000  1.00  0.00     0.073 A 
HETATM   18  C34 UNL     1       5.250 -11.691   0.000  1.00  0.00    -0.026 A 
HETATM   19  C35 UNL     1       3.750 -11.691   0.000  1.00  0.00     0.036 A 
HETATM   20  C36 UNL     1       3.000 -12.990   0.000  1.00  0.00     0.044 A 
HETATM   21  C37 UNL     1       3.750 -14.289   0.000  1.00  0.00     0.007 A 
HETATM   22  C38 UNL     1       5.250 -14.289   0.000  1.00  0.00     0.005 A 
HETATM   23  C39 UNL     1       6.000 -12.990   0.000  1.00  0.00     0.024 A 
HETATM   24  C40 UNL     1       3.750  -9.093   0.000  1.00  0.00     0.212 A 
HETATM   25  O12 UNL     1       3.000  -7.794   0.000  1.00  0.00    -0.169 OA
HETATM   26  N6  UNL     1       3.000 -10.392   0.000  1.00  0.00    -0.289 N 
HETATM   27  C41 UNL     1       1.500 -10.392   0.000  1.00  0.00     0.092 A 
HETATM   28  C45 UNL     1       0.750  -9.093   0.000  1.00  0.00     0.245 A 
HETATM   29  O13 UNL     1       1.500  -7.794   0.000  1.00  0.00    -0.285 OA
HETATM   30  O14 UNL     1      -0.750  -9.093   0.000  1.00  0.00    -0.162 OA
ENDROOT
BRANCH   1  31
HETATM   31  N3  UNL     1       3.750  -1.299   0.000  1.00  0.00    -0.215 NA
HETATM   32  C11 UNL     1       5.250  -1.299   0.000  1.00  0.00     0.227 C 
HETATM   33  O7  UNL     1       6.000  -2.598   0.000  1.00  0.00    -0.168 OA
BRANCH  32  34
HETATM   34  C7  UNL     1       6.000  -0.000   0.000  1.00  0.00     0.108 A 
HETATM   35  N2  UNL     1       5.250   1.299   0.000  1.00  0.00    -0.222 NA
HETATM   36  C6  UNL     1       6.000   2.598   0.000  1.00  0.00     0.193 A 
HETATM   37  O4  UNL     1       7.500   2.598   0.000  1.00  0.00    -0.305 OA
HETATM   38  C9  UNL     1       8.250   1.299   0.000  1.00  0.00     0.215 A 
HETATM   39  C8  UNL     1       7.500  -0.000   0.000  1.00  0.00     0.091 A 
BRANCH  36  40
HETATM   40  C3  UNL     1       5.250   3.897   0.000  1.00  0.00     0.112 C 
BRANCH  40  41
HETATM   41  N1  UNL     1       3.750   3.897   0.000  1.00  0.00    -0.224 NA
HETATM   42  C2  UNL     1       3.000   5.196   0.000  1.00  0.00     0.190 C 
HETATM   43  C1  UNL     1       1.500   5.196   0.000  1.00  0.00     0.083 C 
HETATM   44  O1  UNL     1       3.750   6.495   0.000  1.00  0.00    -0.174 OA
ENDBRANCH  40  41
BRANCH  40  45
HETATM   45  C4  UNL     1       6.000   5.196   0.000  1.00  0.00     0.147 C 
BRANCH  45  46
HETATM   46  C5  UNL     1       7.500   5.196   0.000  1.00  0.00     0.192 C 
HETATM   47  O2  UNL     1       8.250   3.897   0.000  1.00  0.00    -0.647 OA
HETATM   48  O3  UNL     1       8.250   6.495   0.000  1.00  0.00    -0.647 OA
ENDBRANCH  45  46
ENDBRANCH  40  45
ENDBRANCH  36  40
BRANCH  38  49
HETATM   49  C10 UNL     1       9.750   1.299   0.000  1.00  0.00     0.215 C 
HETATM   50  O5  UNL     1      10.500  -0.000   0.000  1.00  0.00    -0.646 OA
HETATM   51  O6  UNL     1      10.500   2.598   0.000  1.00  0.00    -0.646 OA
ENDBRANCH  38  49
ENDBRANCH  32  34
ENDBRANCH   1  31
BRANCH   2  52
HETATM   52  C14 UNL     1       0.750  -1.299   0.000  1.00  0.00    -0.043 A 
HETATM   53  C15 UNL     1       1.500   0.000   0.000  1.00  0.00     0.022 A 
HETATM   54  C16 UNL     1       0.750   1.299   0.000  1.00  0.00     0.004 A 
HETATM   55  C17 UNL     1      -0.750   1.299   0.000  1.00  0.00     0.001 A 
HETATM   56  C18 UNL     1      -1.500   0.000   0.000  1.00  0.00     0.004 A 
HETATM   57  C19 UNL     1      -0.750  -1.299   0.000  1.00  0.00     0.022 A 
ENDBRANCH   2  52
BRANCH  12  58
HETATM   58  C28 UNL     1       7.500  -5.196   0.000  1.00  0.00     0.061 C 
BRANCH  58  59
HETATM   59  C29 UNL     1       8.250  -6.495   0.000  1.00  0.00     0.104 C 
BRANCH  59  60
HETATM   60  C30 UNL     1       9.750  -6.495   0.000  1.00  0.00     0.186 C 
HETATM   61  O9  UNL     1      10.500  -5.196   0.000  1.00  0.00    -0.647 OA
HETATM   62  O10 UNL     1      10.500  -7.794   0.000  1.00  0.00    -0.647 OA
ENDBRANCH  59  60
ENDBRANCH  58  59
ENDBRANCH  12  58
BRANCH  27  63
HETATM   63  C42 UNL     1       0.750 -11.691   0.000  1.00  0.00     0.049 C 
BRANCH  63  64
HETATM   64  C43 UNL     1      -0.750 -11.691   0.000  1.00  0.00     0.006 C 
HETATM   65  C44 UNL     1      -1.500 -12.990   0.000  1.00  0.00     0.000 C 
ENDBRANCH  63  64
ENDBRANCH  27  63
TORSDOF 13
