REMARK  17 active torsions:
REMARK  status: ('A' for Active; 'I' for Inactive)
REMARK    1  A    between atoms: C2_2  and  C3_3 
REMARK    2  A    between atoms: C3_3  and  C4_4 
REMARK    3  A    between atoms: C4_4  and  N1_5 
REMARK    4  A    between atoms: C4_4  and  C37_47 
REMARK       I    between atoms: N1_5  and  C5_6 
REMARK    5  A    between atoms: C5_6  and  C6_8 
REMARK    6  A    between atoms: C8_10  and  O5_28 
REMARK       I    between atoms: N2_12  and  C10_13 
REMARK    7  A    between atoms: C10_13  and  C11_15 
REMARK    8  A    between atoms: C12_17  and  O4_19 
REMARK    9  A    between atoms: O4_19  and  C13_20 
REMARK   10  A    between atoms: O5_28  and  C21_29 
REMARK   11  A    between atoms: C23_31  and  C31_41 
REMARK   12  A    between atoms: C26_35  and  O6_36 
REMARK       I    between atoms: C37_47  and  N5_49 
REMARK   13  A    between atoms: N5_49  and  S1_50 
REMARK   14  A    between atoms: S1_50  and  C38_53 
REMARK   15  A    between atoms: C38_53  and  C39_54 
REMARK   16  A    between atoms: C39_54  and  C40_55 
REMARK   17  A    between atoms: C40_55  and  C41_56 
ROOT
HETATM    1  C6  UNL     1      -4.255  -6.271   0.000  1.00  0.00     0.085 A 
HETATM    2  C7  UNL     1      -3.140  -5.267   0.000  1.00  0.00     0.080 A 
HETATM    3  C8  UNL     1      -3.750  -3.897   0.000  1.00  0.00     0.149 A 
HETATM    4  C9  UNL     1      -5.242  -4.054   0.000  1.00  0.00     0.138 A 
HETATM    5  N2  UNL     1      -5.554  -5.521   0.000  1.00  0.00    -0.303 N 
HETATM    6  C10 UNL     1      -6.924  -6.131   0.000  1.00  0.00     0.209 C 
HETATM    7  O2  UNL     1      -7.081  -7.623   0.000  1.00  0.00    -0.170 OA
ENDROOT
BRANCH   3   8
HETATM    8  O5  UNL     1      -3.000  -2.598   0.000  1.00  0.00    -0.335 OA
BRANCH   8   9
HETATM    9  C21 UNL     1      -1.500  -2.598   0.000  1.00  0.00     0.075 A 
HETATM   10  C22 UNL     1      -0.750  -3.897   0.000  1.00  0.00     0.096 A 
HETATM   11  C23 UNL     1       0.750  -3.897   0.000  1.00  0.00     0.057 A 
HETATM   12  N4  UNL     1       1.500  -2.598   0.000  1.00  0.00    -0.255 NA
HETATM   13  C24 UNL     1       0.750  -1.299   0.000  1.00  0.00     0.059 A 
HETATM   14  C25 UNL     1       1.500   0.000   0.000  1.00  0.00     0.075 A 
HETATM   15  C30 UNL     1      -0.750  -1.299   0.000  1.00  0.00     0.010 A 
HETATM   16  C26 UNL     1       0.750   1.299   0.000  1.00  0.00     0.122 A 
HETATM   17  C28 UNL     1      -0.750   1.299   0.000  1.00  0.00     0.035 A 
HETATM   18  C29 UNL     1      -1.500   0.000   0.000  1.00  0.00     0.032 A 
BRANCH  11  19
HETATM   19  C31 UNL     1       1.500  -5.196   0.000  1.00  0.00    -0.030 A 
HETATM   20  C32 UNL     1       0.750  -6.495   0.000  1.00  0.00     0.023 A 
HETATM   21  C33 UNL     1       1.500  -7.794   0.000  1.00  0.00     0.004 A 
HETATM   22  C34 UNL     1       3.000  -7.794   0.000  1.00  0.00     0.001 A 
HETATM   23  C35 UNL     1       3.750  -6.495   0.000  1.00  0.00     0.004 A 
HETATM   24  C36 UNL     1       3.000  -5.196   0.000  1.00  0.00     0.023 A 
ENDBRANCH  11  19
BRANCH  16  25
HETATM   25  O6  UNL     1       1.500   2.598   0.000  1.00  0.00    -0.354 OA
HETATM   26  C27 UNL     1       3.000   2.598   0.000  1.00  0.00     0.174 C 
ENDBRANCH  16  25
ENDBRANCH   8   9
ENDBRANCH   3   8
BRANCH   1  27
HETATM   27  C5  UNL     1      -4.098  -7.763   0.000  1.00  0.00     0.224 C 
HETATM   28  N1  UNL     1      -5.311  -8.645   0.000  1.00  0.00    -0.220 NA
HETATM   29  O1  UNL     1      -2.728  -8.373   0.000  1.00  0.00    -0.168 OA
BRANCH  28  30
HETATM   30  C4  UNL     1      -5.155 -10.136   0.000  1.00  0.00     0.105 C 
BRANCH  30  31
HETATM   31  C3  UNL     1      -6.368 -11.018   0.000  1.00  0.00     0.050 C 
BRANCH  31  32
HETATM   32  C2  UNL     1      -6.211 -12.510   0.000  1.00  0.00     0.006 C 
HETATM   33  C1  UNL     1      -7.425 -13.392   0.000  1.00  0.00     0.000 C 
ENDBRANCH  31  32
ENDBRANCH  30  31
BRANCH  30  34
HETATM   34  C37 UNL     1      -3.784 -10.746   0.000  1.00  0.00     0.237 C 
HETATM   35  O7  UNL     1      -2.571  -9.865   0.000  1.00  0.00    -0.167 OA
HETATM   36  N5  UNL     1      -3.627 -12.238   0.000  1.00  0.00    -0.133 NA
BRANCH  36  37
HETATM   37  S1  UNL     1      -2.257 -12.848   0.000  1.00  0.00     0.267 S 
HETATM   38  O8  UNL     1      -1.647 -11.478   0.000  1.00  0.00    -0.203 OA
HETATM   39  O9  UNL     1      -2.867 -14.219   0.000  1.00  0.00    -0.203 OA
BRANCH  37  40
HETATM   40  C38 UNL     1      -0.887 -13.459   0.000  1.00  0.00     0.146 C 
BRANCH  40  41
HETATM   41  C39 UNL     1       0.327 -12.577   0.000  1.00  0.00     0.019 C 
BRANCH  41  42
HETATM   42  C40 UNL     1       1.697 -13.187   0.000  1.00  0.00     0.001 C 
BRANCH  42  43
HETATM   43  C41 UNL     1       2.911 -12.305   0.000  1.00  0.00     0.000 C 
HETATM   44  C42 UNL     1       4.281 -12.915   0.000  1.00  0.00     0.000 C 
ENDBRANCH  42  43
ENDBRANCH  41  42
ENDBRANCH  40  41
ENDBRANCH  37  40
ENDBRANCH  36  37
ENDBRANCH  30  34
ENDBRANCH  28  30
ENDBRANCH   1  27
BRANCH   6  45
HETATM   45  C11 UNL     1      -8.137  -5.250   0.000  1.00  0.00     0.117 A 
HETATM   46  N3  UNL     1      -7.981  -3.758   0.000  1.00  0.00    -0.200 NA
HETATM   47  C12 UNL     1      -9.194  -2.876   0.000  1.00  0.00     0.301 A 
HETATM   48  O3  UNL     1     -10.565  -3.486   0.000  1.00  0.00    -0.231 OA
HETATM   49  C18 UNL     1     -10.118  -4.489   0.000  1.00  0.00     0.003 A 
HETATM   50  C17 UNL     1      -9.508  -5.860   0.000  1.00  0.00     0.108 A 
HETATM   51  C19 UNL     1      -8.898  -7.230   0.000  1.00  0.00     0.021 C 
HETATM   52  C20 UNL     1     -10.878  -6.470   0.000  1.00  0.00     0.021 C 
BRANCH  47  53
HETATM   53  O4  UNL     1      -9.037  -1.384   0.000  1.00  0.00    -0.300 OA
BRANCH  53  54
HETATM   54  C13 UNL     1     -10.251  -0.503   0.000  1.00  0.00     0.102 C 
HETATM   55  C14 UNL     1      -9.369   0.711   0.000  1.00  0.00     0.030 C 
HETATM   56  C15 UNL     1     -11.133  -1.716   0.000  1.00  0.00     0.030 C 
HETATM   57  C16 UNL     1     -11.464   0.379   0.000  1.00  0.00     0.030 C 
ENDBRANCH  53  54
ENDBRANCH  47  53
ENDBRANCH   6  45
TORSDOF 17
