REMARK  4 active torsions:
REMARK  status: ('A' for Active; 'I' for Inactive)
REMARK    1  A    between atoms: C6_7  and  C7_8 
REMARK    2  A    between atoms: C7_8  and  C8_9 
REMARK    3  A    between atoms: C12_14  and  C16_19 
REMARK       I    between atoms: C16_19  and  N4_21 
REMARK    4  A    between atoms: N4_21  and  C17_22 
ROOT
HETATM    1  C8  UNL     1      -4.423   4.054   0.000  1.00  0.00     0.124 A 
HETATM    2  N2  UNL     1      -3.209   4.935   0.000  1.00  0.00    -0.236 NA
HETATM    3  C9  UNL     1      -3.673   6.362   0.000  1.00  0.00     0.073 A 
HETATM    4  C10 UNL     1      -2.923   7.661   0.000  1.00  0.00     0.051 A 
HETATM    5  C11 UNL     1      -3.673   8.960   0.000  1.00  0.00     0.032 A 
HETATM    6  C12 UNL     1      -5.173   8.960   0.000  1.00  0.00     0.006 A 
HETATM    7  C13 UNL     1      -5.923   7.661   0.000  1.00  0.00     0.071 A 
HETATM    8  C14 UNL     1      -5.173   6.362   0.000  1.00  0.00     0.056 A 
HETATM    9  N3  UNL     1      -5.637   4.935   0.000  1.00  0.00    -0.317 N 
HETATM   10  C15 UNL     1      -7.063   4.472   0.000  1.00  0.00     0.132 C 
ENDROOT
BRANCH   6  11
HETATM   11  C16 UNL     1      -5.923  10.259   0.000  1.00  0.00     0.205 C 
HETATM   12  O1  UNL     1      -7.423  10.259   0.000  1.00  0.00    -0.170 OA
HETATM   13  N4  UNL     1      -5.173  11.558   0.000  1.00  0.00    -0.220 NA
BRANCH  13  14
HETATM   14  C17 UNL     1      -5.923  12.857   0.000  1.00  0.00     0.126 A 
HETATM   15  C18 UNL     1      -5.173  14.156   0.000  1.00  0.00     0.171 A 
HETATM   16  P1  UNL     1      -5.923  15.455   0.000  1.00  0.00     0.299 P 
HETATM   17  O2  UNL     1      -6.673  16.754   0.000  1.00  0.00    -0.644 OA
HETATM   18  O3  UNL     1      -4.624  16.205   0.000  1.00  0.00    -0.644 OA
HETATM   19  O4  UNL     1      -7.222  14.705   0.000  1.00  0.00    -0.140 OA
HETATM   20  O5  UNL     1      -8.173  14.156   0.000  1.00  0.00    -0.158 OA
HETATM   21  C19 UNL     1      -7.423  12.857   0.000  1.00  0.00     0.275 A 
HETATM   22  O6  UNL     1      -8.173  11.558   0.000  1.00  0.00    -0.159 OA
ENDBRANCH  13  14
ENDBRANCH   6  11
BRANCH   1  23
HETATM   23  C7  UNL     1      -4.423   2.554   0.000  1.00  0.00     0.113 C 
BRANCH  23  24
HETATM   24  C6  UNL     1      -3.124   1.804   0.000  1.00  0.00     0.212 A 
HETATM   25  N1  UNL     1      -2.967   0.312   0.000  1.00  0.00    -0.251 NA
HETATM   26  C5  UNL     1      -1.500   0.000   0.000  1.00  0.00     0.069 A 
HETATM   27  C4  UNL     1      -0.750  -1.299   0.000  1.00  0.00     0.047 A 
HETATM   28  C20 UNL     1      -0.750   1.299   0.000  1.00  0.00     0.069 A 
HETATM   29  C3  UNL     1       0.750  -1.299   0.000  1.00  0.00     0.007 A 
HETATM   30  C2  UNL     1       1.500   0.000   0.000  1.00  0.00     0.006 A 
HETATM   31  C1  UNL     1       3.000   0.000   0.000  1.00  0.00     0.000 C 
HETATM   32  C21 UNL     1       0.750   1.299   0.000  1.00  0.00     0.047 A 
HETATM   33  N5  UNL     1      -1.754   2.414   0.000  1.00  0.00    -0.251 NA
ENDBRANCH  23  24
ENDBRANCH   1  23
TORSDOF 4
