REMARK  11 active torsions:
REMARK  status: ('A' for Active; 'I' for Inactive)
REMARK    1  A    between atoms: O1_2  and  C2_3 
REMARK    2  A    between atoms: C4_5  and  O2_6 
REMARK    3  A    between atoms: O2_6  and  C5_7 
REMARK    4  A    between atoms: C8_10  and  C11_13 
REMARK    5  A    between atoms: C24_31  and  N3_33 
REMARK    6  A    between atoms: N3_33  and  S1_34 
REMARK    7  A    between atoms: S1_34  and  C25_37 
REMARK    8  A    between atoms: C25_37  and  C26_38 
REMARK    9  A    between atoms: C26_38  and  C27_39 
REMARK   10  A    between atoms: C27_39  and  C28_40 
REMARK   11  A    between atoms: C30_43  and  C31_45 
ROOT
HETATM    1  C11 UNL     1      -7.500  -2.598   0.000  1.00  0.00     0.121 C 
HETATM    2  N1  UNL     1      -8.250  -3.897   0.000  1.00  0.00    -0.196 NA
HETATM    3  C12 UNL     1      -9.750  -3.897   0.000  1.00  0.00     0.320 C 
HETATM    4  O3  UNL     1     -10.500  -2.598   0.000  1.00  0.00    -0.141 OA
HETATM    5  O4  UNL     1     -10.500  -5.196   0.000  1.00  0.00    -0.285 OA
HETATM    6  C13 UNL     1     -12.000  -5.196   0.000  1.00  0.00     0.170 C 
HETATM    7  C14 UNL     1     -12.000  -6.696   0.000  1.00  0.00     0.045 C 
HETATM    8  C15 UNL     1     -12.000  -3.696   0.000  1.00  0.00     0.024 C 
HETATM    9  C16 UNL     1     -13.500  -5.196   0.000  1.00  0.00     0.045 C 
HETATM   10  C17 UNL     1      -8.250  -1.299   0.000  1.00  0.00     0.230 C 
HETATM   11  O5  UNL     1      -7.500   0.000   0.000  1.00  0.00    -0.168 OA
HETATM   12  N2  UNL     1      -9.750  -1.299   0.000  1.00  0.00    -0.223 NA
HETATM   13  C18 UNL     1     -10.500   0.000   0.000  1.00  0.00     0.061 A 
HETATM   14  C19 UNL     1      -9.750   1.299   0.000  1.00  0.00     0.046 A 
HETATM   15  C20 UNL     1     -10.500   2.598   0.000  1.00  0.00     0.007 A 
HETATM   16  C21 UNL     1     -12.000   2.598   0.000  1.00  0.00     0.005 A 
HETATM   17  C22 UNL     1     -12.750   1.299   0.000  1.00  0.00     0.031 A 
HETATM   18  C23 UNL     1     -12.000   0.000   0.000  1.00  0.00     0.034 A 
HETATM   19  C24 UNL     1     -12.750  -1.299   0.000  1.00  0.00     0.199 C 
HETATM   20  O6  UNL     1     -12.000  -2.598   0.000  1.00  0.00    -0.249 OA
ENDROOT
BRANCH   1  21
HETATM   21  C8  UNL     1      -6.000  -2.598   0.000  1.00  0.00    -0.023 A 
HETATM   22  C7  UNL     1      -5.250  -1.299   0.000  1.00  0.00     0.026 A 
HETATM   23  C6  UNL     1      -3.750  -1.299   0.000  1.00  0.00     0.035 A 
HETATM   24  C5  UNL     1      -3.000  -2.598   0.000  1.00  0.00     0.123 A 
HETATM   25  C10 UNL     1      -3.750  -3.897   0.000  1.00  0.00     0.035 A 
HETATM   26  C9  UNL     1      -5.250  -3.897   0.000  1.00  0.00     0.026 A 
BRANCH  24  27
HETATM   27  O2  UNL     1      -1.500  -2.598   0.000  1.00  0.00    -0.320 OA
BRANCH  27  28
HETATM   28  C4  UNL     1      -0.750  -1.299   0.000  1.00  0.00     0.164 A 
HETATM   29  C3  UNL     1       0.750  -1.299   0.000  1.00  0.00     0.142 A 
HETATM   30  C2  UNL     1       1.500   0.000   0.000  1.00  0.00     0.164 A 
HETATM   31  N5  UNL     1       0.750   1.299   0.000  1.00  0.00    -0.208 NA
HETATM   32  C30 UNL     1      -0.750   1.299   0.000  1.00  0.00     0.158 A 
HETATM   33  N4  UNL     1      -1.500   0.000   0.000  1.00  0.00    -0.208 NA
BRANCH  30  34
HETATM   34  O1  UNL     1       3.000   0.000   0.000  1.00  0.00    -0.315 OA
HETATM   35  C1  UNL     1       3.750  -1.299   0.000  1.00  0.00     0.183 C 
ENDBRANCH  30  34
BRANCH  32  36
HETATM   36  C31 UNL     1      -1.500   2.598   0.000  1.00  0.00    -0.008 A 
HETATM   37  C32 UNL     1      -0.750   3.897   0.000  1.00  0.00     0.025 A 
HETATM   38  C33 UNL     1      -1.500   5.196   0.000  1.00  0.00     0.004 A 
HETATM   39  C34 UNL     1      -3.000   5.196   0.000  1.00  0.00     0.001 A 
HETATM   40  C35 UNL     1      -3.750   3.897   0.000  1.00  0.00     0.004 A 
HETATM   41  C36 UNL     1      -3.000   2.598   0.000  1.00  0.00     0.025 A 
ENDBRANCH  32  36
ENDBRANCH  27  28
ENDBRANCH  24  27
ENDBRANCH   1  21
BRANCH  19  42
HETATM   42  N3  UNL     1     -14.250  -1.299   0.000  1.00  0.00    -0.137 NA
BRANCH  42  43
HETATM   43  S1  UNL     1     -15.000  -2.598   0.000  1.00  0.00     0.266 S 
HETATM   44  O7  UNL     1     -13.701  -3.348   0.000  1.00  0.00    -0.203 OA
HETATM   45  O8  UNL     1     -16.299  -1.848   0.000  1.00  0.00    -0.203 OA
BRANCH  43  46
HETATM   46  C25 UNL     1     -15.750  -3.897   0.000  1.00  0.00     0.146 C 
BRANCH  46  47
HETATM   47  C26 UNL     1     -17.250  -3.897   0.000  1.00  0.00     0.019 C 
BRANCH  47  48
HETATM   48  C27 UNL     1     -18.000  -5.196   0.000  1.00  0.00     0.001 C 
BRANCH  48  49
HETATM   49  C28 UNL     1     -19.500  -5.196   0.000  1.00  0.00     0.000 C 
HETATM   50  C29 UNL     1     -20.250  -6.495   0.000  1.00  0.00     0.000 C 
ENDBRANCH  48  49
ENDBRANCH  47  48
ENDBRANCH  46  47
ENDBRANCH  43  46
ENDBRANCH  42  43
ENDBRANCH  19  42
TORSDOF 11
