REMARK  6 active torsions:
REMARK  status: ('A' for Active; 'I' for Inactive)
REMARK    1  A    between atoms: C2_2  and  O1_5 
REMARK    2  A    between atoms: O1_5  and  C5_6 
REMARK    3  A    between atoms: C6_9  and  C7_10 
REMARK       I    between atoms: C7_10  and  N2_12 
REMARK    4  A    between atoms: N2_12  and  C8_13 
REMARK    5  A    between atoms: C29_42  and  C30_43 
REMARK    6  A    between atoms: C31_45  and  C32_47 
ROOT
HETATM    1  C8  UNL     1       4.358  -3.759   0.000  1.00  0.00     0.117 A 
HETATM    2  C9  UNL     1       3.423  -2.586   0.000  1.00  0.00     0.275 A 
HETATM    3  O4  UNL     1       4.443  -1.487   0.000  1.00  0.00    -0.154 OA
HETATM    4  N3  UNL     1       2.183  -1.741   0.000  1.00  0.00    -0.379 NA
HETATM    5  C10 UNL     1       0.750  -1.299   0.000  1.00  0.00     0.118 A 
HETATM    6  C11 UNL     1       1.500   0.000   0.000  1.00  0.00     0.060 A 
HETATM    7  C12 UNL     1       0.750   1.299   0.000  1.00  0.00     0.014 A 
HETATM    8  C13 UNL     1      -0.750   1.299   0.000  1.00  0.00     0.052 A 
HETATM    9  C14 UNL     1      -1.500   0.000   0.000  1.00  0.00     0.087 A 
HETATM   10  C15 UNL     1      -0.750  -1.299   0.000  1.00  0.00     0.099 A 
HETATM   11  C16 UNL     1      -2.183  -1.741   0.000  1.00  0.00     0.252 A 
HETATM   12  O5  UNL     1      -2.834  -0.390   0.000  1.00  0.00    -0.283 OA
HETATM   13  N4  UNL     1      -3.423  -2.586   0.000  1.00  0.00    -0.285 NA
HETATM   14  S1  UNL     1      -4.358  -3.759   0.000  1.00  0.00     0.368 S 
HETATM   15  O6  UNL     1      -5.856  -3.834   0.000  1.00  0.00    -0.177 OA
HETATM   16  O7  UNL     1      -5.042  -2.424   0.000  1.00  0.00    -0.177 OA
HETATM   17  C17 UNL     1      -4.906  -5.155   0.000  1.00  0.00     0.076 A 
HETATM   18  C18 UNL     1      -5.018  -6.651   0.000  1.00  0.00     0.005 A 
HETATM   19  C19 UNL     1      -4.684  -8.113   0.000  1.00  0.00    -0.000 A 
HETATM   20  C20 UNL     1      -3.934  -9.412   0.000  1.00  0.00    -0.006 A 
HETATM   21  C21 UNL     1      -2.835 -10.433   0.000  1.00  0.00    -0.024 A 
HETATM   22  C22 UNL     1      -1.483 -11.084   0.000  1.00  0.00     0.163 A 
HETATM   23  C23 UNL     1      -0.000 -11.307   0.000  1.00  0.00    -0.030 A 
HETATM   24  C24 UNL     1       1.483 -11.084   0.000  1.00  0.00     0.219 A 
HETATM   25  O8  UNL     1       2.835 -10.433   0.000  1.00  0.00    -0.311 OA
HETATM   26  C25 UNL     1       3.934  -9.412   0.000  1.00  0.00     0.124 A 
HETATM   27  C26 UNL     1       4.684  -8.113   0.000  1.00  0.00     0.031 A 
HETATM   28  C27 UNL     1       5.018  -6.651   0.000  1.00  0.00     0.009 A 
HETATM   29  C28 UNL     1       4.906  -5.155   0.000  1.00  0.00     0.045 A 
HETATM   30  C29 UNL     1       4.156  -6.454   0.000  1.00  0.00     0.009 A 
HETATM   31  C30 UNL     1       3.822  -7.917   0.000  1.00  0.00     0.031 A 
HETATM   32  N5  UNL     1       1.115 -12.584   0.000  1.00  0.00    -0.197 NA
HETATM   33  C31 UNL     1      -0.184 -13.334   0.000  1.00  0.00     0.159 A 
HETATM   34  N6  UNL     1      -1.483 -12.584   0.000  1.00  0.00    -0.211 NA
ENDROOT
BRANCH   1  35
HETATM   35  N2  UNL     1       5.657  -3.009   0.000  1.00  0.00    -0.219 NA
HETATM   36  C7  UNL     1       6.956  -3.759   0.000  1.00  0.00     0.227 C 
HETATM   37  O3  UNL     1       6.956  -5.259   0.000  1.00  0.00    -0.168 OA
BRANCH  36  38
HETATM   38  C6  UNL     1       8.255  -3.009   0.000  1.00  0.00     0.118 A 
HETATM   39  N1  UNL     1       8.255  -1.509   0.000  1.00  0.00    -0.200 NA
HETATM   40  C5  UNL     1       9.554  -0.759   0.000  1.00  0.00     0.301 A 
HETATM   41  O2  UNL     1      10.853  -1.509   0.000  1.00  0.00    -0.231 OA
HETATM   42  C39 UNL     1      10.304  -2.460   0.000  1.00  0.00     0.003 A 
HETATM   43  C38 UNL     1       9.554  -3.759   0.000  1.00  0.00     0.108 A 
HETATM   44  C40 UNL     1       8.804  -5.058   0.000  1.00  0.00     0.021 C 
HETATM   45  C41 UNL     1      10.853  -4.509   0.000  1.00  0.00     0.021 C 
BRANCH  40  46
HETATM   46  O1  UNL     1       9.554   0.741   0.000  1.00  0.00    -0.300 OA
BRANCH  46  47
HETATM   47  C2  UNL     1      10.853   1.491   0.000  1.00  0.00     0.102 C 
HETATM   48  C1  UNL     1      10.103   2.790   0.000  1.00  0.00     0.030 C 
HETATM   49  C3  UNL     1      11.603   0.192   0.000  1.00  0.00     0.030 C 
HETATM   50  C4  UNL     1      12.152   2.241   0.000  1.00  0.00     0.030 C 
ENDBRANCH  46  47
ENDBRANCH  40  46
ENDBRANCH  36  38
ENDBRANCH   1  35
BRANCH  33  51
HETATM   51  C32 UNL     1      -0.184 -14.834   0.000  1.00  0.00    -0.008 A 
HETATM   52  C33 UNL     1      -1.483 -15.584   0.000  1.00  0.00     0.025 A 
HETATM   53  C34 UNL     1      -1.483 -17.084   0.000  1.00  0.00     0.004 A 
HETATM   54  C35 UNL     1      -0.184 -17.834   0.000  1.00  0.00     0.001 A 
HETATM   55  C36 UNL     1       1.115 -17.084   0.000  1.00  0.00     0.004 A 
HETATM   56  C37 UNL     1       1.115 -15.584   0.000  1.00  0.00     0.025 A 
ENDBRANCH  33  51
TORSDOF 6
