REMARK  4 active torsions:
REMARK  status: ('A' for Active; 'I' for Inactive)
REMARK    1  A    between atoms: O1_2  and  C2_3 
REMARK    2  A    between atoms: C6_7  and  O2_8 
REMARK    3  A    between atoms: O2_8  and  C7_9 
REMARK    4  A    between atoms: C20_25  and  C22_29 
ROOT
HETATM    1  C7  UNL     1      -4.964  -5.454   0.000  1.00  0.00     0.152 A 
HETATM    2  C8  UNL     1      -3.584  -4.864   0.000  1.00  0.00     0.080 A 
HETATM    3  C9  UNL     1      -3.719  -3.370   0.000  1.00  0.00     0.087 A 
HETATM    4  N1  UNL     1      -5.181  -3.037   0.000  1.00  0.00    -0.285 N 
HETATM    5  C10 UNL     1      -5.951  -4.324   0.000  1.00  0.00     0.140 A 
HETATM    6  C11 UNL     1      -6.354  -2.102   0.000  1.00  0.00     0.304 A 
HETATM    7  O3  UNL     1      -7.527  -3.037   0.000  1.00  0.00    -0.142 OA
HETATM    8  O4  UNL     1      -7.005  -0.750   0.000  1.00  0.00    -0.268 OA
HETATM    9  C12 UNL     1      -7.005   0.750   0.000  1.00  0.00     0.126 A 
HETATM   10  C13 UNL     1      -6.354   2.102   0.000  1.00  0.00     0.027 A 
HETATM   11  C14 UNL     1      -5.181   3.037   0.000  1.00  0.00     0.002 A 
HETATM   12  C15 UNL     1      -3.719   3.370   0.000  1.00  0.00     0.000 A 
HETATM   13  C16 UNL     1      -2.257   3.037   0.000  1.00  0.00    -0.001 A 
HETATM   14  C17 UNL     1      -1.084   2.102   0.000  1.00  0.00    -0.006 A 
HETATM   15  C18 UNL     1      -0.433   0.750   0.000  1.00  0.00    -0.011 A 
HETATM   16  C19 UNL     1       0.866   0.000   0.000  1.00  0.00     0.061 A 
HETATM   17  C20 UNL     1      -0.433  -0.750   0.000  1.00  0.00     0.183 A 
HETATM   18  N2  UNL     1      -1.084  -2.102   0.000  1.00  0.00    -0.234 NA
HETATM   19  C21 UNL     1      -2.257  -3.037   0.000  1.00  0.00     0.221 A 
HETATM   20  O5  UNL     1      -1.606  -4.388   0.000  1.00  0.00    -0.168 OA
ENDROOT
BRANCH   1  21
HETATM   21  O2  UNL     1      -5.298  -6.916   0.000  1.00  0.00    -0.315 OA
BRANCH  21  22
HETATM   22  C6  UNL     1      -6.731  -7.359   0.000  1.00  0.00     0.174 A 
HETATM   23  C5  UNL     1      -7.065  -8.821   0.000  1.00  0.00     0.011 A 
HETATM   24  C4  UNL     1      -5.965  -9.841   0.000  1.00  0.00     0.032 A 
HETATM   25  C25 UNL     1      -8.498  -9.263   0.000  1.00  0.00    -0.035 A 
HETATM   26  C3  UNL     1      -6.299 -11.303   0.000  1.00  0.00     0.035 A 
HETATM   27  C2  UNL     1      -7.732 -11.746   0.000  1.00  0.00     0.120 A 
HETATM   28  C26 UNL     1      -8.832 -10.725   0.000  1.00  0.00     0.052 A 
HETATM   29  C24 UNL     1      -9.598  -8.243   0.000  1.00  0.00     0.080 A 
HETATM   30  C23 UNL     1      -9.264  -6.780   0.000  1.00  0.00     0.122 A 
HETATM   31  N3  UNL     1      -7.830  -6.338   0.000  1.00  0.00    -0.215 NA
HETATM   32 CL1  UNL     1     -10.364  -5.760   0.000  1.00  0.00    -0.066 Cl
BRANCH  27  33
HETATM   33  O1  UNL     1      -8.066 -13.208   0.000  1.00  0.00    -0.354 OA
HETATM   34  C1  UNL     1      -9.499 -13.650   0.000  1.00  0.00     0.174 C 
ENDBRANCH  27  33
ENDBRANCH  21  22
ENDBRANCH   1  21
BRANCH  17  35
HETATM   35  C22 UNL     1       0.667  -1.770   0.000  1.00  0.00     0.210 C 
HETATM   36  O6  UNL     1       0.333  -3.233   0.000  1.00  0.00    -0.646 OA
HETATM   37  O7  UNL     1       2.100  -1.328   0.000  1.00  0.00    -0.646 OA
ENDBRANCH  17  35
TORSDOF 4
