REMARK  13 active torsions:
REMARK  status: ('A' for Active; 'I' for Inactive)
REMARK       I    between atoms: C2_2  and  N1_4 
REMARK    1  A    between atoms: N1_4  and  C3_5 
REMARK    2  A    between atoms: C3_5  and  C4_6 
REMARK    3  A    between atoms: C3_5  and  C6_10 
REMARK    4  A    between atoms: C4_6  and  C5_7 
REMARK    5  A    between atoms: C7_13  and  C11_19 
REMARK    6  A    between atoms: C9_15  and  C10_16 
REMARK       I    between atoms: C11_19  and  N3_21 
REMARK    7  A    between atoms: N3_21  and  C12_22 
REMARK    8  A    between atoms: C13_23  and  C14_24 
REMARK    9  A    between atoms: C41_59  and  C42_60 
REMARK   10  A    between atoms: C42_60  and  C43_61 
REMARK   11  A    between atoms: C45_66  and  N7_68 
REMARK   12  A    between atoms: N7_68  and  C46_69 
REMARK   13  A    between atoms: C46_69  and  C47_70 
ROOT
HETATM    1  C12 UNL     1       3.000  -2.598   0.000  1.00  0.00     0.124 A 
HETATM    2  C13 UNL     1       1.500  -2.598   0.000  1.00  0.00     0.011 A 
HETATM    3  C20 UNL     1       0.750  -3.897   0.000  1.00  0.00     0.004 A 
HETATM    4  C21 UNL     1      -0.750  -3.897   0.000  1.00  0.00     0.035 A 
HETATM    5  C22 UNL     1      -1.500  -5.196   0.000  1.00  0.00     0.059 A 
HETATM    6  C23 UNL     1      -0.750  -6.495   0.000  1.00  0.00     0.104 A 
HETATM    7  C24 UNL     1       0.750  -6.495   0.000  1.00  0.00     0.141 A 
HETATM    8  C25 UNL     1       1.500  -5.196   0.000  1.00  0.00     0.122 A 
HETATM    9  C26 UNL     1       3.750  -3.897   0.000  1.00  0.00     0.200 A 
HETATM   10  O8  UNL     1       3.000  -5.196   0.000  1.00  0.00    -0.286 OA
HETATM   11  N4  UNL     1       5.250  -3.897   0.000  1.00  0.00    -0.222 NA
HETATM   12  C27 UNL     1       6.000  -5.196   0.000  1.00  0.00     0.105 A 
HETATM   13  C28 UNL     1       7.500  -5.196   0.000  1.00  0.00     0.055 A 
HETATM   14  C29 UNL     1       8.250  -6.495   0.000  1.00  0.00     0.071 A 
HETATM   15  C30 UNL     1       9.750  -6.495   0.000  1.00  0.00     0.270 A 
HETATM   16  O9  UNL     1      10.500  -5.196   0.000  1.00  0.00    -0.190 OA
HETATM   17  O10 UNL     1      10.500  -7.794   0.000  1.00  0.00    -0.332 OA
HETATM   18  C31 UNL     1       5.250  -6.495   0.000  1.00  0.00     0.226 A 
HETATM   19  O11 UNL     1       3.750  -6.495   0.000  1.00  0.00    -0.168 OA
HETATM   20  N5  UNL     1       6.000  -7.794   0.000  1.00  0.00    -0.220 NA
HETATM   21  C32 UNL     1       5.250  -9.093   0.000  1.00  0.00     0.105 A 
HETATM   22  C33 UNL     1       6.000 -10.392   0.000  1.00  0.00     0.050 A 
HETATM   23  C34 UNL     1       7.500 -10.392   0.000  1.00  0.00     0.009 A 
HETATM   24  C35 UNL     1       8.250  -9.093   0.000  1.00  0.00     0.030 A 
HETATM   25  C36 UNL     1       9.750  -9.093   0.000  1.00  0.00     0.118 A 
HETATM   26  C37 UNL     1      10.500 -10.392   0.000  1.00  0.00     0.030 A 
HETATM   27  C38 UNL     1       9.750 -11.691   0.000  1.00  0.00     0.003 A 
HETATM   28  C39 UNL     1       8.250 -11.691   0.000  1.00  0.00     0.001 A 
HETATM   29  C40 UNL     1       3.750  -9.093   0.000  1.00  0.00     0.226 A 
HETATM   30  O12 UNL     1       3.000  -7.794   0.000  1.00  0.00    -0.168 OA
HETATM   31  N6  UNL     1       3.000 -10.392   0.000  1.00  0.00    -0.221 NA
HETATM   32  C41 UNL     1       1.500 -10.392   0.000  1.00  0.00     0.097 A 
HETATM   33  C44 UNL     1       0.750  -9.093   0.000  1.00  0.00     0.155 A 
HETATM   34  O13 UNL     1       1.500  -7.794   0.000  1.00  0.00    -0.299 OA
HETATM   35  C45 UNL     1      -0.750  -9.093   0.000  1.00  0.00     0.202 A 
HETATM   36  O14 UNL     1      -1.500  -7.794   0.000  1.00  0.00    -0.290 OA
ENDROOT
BRANCH   1  37
HETATM   37  N3  UNL     1       3.750  -1.299   0.000  1.00  0.00    -0.215 NA
HETATM   38  C11 UNL     1       5.250  -1.299   0.000  1.00  0.00     0.227 C 
HETATM   39  O7  UNL     1       6.000  -2.598   0.000  1.00  0.00    -0.168 OA
BRANCH  38  40
HETATM   40  C7  UNL     1       6.000  -0.000   0.000  1.00  0.00     0.108 A 
HETATM   41  N2  UNL     1       5.250   1.299   0.000  1.00  0.00    -0.222 NA
HETATM   42  C6  UNL     1       6.000   2.598   0.000  1.00  0.00     0.193 A 
HETATM   43  O4  UNL     1       7.500   2.598   0.000  1.00  0.00    -0.305 OA
HETATM   44  C9  UNL     1       8.250   1.299   0.000  1.00  0.00     0.215 A 
HETATM   45  C8  UNL     1       7.500  -0.000   0.000  1.00  0.00     0.091 A 
BRANCH  42  46
HETATM   46  C3  UNL     1       5.250   3.897   0.000  1.00  0.00     0.112 C 
BRANCH  46  47
HETATM   47  N1  UNL     1       3.750   3.897   0.000  1.00  0.00    -0.224 NA
HETATM   48  C2  UNL     1       3.000   5.196   0.000  1.00  0.00     0.190 C 
HETATM   49  C1  UNL     1       1.500   5.196   0.000  1.00  0.00     0.083 C 
HETATM   50  O1  UNL     1       3.750   6.495   0.000  1.00  0.00    -0.174 OA
ENDBRANCH  46  47
BRANCH  46  51
HETATM   51  C4  UNL     1       6.000   5.196   0.000  1.00  0.00     0.147 C 
BRANCH  51  52
HETATM   52  C5  UNL     1       7.500   5.196   0.000  1.00  0.00     0.192 C 
HETATM   53  O2  UNL     1       8.250   3.897   0.000  1.00  0.00    -0.647 OA
HETATM   54  O3  UNL     1       8.250   6.495   0.000  1.00  0.00    -0.647 OA
ENDBRANCH  51  52
ENDBRANCH  46  51
ENDBRANCH  42  46
BRANCH  44  55
HETATM   55  C10 UNL     1       9.750   1.299   0.000  1.00  0.00     0.215 C 
HETATM   56  O5  UNL     1      10.500  -0.000   0.000  1.00  0.00    -0.646 OA
HETATM   57  O6  UNL     1      10.500   2.598   0.000  1.00  0.00    -0.646 OA
ENDBRANCH  44  55
ENDBRANCH  38  40
ENDBRANCH   1  37
BRANCH   2  58
HETATM   58  C14 UNL     1       0.750  -1.299   0.000  1.00  0.00    -0.043 A 
HETATM   59  C15 UNL     1       1.500   0.000   0.000  1.00  0.00     0.022 A 
HETATM   60  C16 UNL     1       0.750   1.299   0.000  1.00  0.00     0.004 A 
HETATM   61  C17 UNL     1      -0.750   1.299   0.000  1.00  0.00     0.001 A 
HETATM   62  C18 UNL     1      -1.500   0.000   0.000  1.00  0.00     0.004 A 
HETATM   63  C19 UNL     1      -0.750  -1.299   0.000  1.00  0.00     0.022 A 
ENDBRANCH   2  58
BRANCH  35  64
HETATM   64  N7  UNL     1      -1.500 -10.392   0.000  1.00  0.00    -0.247 NA
BRANCH  64  65
HETATM   65  C46 UNL     1      -3.000 -10.392   0.000  1.00  0.00     0.128 C 
BRANCH  65  66
HETATM   66  C47 UNL     1      -3.750 -11.691   0.000  1.00  0.00     0.025 A 
HETATM   67  C48 UNL     1      -3.000 -12.990   0.000  1.00  0.00     0.002 A 
HETATM   68  C49 UNL     1      -3.750 -14.289   0.000  1.00  0.00     0.000 A 
HETATM   69  C50 UNL     1      -5.250 -14.289   0.000  1.00  0.00     0.000 A 
HETATM   70  C51 UNL     1      -6.000 -12.990   0.000  1.00  0.00     0.000 A 
HETATM   71  C52 UNL     1      -5.250 -11.691   0.000  1.00  0.00     0.002 A 
ENDBRANCH  65  66
ENDBRANCH  64  65
ENDBRANCH  35  64
BRANCH  32  72
HETATM   72  C42 UNL     1       0.750 -11.691   0.000  1.00  0.00     0.136 C 
BRANCH  72  73
HETATM   73  C43 UNL     1       1.500 -12.990   0.000  1.00  0.00     0.262 C 
HETATM   74  F1  UNL     1       0.750 -14.289   0.000  1.00  0.00    -0.176 F 
HETATM   75  F2  UNL     1       3.000 -12.990   0.000  1.00  0.00    -0.176 F 
ENDBRANCH  72  73
ENDBRANCH  32  72
TORSDOF 13
