REMARK WARNING: 32 MAX_TORS EXCEEDED!!!
REMARK  67 active torsions:
REMARK  status: ('A' for Active; 'I' for Inactive)
REMARK    1  A    between atoms: C1_1  and  C39_55 
REMARK    2  A    between atoms: C2_2  and  C24_31 
REMARK    3  A    between atoms: C2_2  and  C27_38 
REMARK    4  A    between atoms: C3_3  and  C24_31 
REMARK    5  A    between atoms: C3_3  and  O4_35 
REMARK    6  A    between atoms: C3_3  and  P1_37 
REMARK    7  A    between atoms: C3_3  and  C39_55 
REMARK    8  A    between atoms: C4_4  and  C8_9 
REMARK    9  A    between atoms: C5_5  and  C8_9 
REMARK   10  A    between atoms: C5_5  and  C23_30 
REMARK   11  A    between atoms: C6_6  and  C7_8 
REMARK   12  A    between atoms: N1_7  and  C7_8 
REMARK   13  A    between atoms: N1_7  and  C13_14 
REMARK   14  A    between atoms: C7_8  and  C8_9 
REMARK   15  A    between atoms: C7_8  and  C9_10 
REMARK   16  A    between atoms: C7_8  and  C10_11 
REMARK   17  A    between atoms: C7_8  and  C11_12 
REMARK   18  A    between atoms: C7_8  and  O2_21 
REMARK   19  A    between atoms: C8_9  and  C11_12 
REMARK   20  A    between atoms: C8_9  and  C12_13 
REMARK   21  A    between atoms: C9_10  and  C12_13 
REMARK   22  A    between atoms: C10_11  and  C12_13 
REMARK   23  A    between atoms: C11_12  and  C12_13 
REMARK   24  A    between atoms: C11_12  and  O1_19 
REMARK   25  A    between atoms: C11_12  and  C16_20 
REMARK   26  A    between atoms: C13_14  and  C15_17 
REMARK   27  A    between atoms: C14_15  and  N2_18 
REMARK   28  A    between atoms: S1_16  and  N2_18 
REMARK   29  A    between atoms: S1_16  and  C17_23 
REMARK   30  A    between atoms: S1_16  and  C19_25 
REMARK   31  A    between atoms: C15_17  and  N2_18 
REMARK   32  A    between atoms: C15_17  and  C19_25 
REMARK   33  A    between atoms: N2_18  and  N3_22 
REMARK   34  A    between atoms: C18_24  and  C19_25 
REMARK   35  A    between atoms: C20_26  and  C22_29 
REMARK   36  A    between atoms: C21_27  and  C23_30 
REMARK   37  A    between atoms: C21_27  and  N6_41 
REMARK   38  A    between atoms: C21_27  and  C32_46 
REMARK   39  A    between atoms: N4_28  and  C23_30 
REMARK   40  A    between atoms: C22_29  and  C23_30 
REMARK   41  A    between atoms: C22_29  and  C25_32 
REMARK   42  A    between atoms: C22_29  and  N5_36 
REMARK   43  A    between atoms: C23_30  and  C24_31 
REMARK   44  A    between atoms: C24_31  and  N5_36 
REMARK   45  A    between atoms: C25_32  and  C37_51 
REMARK   46  A    between atoms: C26_33  and  O3_34 
REMARK   47  A    between atoms: O3_34  and  O4_35 
REMARK   48  A    between atoms: O3_34  and  C28_39 
REMARK   49  A    between atoms: O3_34  and  C37_51 
REMARK   50  A    between atoms: O4_35  and  N5_36 
REMARK   51  A    between atoms: O4_35  and  C27_38 
REMARK   52  A    between atoms: O4_35  and  C28_39 
REMARK   53  A    between atoms: N5_36  and  P1_37 
REMARK   54  A    between atoms: C29_40  and  N6_41 
REMARK   55  A    between atoms: C29_40  and  C30_42 
REMARK   56  A    between atoms: C29_40  and  O6_44 
REMARK   57  A    between atoms: N6_41  and  C32_46 
REMARK   58  A    between atoms: C30_42  and  C36_50 
REMARK   59  A    between atoms: O6_44  and  C36_50 
REMARK   60  A    between atoms: C31_45  and  C34_48 
REMARK   61  A    between atoms: C32_46  and  C35_49 
REMARK   62  A    between atoms: C33_47  and  C35_49 
REMARK   63  A    between atoms: C34_48  and  C35_49 
REMARK   64  A    between atoms: C36_50  and  C37_51 
REMARK   65  A    between atoms: C36_50  and  C38_52 
REMARK   66  A    between atoms: C37_51  and  C38_52 
REMARK   67  A    between atoms: O8_54  and  C39_55 
ROOT
HETATM    1  C1  UNL     1       2.809  -3.081   0.000  1.00  0.00     0.018 A 
HETATM    2  C2  UNL     1       2.240  -2.484   0.000  1.00  0.00     0.016 A 
HETATM    3  C3  UNL     1       2.009  -3.274   0.000  1.00  0.00     0.014 A 
HETATM    4  N5  UNL     1       1.453  -2.249   0.000  1.00  0.00     0.000 N 
HETATM    5  P1  UNL     1       2.845  -1.924   0.000  1.00  0.00    -0.093 P 
HETATM    6  C27 UNL     1       2.202  -4.071   0.000  1.00  0.00     0.011 A 
HETATM    7  C28 UNL     1       1.602  -4.639   0.000  1.00  0.00     0.005 A 
HETATM    8  O7  UNL     1       2.663  -1.123   0.000  1.00  0.00     0.000 OA
HETATM    9  O8  UNL     1       3.634  -1.708   0.000  1.00  0.00     0.000 OA
HETATM   10  C39 UNL     1       3.421  -2.499   0.000  1.00  0.00     0.021 A 
ENDROOT
BRANCH   2  11
HETATM   11  C24 UNL     1       0.854  -2.816   0.000  1.00  0.00     0.007 A 
HETATM   12  C22 UNL     1       0.064  -2.578   0.000  1.00  0.00     0.001 A 
HETATM   13  N4  UNL     1      -0.595  -3.078   0.000  1.00  0.00     0.000 N 
HETATM   14  C21 UNL     1      -1.273  -2.610   0.000  1.00  0.00     0.000 A 
HETATM   15  O4  UNL     1       1.042  -3.619   0.000  1.00  0.00     0.000 OA
HETATM   16  C25 UNL     1      -0.573  -3.904   0.000  1.00  0.00     0.000 A 
HETATM   17  C20 UNL     1      -1.039  -1.821   0.000  1.00  0.00     0.000 A 
HETATM   18  C26 UNL     1      -1.281  -4.335   0.000  1.00  0.00     0.000 A 
HETATM   19  O3  UNL     1       0.150  -4.300   0.000  1.00  0.00     0.000 OA
HETATM   20  C29 UNL     1      -1.266  -5.160   0.000  1.00  0.00     0.000 A 
HETATM   21  N6  UNL     1      -2.004  -3.938   0.000  1.00  0.00     0.000 N 
HETATM   22  C36 UNL     1      -1.973  -5.588   0.000  1.00  0.00     0.000 A 
HETATM   23  C37 UNL     1      -0.543  -5.557   0.000  1.00  0.00     0.000 A 
HETATM   24  C38 UNL     1      -1.074  -5.958   0.000  1.00  0.00     0.000 A 
HETATM   25  C30 UNL     1      -2.711  -4.362   0.000  1.00  0.00     0.000 A 
HETATM   26  O5  UNL     1      -3.434  -3.965   0.000  1.00  0.00     0.000 OA
HETATM   27  O6  UNL     1      -2.695  -5.187   0.000  1.00  0.00     0.000 OA
HETATM   28  C31 UNL     1      -3.450  -3.140   0.000  1.00  0.00     0.000 A 
HETATM   29  C32 UNL     1      -2.794  -2.642   0.000  1.00  0.00     0.000 A 
HETATM   30  C35 UNL     1      -4.131  -2.671   0.000  1.00  0.00     0.000 A 
HETATM   31  C33 UNL     1      -3.068  -1.866   0.000  1.00  0.00     0.000 A 
HETATM   32  C34 UNL     1      -3.893  -1.881   0.000  1.00  0.00     0.000 A 
HETATM   33  O2  UNL     1      -1.540  -1.162   0.000  1.00  0.00     0.000 OA
HETATM   34  C23 UNL     1      -0.211  -1.802   0.000  1.00  0.00     0.001 A 
HETATM   35  C4  UNL     1      -1.309  -0.370   0.000  1.00  0.00     0.002 A 
HETATM   36  C5  UNL     1      -0.506  -0.175   0.000  1.00  0.00     0.007 A 
HETATM   37  C6  UNL     1      -0.276   0.623   0.000  1.00  0.00     0.013 A 
HETATM   38  N1  UNL     1      -0.849   1.218   0.000  1.00  0.00     0.000 N 
HETATM   39  C7  UNL     1      -1.877   0.223   0.000  1.00  0.00     0.002 A 
HETATM   40  C13 UNL     1       0.525   0.827   0.000  1.00  0.00     0.029 A 
HETATM   41  C8  UNL     1      -1.644   1.016   0.000  1.00  0.00     0.002 A 
HETATM   42  C14 UNL     1       1.157   0.294   0.000  1.00  0.00     0.035 A 
HETATM   43  N2  UNL     1       0.834   1.592   0.000  1.00  0.00     0.000 N 
HETATM   44  C9  UNL     1      -2.213   1.613   0.000  1.00  0.00     0.000 A 
HETATM   45  C10 UNL     1      -3.016   1.416   0.000  1.00  0.00     0.000 A 
HETATM   46  C11 UNL     1      -3.245   0.620   0.000  1.00  0.00     0.000 A 
HETATM   47  O1  UNL     1      -3.587   2.013   0.000  1.00  0.00     0.000 OA
HETATM   48  C16 UNL     1      -4.389   1.815   0.000  1.00  0.00     0.000 A 
HETATM   49  S1  UNL     1       1.858   0.732   0.000  1.00  0.00    -0.221 SA
HETATM   50  C15 UNL     1       1.657   1.534   0.000  1.00  0.00     0.040 A 
HETATM   51  N3  UNL     1       2.190   2.165   0.000  1.00  0.00     0.000 N 
HETATM   52  C17 UNL     1       3.002   2.021   0.000  1.00  0.00     0.036 A 
HETATM   53  C18 UNL     1       3.532   2.654   0.000  1.00  0.00     0.019 A 
HETATM   54  C19 UNL     1       3.282   1.246   0.000  1.00  0.00     0.036 A 
HETATM   55  C12 UNL     1      -2.674   0.029   0.000  1.00  0.00     0.000 A 
ENDBRANCH   2  11
TORSDOF 67
