REMARK WARNING: 32 MAX_TORS EXCEEDED!!!
REMARK  92 active torsions:
REMARK  status: ('A' for Active; 'I' for Inactive)
REMARK    1  A    between atoms: C1_1  and  C15_22 
REMARK    2  A    between atoms: C1_1  and  C21_34 
REMARK    3  A    between atoms: C1_1  and  C24_37 
REMARK    4  A    between atoms: C2_2  and  C5_5 
REMARK    5  A    between atoms: C2_2  and  O3_18 
REMARK    6  A    between atoms: C3_3  and  C11_14 
REMARK    7  A    between atoms: C3_3  and  C17_24 
REMARK    8  A    between atoms: C3_3  and  O5_25 
REMARK    9  A    between atoms: C3_3  and  C18_27 
REMARK   10  A    between atoms: C3_3  and  C21_34 
REMARK   11  A    between atoms: C4_4  and  C26_39 
REMARK   12  A    between atoms: C4_4  and  C32_45 
REMARK   13  A    between atoms: C5_5  and  N2_7 
REMARK   14  A    between atoms: C5_5  and  O1_16 
REMARK   15  A    between atoms: C5_5  and  C19_32 
REMARK   16  A    between atoms: C5_5  and  C26_39 
REMARK   17  A    between atoms: N1_6  and  C8_10 
REMARK   18  A    between atoms: N1_6  and  C19_32 
REMARK   19  A    between atoms: N1_6  and  C26_39 
REMARK   20  A    between atoms: N1_6  and  C32_45 
REMARK   21  A    between atoms: N2_7  and  C9_11 
REMARK   22  A    between atoms: N2_7  and  C14_20 
REMARK   23  A    between atoms: N2_7  and  C15_22 
REMARK   24  A    between atoms: N2_7  and  C18_27 
REMARK   25  A    between atoms: N2_7  and  C21_34 
REMARK   26  A    between atoms: C6_8  and  C8_10 
REMARK   27  A    between atoms: C6_8  and  O1_16 
REMARK   28  A    between atoms: C7_9  and  C9_11 
REMARK   29  A    between atoms: C7_9  and  C10_13 
REMARK   30  A    between atoms: C7_9  and  O2_17 
REMARK   31  A    between atoms: C7_9  and  C14_20 
REMARK   32  A    between atoms: C7_9  and  C17_24 
REMARK   33  A    between atoms: C7_9  and  C18_27 
REMARK   34  A    between atoms: C7_9  and  C21_34 
REMARK   35  A    between atoms: C7_9  and  C28_41 
REMARK   36  A    between atoms: C8_10  and  O4_21 
REMARK   37  A    between atoms: C8_10  and  C26_39 
REMARK   38  A    between atoms: C8_10  and  C32_45 
REMARK   39  A    between atoms: C9_11  and  O3_18 
REMARK   40  A    between atoms: C9_11  and  C15_22 
REMARK   41  A    between atoms: C9_11  and  C21_34 
REMARK   42  A    between atoms: C9_11  and  C26_39 
REMARK   43  A    between atoms: C9_11  and  C28_41 
REMARK   44  A    between atoms: N3_12  and  C10_13 
REMARK   45  A    between atoms: N3_12  and  C24_37 
REMARK   46  A    between atoms: C11_14  and  O2_17 
REMARK   47  A    between atoms: C12_15  and  O2_17 
REMARK   48  A    between atoms: C12_15  and  C15_22 
REMARK   49  A    between atoms: O1_16  and  O3_18 
REMARK   50  A    between atoms: O2_17  and  C15_22 
REMARK   51  A    between atoms: O2_17  and  O5_25 
REMARK   52  A    between atoms: O2_17  and  C18_27 
REMARK   53  A    between atoms: O2_17  and  O8_31 
REMARK   54  A    between atoms: C13_19  and  C32_45 
REMARK   55  A    between atoms: C14_20  and  C21_34 
REMARK   56  A    between atoms: C14_20  and  C28_41 
REMARK   57  A    between atoms: C14_20  and  C33_46 
REMARK   58  A    between atoms: C15_22  and  C18_27 
REMARK   59  A    between atoms: C15_22  and  C21_34 
REMARK   60  A    between atoms: C16_23  and  C17_24 
REMARK   61  A    between atoms: C16_23  and  C22_35 
REMARK   62  A    between atoms: C16_23  and  C34_47 
REMARK   63  A    between atoms: C17_24  and  C23_36 
REMARK   64  A    between atoms: C17_24  and  C33_46 
REMARK   65  A    between atoms: O5_25  and  O8_31 
REMARK   66  A    between atoms: O5_25  and  C20_33 
REMARK   67  A    between atoms: F2_30  and  C32_45 
REMARK   68  A    between atoms: F2_30  and  C35_48 
REMARK   69  A    between atoms: C19_32  and  C28_41 
REMARK   70  A    between atoms: C19_32  and  C33_46 
REMARK   71  A    between atoms: C19_32  and  C35_48 
REMARK   72  A    between atoms: C21_34  and  C22_35 
REMARK   73  A    between atoms: C21_34  and  C29_42 
REMARK   74  A    between atoms: C22_35  and  C23_36 
REMARK   75  A    between atoms: C22_35  and  C28_41 
REMARK   76  A    between atoms: C22_35  and  C33_46 
REMARK   77  A    between atoms: C23_36  and  C24_37 
REMARK   78  A    between atoms: C23_36  and  C27_40 
REMARK   79  A    between atoms: C23_36  and  C34_47 
REMARK   80  A    between atoms: C24_37  and  C30_43 
REMARK   81  A    between atoms: C25_38  and  C26_39 
REMARK   82  A    between atoms: C25_38  and  C28_41 
REMARK   83  A    between atoms: C25_38  and  C32_45 
REMARK   84  A    between atoms: C25_38  and  C33_46 
REMARK   85  A    between atoms: C26_39  and  C31_44 
REMARK   86  A    between atoms: C26_39  and  C35_48 
REMARK   87  A    between atoms: C27_40  and  C30_43 
REMARK   88  A    between atoms: C28_41  and  C29_42 
REMARK   89  A    between atoms: C29_42  and  C33_46 
REMARK   90  A    between atoms: C30_43  and  C34_47 
REMARK   91  A    between atoms: C31_44  and  C32_45 
REMARK   92  A    between atoms: C32_45  and  C35_48 
ROOT
HETATM    1  C1  UNL     1       1.867   0.258   0.000  1.00  0.00     0.007 A 
HETATM    2  C3  UNL     1       2.579  -0.154   0.000  1.00  0.00     0.022 A 
HETATM    3  N2  UNL     1       4.017  -0.154   0.000  1.00  0.00     0.000 N 
HETATM    4  C7  UNL     1       3.304   0.258   0.000  1.00  0.00     0.020 A 
HETATM    5  N3  UNL     1       1.154  -0.154   0.000  1.00  0.00     0.000 N 
HETATM    6  C10 UNL     1       1.867   1.083   0.000  1.00  0.00     0.004 A 
HETATM    7  C11 UNL     1       1.154  -0.979   0.000  1.00  0.00     0.002 A 
HETATM    8  O2  UNL     1       2.579  -0.979   0.000  1.00  0.00     0.000 OA
HETATM    9  C15 UNL     1       3.292  -0.562   0.000  1.00  0.00     0.043 A 
HETATM   10  C16 UNL     1       1.154   1.496   0.000  1.00  0.00     0.001 A 
HETATM   11  C17 UNL     1       2.579   1.496   0.000  1.00  0.00     0.004 A 
HETATM   12  O5  UNL     1       1.867  -1.392   0.000  1.00  0.00     0.000 OA
HETATM   13  C20 UNL     1       0.442  -1.392   0.000  1.00  0.00     0.000 A 
HETATM   14  C21 UNL     1       3.304   1.083   0.000  1.00  0.00     0.009 A 
HETATM   15  C22 UNL     1       2.579   2.312   0.000  1.00  0.00     0.001 A 
HETATM   16  C23 UNL     1       1.154   2.333   0.000  1.00  0.00     0.000 A 
HETATM   17  C24 UNL     1       0.442   1.087   0.000  1.00  0.00     0.000 A 
HETATM   18  C27 UNL     1      -0.271   1.496   0.000  1.00  0.00     0.000 A 
HETATM   19  C28 UNL     1       4.017   1.496   0.000  1.00  0.00     0.010 A 
HETATM   20  C29 UNL     1       3.292   2.733   0.000  1.00  0.00     0.001 A 
HETATM   21  C30 UNL     1       0.442   2.737   0.000  1.00  0.00     0.000 A 
HETATM   22  C33 UNL     1       4.017   2.321   0.000  1.00  0.00     0.009 A 
HETATM   23  C34 UNL     1      -0.271   2.333   0.000  1.00  0.00     0.000 A 
ENDROOT
BRANCH   2  24
HETATM   24  C18 UNL     1       3.704  -1.275   0.000  1.00  0.00     0.098 A 
HETATM   25  C12 UNL     1       3.479  -2.067   0.000  1.00  0.00     0.139 A 
HETATM   26  O6  UNL     1       4.067  -2.654   0.000  1.00  0.00    -0.359 OA
HETATM   27  O8  UNL     1       2.692  -2.279   0.000  1.00  0.00     0.000 OA
ENDBRANCH   2  24
BRANCH   4  28
HETATM   28  C9  UNL     1       4.729   0.258   0.000  1.00  0.00     0.019 A 
HETATM   29  C5  UNL     1       5.442  -0.154   0.000  1.00  0.00     0.050 A 
HETATM   30  N1  UNL     1       6.154   0.258   0.000  1.00  0.00     0.000 N 
HETATM   31  O3  UNL     1       5.442  -0.979   0.000  1.00  0.00     0.000 OA
HETATM   32  C4  UNL     1       6.867  -0.154   0.000  1.00  0.00     0.135 A 
HETATM   33  C14 UNL     1       4.729   1.083   0.000  1.00  0.00     0.019 A 
HETATM   34  C2  UNL     1       6.867  -0.979   0.000  1.00  0.00     0.147 A 
HETATM   35  C6  UNL     1       7.592  -1.392   0.000  1.00  0.00     0.169 A 
HETATM   36  O1  UNL     1       6.154  -1.392   0.000  1.00  0.00     0.000 OA
HETATM   37  C8  UNL     1       7.592   0.258   0.000  1.00  0.00     0.139 A 
HETATM   38  O4  UNL     1       8.304  -0.979   0.000  1.00  0.00     0.000 OA
HETATM   39  O7  UNL     1       7.592  -2.217   0.000  1.00  0.00    -0.351 OA
HETATM   40  C13 UNL     1       7.992   0.975   0.000  1.00  0.00     0.182 A 
HETATM   41  F1  UNL     1       8.817   0.983   0.000  1.00  0.00    -0.345 F 
HETATM   42  F2  UNL     1       7.579   1.688   0.000  1.00  0.00    -0.517 F 
HETATM   43  C19 UNL     1       5.442   1.496   0.000  1.00  0.00     0.039 A 
HETATM   44  C25 UNL     1       5.442   2.312   0.000  1.00  0.00     0.042 A 
HETATM   45  C26 UNL     1       6.154   1.083   0.000  1.00  0.00     0.067 A 
HETATM   46  C31 UNL     1       6.154   2.725   0.000  1.00  0.00     0.052 A 
HETATM   47  C32 UNL     1       6.867   1.488   0.000  1.00  0.00     0.086 A 
HETATM   48  C35 UNL     1       6.867   2.312   0.000  1.00  0.00     0.055 A 
ENDBRANCH   4  28
TORSDOF 92
