REMARK  8 active torsions:
REMARK  status: ('A' for Active; 'I' for Inactive)
REMARK    1  A    between atoms: C6_7  and  C7_9 
REMARK    2  A    between atoms: C7_9  and  N2_10 
REMARK    3  A    between atoms: C7_9  and  C18_23 
REMARK       I    between atoms: N2_10  and  C8_11 
REMARK    4  A    between atoms: C8_11  and  C9_13 
REMARK    5  A    between atoms: C28_35  and  C29_36 
REMARK    6  A    between atoms: C30_39  and  C35_44 
REMARK       I    between atoms: C35_44  and  N6_46 
REMARK    7  A    between atoms: N6_46  and  S1_47 
REMARK    8  A    between atoms: S1_47  and  N7_50 
ROOT
HETATM    1  C1  UNL     1       0.750 -10.593   0.000  1.00  0.00    -0.097 A 
HETATM    2  C2  UNL     1       0.750  -9.093   0.000  1.00  0.00     0.155 A 
HETATM    3  C3  UNL     1       0.750  -7.593   0.000  1.00  0.00     0.013 C 
HETATM    4  C4  UNL     1       2.250  -9.093   0.000  1.00  0.00     0.033 C 
HETATM    5  C5  UNL     1      -0.750  -9.093   0.000  1.00  0.00     0.126 A 
HETATM    6  N1  UNL     1      -1.500  -7.794   0.000  1.00  0.00    -0.219 NA
HETATM    7  C6  UNL     1      -0.750  -6.495   0.000  1.00  0.00     0.208 C 
HETATM    8  O1  UNL     1       0.750  -6.495   0.000  1.00  0.00    -0.249 OA
HETATM    9  C24 UNL     1      -1.500 -10.392   0.000  1.00  0.00     0.214 A 
HETATM   10  O3  UNL     1      -3.000 -10.392   0.000  1.00  0.00    -0.169 OA
HETATM   11  N4  UNL     1      -0.750 -11.691   0.000  1.00  0.00    -0.283 N 
HETATM   12  C25 UNL     1       0.742 -11.848   0.000  1.00  0.00     0.074 A 
HETATM   13  C26 UNL     1       1.054 -13.315   0.000  1.00  0.00     0.046 A 
HETATM   14  C27 UNL     1      -0.245 -14.065   0.000  1.00  0.00     0.054 A 
HETATM   15  C28 UNL     1      -1.360 -13.062   0.000  1.00  0.00     0.085 A 
HETATM   16  C40 UNL     1       2.545 -13.159   0.000  1.00  0.00     0.006 A 
HETATM   17  C41 UNL     1       2.650 -11.662   0.000  1.00  0.00     0.000 C 
HETATM   18  C42 UNL     1       4.001 -13.521   0.000  1.00  0.00     0.000 C 
HETATM   19  C43 UNL     1       1.935 -14.529   0.000  1.00  0.00     0.006 A 
HETATM   20  C44 UNL     1       0.991 -15.695   0.000  1.00  0.00     0.000 A 
HETATM   21  C45 UNL     1       2.157 -16.639   0.000  1.00  0.00     0.000 A 
HETATM   22  C46 UNL     1       3.101 -15.473   0.000  1.00  0.00     0.000 A 
ENDROOT
BRANCH   7  23
HETATM   23  C7  UNL     1      -1.500  -5.196   0.000  1.00  0.00     0.117 C 
BRANCH  23  24
HETATM   24  N2  UNL     1      -0.750  -3.897   0.000  1.00  0.00    -0.217 NA
HETATM   25  C8  UNL     1       0.750  -3.897   0.000  1.00  0.00     0.207 C 
HETATM   26  O2  UNL     1       1.500  -5.196   0.000  1.00  0.00    -0.170 OA
BRANCH  25  27
HETATM   27  C9  UNL     1       1.500  -2.598   0.000  1.00  0.00     0.028 A 
HETATM   28  C10 UNL     1       3.000  -2.598   0.000  1.00  0.00     0.151 A 
HETATM   29  N3  UNL     1       3.750  -1.299   0.000  1.00  0.00    -0.271 NA
HETATM   30  C11 UNL     1       3.000   0.000   0.000  1.00  0.00     0.046 A 
HETATM   31  C12 UNL     1       3.750   1.299   0.000  1.00  0.00     0.045 A 
HETATM   32  C16 UNL     1       1.500   0.000   0.000  1.00  0.00    -0.027 A 
HETATM   33  C13 UNL     1       3.000   2.598   0.000  1.00  0.00     0.007 A 
HETATM   34  C14 UNL     1       1.500   2.598   0.000  1.00  0.00     0.005 A 
HETATM   35  C15 UNL     1       0.750   1.299   0.000  1.00  0.00     0.024 A 
HETATM   36  C17 UNL     1       0.750  -1.299   0.000  1.00  0.00     0.051 A 
ENDBRANCH  25  27
ENDBRANCH  23  24
BRANCH  23  37
HETATM   37  C18 UNL     1      -3.000  -5.196   0.000  1.00  0.00    -0.023 A 
HETATM   38  C19 UNL     1      -3.750  -3.897   0.000  1.00  0.00     0.024 A 
HETATM   39  C20 UNL     1      -5.250  -3.897   0.000  1.00  0.00     0.004 A 
HETATM   40  C21 UNL     1      -6.000  -5.196   0.000  1.00  0.00     0.001 A 
HETATM   41  C22 UNL     1      -5.250  -6.495   0.000  1.00  0.00     0.004 A 
HETATM   42  C23 UNL     1      -3.750  -6.495   0.000  1.00  0.00     0.024 A 
ENDBRANCH  23  37
ENDBRANCH   7  23
BRANCH  15  43
HETATM   43  C29 UNL     1      -2.827 -13.373   0.000  1.00  0.00     0.191 A 
HETATM   44  O4  UNL     1      -3.291 -14.800   0.000  1.00  0.00    -0.294 OA
HETATM   45  C33 UNL     1      -4.451 -15.342   0.000  1.00  0.00     0.074 A 
HETATM   46  C32 UNL     1      -5.246 -14.070   0.000  1.00  0.00     0.005 A 
HETATM   47  C34 UNL     1      -5.155 -16.666   0.000  1.00  0.00     0.058 C 
HETATM   48  C30 UNL     1      -5.298 -12.571   0.000  1.00  0.00     0.167 A 
HETATM   49  C31 UNL     1      -6.570 -13.366   0.000  1.00  0.00     0.060 A 
HETATM   50  N5  UNL     1      -3.831 -12.259   0.000  1.00  0.00    -0.239 NA
BRANCH  48  51
HETATM   51  C35 UNL     1      -5.860 -11.180   0.000  1.00  0.00     0.226 C 
HETATM   52  O5  UNL     1      -4.937  -9.998   0.000  1.00  0.00    -0.171 OA
HETATM   53  N6  UNL     1      -7.346 -10.971   0.000  1.00  0.00    -0.119 NA
BRANCH  53  54
HETATM   54  S1  UNL     1      -7.907  -9.580   0.000  1.00  0.00     0.346 S 
HETATM   55  O6  UNL     1      -9.298 -10.142   0.000  1.00  0.00    -0.180 OA
HETATM   56  O7  UNL     1      -6.517  -9.018   0.000  1.00  0.00    -0.180 OA
BRANCH  54  57
HETATM   57  N7  UNL     1      -8.469  -8.190   0.000  1.00  0.00    -0.260 N 
HETATM   58  C36 UNL     1      -9.925  -7.827   0.000  1.00  0.00     0.115 A 
HETATM   59  C37 UNL     1     -10.030  -6.330   0.000  1.00  0.00     0.027 A 
HETATM   60  C38 UNL     1      -8.639  -5.769   0.000  1.00  0.00     0.027 A 
HETATM   61  C39 UNL     1      -7.675  -6.918   0.000  1.00  0.00     0.115 A 
ENDBRANCH  54  57
ENDBRANCH  53  54
ENDBRANCH  48  51
ENDBRANCH  15  43
TORSDOF 8
