REMARK  5 active torsions:
REMARK  status: ('A' for Active; 'I' for Inactive)
REMARK    1  A    between atoms: C5_5  and  N1_6 
REMARK       I    between atoms: N1_6  and  C6_7 
REMARK    2  A    between atoms: C6_7  and  C7_9 
REMARK    3  A    between atoms: C7_9  and  C8_11 
REMARK    4  A    between atoms: C15_20  and  C18_25 
REMARK    5  A    between atoms: C18_25  and  C19_27 
ROOT
HETATM    1  C1  UNL     1       9.750  -3.897   0.000  1.00  0.00     0.031 C 
HETATM    2  C2  UNL     1       8.250  -3.897   0.000  1.00  0.00     0.004 A 
HETATM    3  C3  UNL     1       7.500  -5.196   0.000  1.00  0.00     0.170 A 
HETATM    4  C4  UNL     1       7.500  -2.598   0.000  1.00  0.00     0.075 A 
HETATM    5  C5  UNL     1       6.000  -2.598   0.000  1.00  0.00     0.108 A 
HETATM    6  C14 UNL     1       5.250  -3.897   0.000  1.00  0.00     0.214 A 
HETATM    7  O3  UNL     1       3.750  -3.897   0.000  1.00  0.00    -0.169 OA
HETATM    8  N2  UNL     1       6.000  -5.196   0.000  1.00  0.00    -0.265 N 
HETATM    9  C15 UNL     1       5.250  -6.495   0.000  1.00  0.00     0.086 A 
HETATM   10  C16 UNL     1       6.000  -7.794   0.000  1.00  0.00     0.132 A 
HETATM   11  C17 UNL     1       7.500  -7.794   0.000  1.00  0.00     0.232 A 
HETATM   12  F1  UNL     1       8.250  -9.093   0.000  1.00  0.00    -0.179 F 
HETATM   13  F2  UNL     1       8.250  -6.495   0.000  1.00  0.00    -0.290 F 
ENDROOT
BRANCH   5  14
HETATM   14  N1  UNL     1       5.250  -1.299   0.000  1.00  0.00    -0.219 NA
HETATM   15  C6  UNL     1       3.750  -1.299   0.000  1.00  0.00     0.237 C 
HETATM   16  O1  UNL     1       3.000  -2.598   0.000  1.00  0.00    -0.167 OA
BRANCH  15  17
HETATM   17  C7  UNL     1       3.000   0.000   0.000  1.00  0.00     0.167 C 
HETATM   18  O2  UNL     1       3.750   1.299   0.000  1.00  0.00    -0.187 OA
BRANCH  17  19
HETATM   19  C8  UNL     1       1.500   0.000   0.000  1.00  0.00    -0.015 A 
HETATM   20  C9  UNL     1       0.750  -1.299   0.000  1.00  0.00     0.024 A 
HETATM   21  C10 UNL     1      -0.750  -1.299   0.000  1.00  0.00     0.004 A 
HETATM   22  C11 UNL     1      -1.500   0.000   0.000  1.00  0.00     0.001 A 
HETATM   23  C12 UNL     1      -0.750   1.299   0.000  1.00  0.00     0.004 A 
HETATM   24  C13 UNL     1       0.750   1.299   0.000  1.00  0.00     0.024 A 
ENDBRANCH  17  19
ENDBRANCH  15  17
ENDBRANCH   5  14
BRANCH   9  25
HETATM   25  C18 UNL     1       3.750  -6.495   0.000  1.00  0.00     0.207 C 
HETATM   26  O4  UNL     1       3.000  -5.196   0.000  1.00  0.00    -0.182 OA
BRANCH  25  27
HETATM   27  C19 UNL     1       3.000  -7.794   0.000  1.00  0.00     0.239 C 
HETATM   28  O5  UNL     1       3.750  -9.093   0.000  1.00  0.00    -0.642 OA
HETATM   29  O6  UNL     1       1.500  -7.794   0.000  1.00  0.00    -0.642 OA
ENDBRANCH  25  27
ENDBRANCH   9  25
TORSDOF 5
