REMARK  8 active torsions:
REMARK  status: ('A' for Active; 'I' for Inactive)
REMARK    1  A    between atoms: C4_4  and  C7_9 
REMARK    2  A    between atoms: C8_12  and  C9_13 
REMARK       I    between atoms: C9_13  and  N3_15 
REMARK    3  A    between atoms: C13_19  and  C14_20 
REMARK       I    between atoms: C14_20  and  N4_22 
REMARK    4  A    between atoms: N4_22  and  C15_23 
REMARK    5  A    between atoms: C15_23  and  C16_24 
REMARK    6  A    between atoms: C15_23  and  C21_29 
REMARK    7  A    between atoms: C16_24  and  C17_25 
REMARK    8  A    between atoms: C21_29  and  C22_31 
ROOT
HETATM    1  C9  UNL     1      -4.241   0.000   0.000  1.00  0.00     0.209 C 
HETATM    2  O3  UNL     1      -4.991   1.299   0.000  1.00  0.00    -0.170 OA
HETATM    3  N3  UNL     1      -2.741   0.000   0.000  1.00  0.00    -0.306 N 
HETATM    4  C10 UNL     1      -1.860  -1.214   0.000  1.00  0.00     0.108 A 
HETATM    5  C11 UNL     1      -0.433  -0.750   0.000  1.00  0.00     0.029 A 
HETATM    6  C12 UNL     1      -0.433   0.750   0.000  1.00  0.00     0.044 A 
HETATM    7  C13 UNL     1      -1.860   1.214   0.000  1.00  0.00     0.082 A 
HETATM    8  C23 UNL     1       0.866   0.000   0.000  1.00  0.00     0.007 A 
HETATM    9  C24 UNL     1       1.830   1.149   0.000  1.00  0.00     0.001 C 
HETATM   10  C25 UNL     1       1.830  -1.149   0.000  1.00  0.00     0.001 C 
ENDROOT
BRANCH   1  11
HETATM   11  C8  UNL     1      -4.991  -1.299   0.000  1.00  0.00     0.115 A 
HETATM   12  N2  UNL     1      -4.241  -2.598   0.000  1.00  0.00    -0.220 NA
HETATM   13  C7  UNL     1      -4.991  -3.897   0.000  1.00  0.00     0.208 A 
HETATM   14  O2  UNL     1      -6.491  -3.897   0.000  1.00  0.00    -0.250 OA
HETATM   15  C27 UNL     1      -6.491  -2.799   0.000  1.00  0.00     0.001 A 
HETATM   16  C26 UNL     1      -6.491  -1.299   0.000  1.00  0.00     0.108 A 
HETATM   17  C28 UNL     1      -6.491   0.201   0.000  1.00  0.00     0.021 C 
HETATM   18  C29 UNL     1      -7.991  -1.299   0.000  1.00  0.00     0.021 C 
BRANCH  13  19
HETATM   19  C4  UNL     1      -4.241  -5.196   0.000  1.00  0.00     0.119 A 
HETATM   20  C2  UNL     1      -4.991  -6.495   0.000  1.00  0.00     0.007 A 
HETATM   21  C1  UNL     1      -4.241  -7.794   0.000  1.00  0.00     0.174 A 
HETATM   22  C3  UNL     1      -6.491  -6.495   0.000  1.00  0.00     0.031 C 
HETATM   23  O1  UNL     1      -2.741  -7.794   0.000  1.00  0.00    -0.313 OA
HETATM   24  C5  UNL     1      -1.991  -6.495   0.000  1.00  0.00     0.154 A 
HETATM   25  N1  UNL     1      -2.741  -5.196   0.000  1.00  0.00    -0.223 NA
HETATM   26  C6  UNL     1      -0.491  -6.495   0.000  1.00  0.00     0.080 C 
ENDBRANCH  13  19
ENDBRANCH   1  11
BRANCH   7  27
HETATM   27  C14 UNL     1      -2.323   2.640   0.000  1.00  0.00     0.224 C 
HETATM   28  O4  UNL     1      -3.790   2.952   0.000  1.00  0.00    -0.168 OA
HETATM   29  N4  UNL     1      -1.319   3.755   0.000  1.00  0.00    -0.221 NA
BRANCH  29  30
HETATM   30  C15 UNL     1      -1.783   5.181   0.000  1.00  0.00     0.090 C 
BRANCH  30  31
HETATM   31  C16 UNL     1      -0.779   6.296   0.000  1.00  0.00     0.048 C 
BRANCH  31  32
HETATM   32  C17 UNL     1       0.688   5.984   0.000  1.00  0.00     0.006 A 
HETATM   33  C18 UNL     1       1.946   6.801   0.000  1.00  0.00     0.000 A 
HETATM   34  C19 UNL     1       2.763   5.543   0.000  1.00  0.00     0.000 A 
HETATM   35  C20 UNL     1       1.505   4.726   0.000  1.00  0.00     0.000 A 
ENDBRANCH  31  32
ENDBRANCH  30  31
BRANCH  30  36
HETATM   36  C21 UNL     1      -3.250   5.493   0.000  1.00  0.00     0.183 C 
HETATM   37  O5  UNL     1      -4.254   4.379   0.000  1.00  0.00    -0.186 OA
BRANCH  36  38
HETATM   38  C22 UNL     1      -3.714   6.920   0.000  1.00  0.00     0.227 C 
HETATM   39  O6  UNL     1      -2.710   8.035   0.000  1.00  0.00    -0.173 OA
HETATM   40  N5  UNL     1      -5.181   7.232   0.000  1.00  0.00    -0.069 NA
ENDBRANCH  36  38
ENDBRANCH  30  36
ENDBRANCH  29  30
ENDBRANCH   7  27
TORSDOF 8
