REMARK  7 active torsions:
REMARK  status: ('A' for Active; 'I' for Inactive)
REMARK    1  A    between atoms: C2_3  and  C16_32 
REMARK    2  A    between atoms: C6_8  and  C9_11 
REMARK       I    between atoms: C9_11  and  N3_13 
REMARK    3  A    between atoms: N3_13  and  C10_14 
REMARK    4  A    between atoms: N4_22  and  C13_23 
REMARK    5  A    between atoms: C16_32  and  C17_35 
REMARK    6  A    between atoms: C20_39  and  C24_44 
REMARK       I    between atoms: C24_44  and  N7_46 
REMARK    7  A    between atoms: N7_46  and  C25_47 
ROOT
HETATM    1  C1  UNL     1      -2.640  -3.189   0.000  1.00  0.00     0.132 C 
HETATM    2  N1  UNL     1      -1.214  -2.726   0.000  1.00  0.00    -0.312 N 
HETATM    3  C2  UNL     1      -0.000  -3.607   0.000  1.00  0.00     0.185 A 
HETATM    4  N2  UNL     1       1.214  -2.726   0.000  1.00  0.00    -0.231 NA
HETATM    5  C3  UNL     1       0.750  -1.299   0.000  1.00  0.00     0.073 A 
HETATM    6  C4  UNL     1       1.500   0.000   0.000  1.00  0.00     0.051 A 
HETATM    7  C5  UNL     1       0.750   1.299   0.000  1.00  0.00     0.032 A 
HETATM    8  C6  UNL     1      -0.750   1.299   0.000  1.00  0.00     0.006 A 
HETATM    9  C7  UNL     1      -1.500   0.000   0.000  1.00  0.00     0.071 A 
HETATM   10  C8  UNL     1      -0.750  -1.299   0.000  1.00  0.00     0.056 A 
ENDROOT
BRANCH   3  11
HETATM   11  C16 UNL     1      -0.000  -5.107   0.000  1.00  0.00     0.354 C 
HETATM   12  F1  UNL     1      -1.500  -5.107   0.000  1.00  0.00    -0.192 F 
HETATM   13  F2  UNL     1       1.500  -5.107   0.000  1.00  0.00    -0.192 F 
BRANCH  11  14
HETATM   14  C17 UNL     1      -0.000  -6.607   0.000  1.00  0.00     0.274 A 
HETATM   15  N5  UNL     1      -1.214  -7.489   0.000  1.00  0.00    -0.246 NA
HETATM   16  C18 UNL     1      -0.750  -8.916   0.000  1.00  0.00     0.073 A 
HETATM   17  C19 UNL     1      -1.500 -10.215   0.000  1.00  0.00     0.072 A 
HETATM   18  C23 UNL     1       0.750  -8.916   0.000  1.00  0.00     0.070 A 
HETATM   19  C20 UNL     1      -0.750 -11.514   0.000  1.00  0.00     0.006 A 
HETATM   20  C21 UNL     1       0.750 -11.514   0.000  1.00  0.00     0.032 A 
HETATM   21  C22 UNL     1       1.500 -10.215   0.000  1.00  0.00     0.051 A 
HETATM   22  N6  UNL     1       1.214  -7.489   0.000  1.00  0.00    -0.246 NA
BRANCH  19  23
HETATM   23  C24 UNL     1      -1.500 -12.813   0.000  1.00  0.00     0.205 C 
HETATM   24  O11 UNL     1      -0.750 -14.112   0.000  1.00  0.00    -0.170 OA
HETATM   25  N7  UNL     1      -3.000 -12.813   0.000  1.00  0.00    -0.220 NA
BRANCH  25  26
HETATM   26  C25 UNL     1      -3.750 -14.112   0.000  1.00  0.00     0.126 A 
HETATM   27  C26 UNL     1      -5.250 -14.112   0.000  1.00  0.00     0.171 A 
HETATM   28  P3  UNL     1      -6.000 -15.411   0.000  1.00  0.00     0.299 P 
HETATM   29  O12 UNL     1      -6.750 -16.710   0.000  1.00  0.00    -0.644 OA
HETATM   30  O13 UNL     1      -7.299 -14.661   0.000  1.00  0.00    -0.644 OA
HETATM   31  O14 UNL     1      -4.701 -16.161   0.000  1.00  0.00    -0.140 OA
HETATM   32  O15 UNL     1      -3.750 -16.710   0.000  1.00  0.00    -0.158 OA
HETATM   33  C27 UNL     1      -3.000 -15.411   0.000  1.00  0.00     0.275 A 
HETATM   34  O16 UNL     1      -1.500 -15.411   0.000  1.00  0.00    -0.159 OA
ENDBRANCH  25  26
ENDBRANCH  19  23
ENDBRANCH  11  14
ENDBRANCH   3  11
BRANCH   8  35
HETATM   35  C9  UNL     1      -1.500   2.598   0.000  1.00  0.00     0.205 C 
HETATM   36  O1  UNL     1      -3.000   2.598   0.000  1.00  0.00    -0.170 OA
HETATM   37  N3  UNL     1      -0.750   3.897   0.000  1.00  0.00    -0.221 NA
BRANCH  37  38
HETATM   38  C10 UNL     1      -1.500   5.196   0.000  1.00  0.00     0.118 A 
HETATM   39  C11 UNL     1      -0.750   6.495   0.000  1.00  0.00     0.170 A 
HETATM   40  P1  UNL     1      -1.500   7.794   0.000  1.00  0.00     0.292 P 
HETATM   41  O2  UNL     1      -2.250   9.093   0.000  1.00  0.00    -0.645 OA
HETATM   42  O3  UNL     1      -0.201   8.544   0.000  1.00  0.00    -0.645 OA
HETATM   43  O4  UNL     1      -2.799   7.044   0.000  1.00  0.00    -0.180 OA
HETATM   44  N4  UNL     1      -3.750   6.495   0.000  1.00  0.00    -0.183 N 
HETATM   45  C12 UNL     1      -3.000   5.196   0.000  1.00  0.00     0.232 A 
HETATM   46  O5  UNL     1      -3.750   3.897   0.000  1.00  0.00    -0.168 OA
BRANCH  44  47
HETATM   47  C13 UNL     1      -5.250   6.495   0.000  1.00  0.00     0.132 C 
HETATM   48  C14 UNL     1      -6.000   7.794   0.000  1.00  0.00     0.172 C 
HETATM   49  P2  UNL     1      -7.500   7.794   0.000  1.00  0.00     0.299 P 
HETATM   50  O6  UNL     1      -9.000   7.794   0.000  1.00  0.00    -0.644 OA
HETATM   51  O7  UNL     1      -7.500   9.294   0.000  1.00  0.00    -0.644 OA
HETATM   52  O8  UNL     1      -7.500   6.294   0.000  1.00  0.00    -0.140 OA
HETATM   53  O9  UNL     1      -7.500   5.196   0.000  1.00  0.00    -0.158 OA
HETATM   54  C15 UNL     1      -6.000   5.196   0.000  1.00  0.00     0.275 C 
HETATM   55  O10 UNL     1      -5.250   3.897   0.000  1.00  0.00    -0.159 OA
ENDBRANCH  44  47
ENDBRANCH  37  38
ENDBRANCH   8  35
TORSDOF 7
