CHEMBL27768
                    3D
 Structure written by MMmdl.
 39 42  0  0  1  0            999 V2000
    6.3375   -1.5792    0.0000 C   0  0  2  0  0  0
    6.3375   -2.4167    0.0000 C   0  0  1  0  0  0
    6.9917   -2.0375    0.0000 C   0  0  0  0  0  0
    4.8750   -2.4167    0.0000 C   0  0  2  0  0  0
    4.1042   -2.7167    0.0000 C   0  0  1  0  0  0
    3.8542   -3.5167    0.0000 C   0  0  1  0  0  0
    5.6042   -2.8417    0.0000 C   0  0  1  0  0  0
    5.6042   -1.1667    0.0000 C   0  0  1  0  0  0
    4.8750   -1.5792    0.0000 C   0  0  1  0  0  0
    3.4167   -2.2375    0.0000 C   0  0  0  0  0  0
    3.0042   -3.5250    0.0000 C   0  0  0  0  0  0
    2.7417   -2.7417    0.0000 C   0  0  0  0  0  0
    5.7167   -3.6750    0.0000 C   0  0  0  0  0  0
    7.0667   -1.1542    0.0000 O   0  0  0  0  0  0
    5.6042   -0.3167    0.0000 O   0  0  0  0  0  0
    5.1375   -4.2792    0.0000 C   0  0  0  0  0  0
    4.3125   -4.2042    0.0000 C   0  0  0  0  0  0
    7.0667   -0.3292    0.0000 C   0  0  0  0  0  0
    4.8917    0.0958    0.0000 C   0  0  0  0  0  0
    2.5042   -4.2042    0.0000 O   0  0  0  0  0  0
    4.1625   -2.0000    0.0000 O   0  0  0  0  0  0
    3.5917   -4.3167    0.0000 O   0  0  0  0  0  0
    6.3500    0.0833    0.0000 O   0  0  0  0  0  0
    4.1792   -0.3167    0.0000 O   0  0  0  0  0  0
    7.5542   -1.6417    0.0000 C   0  0  0  0  0  0
    7.5417   -2.4750    0.0000 C   0  0  0  0  0  0
    4.1500   -1.1542    0.0000 C   0  0  0  0  0  0
    1.9292   -2.5292    0.0000 C   0  0  0  0  0  0
    5.4250   -5.0875    0.0000 C   0  0  0  0  0  0
    6.2417   -5.2375    0.0000 O   0  0  0  0  0  0
    4.8917    0.9208    0.0000 C   0  0  0  0  0  0
    7.7792    0.0875    0.0000 C   0  0  0  0  0  0
    7.7750    0.9125    0.0000 C   0  0  0  0  0  0
    4.1792    1.3333    0.0000 C   0  0  0  0  0  0
    8.4875    1.3333    0.0000 C   0  0  0  0  0  0
    4.1792    2.1583    0.0000 C   0  0  0  0  0  0
    7.0667   -2.8542    0.0000 H   0  0  0  0  0  0
    6.3375   -3.2542    0.0000 H   0  0  0  0  0  0
    4.7417   -3.1792    0.0000 H   0  0  0  0  0  0
  1  2  1  0  0  0
  1  3  1  0  0  0
  1  8  1  0  0  0
  1 14  1  6  0  0
  2  7  1  0  0  0
  2 37  1  0  0  0
  2  3  1  6  0  0
  3 25  1  0  0  0
  3 26  1  0  0  0
  4  9  1  0  0  0
  4  5  1  0  0  0
  4 21  1  0  0  0
  4  7  1  1  0  0
  5  6  1  0  0  0
  5 10  1  0  0  0
  5 39  1  1  0  0
  6 11  1  0  0  0
  6 22  1  0  0  0
  6 17  1  6  0  0
  7 13  1  0  0  0
  7 38  1  1  0  0
  8  9  1  0  0  0
  8 15  1  1  0  0
  9 27  1  1  0  0
 10 12  2  0  0  0
 11 20  2  0  0  0
 11 12  1  0  0  0
 12 28  1  0  0  0
 13 16  2  0  0  0
 14 18  1  0  0  0
 15 19  1  0  0  0
 16 17  1  0  0  0
 16 29  1  0  0  0
 18 23  2  0  0  0
 18 32  1  0  0  0
 19 24  2  0  0  0
 19 31  1  0  0  0
 29 30  1  0  0  0
 31 34  1  0  0  0
 32 33  1  0  0  0
 33 35  1  0  0  0
 34 36  1  0  0  0
M  END
> <s_m_entry_id>
105773

> <s_m_entry_name>
PKC.1

> <MOLREGNO>
34952

> <CHEMBLID>
CHEMBL27768

> <SYNONYMS>
4Alpha-Phorbol 12,13-Dibutyrate | [3H]-Phorbol 12,13-Dibutyrate

> <MAX_PHASE>
0

> <MOLWEIGHT>
504.61

> <ALOGP>
2.48

> <PSA>
130.35

> <HBA>
8

> <HBD>
3

> <RO5>
1

> <RTB>
9

> <RO3>
N

> <ACD_MOST_APKA>
11.15

> <ACD_LOGP>
4.46

> <ACD_LOGD>
4.46

> <AROMATIC_RINGS>
0

> <HEAVY_ATOMS>
36

> <QED_WEIGHTED>
0.32

> <HBA_LIPINSKI>
8

> <HBD_LIPINSKI>
3

> <NUM_LIPINSKI_RO5_VIOLATIONS>
0

> <MW_MONOISOTOPIC>
504.2723

> <MOLECULAR_SPECIES>
NEUTRAL

> <FULL_MOLFORMULA>
C28H40O8

> <s_m_Source_Path>
/home/liwei/Desktop/Machine/Active

> <s_m_Source_File>
PKC.sdf

> <i_m_Source_File_Index>
1

$$$$
CHEMBL104647
                    3D
 Structure written by MMmdl.
 53 58  0  0  1  0            999 V2000
    1.6792    0.6750    0.0000 C   0  0  2  0  0  0
    1.8792   -0.1167    0.0000 C   0  0  1  0  0  0
    2.7875    0.6083    0.0000 C   0  0  0  0  0  0
    0.4875   -0.4667    0.0000 C   0  0  2  0  0  0
   -0.1833   -0.9500    0.0000 C   0  0  1  0  0  0
   -0.2250   -1.7750    0.0000 C   0  0  1  0  0  0
    1.2875   -0.6917    0.0000 C   0  0  1  0  0  0
    0.7792    0.9208    0.0000 C   0  0  1  0  0  0
    0.2292    0.3083    0.0000 C   0  0  1  0  0  0
   -0.9583   -0.6625    0.0000 C   0  0  0  0  0  0
   -1.0208   -1.9917    0.0000 C   0  0  0  0  0  0
   -1.4625   -1.3125    0.0000 C   0  0  0  0  0  0
    1.6042   -1.4625    0.0000 C   0  0  0  0  0  0
    1.8917    1.4708    0.0000 O   0  0  0  0  0  0
    0.5167    1.6958    0.0000 O   0  0  0  0  0  0
    1.2125   -2.1792    0.0000 C   0  0  0  0  0  0
    1.0667    2.3208    0.0000 C   0  0  0  0  0  0
    0.4000   -2.3167    0.0000 C   0  0  0  0  0  0
    2.6917    1.6875    0.0000 C   0  0  0  0  0  0
    3.2167   -6.3417    0.0000 C   0  0  0  0  0  0
    1.8042   -4.3000    0.0000 C   0  0  0  0  0  0
   -1.3208   -2.7667    0.0000 O   0  0  0  0  0  0
    2.8542   -7.0875    0.0000 C   0  0  0  0  0  0
    2.7500   -5.6667    0.0000 C   0  0  0  0  0  0
   -0.3083    0.2958    0.0000 O   0  0  0  0  0  0
   -0.3833   -2.5750    0.0000 O   0  0  0  0  0  0
    1.8667    2.1500    0.0000 O   0  0  0  0  0  0
    1.9292   -5.7292    0.0000 C   0  0  0  0  0  0
    3.1292    1.2208    0.0000 O   0  0  0  0  0  0
    2.6375   -4.2250    0.0000 O   0  0  0  0  0  0
    1.3375   -3.6167    0.0000 O   0  0  0  0  0  0
    3.5792    0.4000    0.0000 C   0  0  0  0  0  0
    3.5792    0.8250    0.0000 C   0  0  0  0  0  0
    1.4542   -5.0417    0.0000 C   0  0  0  0  0  0
    2.0375   -7.1542    0.0000 C   0  0  0  0  0  0
    0.8042    3.0875    0.0000 C   0  0  0  0  0  0
    1.6875   -2.8667    0.0000 C   0  0  0  0  0  0
   -0.3583    0.8958    0.0000 C   0  0  0  0  0  0
    1.5667   -6.4750    0.0000 C   0  0  0  0  0  0
    4.0375   -6.2792    0.0000 O   0  0  0  0  0  0
    3.3292   -7.7792    0.0000 O   0  0  0  0  0  0
   -2.2875   -1.2792    0.0000 C   0  0  0  0  0  0
    1.3417    3.7083    0.0000 C   0  0  0  0  0  0
    2.9292    2.4833    0.0000 C   0  0  0  0  0  0
    4.4000   -5.5375    0.0000 C   0  0  0  0  0  0
    1.0667    4.4792    0.0000 C   0  0  0  0  0  0
    2.1500    3.5458    0.0000 C   0  0  0  0  0  0
    2.6875    4.1667    0.0000 C   0  0  0  0  0  0
    1.6042    5.1042    0.0000 C   0  0  0  0  0  0
    2.4042    4.9542    0.0000 C   0  0  0  0  0  0
    2.2666   -0.8952    0.0000 H   0  0  0  0  0  0
   -0.3174    0.0410    0.0000 H   0  0  0  0  0  0
    2.5404   -0.8669    0.0000 H   0  0  0  0  0  0
  1  2  1  0  0  0
  1  3  1  0  0  0
  1  8  1  0  0  0
  1 14  1  6  0  0
  2  7  1  0  0  0
  2  3  1  0  0  0
  2 53  1  6  0  0
  3 32  1  0  0  0
  3 33  1  0  0  0
  4  9  1  0  0  0
  4  5  1  0  0  0
  4 25  1  0  0  0
  4  7  1  1  0  0
  5  6  1  0  0  0
  5 10  1  0  0  0
  5 52  1  1  0  0
  6 11  1  0  0  0
  6 26  1  0  0  0
  6 18  1  6  0  0
  7 13  1  0  0  0
  7 51  1  1  0  0
  8  9  1  0  0  0
  8 15  1  1  0  0
  9 38  1  1  0  0
 10 12  2  0  0  0
 11 22  2  0  0  0
 11 12  1  0  0  0
 12 42  1  0  0  0
 13 16  2  0  0  0
 14 19  1  0  0  0
 15 17  1  0  0  0
 16 18  1  0  0  0
 16 37  1  0  0  0
 17 27  2  0  0  0
 17 36  1  0  0  0
 19 29  2  0  0  0
 19 44  1  0  0  0
 20 24  2  0  0  0
 20 40  1  0  0  0
 20 23  1  0  0  0
 21 31  1  0  0  0
 21 30  2  0  0  0
 21 34  1  0  0  0
 23 35  2  0  0  0
 23 41  1  0  0  0
 24 28  1  0  0  0
 28 34  1  0  0  0
 28 39  2  0  0  0
 31 37  1  0  0  0
 35 39  1  0  0  0
 36 43  1  0  0  0
 40 45  1  0  0  0
 43 46  1  0  0  0
 43 47  2  0  0  0
 46 49  2  0  0  0
 47 48  1  0  0  0
 48 50  2  0  0  0
 49 50  1  0  0  0
M  END
> <s_m_entry_id>
105774

> <s_m_entry_name>
PKC.2

> <MOLREGNO>
173902

> <CHEMBLID>
CHEMBL104647

> <MAX_PHASE>
0

> <MOLWEIGHT>
688.76

> <ALOGP>
3.76

> <PSA>
165.88

> <HBA>
11

> <HBD>
3

> <RO5>
2

> <RTB>
12

> <RO3>
N

> <ACD_MOST_APKA>
9.85

> <ACD_LOGP>
5.36

> <ACD_LOGD>
5.36

> <AROMATIC_RINGS>
2

> <HEAVY_ATOMS>
50

> <QED_WEIGHTED>
0.22

> <HBA_LIPINSKI>
11

> <HBD_LIPINSKI>
3

> <NUM_LIPINSKI_RO5_VIOLATIONS>
1

> <MW_MONOISOTOPIC>
688.2884

> <MOLECULAR_SPECIES>
NEUTRAL

> <FULL_MOLFORMULA>
C39H44O11

> <s_m_Source_Path>
/home/liwei/Desktop/Machine/Active

> <s_m_Source_File>
PKC.sdf

> <i_m_Source_File_Index>
2

$$$$
CHEMBL116437
                    3D
 Structure written by MMmdl.
 35 38  0  0  1  0            999 V2000
    3.4542   -2.6417    0.0000 C   0  0  2  0  0  0
    3.4667   -3.4000    0.0000 C   0  0  1  0  0  0
    4.1667   -3.0542    0.0000 C   0  0  0  0  0  0
    2.0042   -3.4542    0.0000 C   0  0  2  0  0  0
    1.2625   -3.8125    0.0000 C   0  0  1  0  0  0
    1.0750   -4.6167    0.0000 C   0  0  1  0  0  0
    2.7542   -3.8250    0.0000 C   0  0  1  0  0  0
    2.7417   -2.2250    0.0000 C   0  0  1  0  0  0
    2.0250   -2.6250    0.0000 C   0  0  1  0  0  0
    0.5542   -3.3792    0.0000 C   0  0  0  0  0  0
    0.2500   -4.6792    0.0000 C   0  0  0  0  0  0
   -0.0833   -3.9167    0.0000 C   0  0  0  0  0  0
    2.9417   -4.6375    0.0000 C   0  0  0  0  0  0
    4.1667   -2.2292    0.0000 O   0  0  0  0  0  0
    2.7542   -1.3917    0.0000 O   0  0  0  0  0  0
    2.4167   -5.2750    0.0000 C   0  0  0  0  0  0
    1.5792   -5.2667    0.0000 C   0  0  0  0  0  0
    4.9917   -2.2292    0.0000 C   0  0  0  0  0  0
    3.4750   -0.9875    0.0000 C   0  0  0  0  0  0
   -0.1875   -5.3917    0.0000 O   0  0  0  0  0  0
    1.9792   -4.0167    0.0000 O   0  0  0  0  0  0
    0.6500   -5.3167    0.0000 O   0  0  0  0  0  0
    4.1917   -1.4125    0.0000 O   0  0  0  0  0  0
    5.7042   -2.6417    0.0000 O   0  0  0  0  0  0
    4.8417   -3.4417    0.0000 C   0  0  0  0  0  0
    4.8417   -2.6667    0.0000 C   0  0  0  0  0  0
    1.3042   -2.2042    0.0000 C   0  0  0  0  0  0
   -0.8833   -3.7250    0.0000 C   0  0  0  0  0  0
    2.7625   -6.0167    0.0000 C   0  0  0  0  0  0
    3.5875   -6.0167    0.0000 O   0  0  0  0  0  0
    5.5750   -1.6417    0.0000 C   0  0  0  0  0  0
    3.4875   -0.1542    0.0000 C   0  0  0  0  0  0
    4.1792   -3.8167    0.0000 H   0  0  0  0  0  0
    3.4667   -4.2292    0.0000 H   0  0  0  0  0  0
    1.2542   -2.9792    0.0000 H   0  0  0  0  0  0
  1  2  1  0  0  0
  1  3  1  0  0  0
  1  8  1  0  0  0
  1 14  1  6  0  0
  2  7  1  0  0  0
  2 33  1  0  0  0
  2  3  1  6  0  0
  3 25  1  0  0  0
  3 26  1  0  0  0
  4  9  1  0  0  0
  4  5  1  0  0  0
  4 21  1  0  0  0
  4  7  1  1  0  0
  5  6  1  0  0  0
  5 10  1  0  0  0
  5 35  1  1  0  0
  6 11  1  0  0  0
  6 22  1  0  0  0
  6 17  1  6  0  0
  7 13  1  0  0  0
  7 34  1  1  0  0
  8  9  1  0  0  0
  8 15  1  1  0  0
  9 27  1  1  0  0
 10 12  2  0  0  0
 11 20  2  0  0  0
 11 12  1  0  0  0
 12 28  1  0  0  0
 13 16  2  0  0  0
 14 18  1  0  0  0
 15 19  1  0  0  0
 16 17  1  0  0  0
 16 29  1  0  0  0
 18 24  2  0  0  0
 18 31  1  0  0  0
 19 23  2  0  0  0
 19 32  1  0  0  0
 29 30  1  0  0  0
M  END
> <s_m_entry_id>
105775

> <s_m_entry_name>
PKC.3

> <MOLREGNO>
190271

> <CHEMBLID>
CHEMBL116437

> <MAX_PHASE>
0

> <MOLWEIGHT>
448.51

> <ALOGP>
0.24

> <PSA>
130.35

> <HBA>
8

> <HBD>
3

> <RO5>
0

> <RTB>
5

> <RO3>
N

> <ACD_MOST_APKA>
11.24

> <ACD_LOGP>
2.42

> <ACD_LOGD>
2.42

> <AROMATIC_RINGS>
0

> <HEAVY_ATOMS>
32

> <QED_WEIGHTED>
0.4

> <HBA_LIPINSKI>
8

> <HBD_LIPINSKI>
3

> <NUM_LIPINSKI_RO5_VIOLATIONS>
0

> <MW_MONOISOTOPIC>
448.2097

> <MOLECULAR_SPECIES>
NEUTRAL

> <FULL_MOLFORMULA>
C24H32O8

> <s_m_Source_Path>
/home/liwei/Desktop/Machine/Active

> <s_m_Source_File>
PKC.sdf

> <i_m_Source_File_Index>
3

$$$$
CHEMBL118987
                    3D
 Structure written by MMmdl.
 51 54  0  0  1  0            999 V2000
    1.3370   -2.5955    0.0000 C   0  0  0  0  0  0
   -0.0510   -3.1336    0.0000 C   0  0  0  0  0  0
    0.7726   -3.1957    0.0000 C   0  0  0  0  0  0
    0.5002   -1.3676    0.0000 C   0  0  2  0  0  0
    1.2137   -1.7810    0.0000 C   0  0  2  0  0  0
    1.2146   -0.1347    0.0000 C   0  0  1  0  0  0
    0.4976   -0.5453    0.0000 C   0  0  1  0  0  0
   -0.5145   -2.4494    0.0000 C   0  0  2  0  0  0
   -0.2653   -1.6591    0.0000 C   0  0  1  0  0  0
   -0.9399   -1.1778    0.0000 C   0  0  0  0  0  0
   -1.6062   -1.6708    0.0000 C   0  0  0  0  0  0
   -1.3431   -2.4566    0.0000 C   0  0  0  0  0  0
   -0.1894   -0.9071    0.0000 O   0  0  0  0  0  0
    1.8957   -2.2394    0.0000 H   0  0  0  0  0  0
    1.0713   -3.9647    0.0000 C   0  0  0  0  0  0
    1.8867   -4.0905    0.0000 O   0  0  0  0  0  0
   -0.9333   -3.1583    0.0000 O   0  0  0  0  0  0
    0.4458   -2.0708    0.0000 H   0  0  0  0  0  0
   -2.3930   -1.4227    0.0000 C   0  0  0  0  0  0
   -1.8222   -3.1283    0.0000 O   0  0  0  0  0  0
    1.2167    0.6903    0.0000 O   0  0  0  0  0  0
   -0.2168   -0.1327    0.0000 C   0  0  0  0  0  0
    1.9281   -0.5482    0.0000 C   0  0  2  0  0  0
    1.9214   -1.3681    0.0000 C   0  0  2  0  0  0
    2.6348   -0.9639    0.0000 C   0  0  0  0  0  0
    2.5042   -1.9500    0.0000 H   0  0  0  0  0  0
    2.3333    0.1708    0.0000 O   0  0  0  0  0  0
    0.5033    1.1046    0.0000 C   0  0  0  0  0  0
    0.5054    1.9296    0.0000 O   0  0  0  0  0  0
    3.1583    0.1794    0.0000 C   0  0  0  0  0  0
    3.5634    0.8981    0.0000 C   0  0  0  0  0  0
    3.5782   -0.5308    0.0000 O   0  0  0  0  0  0
    3.2167   -1.5458    0.0000 C   0  0  0  0  0  0
    3.4583   -0.9625    0.0000 C   0  0  0  0  0  0
   -0.2122    0.6939    0.0000 C   0  0  0  0  0  0
   -0.9256    1.1083    0.0000 C   0  0  0  0  0  0
   -1.6411    0.6976    0.0000 C   0  0  0  0  0  0
   -2.3545    1.1119    0.0000 C   0  0  0  0  0  0
   -3.0701    0.7013    0.0000 C   0  0  0  0  0  0
   -3.7835    1.1156    0.0000 C   0  0  0  0  0  0
   -4.4927    0.7049    0.0000 C   0  0  0  0  0  0
   -5.2077    1.1165    0.0000 C   0  0  0  0  0  0
   -5.9216    0.7031    0.0000 C   0  0  0  0  0  0
    4.3883    0.9066    0.0000 C   0  0  0  0  0  0
    4.7934    1.6253    0.0000 C   0  0  0  0  0  0
    5.6184    1.6339    0.0000 C   0  0  0  0  0  0
    6.0234    2.3526    0.0000 C   0  0  0  0  0  0
    6.8484    2.3611    0.0000 C   0  0  0  0  0  0
    7.2535    3.0798    0.0000 C   0  0  0  0  0  0
    8.0784    3.0884    0.0000 C   0  0  0  0  0  0
    8.4835    3.8013    0.0000 C   0  0  0  0  0  0
  1  5  1  0  0  0
  1  3  2  0  0  0
  2  8  1  0  0  0
  2  3  1  0  0  0
  3 15  1  0  0  0
  4  9  1  0  0  0
  4 13  1  0  0  0
  4  7  1  0  0  0
  4  5  1  1  0  0
  5 14  1  0  0  0
  5 24  1  6  0  0
  6 23  1  0  0  0
  6  7  1  0  0  0
  6 21  1  1  0  0
  7 22  1  1  0  0
  8 12  1  0  0  0
  8 17  1  0  0  0
  8  9  1  6  0  0
  9 10  1  0  0  0
  9 18  1  1  0  0
 10 11  2  0  0  0
 11 12  1  0  0  0
 11 19  1  0  0  0
 12 20  2  0  0  0
 15 16  1  0  0  0
 21 28  1  0  0  0
 23 27  1  0  0  0
 23 24  1  0  0  0
 23 25  1  6  0  0
 24 26  1  0  0  0
 24 25  1  6  0  0
 25 33  1  0  0  0
 25 34  1  0  0  0
 27 30  1  0  0  0
 28 29  2  0  0  0
 28 35  1  0  0  0
 30 31  1  0  0  0
 30 32  2  0  0  0
 31 44  1  0  0  0
 35 36  1  0  0  0
 36 37  1  0  0  0
 37 38  1  0  0  0
 38 39  1  0  0  0
 39 40  1  0  0  0
 40 41  1  0  0  0
 41 42  1  0  0  0
 42 43  1  0  0  0
 44 45  1  0  0  0
 45 46  1  0  0  0
 46 47  1  0  0  0
 47 48  1  0  0  0
 48 49  1  0  0  0
 49 50  1  0  0  0
 50 51  1  0  0  0
M  END
> <s_m_entry_id>
105776

> <s_m_entry_name>
PKC.4

> <MOLREGNO>
195732

> <CHEMBLID>
CHEMBL118987

> <SYNONYMS>
4Alpha-Phorbol-Didecanoate

> <MAX_PHASE>
0

> <MOLWEIGHT>
672.93

> <ALOGP>
7.96

> <PSA>
130.35

> <HBA>
8

> <HBD>
3

> <RO5>
2

> <RTB>
21

> <RO3>
N

> <ACD_MOST_APKA>
11.15

> <ACD_LOGP>
10.57

> <ACD_LOGD>
10.57

> <AROMATIC_RINGS>
0

> <HEAVY_ATOMS>
48

> <QED_WEIGHTED>
0.06

> <HBA_LIPINSKI>
8

> <HBD_LIPINSKI>
3

> <NUM_LIPINSKI_RO5_VIOLATIONS>
1

> <MW_MONOISOTOPIC>
672.4601

> <MOLECULAR_SPECIES>
NEUTRAL

> <FULL_MOLFORMULA>
C40H64O8

> <s_m_Source_Path>
/home/liwei/Desktop/Machine/Active

> <s_m_Source_File>
PKC.sdf

> <i_m_Source_File_Index>
4

$$$$
CHEMBL124518
                    3D
 Structure written by MMmdl.
 29 32  0  0  1  0            999 V2000
    6.2792   -1.9917    0.0000 C   0  0  2  0  0  0
    6.2792   -2.6042    0.0000 C   0  0  1  0  0  0
    6.7542   -2.3250    0.0000 C   0  0  0  0  0  0
    5.2125   -2.6042    0.0000 C   0  0  2  0  0  0
    4.6542   -2.8167    0.0000 C   0  0  1  0  0  0
    4.4750   -3.4000    0.0000 C   0  0  1  0  0  0
    5.7417   -2.9042    0.0000 C   0  0  1  0  0  0
    5.2125   -1.9917    0.0000 C   0  0  1  0  0  0
    5.7417   -1.6917    0.0000 C   0  0  1  0  0  0
    4.1542   -2.4750    0.0000 C   0  0  0  0  0  0
    3.8542   -3.4042    0.0000 C   0  0  0  0  0  0
    3.6625   -2.8417    0.0000 C   0  0  0  0  0  0
    5.8292   -3.5167    0.0000 C   0  0  0  0  0  0
    5.4042   -3.9542    0.0000 C   0  0  0  0  0  0
    4.8042   -3.9000    0.0000 C   0  0  0  0  0  0
    6.8125   -1.6792    0.0000 O   0  0  0  0  0  0
    3.4917   -3.9000    0.0000 O   0  0  0  0  0  0
    4.6917   -2.2917    0.0000 O   0  0  0  0  0  0
    4.2792   -3.9875    0.0000 O   0  0  0  0  0  0
    5.7417   -1.0750    0.0000 O   0  0  0  0  0  0
    7.1667   -2.0375    0.0000 C   0  0  0  0  0  0
    7.1542   -2.6417    0.0000 C   0  0  0  0  0  0
    4.6875   -1.6792    0.0000 C   0  0  0  0  0  0
    3.0750   -2.6792    0.0000 C   0  0  0  0  0  0
    5.6167   -4.5417    0.0000 C   0  0  0  0  0  0
    6.2042   -4.6542    0.0000 O   0  0  0  0  0  0
    6.8125   -2.9167    0.0000 H   0  0  0  0  0  0
    6.2792   -3.2125    0.0000 H   0  0  0  0  0  0
    5.1167   -3.1542    0.0000 H   0  0  0  0  0  0
  1  2  1  0  0  0
  1  3  1  0  0  0
  1  9  1  0  0  0
  1 16  1  6  0  0
  2  7  1  0  0  0
  2 27  1  0  0  0
  2  3  1  6  0  0
  3 21  1  0  0  0
  3 22  1  0  0  0
  4  8  1  0  0  0
  4  5  1  0  0  0
  4 18  1  0  0  0
  4  7  1  1  0  0
  5  6  1  0  0  0
  5 10  1  0  0  0
  5 29  1  1  0  0
  6 11  1  0  0  0
  6 19  1  0  0  0
  6 15  1  6  0  0
  7 13  1  0  0  0
  7 28  1  1  0  0
  8  9  1  0  0  0
  8 23  1  1  0  0
  9 20  1  1  0  0
 10 12  2  0  0  0
 11 17  2  0  0  0
 11 12  1  0  0  0
 12 24  1  0  0  0
 13 14  2  0  0  0
 14 15  1  0  0  0
 14 25  1  0  0  0
 25 26  1  0  0  0
M  END
> <s_m_entry_id>
105777

> <s_m_entry_name>
PKC.5

> <MOLREGNO>
208445

> <CHEMBLID>
CHEMBL124518

> <SYNONYMS>
Phorbol

> <MAX_PHASE>
0

> <MOLWEIGHT>
364.43

> <ALOGP>
-0.52

> <PSA>
118.22

> <HBA>
6

> <HBD>
5

> <RO5>
0

> <RTB>
1

> <RO3>
N

> <ACD_MOST_APKA>
11.36

> <ACD_LOGP>
0.96

> <ACD_LOGD>
0.96

> <AROMATIC_RINGS>
0

> <HEAVY_ATOMS>
26

> <QED_WEIGHTED>
0.4

> <HBA_LIPINSKI>
6

> <HBD_LIPINSKI>
5

> <NUM_LIPINSKI_RO5_VIOLATIONS>
0

> <MW_MONOISOTOPIC>
364.1886

> <MOLECULAR_SPECIES>
NEUTRAL

> <FULL_MOLFORMULA>
C20H28O6

> <s_m_Source_Path>
/home/liwei/Desktop/Machine/Active

> <s_m_Source_File>
PKC.sdf

> <i_m_Source_File_Index>
5

$$$$
CHEMBL170518
                    3D
 Structure written by MMmdl.
 31 34  0  0  1  0            999 V2000
   12.0621  -20.2519    0.0000 C   0  0  0  0  0  0
   12.8839  -20.2595    0.0000 C   0  0  2  0  0  0
   13.3014  -19.5460    0.0000 C   0  0  0  0  0  0
   14.1274  -19.5495    0.0000 C   0  0  2  0  0  0
   14.5358  -20.2706    0.0000 C   0  0  1  0  0  0
   14.9533  -19.5572    0.0000 C   0  0  0  0  0  0
   15.0981  -18.7473    0.0000 C   0  0  0  0  0  0
   15.7264  -19.8450    0.0000 C   0  0  0  0  0  0
   14.1183  -20.9799    0.0000 C   0  0  1  0  0  0
   13.2923  -20.9764    0.0000 C   0  0  1  0  0  0
   12.7756  -21.6172    0.0000 C   0  0  2  0  0  0
   11.9554  -21.5395    0.0000 C   0  0  0  0  0  0
   11.6251  -22.2955    0.0000 C   0  0  0  0  0  0
   12.2418  -22.8343    0.0000 C   0  0  0  0  0  0
   12.1646  -23.6585    0.0000 O   0  0  0  0  0  0
   12.9586  -22.4259    0.0000 C   0  0  1  0  0  0
   13.6948  -22.7865    0.0000 C   0  0  0  0  0  0
   14.4381  -22.4315    0.0000 C   0  0  0  0  0  0
   14.6272  -21.6261    0.0000 C   0  0  0  0  0  0
   15.0831  -22.9482    0.0000 C   0  0  0  0  0  0
   14.9522  -23.7633    0.0000 O   0  0  0  0  0  0
   12.9511  -23.2467    0.0000 O   0  0  0  0  0  0
   10.8203  -22.4738    0.0000 C   0  0  0  0  0  0
   12.4704  -20.9089    0.0000 O   0  0  0  0  0  0
   14.1309  -18.7278    0.0000 O   0  0  0  0  0  0
   13.4215  -18.3102    0.0000 C   0  0  0  0  0  0
   12.7047  -18.7187    0.0000 O   0  0  0  0  0  0
   13.4250  -17.4843    0.0000 C   0  0  0  0  0  0
   12.0413  -21.2398    0.0000 H   0  0  0  0  0  0
   15.3568  -20.3443    0.0000 H   0  0  0  0  0  0
   14.9437  -21.0025    0.0000 H   0  0  0  0  0  0
  1  2  1  0  0  0
  2  3  1  0  0  0
  2 10  1  6  0  0
  3  4  1  0  0  0
  4  5  1  0  0  0
  4  6  1  0  0  0
  4 25  1  6  0  0
  5  6  1  0  0  0
  5  9  1  0  0  0
  5 30  1  6  0  0
  6  7  1  0  0  0
  6  8  1  0  0  0
  9 10  1  0  0  0
  9 19  1  0  0  0
  9 31  1  1  0  0
 10 11  1  0  0  0
 10 24  1  6  0  0
 11 12  1  0  0  0
 11 16  1  0  0  0
 11 29  1  6  0  0
 12 13  2  0  0  0
 13 14  1  0  0  0
 13 23  1  0  0  0
 14 15  2  0  0  0
 14 16  1  0  0  0
 16 17  1  0  0  0
 16 22  1  6  0  0
 17 18  1  0  0  0
 18 19  2  0  0  0
 18 20  1  0  0  0
 20 21  1  0  0  0
 25 26  1  0  0  0
 26 27  2  0  0  0
 26 28  1  0  0  0
M  END
> <s_m_entry_id>
105778

> <s_m_entry_name>
PKC.6

> <MOLREGNO>
288751

> <CHEMBLID>
CHEMBL170518

> <SYNONYMS>
Prostratin | 12-Deoxyphorbol-13-Acetate

> <MAX_PHASE>
0

> <MOLWEIGHT>
390.47

> <ALOGP>
0.82

> <PSA>
104.06

> <HBA>
6

> <HBD>
3

> <RO5>
0

> <RTB>
3

> <RO3>
N

> <ACD_MOST_APKA>
11.4

> <ACD_LOGP>
2.63

> <ACD_LOGD>
2.63

> <AROMATIC_RINGS>
0

> <HEAVY_ATOMS>
28

> <QED_WEIGHTED>
0.49

> <HBA_LIPINSKI>
6

> <HBD_LIPINSKI>
3

> <NUM_LIPINSKI_RO5_VIOLATIONS>
0

> <MW_MONOISOTOPIC>
390.2042

> <MOLECULAR_SPECIES>
NEUTRAL

> <FULL_MOLFORMULA>
C22H30O6

> <s_m_Source_Path>
/home/liwei/Desktop/Machine/Active

> <s_m_Source_File>
PKC.sdf

> <i_m_Source_File_Index>
6

$$$$
CHEMBL279115
                    3D
 Structure written by MMmdl.
 47 50  0  0  1  0            999 V2000
    5.9752   -3.6462    0.0000 C   0  0  0  0  0  0
    5.7364   -4.4343    0.0000 C   0  0  0  0  0  0
    4.9403   -4.7487    0.0000 C   0  0  0  0  0  0
    4.2525   -4.3587    0.0000 C   0  0  1  0  0  0
    4.1276   -3.5599    0.0000 C   0  0  1  0  0  0
    3.3292   -3.4319    0.0000 C   0  0  0  0  0  0
    2.9607   -4.1516    0.0000 C   0  0  0  0  0  0
    3.5314   -4.7244    0.0000 C   0  0  0  0  0  0
    2.1456   -4.2792    0.0000 C   0  0  0  0  0  0
    3.4008   -5.5390    0.0000 O   0  0  0  0  0  0
    4.2458   -5.1833    0.0000 O   0  0  0  0  0  0
    3.9083   -2.7583    0.0000 H   0  0  0  0  0  0
    4.6443   -2.9390    0.0000 C   0  0  2  0  0  0
    5.4955   -2.9749    0.0000 C   0  0  2  0  0  0
    4.7064   -1.4682    0.0000 C   0  0  2  0  0  0
    4.2473   -2.1879    0.0000 C   0  0  1  0  0  0
    3.4230   -2.1542    0.0000 C   0  0  0  0  0  0
    4.8542   -3.7333    0.0000 O   0  0  0  0  0  0
    6.3431   -4.9932    0.0000 C   0  0  0  0  0  0
    7.1306   -4.7472    0.0000 O   0  0  0  0  0  0
    6.3167   -2.9708    0.0000 H   0  0  0  0  0  0
    5.5576   -1.5041    0.0000 C   0  0  2  0  0  0
    5.9491   -2.2552    0.0000 C   0  0  1  0  0  0
    6.4038   -1.5406    0.0000 C   0  0  0  0  0  0
    6.8083   -0.8208    0.0000 C   0  0  0  0  0  0
    7.1958   -1.7500    0.0000 C   0  0  0  0  0  0
    5.3375   -0.7000    0.0000 O   0  0  0  0  0  0
    5.9177   -0.1135    0.0000 C   0  0  0  0  0  0
    5.6999    0.6822    0.0000 O   0  0  0  0  0  0
    6.7158   -0.3228    0.0000 C   0  0  0  0  0  0
    4.3251   -0.7365    0.0000 O   0  0  0  0  0  0
    3.5009   -0.7009    0.0000 C   0  0  0  0  0  0
    3.1196    0.0307    0.0000 O   0  0  0  0  0  0
    3.0579   -1.3969    0.0000 C   0  0  0  0  0  0
    2.2337   -1.3613    0.0000 C   0  0  0  0  0  0
    1.7907   -2.0573    0.0000 C   0  0  0  0  0  0
    0.9665   -2.0217    0.0000 C   0  0  0  0  0  0
    0.5235   -2.7177    0.0000 C   0  0  0  0  0  0
   -0.3007   -2.6820    0.0000 C   0  0  0  0  0  0
   -0.7437   -3.3780    0.0000 C   0  0  0  0  0  0
   -1.5679   -3.3424    0.0000 C   0  0  0  0  0  0
   -2.0109   -4.0384    0.0000 C   0  0  0  0  0  0
   -2.8351   -4.0028    0.0000 C   0  0  0  0  0  0
   -3.2781   -4.6988    0.0000 C   0  0  0  0  0  0
   -4.1023   -4.6631    0.0000 C   0  0  0  0  0  0
   -4.5453   -5.3591    0.0000 C   0  0  0  0  0  0
    6.7417   -2.4667    0.0000 H   0  0  0  0  0  0
  1 14  1  0  0  0
  1  2  2  0  0  0
  2  3  1  0  0  0
  2 19  1  0  0  0
  3  4  1  0  0  0
  4  5  1  0  0  0
  4 11  1  0  0  0
  4  8  1  6  0  0
  5 13  1  0  0  0
  5 12  1  0  0  0
  5  6  1  1  0  0
  6  7  2  0  0  0
  7  8  1  0  0  0
  7  9  1  0  0  0
  8 10  2  0  0  0
 13 14  1  0  0  0
 13 16  1  0  0  0
 13 18  1  1  0  0
 14 23  1  0  0  0
 14 21  1  6  0  0
 15 31  1  0  0  0
 15 22  1  0  0  0
 15 16  1  6  0  0
 16 17  1  1  0  0
 19 20  1  0  0  0
 22 24  1  0  0  0
 22 27  1  0  0  0
 22 23  1  6  0  0
 23 24  1  0  0  0
 23 47  1  6  0  0
 24 25  1  0  0  0
 24 26  1  0  0  0
 27 28  1  0  0  0
 28 29  2  0  0  0
 28 30  1  0  0  0
 31 32  1  0  0  0
 32 33  2  0  0  0
 32 34  1  0  0  0
 34 35  1  0  0  0
 35 36  1  0  0  0
 36 37  1  0  0  0
 37 38  1  0  0  0
 38 39  1  0  0  0
 39 40  1  0  0  0
 40 41  1  0  0  0
 41 42  1  0  0  0
 42 43  1  0  0  0
 43 44  1  0  0  0
 44 45  1  0  0  0
 45 46  1  0  0  0
M  END
> <s_m_entry_id>
105779

> <s_m_entry_name>
PKC.7

> <MOLREGNO>
128763

> <CHEMBLID>
CHEMBL279115

> <SYNONYMS>
Phorbol Myristate Acetate

> <MAX_PHASE>
0

> <MOLWEIGHT>
616.83

> <ALOGP>
5.92

> <PSA>
130.36

> <HBA>
8

> <HBD>
3

> <RO5>
2

> <RTB>
17

> <RO3>
N

> <ACD_MOST_APKA>
11.19

> <ACD_LOGP>
8.53

> <ACD_LOGD>
8.53

> <AROMATIC_RINGS>
0

> <HEAVY_ATOMS>
44

> <QED_WEIGHTED>
0.1

> <HBA_LIPINSKI>
8

> <HBD_LIPINSKI>
3

> <NUM_LIPINSKI_RO5_VIOLATIONS>
1

> <MW_MONOISOTOPIC>
616.3975

> <MOLECULAR_SPECIES>
NEUTRAL

> <FULL_MOLFORMULA>
C36H56O8

> <s_m_Source_Path>
/home/liwei/Desktop/Machine/Active

> <s_m_Source_File>
PKC.sdf

> <i_m_Source_File_Index>
7

$$$$
CHEMBL448382
                    3D
 Structure written by MMmdl.
 49 55  0  0  1  0            999 V2000
   -1.2716    0.2475    0.0000 C   0  0  0  0  0  0
   -2.4434   -0.6706    0.0000 C   0  0  0  0  0  0
   -1.6373   -0.4908    0.0000 C   0  0  0  0  0  0
   -3.0855   -0.1505    0.0000 C   0  0  1  0  0  0
   -3.0815    0.6757    0.0000 C   0  0  1  0  0  0
   -3.8659    0.9348    0.0000 C   0  0  0  0  0  0
   -4.3549    0.2688    0.0000 C   0  0  0  0  0  0
   -3.8724   -0.4019    0.0000 C   0  0  0  0  0  0
   -4.1312   -1.1852    0.0000 O   0  0  0  0  0  0
   -5.1797    0.2728    0.0000 C   0  0  0  0  0  0
   -3.2514    1.6612    0.0000 H   0  0  0  0  0  0
   -3.0915   -0.9749    0.0000 O   0  0  0  0  0  0
   -2.4336    1.1790    0.0000 C   0  0  2  0  0  0
   -1.6261    0.9909    0.0000 C   0  0  2  0  0  0
   -1.0625    1.5929    0.0000 C   0  0  2  0  0  0
   -1.3010    2.3864    0.0000 C   0  0  1  0  0  0
   -2.1086    2.5745    0.0000 C   0  0  0  0  0  0
   -2.6776    1.9692    0.0000 C   0  0  1  0  0  0
   -0.6379    0.8378    0.0000 H   0  0  0  0  0  0
   -1.7957    0.5917    0.0000 O   0  0  0  0  0  0
   -1.6957    1.6124    0.0000 O   0  0  0  0  0  0
   -1.7541    2.1082    0.0000 O   0  0  0  0  0  0
   -3.4814    2.1551    0.0000 C   0  0  0  0  0  0
   -5.5544    1.4232    0.0000 C   0  0  0  0  0  0
   -4.8393    1.0073    0.0000 C   0  0  0  0  0  0
   -4.1236    1.4187    0.0000 C   0  0  0  0  0  0
   -4.1220    2.2457    0.0000 C   0  0  0  0  0  0
   -4.8419    2.6598    0.0000 C   0  0  0  0  0  0
   -5.5546    2.2460    0.0000 C   0  0  0  0  0  0
   -3.4075    2.6582    0.0000 C   0  0  0  0  0  0
   -2.7513    2.3690    0.0000 C   0  0  3  0  0  0
   -0.6770    2.9260    0.0000 C   0  0  0  0  0  0
    0.1023    2.6552    0.0000 C   0  0  0  0  0  0
   -0.8321    3.7361    0.0000 C   0  0  0  0  0  0
   -1.2405   -1.2137    0.0000 C   0  0  0  0  0  0
   -0.4158   -1.2312    0.0000 O   0  0  0  0  0  0
    0.0117   -0.5257    0.0000 C   0  0  0  0  0  0
    0.8364   -0.5431    0.0000 C   0  0  0  0  0  0
   -0.3856    0.1974    0.0000 O   0  0  0  0  0  0
    1.2337   -1.2661    0.0000 C   0  0  0  0  0  0
    0.8047   -1.9678    0.0000 C   0  0  0  0  0  0
    1.2013   -2.6902    0.0000 C   0  0  0  0  0  0
    2.0270   -2.7081    0.0000 C   0  0  0  0  0  0
    2.4544   -1.9976    0.0000 C   0  0  0  0  0  0
    2.0555   -1.2780    0.0000 C   0  0  0  0  0  0
    0.7735   -3.3956    0.0000 O   0  0  0  0  0  0
   -0.0512   -3.3777    0.0000 C   0  0  0  0  0  0
    2.4252   -3.4306    0.0000 O   0  0  0  0  0  0
   -1.9860    1.2092    0.0000 H   0  0  0  0  0  0
  1 14  1  0  0  0
  1  3  2  0  0  0
  2  4  1  0  0  0
  2  3  1  0  0  0
  3 35  1  0  0  0
  4 12  1  0  0  0
  4  8  1  0  0  0
  4  5  1  6  0  0
  5 11  1  0  0  0
  5 13  1  0  0  0
  5  6  1  6  0  0
  6  7  2  0  0  0
  7  8  1  0  0  0
  7 10  1  0  0  0
  8  9  2  0  0  0
 13 14  1  0  0  0
 13 18  1  0  0  0
 13 20  1  1  0  0
 14 15  1  0  0  0
 14 19  1  6  0  0
 15 16  1  0  0  0
 15 21  1  0  0  0
 15 49  1  1  0  0
 16 32  1  0  0  0
 16 17  1  0  0  0
 16 22  1  1  0  0
 17 18  1  0  0  0
 18 23  1  1  0  0
 20 31  1  0  0  0
 21 31  1  0  0  0
 22 31  1  0  0  0
 24 25  2  0  0  0
 24 29  1  0  0  0
 25 26  1  0  0  0
 26 27  2  0  0  0
 27 28  1  0  0  0
 27 30  1  0  0  0
 28 29  2  0  0  0
 30 31  1  0  0  0
 32 33  1  0  0  0
 32 34  2  0  0  0
 35 36  1  0  0  0
 36 37  1  0  0  0
 37 38  1  0  0  0
 37 39  2  0  0  0
 38 40  1  0  0  0
 40 41  2  0  0  0
 40 45  1  0  0  0
 41 42  1  0  0  0
 42 43  2  0  0  0
 42 46  1  0  0  0
 43 44  1  0  0  0
 43 48  1  0  0  0
 44 45  2  0  0  0
 46 47  1  0  0  0
M  END
> <s_m_entry_id>
105780

> <s_m_entry_name>
PKC.8

> <MOLREGNO>
456371

> <CHEMBLID>
CHEMBL448382

> <SYNONYMS>
Resiniferatoxin

> <MAX_PHASE>
0

> <MOLWEIGHT>
628.71

> <ALOGP>
5.5

> <PSA>
120.75

> <HBA>
9

> <HBD>
2

> <RO5>
2

> <RTB>
9

> <RO3>
N

> <ACD_MOST_APKA>
9.85

> <ACD_LOGP>
7.78

> <ACD_LOGD>
7.78

> <AROMATIC_RINGS>
2

> <HEAVY_ATOMS>
46

> <QED_WEIGHTED>
0.27

> <HBA_LIPINSKI>
9

> <HBD_LIPINSKI>
2

> <NUM_LIPINSKI_RO5_VIOLATIONS>
1

> <MW_MONOISOTOPIC>
628.2672

> <MOLECULAR_SPECIES>
NEUTRAL

> <FULL_MOLFORMULA>
C37H40O9

> <s_m_Source_Path>
/home/liwei/Desktop/Machine/Active

> <s_m_Source_File>
PKC.sdf

> <i_m_Source_File_Index>
8

$$$$
CHEMBL449158
                    3D
 Structure written by MMmdl.
 69 72  0  0  1  0            999 V2000
   14.6634   -3.1309    0.0000 C   0  0  0  0  0  0
   13.9566   -3.5587    0.0000 C   0  0  0  0  0  0
   13.9766   -4.3829    0.0000 C   0  0  0  0  0  0
   14.7012   -4.7846    0.0000 C   0  0  1  0  0  0
   15.4123   -4.3526    0.0000 O   0  0  0  0  0  0
   15.3946   -3.5231    0.0000 C   0  0  2  0  0  0
   13.2355   -3.1627    0.0000 C   0  0  0  0  0  0
   12.5304   -3.5912    0.0000 C   0  0  0  0  0  0
   11.8050   -3.1952    0.0000 O   0  0  0  0  0  0
   12.5503   -4.4155    0.0000 O   0  0  0  0  0  0
   11.7890   -2.3710    0.0000 C   0  0  0  0  0  0
   16.0989   -3.0933    0.0000 C   0  0  0  0  0  0
   16.8206   -3.4875    0.0000 C   0  0  2  0  0  0
   16.8388   -4.3077    0.0000 O   0  0  0  0  0  0
   17.5587   -4.7021    0.0000 C   0  0  1  0  0  0
   18.2624   -4.2773    0.0000 C   0  0  0  0  0  0
   18.2478   -3.4517    0.0000 C   0  0  1  0  0  0
   17.5211   -3.0549    0.0000 C   0  0  0  0  0  0
   18.0894   -2.4535    0.0000 C   0  0  0  0  0  0
   17.2850   -2.2532    0.0000 C   0  0  0  0  0  0
   18.9502   -3.0256    0.0000 O   0  0  0  0  0  0
   19.6740   -3.4236    0.0000 C   0  0  0  0  0  0
   20.3806   -2.9974    0.0000 O   0  0  0  0  0  0
   19.6916   -4.2479    0.0000 C   0  0  0  0  0  0
   17.5757   -5.5263    0.0000 C   0  0  0  0  0  0
   19.0021   -5.4989    0.0000 C   0  0  0  0  0  0
   19.7258   -5.8974    0.0000 C   0  0  0  0  0  0
   20.4326   -5.4717    0.0000 O   0  0  0  0  0  0
   19.7429   -6.7216    0.0000 O   0  0  0  0  0  0
   19.0362   -7.1475    0.0000 C   0  0  1  0  0  0
   19.0532   -7.9718    0.0000 C   0  0  1  0  0  0
   18.3124   -6.7490    0.0000 C   0  0  0  0  0  0
   18.2953   -5.9246    0.0000 C   0  0  2  0  0  0
   17.6098   -7.1790    0.0000 C   0  0  1  0  0  0
   18.3465   -8.3975    0.0000 C   0  0  0  0  0  0
   16.8886   -6.7741    0.0000 O   0  0  0  0  0  0
   16.1850   -7.1987    0.0000 C   0  0  2  0  0  0
   16.1998   -8.0237    0.0000 C   0  0  2  0  0  0
   16.9234   -8.4214    0.0000 C   0  0  0  0  0  0
   17.6323   -7.9983    0.0000 C   0  0  0  0  0  0
   14.7195   -5.6089    0.0000 C   0  0  0  0  0  0
   15.4440   -6.0063    0.0000 C   0  0  0  0  0  0
   15.4622   -6.8306    0.0000 C   0  0  0  0  0  0
   15.2604   -7.6237    0.0000 C   0  0  0  0  0  0
   14.6357   -6.8385    0.0000 C   0  0  0  0  0  0
   15.4949   -8.4456    0.0000 O   0  0  0  0  0  0
   15.5072   -9.2740    0.0000 C   0  0  0  0  0  0
   14.7981   -9.6958    0.0000 O   0  0  0  0  0  0
   16.2411  -10.4969    0.0000 C   0  0  0  0  0  0
   16.9626  -10.8954    0.0000 C   0  0  0  0  0  0
   16.9748  -11.7197    0.0000 C   0  0  0  0  0  0
   17.6966  -12.1223    0.0000 C   0  0  0  0  0  0
   18.4014  -11.6963    0.0000 C   0  0  0  0  0  0
   18.3889  -10.8720    0.0000 C   0  0  0  0  0  0
   16.9361   -9.2456    0.0000 C   0  0  0  0  0  0
   16.2274   -9.6719    0.0000 C   0  0  0  0  0  0
   17.6580   -9.6478    0.0000 C   0  0  0  0  0  0
   17.6709  -10.4721    0.0000 O   0  0  0  0  0  0
   18.3627   -9.2215    0.0000 O   0  0  0  0  0  0
   19.0845   -9.6237    0.0000 C   0  0  0  0  0  0
   18.4888   -7.6559    0.0000 H   0  0  0  0  0  0
   15.3668   -2.5235    0.0000 H   0  0  0  0  0  0
   16.8018   -2.6582    0.0000 O   0  0  0  0  0  0
   19.7770   -8.3701    0.0000 O   0  0  0  0  0  0
   16.1647   -6.3669    0.0000 O   0  0  0  0  0  0
   18.8783   -6.5083    0.0000 O   0  0  0  0  0  0
   19.0167   -6.1477    0.0000 H   0  0  0  0  0  0
   18.4346   -5.1846    0.0000 H   0  0  0  0  0  0
   13.8452   -5.3016    0.0000 H   0  0  0  0  0  0
  1  6  1  0  0  0
  1  2  1  0  0  0
  2  3  1  0  0  0
  2  7  2  0  0  0
  3  4  1  0  0  0
  4 41  1  0  0  0
  4  5  1  0  0  0
  4 69  1  6  0  0
  5  6  1  0  0  0
  6 12  1  0  0  0
  6 62  1  6  0  0
  7  8  1  0  0  0
  8  9  1  0  0  0
  8 10  2  0  0  0
  9 11  1  0  0  0
 12 13  1  0  0  0
 13 18  1  0  0  0
 13 14  1  0  0  0
 13 63  1  6  0  0
 14 15  1  0  0  0
 15 16  1  0  0  0
 15 25  1  0  0  0
 15 68  1  6  0  0
 16 17  1  0  0  0
 17 18  1  0  0  0
 17 21  1  6  0  0
 18 19  1  0  0  0
 18 20  1  0  0  0
 21 22  1  0  0  0
 22 23  2  0  0  0
 22 24  1  0  0  0
 25 33  1  0  0  0
 26 33  1  0  0  0
 26 27  1  0  0  0
 27 28  2  0  0  0
 27 29  1  0  0  0
 29 30  1  0  0  0
 30 32  1  0  0  0
 30 31  1  0  0  0
 30 67  1  6  0  0
 31 35  1  0  0  0
 31 64  1  1  0  0
 32 34  1  0  0  0
 33 66  1  6  0  0
 34 36  1  0  0  0
 34 40  1  0  0  0
 34 61  1  1  0  0
 36 37  1  0  0  0
 37 38  1  0  0  0
 37 43  1  0  0  0
 37 65  1  6  0  0
 38 39  1  0  0  0
 38 46  1  1  0  0
 39 40  1  0  0  0
 39 55  2  0  0  0
 41 42  2  0  0  0
 42 43  1  0  0  0
 43 44  1  0  0  0
 43 45  1  0  0  0
 46 47  1  0  0  0
 47 48  2  0  0  0
 47 56  1  0  0  0
 49 56  2  0  0  0
 49 50  1  0  0  0
 50 51  2  0  0  0
 51 52  1  0  0  0
 52 53  1  0  0  0
 53 54  1  0  0  0
 55 57  1  0  0  0
 57 58  2  0  0  0
 57 59  1  0  0  0
 59 60  1  0  0  0
M  END
> <s_m_entry_id>
105781

> <s_m_entry_name>
PKC.9

> <MOLREGNO>
479169

> <CHEMBLID>
CHEMBL449158

> <SYNONYMS>
Bryostatin | Bryostatin 1

> <MAX_PHASE>
0

> <MOLWEIGHT>
905.03

> <ALOGP>
4.25

> <PSA>
240.1

> <HBA>
17

> <HBD>
4

> <RO5>
2

> <RTB>
13

> <RO3>
N

> <ACD_MOST_APKA>
11.1

> <ACD_LOGP>
3.34

> <ACD_LOGD>
3.34

> <AROMATIC_RINGS>
0

> <HEAVY_ATOMS>
64

> <QED_WEIGHTED>
0.09

> <HBA_LIPINSKI>
17

> <HBD_LIPINSKI>
4

> <NUM_LIPINSKI_RO5_VIOLATIONS>
1

> <MW_MONOISOTOPIC>
904.4457

> <MOLECULAR_SPECIES>
NEUTRAL

> <FULL_MOLFORMULA>
C47H68O17

> <s_m_Source_Path>
/home/liwei/Desktop/Machine/Active

> <s_m_Source_File>
PKC.sdf

> <i_m_Source_File_Index>
9

$$$$
CHEMBL1235429
                    3D
 Structure written by MMmdl.
 29 32  0  0  1  0            999 V2000
    1.5243    0.6350    0.0000 C   0  0  0  0  0  0
    2.2997    0.3532    0.0000 C   0  0  0  0  0  0
    2.2713   -0.4713    0.0000 C   0  0  0  0  0  0
    2.9217   -0.9789    0.0000 O   0  0  0  0  0  0
    1.4784   -0.6991    0.0000 C   0  0  1  0  0  0
    2.0547   -1.2894    0.0000 O   0  0  0  0  0  0
    1.2317   -1.4863    0.0000 C   0  0  0  0  0  0
    0.4624   -1.7843    0.0000 C   0  0  0  0  0  0
   -0.2502   -1.3685    0.0000 C   0  0  0  0  0  0
   -0.3695   -0.5522    0.0000 C   0  0  2  0  0  0
    0.1943    0.0500    0.0000 C   0  0  1  0  0  0
    0.7116    0.6927    0.0000 O   0  0  0  0  0  0
    1.0167   -0.0153    0.0000 C   0  0  2  0  0  0
   -0.0453    0.8395    0.0000 C   0  0  1  0  0  0
   -0.8488    1.0267    0.0000 C   0  0  1  0  0  0
   -1.0884    1.8161    0.0000 O   0  0  0  0  0  0
   -1.4126    0.4244    0.0000 C   0  0  2  0  0  0
   -1.1730   -0.3650    0.0000 C   0  0  1  0  0  0
   -1.9765   -0.1778    0.0000 C   0  0  0  0  0  0
   -2.7606    0.0787    0.0000 C   0  0  0  0  0  0
   -2.4857   -0.8269    0.0000 C   0  0  0  0  0  0
    0.5186    1.4417    0.0000 C   0  0  0  0  0  0
    2.9834    0.8149    0.0000 C   0  0  0  0  0  0
    0.3970   -2.6067    0.0000 C   0  0  0  0  0  0
   -0.3479   -2.9613    0.0000 O   0  0  0  0  0  0
   -2.0149    0.9883    0.0000 O   0  0  0  0  0  0
   -1.8277    1.7918    0.0000 C   0  0  0  0  0  0
   -2.4299    2.3556    0.0000 O   0  0  0  0  0  0
   -1.1509    2.2636    0.0000 C   0  0  0  0  0  0
  1  2  2  0  0  0
  1 13  1  0  0  0
  2  3  1  0  0  0
  2 23  1  0  0  0
  3  4  2  0  0  0
  3  5  1  0  0  0
  5  6  1  0  0  0
  5  7  1  0  0  0
  5 13  1  6  0  0
  7  8  1  0  0  0
  8  9  2  0  0  0
  8 24  1  0  0  0
  9 10  1  0  0  0
 10 11  1  0  0  0
 10 18  1  1  0  0
 11 12  1  0  0  0
 11 13  1  0  0  0
 11 14  1  1  0  0
 14 15  1  0  0  0
 14 22  1  1  0  0
 15 16  1  0  0  0
 15 17  1  1  0  0
 17 18  1  0  0  0
 17 19  1  0  0  0
 17 26  1  6  0  0
 18 19  1  1  0  0
 19 20  1  0  0  0
 19 21  1  0  0  0
 24 25  1  0  0  0
 26 27  1  0  0  0
 27 28  2  0  0  0
 27 29  1  0  0  0
M  END
> <s_m_entry_id>
105782

> <s_m_entry_name>
PKC.10

> <MOLREGNO>
697779

> <CHEMBLID>
CHEMBL1235429

> <SYNONYMS>
13-ACETYLPHORBOL

> <MAX_PHASE>
0

> <MOLWEIGHT>
406.47

> <ALOGP>
-0.14

> <PSA>
124.29

> <HBA>
7

> <HBD>
4

> <RO5>
0

> <RTB>
3

> <RO3>
N

> <ACD_MOST_APKA>
11.3

> <ACD_LOGP>
1.67

> <ACD_LOGD>
1.67

> <AROMATIC_RINGS>
0

> <HEAVY_ATOMS>
29

> <QED_WEIGHTED>
0.38

> <HBA_LIPINSKI>
7

> <HBD_LIPINSKI>
4

> <NUM_LIPINSKI_RO5_VIOLATIONS>
0

> <MW_MONOISOTOPIC>
406.1992

> <MOLECULAR_SPECIES>
NEUTRAL

> <FULL_MOLFORMULA>
C22H30O7

> <s_m_Source_Path>
/home/liwei/Desktop/Machine/Active

> <s_m_Source_File>
PKC.sdf

> <i_m_Source_File_Index>
10

$$$$
CHEMBL1863513
                    3D
 Structure written by MMmdl.
 37 40  0  0  1  0            999 V2000
    5.6571   -4.8243    0.0000 C   0  0  1  0  0  0
    4.9138   -5.1823    0.0000 C   0  0  2  0  0  0
    4.7303   -5.9865    0.0000 C   0  0  1  0  0  0
    5.2447   -6.6316    0.0000 C   0  0  0  0  0  0
    6.0696   -6.6316    0.0000 C   0  0  0  0  0  0
    6.5840   -5.9865    0.0000 C   0  0  2  0  0  0
    6.4004   -5.1823    0.0000 C   0  0  0  0  0  0
    4.3437   -4.5860    0.0000 C   0  0  2  0  0  0
    4.7347   -3.8595    0.0000 C   0  0  0  0  0  0
    5.5464   -4.0068    0.0000 C   0  0  0  0  0  0
    4.3767   -3.1162    0.0000 C   0  0  0  0  0  0
    3.5262   -4.6968    0.0000 O   0  0  0  0  0  0
    3.9312   -3.8715    0.0000 H   0  0  0  0  0  0
    2.9428   -4.1134    0.0000 C   0  0  0  0  0  0
    2.1460   -4.3269    0.0000 C   0  0  0  0  0  0
    3.1564   -3.3165    0.0000 O   0  0  0  0  0  0
    1.5626   -3.7436    0.0000 C   0  0  0  0  0  0
    1.9324   -5.1238    0.0000 C   0  0  0  0  0  0
    1.7761   -2.9467    0.0000 C   0  0  0  0  0  0
    3.7934   -5.5799    0.0000 H   0  0  0  0  0  0
    4.0158   -6.3990    0.0000 O   0  0  0  0  0  0
    4.8867   -7.3749    0.0000 C   0  0  0  0  0  0
    4.0617   -7.3749    0.0000 O   0  0  0  0  0  0
    5.8695   -5.5740    0.0000 H   0  0  0  0  0  0
    7.3883   -6.1701    0.0000 C   0  0  1  0  0  0
    6.3716   -4.4118    0.0000 C   0  0  1  0  0  0
    7.3158   -4.4191    0.0000 C   0  0  0  0  0  0
    7.7283   -5.1041    0.0000 C   0  0  1  0  0  0
    8.1837   -5.9032    0.0000 C   0  0  0  0  0  0
    8.8982   -5.4907    0.0000 C   0  0  0  0  0  0
    8.7670   -6.4865    0.0000 C   0  0  0  0  0  0
    8.2822   -4.6091    0.0000 H   0  0  0  0  0  0
    7.8008   -6.8846    0.0000 H   0  0  0  0  0  0
    6.7841   -3.6973    0.0000 C   0  0  0  0  0  0
    7.0455   -4.6679    0.0000 O   0  0  0  0  0  0
    4.0888   -5.1823    0.0000 O   0  0  0  0  0  0
    5.9591   -3.6973    0.0000 H   0  0  0  0  0  0
  1  7  1  0  0  0
  1 10  1  0  0  0
  1  2  1  0  0  0
  1 26  1  6  0  0
  2  3  1  0  0  0
  2  8  1  0  0  0
  2 36  1  6  0  0
  3  4  1  0  0  0
  3 20  1  0  0  0
  3 21  1  6  0  0
  4  5  2  0  0  0
  4 22  1  0  0  0
  5  6  1  0  0  0
  6  7  1  0  0  0
  6 24  1  0  0  0
  6 25  1  6  0  0
  7 35  2  0  0  0
  8  9  1  0  0  0
  8 12  1  0  0  0
  8 13  1  6  0  0
  9 10  2  0  0  0
  9 11  1  0  0  0
 12 14  1  0  0  0
 14 15  1  0  0  0
 14 16  2  0  0  0
 15 17  2  0  0  0
 15 18  1  0  0  0
 17 19  1  0  0  0
 22 23  1  0  0  0
 25 28  1  0  0  0
 25 29  1  0  0  0
 25 33  1  6  0  0
 26 27  1  0  0  0
 26 34  1  0  0  0
 26 37  1  6  0  0
 27 28  1  0  0  0
 28 29  1  0  0  0
 28 32  1  6  0  0
 29 30  1  0  0  0
 29 31  1  0  0  0
M  END
> <s_m_entry_id>
105783

> <s_m_entry_name>
PKC.11

> <MOLREGNO>
1204084

> <CHEMBLID>
CHEMBL1863513

> <SYNONYMS>
INGENOL MEBUTATE | Picato | PEP-005

> <MAX_PHASE>
4

> <MOLWEIGHT>
430.53

> <ALOGP>
2.47

> <PSA>
104.06

> <HBA>
6

> <HBD>
3

> <RO5>
0

> <RTB>
4

> <RO3>
N

> <ACD_MOST_APKA>
11.52

> <ACD_LOGP>
1.59

> <ACD_LOGD>
1.59

> <AROMATIC_RINGS>
0

> <HEAVY_ATOMS>
31

> <QED_WEIGHTED>
0.36

> <HBA_LIPINSKI>
6

> <HBD_LIPINSKI>
3

> <NUM_LIPINSKI_RO5_VIOLATIONS>
0

> <MW_MONOISOTOPIC>
430.2355

> <MOLECULAR_SPECIES>
NEUTRAL

> <FULL_MOLFORMULA>
C25H34O6

> <s_m_Source_Path>
/home/liwei/Desktop/Machine/Active

> <s_m_Source_File>
PKC.sdf

> <i_m_Source_File_Index>
11

$$$$
CHEMBL2165402
                    3D
 Structure written by MMmdl.
 28 31  0  0  1  0            999 V2000
    5.5296   -6.5678    0.0000 C   0  0  2  0  0  0
    5.2380   -7.4761    0.0000 C   0  0  2  0  0  0
    5.8678   -8.2126    0.0000 C   0  0  1  0  0  0
    6.6388   -8.2126    0.0000 C   0  0  0  0  0  0
    6.9834   -8.9013    0.0000 C   0  0  0  0  0  0
    7.7473   -8.9456    0.0000 O   0  0  0  0  0  0
    7.2293   -7.8655    0.0000 C   0  0  0  0  0  0
    7.2293   -6.9693    0.0000 C   0  0  2  0  0  0
    6.4385   -6.4000    0.0000 C   0  0  0  0  0  0
    6.5563   -5.5901    0.0000 O   0  0  0  0  0  0
    7.5209   -6.2123    0.0000 C   0  0  2  0  0  0
    7.9419   -5.4982    0.0000 C   0  0  0  0  0  0
    7.1953   -5.4530    0.0000 C   0  0  2  0  0  0
    6.5609   -5.0604    0.0000 C   0  0  0  0  0  0
    5.5296   -5.5720    0.0000 C   0  0  1  0  0  0
    4.9416   -5.1559    0.0000 C   0  0  0  0  0  0
    7.9419   -4.9035    0.0000 C   0  0  0  0  0  0
    8.4537   -5.6471    0.0000 C   0  0  0  0  0  0
    5.7266   -8.9928    0.0000 O   0  0  0  0  0  0
    4.3778   -7.3664    0.0000 C   0  0  1  0  0  0
    3.8779   -7.9285    0.0000 O   0  0  0  0  0  0
    4.1319   -6.5616    0.0000 C   0  0  0  0  0  0
    4.8445   -6.1083    0.0000 C   0  0  0  0  0  0
    3.4129   -6.2713    0.0000 C   0  0  0  0  0  0
    5.0772   -8.1297    0.0000 O   0  0  0  0  0  0
    7.1874   -4.6469    0.0000 H   0  0  0  0  0  0
    8.2904   -6.4184    0.0000 H   0  0  0  0  0  0
    8.0319   -6.9692    0.0000 H   0  0  0  0  0  0
  1  2  1  0  0  0
  1  9  1  0  0  0
  1 15  1  0  0  0
  1 23  1  6  0  0
  2  3  1  0  0  0
  2 20  1  0  0  0
  2 25  1  1  0  0
  3  4  1  0  0  0
  3 19  1  1  0  0
  4  5  1  0  0  0
  4  7  2  0  0  0
  5  6  1  0  0  0
  7  8  1  0  0  0
  8  9  1  0  0  0
  8 11  1  0  0  0
  8 28  1  6  0  0
  9 10  2  0  0  0
 11 12  1  0  0  0
 11 13  1  0  0  0
 11 27  1  1  0  0
 12 13  1  0  0  0
 12 17  1  0  0  0
 12 18  1  0  0  0
 13 14  1  0  0  0
 13 26  1  1  0  0
 14 15  1  0  0  0
 15 16  1  1  0  0
 20 21  1  0  0  0
 20 22  1  6  0  0
 22 23  2  0  0  0
 22 24  1  0  0  0
M  END
> <s_m_entry_id>
105784

> <s_m_entry_name>
PKC.12

> <MOLREGNO>
1428839

> <CHEMBLID>
CHEMBL2165402

> <SYNONYMS>
Ingenol

> <MAX_PHASE>
0

> <MOLWEIGHT>
348.43

> <ALOGP>
0.54

> <PSA>
97.99

> <HBA>
5

> <HBD>
4

> <RO5>
0

> <RTB>
1

> <RO3>
N

> <ACD_MOST_APKA>
12.06

> <ACD_LOGP>
-1.01

> <ACD_LOGD>
-1.01

> <AROMATIC_RINGS>
0

> <HEAVY_ATOMS>
25

> <QED_WEIGHTED>
0.52

> <HBA_LIPINSKI>
5

> <HBD_LIPINSKI>
4

> <NUM_LIPINSKI_RO5_VIOLATIONS>
0

> <MW_MONOISOTOPIC>
348.1937

> <MOLECULAR_SPECIES>
NEUTRAL

> <FULL_MOLFORMULA>
C20H28O5

> <s_m_Source_Path>
/home/liwei/Desktop/Machine/Active

> <s_m_Source_File>
PKC.sdf

> <i_m_Source_File_Index>
12

$$$$
CHEMBL2165713
                    3D
 Structure written by MMmdl.
 44 49  0  0  1  0            999 V2000
    8.7818   -8.1094    0.0000 C   0  0  2  0  0  0
    8.9983   -7.3069    0.0000 C   0  0  0  0  0  0
    9.7105   -7.7217    0.0000 C   0  0  0  0  0  0
   10.5084   -7.5054    0.0000 C   0  0  1  0  0  0
   10.9051   -9.1057    0.0000 C   0  0  2  0  0  0
   11.3153   -9.8179    0.0000 C   0  0  0  0  0  0
   10.0982   -5.7607    0.0000 C   0  0  0  0  0  0
   10.1928   -8.6955    0.0000 C   0  0  1  0  0  0
    9.3679   -8.6954    0.0000 C   0  0  1  0  0  0
    9.1137   -9.4780    0.0000 C   0  0  2  0  0  0
    9.7825   -9.9639    0.0000 C   0  0  0  0  0  0
   10.4467   -9.4781    0.0000 C   0  0  0  0  0  0
    9.7781   -7.9742    0.0000 O   0  0  0  0  0  0
    7.9840   -8.3213    0.0000 O   0  0  0  0  0  0
    8.6794   -6.5461    0.0000 C   0  0  0  0  0  0
    7.8606   -6.4402    0.0000 O   0  0  0  0  0  0
    7.5462   -5.6748    0.0000 C   0  0  0  0  0  0
    6.7275   -5.5689    0.0000 O   0  0  0  0  0  0
    8.0463   -5.0198    0.0000 C   0  0  0  0  0  0
    8.8676   -5.1321    0.0000 C   0  0  0  0  0  0
    9.3717   -4.4790    0.0000 C   0  0  0  0  0  0
    9.0531   -3.7159    0.0000 C   0  0  0  0  0  0
    8.2334   -3.6100    0.0000 C   0  0  0  0  0  0
    7.7326   -4.2654    0.0000 C   0  0  0  0  0  0
   10.0937   -4.9402    0.0000 O   0  0  0  0  0  0
   10.9141   -6.7885    0.0000 H   0  0  0  0  0  0
   11.2207   -7.9200    0.0000 C   0  0  1  0  0  0
   11.6309   -8.6278    0.0000 C   0  0  2  0  0  0
   12.0420   -7.9212    0.0000 C   0  0  0  0  0  0
   12.4513   -8.6278    0.0000 H   0  0  0  0  0  0
   11.4325   -7.1176    0.0000 H   0  0  0  0  0  0
   12.2530   -7.1176    0.0000 C   0  0  0  0  0  0
   12.8661   -7.9200    0.0000 C   0  0  0  0  0  0
    9.7825  -10.7889    0.0000 C   0  0  0  0  0  0
    8.3264   -9.7320    0.0000 O   0  0  0  0  0  0
    8.1535  -10.5404    0.0000 C   0  0  0  0  0  0
    7.3707  -10.7989    0.0000 C   0  0  0  0  0  0
    8.7723  -11.0949    0.0000 O   0  0  0  0  0  0
    6.7608  -10.2402    0.0000 C   0  0  0  0  0  0
    5.9749  -10.4974    0.0000 C   0  0  0  0  0  0
    5.8007  -11.3030    0.0000 C   0  0  0  0  0  0
    6.4211  -11.8595    0.0000 C   0  0  0  0  0  0
    7.2063  -11.6003    0.0000 C   0  0  0  0  0  0
   10.9006   -9.9352    0.0000 C   0  0  0  0  0  0
  1  2  1  0  0  0
  1  9  1  0  0  0
  1 14  1  6  0  0
  2  3  2  0  0  0
  2 15  1  0  0  0
  3  4  1  0  0  0
  4 27  1  0  0  0
  4  7  1  0  0  0
  4 26  1  6  0  0
  5  8  1  0  0  0
  5  6  1  0  0  0
  5 44  1  6  0  0
  6 28  1  0  0  0
  7  8  1  0  0  0
  7 25  2  0  0  0
  8  9  1  0  0  0
  8 12  1  1  0  0
  9 10  1  0  0  0
  9 13  1  1  0  0
 10 11  1  0  0  0
 10 35  1  1  0  0
 11 12  2  0  0  0
 11 34  1  0  0  0
 15 16  1  0  0  0
 16 17  1  0  0  0
 17 18  2  0  0  0
 17 19  1  0  0  0
 19 20  2  0  0  0
 19 24  1  0  0  0
 20 21  1  0  0  0
 21 22  2  0  0  0
 22 23  1  0  0  0
 23 24  2  0  0  0
 27 28  1  0  0  0
 27 29  1  0  0  0
 27 31  1  6  0  0
 28 29  1  0  0  0
 28 30  1  1  0  0
 29 32  1  0  0  0
 29 33  1  0  0  0
 35 36  1  0  0  0
 36 37  1  0  0  0
 36 38  2  0  0  0
 37 39  2  0  0  0
 37 43  1  0  0  0
 39 40  1  0  0  0
 40 41  2  0  0  0
 41 42  1  0  0  0
 42 43  2  0  0  0
M  END
> <s_m_entry_id>
105785

> <s_m_entry_name>
PKC.13

> <MOLREGNO>
1429153

> <CHEMBLID>
CHEMBL2165713

> <SYNONYMS>
Ingenol 3,20-Dibenzoate

> <MAX_PHASE>
0

> <MOLWEIGHT>
556.65

> <ALOGP>
4.63

> <PSA>
110.13

> <HBA>
7

> <HBD>
2

> <RO5>
1

> <RTB>
7

> <RO3>
N

> <ACD_MOST_APKA>
11.56

> <ACD_LOGP>
4.56

> <ACD_LOGD>
4.56

> <AROMATIC_RINGS>
2

> <HEAVY_ATOMS>
41

> <QED_WEIGHTED>
0.38

> <HBA_LIPINSKI>
7

> <HBD_LIPINSKI>
2

> <NUM_LIPINSKI_RO5_VIOLATIONS>
0

> <MW_MONOISOTOPIC>
556.2461

> <MOLECULAR_SPECIES>
NEUTRAL

> <FULL_MOLFORMULA>
C34H36O7

> <s_m_Source_Path>
/home/liwei/Desktop/Machine/Active

> <s_m_Source_File>
PKC.sdf

> <i_m_Source_File_Index>
13

$$$$
CHEMBL2373592
                    3D
 Structure written by MMmdl.
 47 50  0  0  1  0            999 V2000
    9.1109   -9.7575    0.0000 O   0  0  0  0  0  0
   10.1273  -10.4720    0.0000 O   0  0  0  0  0  0
    9.4417  -12.4799    0.0000 O   0  0  0  0  0  0
    7.8160  -14.2377    0.0000 O   0  0  0  0  0  0
    9.1109   -8.3285    0.0000 O   0  0  0  0  0  0
    8.3151  -15.0116    0.0000 O   0  0  0  0  0  0
   10.8418  -11.7095    0.0000 O   0  0  0  0  0  0
    5.6426  -12.2772    0.0000 O   0  0  0  0  0  0
    8.6984  -10.4720    0.0000 C   0  0  1  0  0  0
    7.9839  -10.8845    0.0000 C   0  0  1  0  0  0
    7.9839  -10.0595    0.0000 C   0  0  0  0  0  0
    7.9839  -11.7095    0.0000 C   0  0  1  0  0  0
    8.6984  -12.1220    0.0000 C   0  0  1  0  0  0
    9.4128  -10.8845    0.0000 C   0  0  1  0  0  0
    9.4128  -11.7095    0.0000 C   0  0  1  0  0  0
    8.8213  -12.9377    0.0000 C   0  0  1  0  0  0
    8.2602  -13.5425    0.0000 C   0  0  1  0  0  0
    8.0558   -9.2376    0.0000 C   0  0  0  0  0  0
    7.2362   -9.7108    0.0000 C   0  0  0  0  0  0
    7.2159  -12.0109    0.0000 C   0  0  0  0  0  0
    9.5699  -13.2845    0.0000 C   0  0  0  0  0  0
    8.6984   -9.0430    0.0000 C   0  0  0  0  0  0
    6.9727  -12.7992    0.0000 C   0  0  0  0  0  0
    8.6619  -14.2631    0.0000 C   0  0  0  0  0  0
    7.4375  -13.4809    0.0000 C   0  0  0  0  0  0
   10.1273  -12.1220    0.0000 C   0  0  0  0  0  0
    9.4714  -14.1036    0.0000 C   0  0  0  0  0  0
   10.8418  -10.8845    0.0000 C   0  0  0  0  0  0
    6.1570  -12.9222    0.0000 C   0  0  0  0  0  0
    7.9137   -8.7881    0.0000 C   0  0  0  0  0  0
   10.0762  -14.6648    0.0000 C   0  0  0  0  0  0
   11.5562  -10.4720    0.0000 C   0  0  0  0  0  0
   12.2707  -10.8845    0.0000 C   0  0  0  0  0  0
   12.9852  -10.4720    0.0000 C   0  0  0  0  0  0
   13.6997  -10.8845    0.0000 C   0  0  0  0  0  0
   14.4141  -10.4720    0.0000 C   0  0  0  0  0  0
   15.1286  -10.8845    0.0000 C   0  0  0  0  0  0
   15.8431  -10.4720    0.0000 C   0  0  0  0  0  0
   16.5575  -10.8845    0.0000 C   0  0  0  0  0  0
   17.2720  -10.4720    0.0000 C   0  0  0  0  0  0
   17.9865  -10.8845    0.0000 C   0  0  0  0  0  0
   18.7009  -10.4720    0.0000 C   0  0  0  0  0  0
   19.4154  -10.8845    0.0000 C   0  0  0  0  0  0
   20.1299  -10.4720    0.0000 C   0  0  0  0  0  0
    9.6214  -12.3379    0.0000 H   0  0  0  0  0  0
    7.1577  -11.1462    0.0000 H   0  0  0  0  0  0
    7.9839  -10.8845    0.0000 H   0  0  0  0  0  0
  1  9  1  0  0  0
  1 22  1  0  0  0
  2 14  1  0  0  0
  2 28  1  0  0  0
  3 13  1  0  0  0
  4 17  1  0  0  0
  5 22  2  0  0  0
  6 24  2  0  0  0
  7 28  2  0  0  0
  8 29  1  0  0  0
  9 10  1  0  0  0
  9 11  1  0  0  0
  9 14  1  1  0  0
 10 11  1  0  0  0
 10 12  1  0  0  0
 10 47  1  6  0  0
 11 18  1  0  0  0
 11 19  1  0  0  0
 12 13  1  0  0  0
 12 20  1  0  0  0
 12 46  1  1  0  0
 13 15  1  0  0  0
 13 16  1  6  0  0
 14 15  1  1  0  0
 15 26  1  1  0  0
 16 17  1  0  0  0
 16 21  1  0  0  0
 16 45  1  1  0  0
 17 24  1  0  0  0
 17 25  1  1  0  0
 20 23  2  0  0  0
 21 27  2  0  0  0
 22 30  1  0  0  0
 23 25  1  0  0  0
 23 29  1  0  0  0
 24 27  1  0  0  0
 27 31  1  0  0  0
 28 32  1  0  0  0
 32 33  1  0  0  0
 33 34  1  0  0  0
 34 35  1  0  0  0
 35 36  1  0  0  0
 36 37  1  0  0  0
 37 38  1  0  0  0
 38 39  1  0  0  0
 39 40  1  0  0  0
 40 41  1  0  0  0
 41 42  1  0  0  0
 42 43  1  0  0  0
 43 44  1  0  0  0
M  END
> <s_m_entry_id>
105786

> <s_m_entry_name>
PKC.14

> <MOLREGNO>
1548043

> <CHEMBLID>
CHEMBL2373592

> <MAX_PHASE>
0

> <MOLWEIGHT>
616.83

> <ALOGP>
5.92

> <PSA>
130.35

> <HBA>
8

> <HBD>
3

> <RO5>
2

> <RTB>
17

> <RO3>
N

> <ACD_MOST_APKA>
11.19

> <ACD_LOGP>
8.53

> <ACD_LOGD>
8.53

> <AROMATIC_RINGS>
0

> <HEAVY_ATOMS>
44

> <QED_WEIGHTED>
0.1

> <HBA_LIPINSKI>
8

> <HBD_LIPINSKI>
3

> <NUM_LIPINSKI_RO5_VIOLATIONS>
1

> <MW_MONOISOTOPIC>
616.3975

> <MOLECULAR_SPECIES>
NEUTRAL

> <FULL_MOLFORMULA>
C36H56O8

> <s_m_Source_Path>
/home/liwei/Desktop/Machine/Active

> <s_m_Source_File>
PKC.sdf

> <i_m_Source_File_Index>
14

$$$$
CHEMBL3586003
                    3D
 Structure written by MMmdl.
 32 35  0  0  1  0            999 V2000
    1.5500   -2.4600    0.0000 C   0  0  0  0  0  0
   -0.8100   -3.8500    0.0000 C   0  0  0  0  0  0
    0.7100   -3.7400    0.0000 C   0  0  0  0  0  0
   -1.8400   -2.7400    0.0000 C   0  0  1  0  0  0
   -1.6200   -1.2300    0.0000 C   0  0  1  0  0  0
   -3.0300   -0.5200    0.0000 C   0  0  0  0  0  0
   -4.0700   -1.6400    0.0000 C   0  0  0  0  0  0
   -3.3600   -3.0300    0.0000 C   0  0  0  0  0  0
   -0.3100   -0.4200    0.0000 C   0  0  2  0  0  0
    1.0700   -0.9900    0.0000 C   0  0  2  0  0  0
    0.6100    2.0200    0.0000 C   0  0  2  0  0  0
   -0.5200    1.1200    0.0000 C   0  0  1  0  0  0
    2.0600    1.4800    0.0000 C   0  0  2  0  0  0
    2.2900    0.0000    0.0000 C   0  0  1  0  0  0
    3.4900    0.9300    0.0000 C   0  0  0  0  0  0
   -5.2586   -1.4748    0.0000 C   0  0  0  0  0  0
   -3.8874   -4.1079    0.0000 O   0  0  0  0  0  0
   -2.2142   -3.8802    0.0000 O   0  0  0  0  0  0
   -1.6636   -0.2310    0.0000 H   0  0  0  0  0  0
   -1.2144    0.0066    0.0000 O   0  0  0  0  0  0
    2.0292   -1.2728    0.0000 H   0  0  0  0  0  0
    0.3487    3.4982    0.0000 O   0  0  0  0  0  0
   -1.6338    1.5666    0.0000 C   0  0  0  0  0  0
    1.6352    0.3577    0.0000 O   0  0  0  0  0  0
    3.9460    2.0400    0.0000 C   0  0  0  0  0  0
    4.2466   -0.0014    0.0000 C   0  0  0  0  0  0
    2.9114   -0.7835    0.0000 H   0  0  0  0  0  0
    1.4664   -5.0380    0.0000 C   0  0  0  0  0  0
    0.8713   -6.0800    0.0000 O   0  0  0  0  0  0
    1.4970    4.4645    0.0000 C   0  0  0  0  0  0
    1.2877    5.6461    0.0000 O   0  0  0  0  0  0
    2.6251    4.0554    0.0000 C   0  0  0  0  0  0
  1 10  1  0  0  0
  1  3  2  0  0  0
  2  4  1  0  0  0
  2  3  1  0  0  0
  3 28  1  0  0  0
  4  5  1  0  0  0
  4  8  1  0  0  0
  4 18  1  6  0  0
  5  9  1  0  0  0
  5  6  1  0  0  0
  5 19  1  1  0  0
  6  7  2  0  0  0
  7  8  1  0  0  0
  7 16  1  0  0  0
  8 17  2  0  0  0
  9 10  1  0  0  0
  9 12  1  0  0  0
  9 20  1  1  0  0
 10 14  1  0  0  0
 10 21  1  6  0  0
 11 13  1  0  0  0
 11 12  1  0  0  0
 11 22  1  6  0  0
 12 23  1  1  0  0
 13 14  1  0  0  0
 13 15  1  0  0  0
 13 24  1  6  0  0
 14 15  1  0  0  0
 14 27  1  6  0  0
 15 25  1  0  0  0
 15 26  1  0  0  0
 22 30  1  0  0  0
 28 29  1  0  0  0
 30 31  2  0  0  0
 30 32  1  0  0  0
M  END
> <s_m_entry_id>
105787

> <s_m_entry_name>
PKC.15

> <MOLREGNO>
1949218

> <CHEMBLID>
CHEMBL3586003

> <MAX_PHASE>
0

> <MOLWEIGHT>
406.47

> <ALOGP>
-0.14

> <PSA>
124.29

> <HBA>
7

> <HBD>
4

> <RO5>
0

> <RTB>
3

> <RO3>
N

> <ACD_MOST_APKA>
11.3

> <ACD_LOGP>
1.95

> <ACD_LOGD>
1.95

> <AROMATIC_RINGS>
0

> <HEAVY_ATOMS>
29

> <QED_WEIGHTED>
0.38

> <HBA_LIPINSKI>
7

> <HBD_LIPINSKI>
4

> <NUM_LIPINSKI_RO5_VIOLATIONS>
0

> <MW_MONOISOTOPIC>
406.1992

> <MOLECULAR_SPECIES>
NEUTRAL

> <FULL_MOLFORMULA>
C22H30O7

> <s_m_Source_Path>
/home/liwei/Desktop/Machine/Active

> <s_m_Source_File>
PKC.sdf

> <i_m_Source_File_Index>
15

$$$$
CHEMBL3586004
                    3D
 Structure written by MMmdl.
 40 43  0  0  1  0            999 V2000
    1.5500   -2.4600    0.0000 C   0  0  0  0  0  0
   -0.8100   -3.8500    0.0000 C   0  0  0  0  0  0
    0.7100   -3.7400    0.0000 C   0  0  0  0  0  0
   -1.8400   -2.7400    0.0000 C   0  0  1  0  0  0
   -1.6200   -1.2300    0.0000 C   0  0  1  0  0  0
   -3.0300   -0.5200    0.0000 C   0  0  0  0  0  0
   -4.0700   -1.6400    0.0000 C   0  0  0  0  0  0
   -3.3600   -3.0300    0.0000 C   0  0  0  0  0  0
   -0.3100   -0.4200    0.0000 C   0  0  2  0  0  0
    1.0700   -0.9900    0.0000 C   0  0  2  0  0  0
    0.6100    2.0200    0.0000 C   0  0  2  0  0  0
   -0.5200    1.1200    0.0000 C   0  0  1  0  0  0
    2.0600    1.4800    0.0000 C   0  0  2  0  0  0
    2.2900    0.0000    0.0000 C   0  0  1  0  0  0
    3.4900    0.9300    0.0000 C   0  0  0  0  0  0
   -5.2586   -1.4748    0.0000 C   0  0  0  0  0  0
   -3.8874   -4.1079    0.0000 O   0  0  0  0  0  0
   -2.2142   -3.8802    0.0000 O   0  0  0  0  0  0
   -1.6636   -0.2310    0.0000 H   0  0  0  0  0  0
   -1.2144    0.0066    0.0000 O   0  0  0  0  0  0
    2.0292   -1.2728    0.0000 H   0  0  0  0  0  0
    0.3487    3.4982    0.0000 O   0  0  0  0  0  0
   -1.6338    1.5666    0.0000 C   0  0  0  0  0  0
    1.6352    0.3577    0.0000 O   0  0  0  0  0  0
    3.9460    2.0400    0.0000 C   0  0  0  0  0  0
    4.2466   -0.0014    0.0000 C   0  0  0  0  0  0
    2.9114   -0.7835    0.0000 H   0  0  0  0  0  0
    1.4664   -5.0380    0.0000 C   0  0  0  0  0  0
    0.8713   -6.0800    0.0000 O   0  0  0  0  0  0
    1.4970    4.4645    0.0000 C   0  0  0  0  0  0
    2.6251    4.0554    0.0000 O   0  0  0  0  0  0
    1.2352    5.9424    0.0000 C   0  0  0  0  0  0
    2.3835    6.9087    0.0000 C   0  0  0  0  0  0
    2.1217    8.3865    0.0000 C   0  0  0  0  0  0
    3.2700    9.3529    0.0000 C   0  0  0  0  0  0
    3.0082   10.8307    0.0000 C   0  0  0  0  0  0
    4.1565   11.7971    0.0000 C   0  0  0  0  0  0
    3.8947   13.2749    0.0000 C   0  0  0  0  0  0
    5.0430   14.2413    0.0000 C   0  0  0  0  0  0
    4.8337   15.4229    0.0000 C   0  0  0  0  0  0
  1 10  1  0  0  0
  1  3  2  0  0  0
  2  4  1  0  0  0
  2  3  1  0  0  0
  3 28  1  0  0  0
  4  5  1  0  0  0
  4  8  1  0  0  0
  4 18  1  6  0  0
  5  9  1  0  0  0
  5  6  1  0  0  0
  5 19  1  1  0  0
  6  7  2  0  0  0
  7  8  1  0  0  0
  7 16  1  0  0  0
  8 17  2  0  0  0
  9 10  1  0  0  0
  9 12  1  0  0  0
  9 20  1  1  0  0
 10 14  1  0  0  0
 10 21  1  6  0  0
 11 13  1  0  0  0
 11 12  1  0  0  0
 11 22  1  6  0  0
 12 23  1  1  0  0
 13 14  1  0  0  0
 13 15  1  0  0  0
 13 24  1  6  0  0
 14 15  1  0  0  0
 14 27  1  6  0  0
 15 25  1  0  0  0
 15 26  1  0  0  0
 22 30  1  0  0  0
 28 29  1  0  0  0
 30 31  2  0  0  0
 30 32  1  0  0  0
 32 33  1  0  0  0
 33 34  1  0  0  0
 34 35  1  0  0  0
 35 36  1  0  0  0
 36 37  1  0  0  0
 37 38  1  0  0  0
 38 39  1  0  0  0
 39 40  1  0  0  0
M  END
> <s_m_entry_id>
105788

> <s_m_entry_name>
PKC.16

> <MOLREGNO>
1949219

> <CHEMBLID>
CHEMBL3586004

> <MAX_PHASE>
0

> <MOLWEIGHT>
518.68

> <ALOGP>
3.72

> <PSA>
124.29

> <HBA>
7

> <HBD>
4

> <RO5>
1

> <RTB>
11

> <RO3>
N

> <ACD_MOST_APKA>
11.26

> <ACD_LOGP>
6.03

> <ACD_LOGD>
6.03

> <AROMATIC_RINGS>
0

> <HEAVY_ATOMS>
37

> <QED_WEIGHTED>
0.19

> <HBA_LIPINSKI>
7

> <HBD_LIPINSKI>
4

> <NUM_LIPINSKI_RO5_VIOLATIONS>
0

> <MW_MONOISOTOPIC>
518.3244

> <MOLECULAR_SPECIES>
NEUTRAL

> <FULL_MOLFORMULA>
C30H46O7

> <s_m_Source_Path>
/home/liwei/Desktop/Machine/Active

> <s_m_Source_File>
PKC.sdf

> <i_m_Source_File_Index>
16

$$$$
CHEMBL3586005
                    3D
 Structure written by MMmdl.
 34 37  0  0  1  0            999 V2000
    1.5500   -2.4600    0.0000 C   0  0  0  0  0  0
   -0.8100   -3.8500    0.0000 C   0  0  0  0  0  0
    0.7100   -3.7400    0.0000 C   0  0  0  0  0  0
   -1.8400   -2.7400    0.0000 C   0  0  1  0  0  0
   -1.6200   -1.2300    0.0000 C   0  0  1  0  0  0
   -3.0300   -0.5200    0.0000 C   0  0  0  0  0  0
   -4.0700   -1.6400    0.0000 C   0  0  0  0  0  0
   -3.3600   -3.0300    0.0000 C   0  0  0  0  0  0
   -0.3100   -0.4200    0.0000 C   0  0  2  0  0  0
    1.0700   -0.9900    0.0000 C   0  0  2  0  0  0
    0.6100    2.0200    0.0000 C   0  0  2  0  0  0
   -0.5200    1.1200    0.0000 C   0  0  1  0  0  0
    2.0600    1.4800    0.0000 C   0  0  2  0  0  0
    2.2900    0.0000    0.0000 C   0  0  1  0  0  0
    3.4900    0.9300    0.0000 C   0  0  0  0  0  0
   -5.2586   -1.4748    0.0000 C   0  0  0  0  0  0
   -3.8874   -4.1079    0.0000 O   0  0  0  0  0  0
   -2.2142   -3.8802    0.0000 O   0  0  0  0  0  0
   -1.6636   -0.2310    0.0000 H   0  0  0  0  0  0
   -1.2144    0.0066    0.0000 O   0  0  0  0  0  0
    2.0292   -1.2728    0.0000 H   0  0  0  0  0  0
    0.4211    3.2050    0.0000 O   0  0  0  0  0  0
   -1.4482    1.4922    0.0000 C   0  0  0  0  0  0
    0.5561    1.4659    0.0000 O   0  0  0  0  0  0
    3.9460    2.0400    0.0000 C   0  0  0  0  0  0
    4.2466   -0.0014    0.0000 C   0  0  0  0  0  0
    2.9114   -0.7835    0.0000 H   0  0  0  0  0  0
    1.4664   -5.0380    0.0000 C   0  0  0  0  0  0
    2.6664   -5.0338    0.0000 O   0  0  0  0  0  0
   -0.5940    2.4300    0.0000 C   0  0  0  0  0  0
   -2.0044    1.9169    0.0000 C   0  0  0  0  0  0
   -3.1546    2.8810    0.0000 C   0  0  0  0  0  0
   -4.2823    2.4707    0.0000 C   0  0  0  0  0  0
   -0.3859    3.6118    0.0000 O   0  0  0  0  0  0
  1 10  1  0  0  0
  1  3  2  0  0  0
  2  4  1  0  0  0
  2  3  1  0  0  0
  3 28  1  0  0  0
  4  5  1  0  0  0
  4  8  1  0  0  0
  4 18  1  6  0  0
  5  9  1  0  0  0
  5  6  1  0  0  0
  5 19  1  1  0  0
  6  7  2  0  0  0
  7  8  1  0  0  0
  7 16  1  0  0  0
  8 17  2  0  0  0
  9 10  1  0  0  0
  9 12  1  0  0  0
  9 20  1  1  0  0
 10 14  1  0  0  0
 10 21  1  6  0  0
 11 13  1  0  0  0
 11 12  1  0  0  0
 11 22  1  6  0  0
 12 23  1  1  0  0
 13 14  1  0  0  0
 13 15  1  0  0  0
 13 24  1  6  0  0
 14 15  1  0  0  0
 14 27  1  6  0  0
 15 25  1  0  0  0
 15 26  1  0  0  0
 24 30  1  0  0  0
 28 29  1  0  0  0
 30 31  1  0  0  0
 30 34  2  0  0  0
 31 32  1  0  0  0
 32 33  1  0  0  0
M  END
> <s_m_entry_id>
105789

> <s_m_entry_name>
PKC.17

> <MOLREGNO>
1949220

> <CHEMBLID>
CHEMBL3586005

> <MAX_PHASE>
0

> <MOLWEIGHT>
434.52

> <ALOGP>
0.98

> <PSA>
124.29

> <HBA>
7

> <HBD>
4

> <RO5>
0

> <RTB>
5

> <RO3>
N

> <ACD_MOST_APKA>
11.26

> <ACD_LOGP>
2.69

> <ACD_LOGD>
2.69

> <AROMATIC_RINGS>
0

> <HEAVY_ATOMS>
31

> <QED_WEIGHTED>
0.38

> <HBA_LIPINSKI>
7

> <HBD_LIPINSKI>
4

> <NUM_LIPINSKI_RO5_VIOLATIONS>
0

> <MW_MONOISOTOPIC>
434.2305

> <MOLECULAR_SPECIES>
NEUTRAL

> <FULL_MOLFORMULA>
C24H34O7

> <s_m_Source_Path>
/home/liwei/Desktop/Machine/Active

> <s_m_Source_File>
PKC.sdf

> <i_m_Source_File_Index>
17

$$$$
CHEMBL3586006
                    3D
 Structure written by MMmdl.
 40 43  0  0  1  0            999 V2000
    1.5500   -2.4600    0.0000 C   0  0  0  0  0  0
   -0.8100   -3.8500    0.0000 C   0  0  0  0  0  0
    0.7100   -3.7400    0.0000 C   0  0  0  0  0  0
   -1.8400   -2.7400    0.0000 C   0  0  1  0  0  0
   -1.6200   -1.2300    0.0000 C   0  0  1  0  0  0
   -3.0300   -0.5200    0.0000 C   0  0  0  0  0  0
   -4.0700   -1.6400    0.0000 C   0  0  0  0  0  0
   -3.3600   -3.0300    0.0000 C   0  0  0  0  0  0
   -0.3100   -0.4200    0.0000 C   0  0  2  0  0  0
    1.0700   -0.9900    0.0000 C   0  0  2  0  0  0
    0.6100    2.0200    0.0000 C   0  0  2  0  0  0
   -0.5200    1.1200    0.0000 C   0  0  1  0  0  0
    2.0600    1.4800    0.0000 C   0  0  2  0  0  0
    2.2900    0.0000    0.0000 C   0  0  1  0  0  0
    3.4900    0.9300    0.0000 C   0  0  0  0  0  0
   -5.2586   -1.4748    0.0000 C   0  0  0  0  0  0
   -3.8874   -4.1079    0.0000 O   0  0  0  0  0  0
   -2.2142   -3.8802    0.0000 O   0  0  0  0  0  0
   -1.6636   -0.2310    0.0000 H   0  0  0  0  0  0
   -1.2144    0.0066    0.0000 O   0  0  0  0  0  0
    2.0292   -1.2728    0.0000 H   0  0  0  0  0  0
    0.4211    3.2050    0.0000 O   0  0  0  0  0  0
   -1.4482    1.4922    0.0000 C   0  0  0  0  0  0
    0.5561    1.4659    0.0000 O   0  0  0  0  0  0
    3.9460    2.0400    0.0000 C   0  0  0  0  0  0
    4.2466   -0.0014    0.0000 C   0  0  0  0  0  0
    2.9114   -0.7835    0.0000 H   0  0  0  0  0  0
    1.4664   -5.0380    0.0000 C   0  0  0  0  0  0
    2.6664   -5.0338    0.0000 O   0  0  0  0  0  0
   -0.5940    2.4300    0.0000 C   0  0  0  0  0  0
   -2.0044    1.9169    0.0000 C   0  0  0  0  0  0
   -3.1546    2.8810    0.0000 C   0  0  0  0  0  0
   -0.3859    3.6118    0.0000 O   0  0  0  0  0  0
   -4.5650    2.3679    0.0000 C   0  0  0  0  0  0
   -5.7152    3.3320    0.0000 C   0  0  0  0  0  0
   -7.1256    2.8189    0.0000 C   0  0  0  0  0  0
   -8.2757    3.7830    0.0000 C   0  0  0  0  0  0
   -9.6861    3.2699    0.0000 C   0  0  0  0  0  0
  -10.8363    4.2340    0.0000 C   0  0  0  0  0  0
  -11.9640    3.8237    0.0000 C   0  0  0  0  0  0
  1 10  1  0  0  0
  1  3  2  0  0  0
  2  4  1  0  0  0
  2  3  1  0  0  0
  3 28  1  0  0  0
  4  5  1  0  0  0
  4  8  1  0  0  0
  4 18  1  6  0  0
  5  9  1  0  0  0
  5  6  1  0  0  0
  5 19  1  1  0  0
  6  7  2  0  0  0
  7  8  1  0  0  0
  7 16  1  0  0  0
  8 17  2  0  0  0
  9 10  1  0  0  0
  9 12  1  0  0  0
  9 20  1  1  0  0
 10 14  1  0  0  0
 10 21  1  6  0  0
 11 13  1  0  0  0
 11 12  1  0  0  0
 11 22  1  6  0  0
 12 23  1  1  0  0
 13 14  1  0  0  0
 13 15  1  0  0  0
 13 24  1  6  0  0
 14 15  1  0  0  0
 14 27  1  6  0  0
 15 25  1  0  0  0
 15 26  1  0  0  0
 24 30  1  0  0  0
 28 29  1  0  0  0
 30 31  1  0  0  0
 30 33  2  0  0  0
 31 32  1  0  0  0
 32 34  1  0  0  0
 34 35  1  0  0  0
 35 36  1  0  0  0
 36 37  1  0  0  0
 37 38  1  0  0  0
 38 39  1  0  0  0
 39 40  1  0  0  0
M  END
> <s_m_entry_id>
105790

> <s_m_entry_name>
PKC.18

> <MOLREGNO>
1949221

> <CHEMBLID>
CHEMBL3586006

> <MAX_PHASE>
0

> <MOLWEIGHT>
518.68

> <ALOGP>
3.72

> <PSA>
124.29

> <HBA>
7

> <HBD>
4

> <RO5>
1

> <RTB>
11

> <RO3>
N

> <ACD_MOST_APKA>
11.26

> <ACD_LOGP>
5.75

> <ACD_LOGD>
5.75

> <AROMATIC_RINGS>
0

> <HEAVY_ATOMS>
37

> <QED_WEIGHTED>
0.19

> <HBA_LIPINSKI>
7

> <HBD_LIPINSKI>
4

> <NUM_LIPINSKI_RO5_VIOLATIONS>
0

> <MW_MONOISOTOPIC>
518.3244

> <MOLECULAR_SPECIES>
NEUTRAL

> <FULL_MOLFORMULA>
C30H46O7

> <s_m_Source_Path>
/home/liwei/Desktop/Machine/Active

> <s_m_Source_File>
PKC.sdf

> <i_m_Source_File_Index>
18

$$$$
CHEMBL3586007
                    3D
 Structure written by MMmdl.
 44 47  0  0  1  0            999 V2000
    1.5500   -2.4600    0.0000 C   0  0  0  0  0  0
   -0.8100   -3.8500    0.0000 C   0  0  0  0  0  0
    0.7100   -3.7400    0.0000 C   0  0  0  0  0  0
   -1.8400   -2.7400    0.0000 C   0  0  1  0  0  0
   -1.6200   -1.2300    0.0000 C   0  0  1  0  0  0
   -3.0300   -0.5200    0.0000 C   0  0  0  0  0  0
   -4.0700   -1.6400    0.0000 C   0  0  0  0  0  0
   -3.3600   -3.0300    0.0000 C   0  0  0  0  0  0
   -0.3100   -0.4200    0.0000 C   0  0  2  0  0  0
    1.0700   -0.9900    0.0000 C   0  0  2  0  0  0
    0.6100    2.0200    0.0000 C   0  0  2  0  0  0
   -0.5200    1.1200    0.0000 C   0  0  1  0  0  0
    2.0600    1.4800    0.0000 C   0  0  2  0  0  0
    2.2900    0.0000    0.0000 C   0  0  1  0  0  0
    3.4900    0.9300    0.0000 C   0  0  0  0  0  0
   -5.2586   -1.4748    0.0000 C   0  0  0  0  0  0
   -3.8874   -4.1079    0.0000 O   0  0  0  0  0  0
   -2.2142   -3.8802    0.0000 O   0  0  0  0  0  0
   -1.6636   -0.2310    0.0000 H   0  0  0  0  0  0
   -1.2144    0.0066    0.0000 O   0  0  0  0  0  0
    2.0292   -1.2728    0.0000 H   0  0  0  0  0  0
    0.4211    3.2050    0.0000 O   0  0  0  0  0  0
   -1.4482    1.4922    0.0000 C   0  0  0  0  0  0
    0.5561    1.4659    0.0000 O   0  0  0  0  0  0
    3.9460    2.0400    0.0000 C   0  0  0  0  0  0
    4.2466   -0.0014    0.0000 C   0  0  0  0  0  0
    2.9114   -0.7835    0.0000 H   0  0  0  0  0  0
    1.4664   -5.0380    0.0000 C   0  0  0  0  0  0
    2.6664   -5.0338    0.0000 O   0  0  0  0  0  0
   -0.5940    2.4300    0.0000 C   0  0  0  0  0  0
   -2.0044    1.9169    0.0000 C   0  0  0  0  0  0
   -3.1546    2.8810    0.0000 C   0  0  0  0  0  0
   -0.3859    3.6118    0.0000 O   0  0  0  0  0  0
   -4.5650    2.3679    0.0000 C   0  0  0  0  0  0
   -5.7152    3.3320    0.0000 C   0  0  0  0  0  0
   -7.1256    2.8189    0.0000 C   0  0  0  0  0  0
   -8.2757    3.7830    0.0000 C   0  0  0  0  0  0
   -9.6861    3.2699    0.0000 C   0  0  0  0  0  0
  -10.8363    4.2340    0.0000 C   0  0  0  0  0  0
  -12.2467    3.7209    0.0000 C   0  0  0  0  0  0
  -13.3969    4.6850    0.0000 C   0  0  0  0  0  0
  -14.8073    4.1718    0.0000 C   0  0  0  0  0  0
  -15.9574    5.1360    0.0000 C   0  0  0  0  0  0
  -17.0851    4.7257    0.0000 C   0  0  0  0  0  0
  1 10  1  0  0  0
  1  3  2  0  0  0
  2  4  1  0  0  0
  2  3  1  0  0  0
  3 28  1  0  0  0
  4  5  1  0  0  0
  4  8  1  0  0  0
  4 18  1  6  0  0
  5  9  1  0  0  0
  5  6  1  0  0  0
  5 19  1  1  0  0
  6  7  2  0  0  0
  7  8  1  0  0  0
  7 16  1  0  0  0
  8 17  2  0  0  0
  9 10  1  0  0  0
  9 12  1  0  0  0
  9 20  1  1  0  0
 10 14  1  0  0  0
 10 21  1  6  0  0
 11 13  1  0  0  0
 11 12  1  0  0  0
 11 22  1  6  0  0
 12 23  1  1  0  0
 13 14  1  0  0  0
 13 15  1  0  0  0
 13 24  1  6  0  0
 14 15  1  0  0  0
 14 27  1  6  0  0
 15 25  1  0  0  0
 15 26  1  0  0  0
 24 30  1  0  0  0
 28 29  1  0  0  0
 30 31  1  0  0  0
 30 33  2  0  0  0
 31 32  1  0  0  0
 32 34  1  0  0  0
 34 35  1  0  0  0
 35 36  1  0  0  0
 36 37  1  0  0  0
 37 38  1  0  0  0
 38 39  1  0  0  0
 39 40  1  0  0  0
 40 41  1  0  0  0
 41 42  1  0  0  0
 42 43  1  0  0  0
 43 44  1  0  0  0
M  END
> <s_m_entry_id>
105791

> <s_m_entry_name>
PKC.19

> <MOLREGNO>
1949222

> <CHEMBLID>
CHEMBL3586007

> <MAX_PHASE>
0

> <MOLWEIGHT>
574.79

> <ALOGP>
5.54

> <PSA>
124.29

> <HBA>
7

> <HBD>
4

> <RO5>
2

> <RTB>
15

> <RO3>
N

> <ACD_MOST_APKA>
11.26

> <ACD_LOGP>
7.78

> <ACD_LOGD>
7.78

> <AROMATIC_RINGS>
0

> <HEAVY_ATOMS>
41

> <QED_WEIGHTED>
0.12

> <HBA_LIPINSKI>
7

> <HBD_LIPINSKI>
4

> <NUM_LIPINSKI_RO5_VIOLATIONS>
1

> <MW_MONOISOTOPIC>
574.387

> <MOLECULAR_SPECIES>
NEUTRAL

> <FULL_MOLFORMULA>
C34H54O7

> <s_m_Source_Path>
/home/liwei/Desktop/Machine/Active

> <s_m_Source_File>
PKC.sdf

> <i_m_Source_File_Index>
19

$$$$
CHEMBL3586008
                    3D
 Structure written by MMmdl.
 43 46  0  0  1  0            999 V2000
    1.5500   -2.4600    0.0000 C   0  0  0  0  0  0
   -0.8100   -3.8500    0.0000 C   0  0  0  0  0  0
    0.7100   -3.7400    0.0000 C   0  0  0  0  0  0
   -1.8400   -2.7400    0.0000 C   0  0  1  0  0  0
   -1.6200   -1.2300    0.0000 C   0  0  1  0  0  0
   -3.0300   -0.5200    0.0000 C   0  0  0  0  0  0
   -4.0700   -1.6400    0.0000 C   0  0  0  0  0  0
   -3.3600   -3.0300    0.0000 C   0  0  0  0  0  0
   -0.3100   -0.4200    0.0000 C   0  0  2  0  0  0
    1.0700   -0.9900    0.0000 C   0  0  2  0  0  0
    0.6100    2.0200    0.0000 C   0  0  2  0  0  0
   -0.5200    1.1200    0.0000 C   0  0  1  0  0  0
    2.0600    1.4800    0.0000 C   0  0  2  0  0  0
    2.2900    0.0000    0.0000 C   0  0  1  0  0  0
    3.4900    0.9300    0.0000 C   0  0  0  0  0  0
   -5.2586   -1.4748    0.0000 C   0  0  0  0  0  0
   -3.8874   -4.1079    0.0000 O   0  0  0  0  0  0
   -2.2142   -3.8802    0.0000 O   0  0  0  0  0  0
   -1.6636   -0.2310    0.0000 H   0  0  0  0  0  0
   -1.2144    0.0066    0.0000 O   0  0  0  0  0  0
    2.0292   -1.2728    0.0000 H   0  0  0  0  0  0
    0.8701    3.4984    0.0000 O   0  0  0  0  0  0
   -1.4482    1.4922    0.0000 C   0  0  0  0  0  0
    0.6517    0.9524    0.0000 O   0  0  0  0  0  0
    3.9460    2.0400    0.0000 C   0  0  0  0  0  0
    4.2466   -0.0014    0.0000 C   0  0  0  0  0  0
    2.9114   -0.7835    0.0000 H   0  0  0  0  0  0
    1.4664   -5.0380    0.0000 C   0  0  0  0  0  0
    0.8713   -6.0800    0.0000 O   0  0  0  0  0  0
   -0.4985    1.9165    0.0000 C   0  0  0  0  0  0
   -1.9088    2.4300    0.0000 C   0  0  0  0  0  0
   -0.2904    3.0983    0.0000 O   0  0  0  0  0  0
   -0.2790    4.4638    0.0000 C   0  0  0  0  0  0
   -1.4068    4.0537    0.0000 O   0  0  0  0  0  0
   -0.0185    5.9418    0.0000 C   0  0  0  0  0  0
   -2.1701    3.9079    0.0000 C   0  0  0  0  0  0
   -3.5804    4.4214    0.0000 C   0  0  0  0  0  0
   -1.1676    6.9073    0.0000 C   0  0  0  0  0  0
   -0.9070    8.3853    0.0000 C   0  0  0  0  0  0
   -3.8418    5.8993    0.0000 C   0  0  0  0  0  0
   -4.9693    6.3099    0.0000 C   0  0  0  0  0  0
   -2.0561    9.3507    0.0000 C   0  0  0  0  0  0
   -1.8477   10.5325    0.0000 C   0  0  0  0  0  0
  1 10  1  0  0  0
  1  3  2  0  0  0
  2  4  1  0  0  0
  2  3  1  0  0  0
  3 28  1  0  0  0
  4  5  1  0  0  0
  4  8  1  0  0  0
  4 18  1  6  0  0
  5  9  1  0  0  0
  5  6  1  0  0  0
  5 19  1  1  0  0
  6  7  2  0  0  0
  7  8  1  0  0  0
  7 16  1  0  0  0
  8 17  2  0  0  0
  9 10  1  0  0  0
  9 12  1  0  0  0
  9 20  1  1  0  0
 10 14  1  0  0  0
 10 21  1  6  0  0
 11 13  1  0  0  0
 11 12  1  0  0  0
 11 22  1  6  0  0
 12 23  1  1  0  0
 13 14  1  0  0  0
 13 15  1  0  0  0
 13 24  1  6  0  0
 14 15  1  0  0  0
 14 27  1  6  0  0
 15 25  1  0  0  0
 15 26  1  0  0  0
 22 33  1  0  0  0
 24 30  1  0  0  0
 28 29  1  0  0  0
 30 31  1  0  0  0
 30 32  2  0  0  0
 31 36  1  0  0  0
 33 34  2  0  0  0
 33 35  1  0  0  0
 35 38  1  0  0  0
 36 37  1  0  0  0
 37 40  1  0  0  0
 38 39  1  0  0  0
 39 42  1  0  0  0
 40 41  1  0  0  0
 42 43  1  0  0  0
M  END
> <s_m_entry_id>
105792

> <s_m_entry_name>
PKC.20

> <MOLREGNO>
1949223

> <CHEMBLID>
CHEMBL3586008

> <MAX_PHASE>
0

> <MOLWEIGHT>
560.72

> <ALOGP>
4.31

> <PSA>
130.36

> <HBA>
8

> <HBD>
3

> <RO5>
1

> <RTB>
13

> <RO3>
N

> <ACD_MOST_APKA>
11.15

> <ACD_LOGP>
6.49

> <ACD_LOGD>
6.49

> <AROMATIC_RINGS>
0

> <HEAVY_ATOMS>
40

> <QED_WEIGHTED>
0.17

> <HBA_LIPINSKI>
8

> <HBD_LIPINSKI>
3

> <NUM_LIPINSKI_RO5_VIOLATIONS>
0

> <MW_MONOISOTOPIC>
560.3349

> <MOLECULAR_SPECIES>
NEUTRAL

> <FULL_MOLFORMULA>
C32H48O8

> <s_m_Source_Path>
/home/liwei/Desktop/Machine/Active

> <s_m_Source_File>
PKC.sdf

> <i_m_Source_File_Index>
20

$$$$
CHEMBL3586009
                    3D
 Structure written by MMmdl.
 51 54  0  0  1  0            999 V2000
    1.5500   -2.4600    0.0000 C   0  0  0  0  0  0
   -0.8100   -3.8500    0.0000 C   0  0  0  0  0  0
    0.7100   -3.7400    0.0000 C   0  0  0  0  0  0
   -1.8400   -2.7400    0.0000 C   0  0  1  0  0  0
   -1.6200   -1.2300    0.0000 C   0  0  1  0  0  0
   -3.0300   -0.5200    0.0000 C   0  0  0  0  0  0
   -4.0700   -1.6400    0.0000 C   0  0  0  0  0  0
   -3.3600   -3.0300    0.0000 C   0  0  0  0  0  0
   -0.3100   -0.4200    0.0000 C   0  0  2  0  0  0
    1.0700   -0.9900    0.0000 C   0  0  2  0  0  0
    0.6100    2.0200    0.0000 C   0  0  2  0  0  0
   -0.5200    1.1200    0.0000 C   0  0  1  0  0  0
    2.0600    1.4800    0.0000 C   0  0  2  0  0  0
    2.2900    0.0000    0.0000 C   0  0  1  0  0  0
    3.4900    0.9300    0.0000 C   0  0  0  0  0  0
   -5.2586   -1.4748    0.0000 C   0  0  0  0  0  0
   -3.8874   -4.1079    0.0000 O   0  0  0  0  0  0
   -2.2142   -3.8802    0.0000 O   0  0  0  0  0  0
   -1.6636   -0.2310    0.0000 H   0  0  0  0  0  0
   -1.2144    0.0066    0.0000 O   0  0  0  0  0  0
    2.0292   -1.2728    0.0000 H   0  0  0  0  0  0
    0.8701    3.4984    0.0000 O   0  0  0  0  0  0
   -1.4482    1.4922    0.0000 C   0  0  0  0  0  0
    0.6517    0.9524    0.0000 O   0  0  0  0  0  0
    3.9460    2.0400    0.0000 C   0  0  0  0  0  0
    4.2466   -0.0014    0.0000 C   0  0  0  0  0  0
    2.9114   -0.7835    0.0000 H   0  0  0  0  0  0
    1.4664   -5.0380    0.0000 C   0  0  0  0  0  0
    0.8713   -6.0800    0.0000 O   0  0  0  0  0  0
   -0.4985    1.9165    0.0000 C   0  0  0  0  0  0
   -1.9088    2.4300    0.0000 C   0  0  0  0  0  0
   -0.2904    3.0983    0.0000 O   0  0  0  0  0  0
   -0.2790    4.4638    0.0000 C   0  0  0  0  0  0
   -1.4068    4.0537    0.0000 O   0  0  0  0  0  0
   -0.0185    5.9418    0.0000 C   0  0  0  0  0  0
   -2.1701    3.9079    0.0000 C   0  0  0  0  0  0
   -3.5804    4.4214    0.0000 C   0  0  0  0  0  0
   -1.1676    6.9073    0.0000 C   0  0  0  0  0  0
   -0.9070    8.3853    0.0000 C   0  0  0  0  0  0
   -3.8418    5.8993    0.0000 C   0  0  0  0  0  0
   -5.2520    6.4128    0.0000 C   0  0  0  0  0  0
   -2.0561    9.3507    0.0000 C   0  0  0  0  0  0
   -1.7955   10.8287    0.0000 C   0  0  0  0  0  0
   -5.5134    7.8907    0.0000 C   0  0  0  0  0  0
   -6.9236    8.4042    0.0000 C   0  0  0  0  0  0
   -7.1850    9.8820    0.0000 C   0  0  0  0  0  0
   -8.3126   10.2926    0.0000 C   0  0  0  0  0  0
   -2.9446   11.7942    0.0000 C   0  0  0  0  0  0
   -2.6840   13.2722    0.0000 C   0  0  0  0  0  0
   -3.8331   14.2376    0.0000 C   0  0  0  0  0  0
   -3.6247   15.4194    0.0000 C   0  0  0  0  0  0
  1 10  1  0  0  0
  1  3  2  0  0  0
  2  4  1  0  0  0
  2  3  1  0  0  0
  3 28  1  0  0  0
  4  5  1  0  0  0
  4  8  1  0  0  0
  4 18  1  6  0  0
  5  9  1  0  0  0
  5  6  1  0  0  0
  5 19  1  1  0  0
  6  7  2  0  0  0
  7  8  1  0  0  0
  7 16  1  0  0  0
  8 17  2  0  0  0
  9 10  1  0  0  0
  9 12  1  0  0  0
  9 20  1  1  0  0
 10 14  1  0  0  0
 10 21  1  6  0  0
 11 13  1  0  0  0
 11 12  1  0  0  0
 11 22  1  6  0  0
 12 23  1  1  0  0
 13 14  1  0  0  0
 13 15  1  0  0  0
 13 24  1  6  0  0
 14 15  1  0  0  0
 14 27  1  6  0  0
 15 25  1  0  0  0
 15 26  1  0  0  0
 22 33  1  0  0  0
 24 30  1  0  0  0
 28 29  1  0  0  0
 30 31  1  0  0  0
 30 32  2  0  0  0
 31 36  1  0  0  0
 33 34  2  0  0  0
 33 35  1  0  0  0
 35 38  1  0  0  0
 36 37  1  0  0  0
 37 40  1  0  0  0
 38 39  1  0  0  0
 39 42  1  0  0  0
 40 41  1  0  0  0
 41 44  1  0  0  0
 42 43  1  0  0  0
 43 48  1  0  0  0
 44 45  1  0  0  0
 45 46  1  0  0  0
 46 47  1  0  0  0
 48 49  1  0  0  0
 49 50  1  0  0  0
 50 51  1  0  0  0
M  END
> <s_m_entry_id>
105793

> <s_m_entry_name>
PKC.21

> <MOLREGNO>
1949224

> <CHEMBLID>
CHEMBL3586009

> <MAX_PHASE>
0

> <MOLWEIGHT>
672.93

> <ALOGP>
7.96

> <PSA>
130.36

> <HBA>
8

> <HBD>
3

> <RO5>
2

> <RTB>
21

> <RO3>
N

> <ACD_MOST_APKA>
11.15

> <ACD_LOGP>
10.57

> <ACD_LOGD>
10.57

> <AROMATIC_RINGS>
0

> <HEAVY_ATOMS>
48

> <QED_WEIGHTED>
0.06

> <HBA_LIPINSKI>
8

> <HBD_LIPINSKI>
3

> <NUM_LIPINSKI_RO5_VIOLATIONS>
1

> <MW_MONOISOTOPIC>
672.4601

> <MOLECULAR_SPECIES>
NEUTRAL

> <FULL_MOLFORMULA>
C40H64O8

> <s_m_Source_Path>
/home/liwei/Desktop/Machine/Active

> <s_m_Source_File>
PKC.sdf

> <i_m_Source_File_Index>
21

$$$$
CHEMBL3586010
                    3D
 Structure written by MMmdl.
 46 49  0  0  1  0            999 V2000
    1.5500   -2.4600    0.0000 C   0  0  0  0  0  0
   -0.8100   -3.8500    0.0000 C   0  0  0  0  0  0
    0.7100   -3.7400    0.0000 C   0  0  0  0  0  0
   -1.8400   -2.7400    0.0000 C   0  0  1  0  0  0
   -1.6200   -1.2300    0.0000 C   0  0  1  0  0  0
   -3.0300   -0.5200    0.0000 C   0  0  0  0  0  0
   -4.0700   -1.6400    0.0000 C   0  0  0  0  0  0
   -3.3600   -3.0300    0.0000 C   0  0  0  0  0  0
   -0.3100   -0.4200    0.0000 C   0  0  2  0  0  0
    1.0700   -0.9900    0.0000 C   0  0  2  0  0  0
    0.6100    2.0200    0.0000 C   0  0  2  0  0  0
   -0.5200    1.1200    0.0000 C   0  0  1  0  0  0
    2.0600    1.4800    0.0000 C   0  0  2  0  0  0
    2.2900    0.0000    0.0000 C   0  0  1  0  0  0
    3.4900    0.9300    0.0000 C   0  0  0  0  0  0
   -5.2586   -1.4748    0.0000 C   0  0  0  0  0  0
   -3.8874   -4.1079    0.0000 O   0  0  0  0  0  0
   -2.2142   -3.8802    0.0000 O   0  0  0  0  0  0
   -1.6636   -0.2310    0.0000 H   0  0  0  0  0  0
   -1.2144    0.0066    0.0000 O   0  0  0  0  0  0
    1.4664   -5.0380    0.0000 C   0  0  0  0  0  0
    2.6664   -5.0338    0.0000 O   0  0  0  0  0  0
    2.0292   -1.2728    0.0000 H   0  0  0  0  0  0
    0.3487    3.4982    0.0000 O   0  0  0  0  0  0
    1.4970    4.4645    0.0000 C   0  0  0  0  0  0
    2.6251    4.0554    0.0000 O   0  0  0  0  0  0
    1.2352    5.9424    0.0000 C   0  0  0  0  0  0
    0.5561    1.4659    0.0000 O   0  0  0  0  0  0
    3.9460    2.0400    0.0000 C   0  0  0  0  0  0
    4.2466   -0.0014    0.0000 C   0  0  0  0  0  0
    2.9114   -0.7835    0.0000 H   0  0  0  0  0  0
    2.3835    6.9087    0.0000 C   0  0  0  0  0  0
   -1.4482    1.4922    0.0000 C   0  0  0  0  0  0
    2.1742    8.0903    0.0000 C   0  0  0  0  0  0
    0.1071    6.3515    0.0000 C   0  0  0  0  0  0
   -0.5940    2.4300    0.0000 C   0  0  0  0  0  0
   -2.0044    1.9169    0.0000 C   0  0  0  0  0  0
   -0.3859    3.6118    0.0000 O   0  0  0  0  0  0
   -3.1546    2.8810    0.0000 C   0  0  0  0  0  0
   -4.5650    2.3679    0.0000 C   0  0  0  0  0  0
   -5.7152    3.3320    0.0000 C   0  0  0  0  0  0
   -7.1256    2.8189    0.0000 C   0  0  0  0  0  0
   -8.2757    3.7830    0.0000 C   0  0  0  0  0  0
   -9.6861    3.2699    0.0000 C   0  0  0  0  0  0
  -10.8363    4.2340    0.0000 C   0  0  0  0  0  0
  -11.9640    3.8237    0.0000 C   0  0  0  0  0  0
  1 10  1  0  0  0
  1  3  2  0  0  0
  2  4  1  0  0  0
  2  3  1  0  0  0
  3 21  1  0  0  0
  4  5  1  0  0  0
  4  8  1  0  0  0
  4 18  1  6  0  0
  5  9  1  0  0  0
  5  6  1  0  0  0
  5 19  1  1  0  0
  6  7  2  0  0  0
  7  8  1  0  0  0
  7 16  1  0  0  0
  8 17  2  0  0  0
  9 10  1  0  0  0
  9 12  1  0  0  0
  9 20  1  1  0  0
 10 14  1  0  0  0
 10 23  1  6  0  0
 11 13  1  0  0  0
 11 12  1  0  0  0
 11 24  1  6  0  0
 12 33  1  1  0  0
 13 14  1  0  0  0
 13 15  1  0  0  0
 13 28  1  6  0  0
 14 15  1  0  0  0
 14 31  1  6  0  0
 15 29  1  0  0  0
 15 30  1  0  0  0
 21 22  1  0  0  0
 24 25  1  0  0  0
 25 26  2  0  0  0
 25 27  1  0  0  0
 27 32  2  0  0  0
 27 35  1  0  0  0
 28 36  1  0  0  0
 32 34  1  0  0  0
 36 37  1  0  0  0
 36 38  2  0  0  0
 37 39  1  0  0  0
 39 40  1  0  0  0
 40 41  1  0  0  0
 41 42  1  0  0  0
 42 43  1  0  0  0
 43 44  1  0  0  0
 44 45  1  0  0  0
 45 46  1  0  0  0
M  END
> <s_m_entry_id>
105794

> <s_m_entry_name>
PKC.22

> <MOLREGNO>
1949225

> <CHEMBLID>
CHEMBL3586010

> <MAX_PHASE>
0

> <MOLWEIGHT>
600.78

> <ALOGP>
5.64

> <PSA>
130.36

> <HBA>
8

> <HBD>
3

> <RO5>
2

> <RTB>
14

> <RO3>
N

> <ACD_MOST_APKA>
11.15

> <ACD_LOGP>
7.61

> <ACD_LOGD>
7.61

> <AROMATIC_RINGS>
0

> <HEAVY_ATOMS>
43

> <QED_WEIGHTED>
0.1

> <HBA_LIPINSKI>
8

> <HBD_LIPINSKI>
3

> <NUM_LIPINSKI_RO5_VIOLATIONS>
1

> <MW_MONOISOTOPIC>
600.3662

> <MOLECULAR_SPECIES>
NEUTRAL

> <FULL_MOLFORMULA>
C35H52O8

> <s_m_Source_Path>
/home/liwei/Desktop/Machine/Active

> <s_m_Source_File>
PKC.sdf

> <i_m_Source_File_Index>
22

$$$$
CHEMBL3586011
                    3D
 Structure written by MMmdl.
 42 46  0  0  1  0            999 V2000
    1.5500   -2.4600    0.0000 C   0  0  0  0  0  0
   -0.8100   -3.8500    0.0000 C   0  0  0  0  0  0
    0.7100   -3.7400    0.0000 C   0  0  0  0  0  0
   -1.8400   -2.7400    0.0000 C   0  0  1  0  0  0
   -1.6200   -1.2300    0.0000 C   0  0  1  0  0  0
   -3.0300   -0.5200    0.0000 C   0  0  0  0  0  0
   -4.0700   -1.6400    0.0000 C   0  0  0  0  0  0
   -3.3600   -3.0300    0.0000 C   0  0  0  0  0  0
   -0.3100   -0.4200    0.0000 C   0  0  2  0  0  0
    1.0700   -0.9900    0.0000 C   0  0  2  0  0  0
    0.6100    2.0200    0.0000 C   0  0  2  0  0  0
   -0.5200    1.1200    0.0000 C   0  0  1  0  0  0
    2.0600    1.4800    0.0000 C   0  0  2  0  0  0
    2.2900    0.0000    0.0000 C   0  0  1  0  0  0
    3.4900    0.9300    0.0000 C   0  0  0  0  0  0
   -5.2586   -1.4748    0.0000 C   0  0  0  0  0  0
   -3.8874   -4.1079    0.0000 O   0  0  0  0  0  0
   -2.2142   -3.8802    0.0000 O   0  0  0  0  0  0
   -1.6636   -0.2310    0.0000 H   0  0  0  0  0  0
   -1.2144    0.0066    0.0000 O   0  0  0  0  0  0
    1.4664   -5.0380    0.0000 C   0  0  0  0  0  0
    2.6664   -5.0338    0.0000 O   0  0  0  0  0  0
    2.0292   -1.2728    0.0000 H   0  0  0  0  0  0
    0.8701    3.4984    0.0000 O   0  0  0  0  0  0
    2.2796    4.0137    0.0000 C   0  0  0  0  0  0
    3.1997    3.2434    0.0000 O   0  0  0  0  0  0
    2.5390    5.4920    0.0000 C   0  0  0  0  0  0
    0.5561    1.4659    0.0000 O   0  0  0  0  0  0
    3.9460    2.0400    0.0000 C   0  0  0  0  0  0
    4.2466   -0.0014    0.0000 C   0  0  0  0  0  0
    2.9114   -0.7835    0.0000 H   0  0  0  0  0  0
   -1.4482    1.4922    0.0000 C   0  0  0  0  0  0
   -0.1949    2.7653    0.0000 C   0  0  0  0  0  0
    0.4049    3.8046    0.0000 C   0  0  0  0  0  0
   -1.1949    2.7654    0.0000 O   0  0  0  0  0  0
    3.9471    6.0091    0.0000 C   0  0  0  0  0  0
    4.2034    7.4871    0.0000 C   0  0  0  0  0  0
    3.0516    8.4480    0.0000 C   0  0  0  0  0  0
    1.6435    7.9309    0.0000 C   0  0  0  0  0  0
    1.3872    6.4530    0.0000 C   0  0  0  0  0  0
    5.1016    5.0501    0.0000 N   0  0  0  0  0  0
    6.2274    5.4653    0.0000 C   0  0  0  0  0  0
  1 10  1  0  0  0
  1  3  2  0  0  0
  2  4  1  0  0  0
  2  3  1  0  0  0
  3 21  1  0  0  0
  4  5  1  0  0  0
  4  8  1  0  0  0
  4 18  1  6  0  0
  5  9  1  0  0  0
  5  6  1  0  0  0
  5 19  1  1  0  0
  6  7  2  0  0  0
  7  8  1  0  0  0
  7 16  1  0  0  0
  8 17  2  0  0  0
  9 10  1  0  0  0
  9 12  1  0  0  0
  9 20  1  1  0  0
 10 14  1  0  0  0
 10 23  1  6  0  0
 11 13  1  0  0  0
 11 12  1  0  0  0
 11 24  1  6  0  0
 12 32  1  1  0  0
 13 14  1  0  0  0
 13 15  1  0  0  0
 13 28  1  6  0  0
 14 15  1  0  0  0
 14 31  1  6  0  0
 15 29  1  0  0  0
 15 30  1  0  0  0
 21 22  1  0  0  0
 24 25  1  0  0  0
 25 26  2  0  0  0
 25 27  1  0  0  0
 27 36  2  0  0  0
 27 40  1  0  0  0
 28 33  1  0  0  0
 33 34  1  0  0  0
 33 35  2  0  0  0
 36 37  1  0  0  0
 36 41  1  0  0  0
 37 38  2  0  0  0
 38 39  1  0  0  0
 39 40  2  0  0  0
 41 42  1  0  0  0
M  END
> <s_m_entry_id>
105795

> <s_m_entry_name>
PKC.23

> <MOLREGNO>
1949226

> <CHEMBLID>
CHEMBL3586011

> <MAX_PHASE>
0

> <MOLWEIGHT>
539.62

> <ALOGP>
1.71

> <PSA>
142.39

> <HBA>
9

> <HBD>
4

> <RO5>
1

> <RTB>
7

> <RO3>
N

> <ACD_MOST_APKA>
11.18

> <ACD_LOGP>
4.66

> <ACD_LOGD>
4.66

> <AROMATIC_RINGS>
1

> <HEAVY_ATOMS>
39

> <QED_WEIGHTED>
0.3

> <HBA_LIPINSKI>
9

> <HBD_LIPINSKI>
4

> <NUM_LIPINSKI_RO5_VIOLATIONS>
0

> <MW_MONOISOTOPIC>
539.2519

> <MOLECULAR_SPECIES>
NEUTRAL

> <FULL_MOLFORMULA>
C30H37NO8

> <s_m_Source_Path>
/home/liwei/Desktop/Machine/Active

> <s_m_Source_File>
PKC.sdf

> <i_m_Source_File_Index>
23

> <ACD_MOST_BPKA>
2.76

$$$$
CHEMBL3586012
                    3D
 Structure written by MMmdl.
 35 38  0  0  1  0            999 V2000
    1.5500   -2.4600    0.0000 C   0  0  0  0  0  0
   -0.8100   -3.8500    0.0000 C   0  0  0  0  0  0
    0.7100   -3.7400    0.0000 C   0  0  0  0  0  0
   -1.8400   -2.7400    0.0000 C   0  0  1  0  0  0
   -1.6200   -1.2300    0.0000 C   0  0  1  0  0  0
   -3.0300   -0.5200    0.0000 C   0  0  0  0  0  0
   -4.0700   -1.6400    0.0000 C   0  0  0  0  0  0
   -3.3600   -3.0300    0.0000 C   0  0  0  0  0  0
   -0.3100   -0.4200    0.0000 C   0  0  2  0  0  0
    1.0700   -0.9900    0.0000 C   0  0  2  0  0  0
    0.6100    2.0200    0.0000 C   0  0  2  0  0  0
   -0.5200    1.1200    0.0000 C   0  0  1  0  0  0
    2.0600    1.4800    0.0000 C   0  0  2  0  0  0
    2.2900    0.0000    0.0000 C   0  0  1  0  0  0
    3.4900    0.9300    0.0000 C   0  0  0  0  0  0
   -5.2586   -1.4748    0.0000 C   0  0  0  0  0  0
   -3.8874   -4.1079    0.0000 O   0  0  0  0  0  0
   -2.2142   -3.8802    0.0000 O   0  0  0  0  0  0
   -1.6636   -0.2310    0.0000 H   0  0  0  0  0  0
   -1.2144    0.0066    0.0000 O   0  0  0  0  0  0
    1.4664   -5.0380    0.0000 C   0  0  0  0  0  0
    2.0292   -1.2728    0.0000 H   0  0  0  0  0  0
    0.4211    3.2050    0.0000 O   0  0  0  0  0  0
    0.5561    1.4659    0.0000 O   0  0  0  0  0  0
    3.9460    2.0400    0.0000 C   0  0  0  0  0  0
    4.2466   -0.0014    0.0000 C   0  0  0  0  0  0
    2.9114   -0.7835    0.0000 H   0  0  0  0  0  0
   -1.4482    1.4922    0.0000 C   0  0  0  0  0  0
   -0.5940    2.4300    0.0000 C   0  0  0  0  0  0
   -0.3859    3.6118    0.0000 C   0  0  0  0  0  0
   -1.5338    2.0881    0.0000 O   0  0  0  0  0  0
    2.9672   -5.0328    0.0000 O   0  0  0  0  0  0
    3.7229   -6.3294    0.0000 C   0  0  0  0  0  0
    3.1269   -7.3709    0.0000 C   0  0  0  0  0  0
    4.9229   -6.3253    0.0000 O   0  0  0  0  0  0
  1 10  1  0  0  0
  1  3  2  0  0  0
  2  4  1  0  0  0
  2  3  1  0  0  0
  3 21  1  0  0  0
  4  5  1  0  0  0
  4  8  1  0  0  0
  4 18  1  6  0  0
  5  9  1  0  0  0
  5  6  1  0  0  0
  5 19  1  1  0  0
  6  7  2  0  0  0
  7  8  1  0  0  0
  7 16  1  0  0  0
  8 17  2  0  0  0
  9 10  1  0  0  0
  9 12  1  0  0  0
  9 20  1  1  0  0
 10 14  1  0  0  0
 10 22  1  6  0  0
 11 13  1  0  0  0
 11 12  1  0  0  0
 11 23  1  6  0  0
 12 28  1  1  0  0
 13 14  1  0  0  0
 13 15  1  0  0  0
 13 24  1  6  0  0
 14 15  1  0  0  0
 14 27  1  6  0  0
 15 25  1  0  0  0
 15 26  1  0  0  0
 21 32  1  0  0  0
 24 29  1  0  0  0
 29 30  1  0  0  0
 29 31  2  0  0  0
 32 33  1  0  0  0
 33 34  1  0  0  0
 33 35  2  0  0  0
M  END
> <s_m_entry_id>
105796

> <s_m_entry_name>
PKC.24

> <MOLREGNO>
1949227

> <CHEMBLID>
CHEMBL3586012

> <MAX_PHASE>
0

> <MOLWEIGHT>
448.51

> <ALOGP>
0.24

> <PSA>
130.36

> <HBA>
8

> <HBD>
3

> <RO5>
0

> <RTB>
5

> <RO3>
N

> <ACD_MOST_APKA>
11.25

> <ACD_LOGP>
2.24

> <ACD_LOGD>
2.24

> <AROMATIC_RINGS>
0

> <HEAVY_ATOMS>
32

> <QED_WEIGHTED>
0.4

> <HBA_LIPINSKI>
8

> <HBD_LIPINSKI>
3

> <NUM_LIPINSKI_RO5_VIOLATIONS>
0

> <MW_MONOISOTOPIC>
448.2097

> <MOLECULAR_SPECIES>
NEUTRAL

> <FULL_MOLFORMULA>
C24H32O8

> <s_m_Source_Path>
/home/liwei/Desktop/Machine/Active

> <s_m_Source_File>
PKC.sdf

> <i_m_Source_File_Index>
24

$$$$
CHEMBL3586013
                    3D
 Structure written by MMmdl.
 61 65  0  0  1  0            999 V2000
    1.5500   -2.4600    0.0000 C   0  0  0  0  0  0
   -0.8100   -3.8500    0.0000 C   0  0  0  0  0  0
    0.7100   -3.7400    0.0000 C   0  0  0  0  0  0
   -1.8400   -2.7400    0.0000 C   0  0  1  0  0  0
   -1.6200   -1.2300    0.0000 C   0  0  1  0  0  0
   -3.0300   -0.5200    0.0000 C   0  0  0  0  0  0
   -4.0700   -1.6400    0.0000 C   0  0  0  0  0  0
   -3.3600   -3.0300    0.0000 C   0  0  0  0  0  0
   -0.3100   -0.4200    0.0000 C   0  0  2  0  0  0
    1.0700   -0.9900    0.0000 C   0  0  2  0  0  0
    0.6100    2.0200    0.0000 C   0  0  2  0  0  0
   -0.5200    1.1200    0.0000 C   0  0  1  0  0  0
    2.0600    1.4800    0.0000 C   0  0  2  0  0  0
    2.2900    0.0000    0.0000 C   0  0  1  0  0  0
    3.4900    0.9300    0.0000 C   0  0  0  0  0  0
   -5.2586   -1.4748    0.0000 C   0  0  0  0  0  0
   -3.8874   -4.1079    0.0000 O   0  0  0  0  0  0
   -2.2142   -3.8802    0.0000 O   0  0  0  0  0  0
   -1.6636   -0.2310    0.0000 H   0  0  0  0  0  0
   -1.2144    0.0066    0.0000 O   0  0  0  0  0  0
    1.4664   -5.0380    0.0000 C   0  0  0  0  0  0
    2.0292   -1.2728    0.0000 H   0  0  0  0  0  0
    0.3487    3.4982    0.0000 O   0  0  0  0  0  0
    0.5561    1.4659    0.0000 O   0  0  0  0  0  0
    3.9460    2.0400    0.0000 C   0  0  0  0  0  0
    4.2466   -0.0014    0.0000 C   0  0  0  0  0  0
    2.9114   -0.7835    0.0000 H   0  0  0  0  0  0
   -1.4482    1.4922    0.0000 C   0  0  0  0  0  0
   -0.5940    2.4300    0.0000 C   0  0  0  0  0  0
   -2.0044    1.9169    0.0000 C   0  0  0  0  0  0
   -0.3859    3.6118    0.0000 O   0  0  0  0  0  0
    2.9672   -5.0328    0.0000 O   0  0  0  0  0  0
    3.7229   -6.3294    0.0000 C   0  0  0  0  0  0
    5.2238   -6.3243    0.0000 C   0  0  0  0  0  0
    3.1269   -7.3709    0.0000 O   0  0  0  0  0  0
   -3.1546    2.8810    0.0000 C   0  0  0  0  0  0
   -4.5650    2.3679    0.0000 C   0  0  0  0  0  0
   -5.7152    3.3320    0.0000 C   0  0  0  0  0  0
   -7.1256    2.8189    0.0000 C   0  0  0  0  0  0
   -8.2757    3.7830    0.0000 C   0  0  0  0  0  0
   -9.6861    3.2699    0.0000 C   0  0  0  0  0  0
  -10.6058    4.0407    0.0000 C   0  0  0  0  0  0
    1.4970    4.4645    0.0000 C   0  0  0  0  0  0
    2.6251    4.0554    0.0000 O   0  0  0  0  0  0
    1.2352    5.9424    0.0000 C   0  0  0  0  0  0
    2.3835    6.9087    0.0000 C   0  0  0  0  0  0
    2.1217    8.3865    0.0000 C   0  0  0  0  0  0
    3.2700    9.3529    0.0000 C   0  0  0  0  0  0
    3.0082   10.8307    0.0000 C   0  0  0  0  0  0
    4.1565   11.7971    0.0000 C   0  0  0  0  0  0
    3.8947   13.2749    0.0000 C   0  0  0  0  0  0
    4.8129   14.0476    0.0000 C   0  0  0  0  0  0
    5.9795   -7.6209    0.0000 C   0  0  0  0  0  0
    7.4795   -7.6180    0.0000 C   0  0  0  0  0  0
    8.2322   -8.9155    0.0000 C   0  0  0  0  0  0
    7.4848  -10.2160    0.0000 C   0  0  0  0  0  0
    5.9848  -10.2191    0.0000 C   0  0  0  0  0  0
    5.2322   -8.9216    0.0000 C   0  0  0  0  0  0
    5.2344  -11.5189    0.0000 O   0  0  0  0  0  0
    4.0344  -11.5196    0.0000 C   0  0  0  0  0  0
    8.0870  -11.2540    0.0000 O   0  0  0  0  0  0
  1 10  1  0  0  0
  1  3  2  0  0  0
  2  4  1  0  0  0
  2  3  1  0  0  0
  3 21  1  0  0  0
  4  5  1  0  0  0
  4  8  1  0  0  0
  4 18  1  6  0  0
  5  9  1  0  0  0
  5  6  1  0  0  0
  5 19  1  1  0  0
  6  7  2  0  0  0
  7  8  1  0  0  0
  7 16  1  0  0  0
  8 17  2  0  0  0
  9 10  1  0  0  0
  9 12  1  0  0  0
  9 20  1  1  0  0
 10 14  1  0  0  0
 10 22  1  6  0  0
 11 13  1  0  0  0
 11 12  1  0  0  0
 11 23  1  6  0  0
 12 28  1  1  0  0
 13 14  1  0  0  0
 13 15  1  0  0  0
 13 24  1  6  0  0
 14 15  1  0  0  0
 14 27  1  6  0  0
 15 25  1  0  0  0
 15 26  1  0  0  0
 21 32  1  0  0  0
 23 43  1  0  0  0
 24 29  1  0  0  0
 29 30  1  0  0  0
 29 31  2  0  0  0
 30 36  1  0  0  0
 32 33  1  0  0  0
 33 34  1  0  0  0
 33 35  2  0  0  0
 34 53  1  0  0  0
 36 37  1  0  0  0
 37 38  1  0  0  0
 38 39  1  0  0  0
 39 40  1  0  0  0
 40 41  1  0  0  0
 41 42  1  0  0  0
 43 44  2  0  0  0
 43 45  1  0  0  0
 45 46  1  0  0  0
 46 47  1  0  0  0
 47 48  1  0  0  0
 48 49  1  0  0  0
 49 50  1  0  0  0
 50 51  1  0  0  0
 51 52  1  0  0  0
 53 54  2  0  0  0
 53 58  1  0  0  0
 54 55  1  0  0  0
 55 56  2  0  0  0
 56 57  1  0  0  0
 56 61  1  0  0  0
 57 58  2  0  0  0
 57 59  1  0  0  0
 59 60  1  0  0  0
M  END
> <s_m_entry_id>
105797

> <s_m_entry_name>
PKC.25

> <MOLREGNO>
1949228

> <CHEMBLID>
CHEMBL3586013

> <MAX_PHASE>
0

> <MOLWEIGHT>
809.04

> <ALOGP>
8.87

> <PSA>
165.89

> <HBA>
11

> <HBD>
3

> <RO5>
3

> <RTB>
24

> <RO3>
N

> <ACD_MOST_APKA>
9.85

> <ACD_LOGP>
10.86

> <ACD_LOGD>
10.85

> <AROMATIC_RINGS>
1

> <HEAVY_ATOMS>
58

> <QED_WEIGHTED>
0.05

> <HBA_LIPINSKI>
11

> <HBD_LIPINSKI>
3

> <NUM_LIPINSKI_RO5_VIOLATIONS>
2

> <MW_MONOISOTOPIC>
808.4762

> <MOLECULAR_SPECIES>
NEUTRAL

> <FULL_MOLFORMULA>
C47H68O11

> <s_m_Source_Path>
/home/liwei/Desktop/Machine/Active

> <s_m_Source_File>
PKC.sdf

> <i_m_Source_File_Index>
25

$$$$
CHEMBL3586015
                    3D
 Structure written by MMmdl.
 39 42  0  0  1  0            999 V2000
    1.5500   -2.4600    0.0000 C   0  0  0  0  0  0
   -0.8100   -3.8500    0.0000 C   0  0  0  0  0  0
    0.7100   -3.7400    0.0000 C   0  0  0  0  0  0
   -1.8400   -2.7400    0.0000 C   0  0  1  0  0  0
   -1.6200   -1.2300    0.0000 C   0  0  1  0  0  0
   -3.0300   -0.5200    0.0000 C   0  0  0  0  0  0
   -4.0700   -1.6400    0.0000 C   0  0  0  0  0  0
   -3.3600   -3.0300    0.0000 C   0  0  0  0  0  0
   -0.3100   -0.4200    0.0000 C   0  0  2  0  0  0
    1.0700   -0.9900    0.0000 C   0  0  2  0  0  0
    0.6100    2.0200    0.0000 C   0  0  2  0  0  0
   -0.5200    1.1200    0.0000 C   0  0  1  0  0  0
    2.0600    1.4800    0.0000 C   0  0  2  0  0  0
    2.2900    0.0000    0.0000 C   0  0  1  0  0  0
    3.4900    0.9300    0.0000 C   0  0  0  0  0  0
   -5.2586   -1.4748    0.0000 C   0  0  0  0  0  0
   -3.8874   -4.1079    0.0000 O   0  0  0  0  0  0
   -2.2142   -3.8802    0.0000 O   0  0  0  0  0  0
   -1.6636   -0.2310    0.0000 H   0  0  0  0  0  0
   -1.2144    0.0066    0.0000 O   0  0  0  0  0  0
    1.4664   -5.0380    0.0000 C   0  0  0  0  0  0
    2.0292   -1.2728    0.0000 H   0  0  0  0  0  0
    0.3487    3.4982    0.0000 O   0  0  0  0  0  0
    0.5561    1.4659    0.0000 O   0  0  0  0  0  0
    3.9460    2.0400    0.0000 C   0  0  0  0  0  0
    4.2466   -0.0014    0.0000 C   0  0  0  0  0  0
    2.9114   -0.7835    0.0000 H   0  0  0  0  0  0
   -1.4482    1.4922    0.0000 C   0  0  0  0  0  0
   -0.5940    2.4300    0.0000 C   0  0  0  0  0  0
   -2.0044    1.9169    0.0000 C   0  0  0  0  0  0
   -0.3859    3.6118    0.0000 O   0  0  0  0  0  0
    2.6664   -5.0338    0.0000 O   0  0  0  0  0  0
    1.4970    4.4645    0.0000 C   0  0  0  0  0  0
    2.6251    4.0554    0.0000 O   0  0  0  0  0  0
    1.2352    5.9424    0.0000 C   0  0  0  0  0  0
   -3.1546    2.8810    0.0000 C   0  0  0  0  0  0
   -4.2823    2.4707    0.0000 C   0  0  0  0  0  0
    2.3835    6.9087    0.0000 C   0  0  0  0  0  0
    2.1742    8.0903    0.0000 C   0  0  0  0  0  0
  1 10  1  0  0  0
  1  3  2  0  0  0
  2  4  1  0  0  0
  2  3  1  0  0  0
  3 21  1  0  0  0
  4  5  1  0  0  0
  4  8  1  0  0  0
  4 18  1  6  0  0
  5  9  1  0  0  0
  5  6  1  0  0  0
  5 19  1  1  0  0
  6  7  2  0  0  0
  7  8  1  0  0  0
  7 16  1  0  0  0
  8 17  2  0  0  0
  9 10  1  0  0  0
  9 12  1  0  0  0
  9 20  1  1  0  0
 10 14  1  0  0  0
 10 22  1  6  0  0
 11 13  1  0  0  0
 11 12  1  0  0  0
 11 23  1  6  0  0
 12 28  1  1  0  0
 13 14  1  0  0  0
 13 15  1  0  0  0
 13 24  1  6  0  0
 14 15  1  0  0  0
 14 27  1  6  0  0
 15 25  1  0  0  0
 15 26  1  0  0  0
 21 32  2  0  0  0
 23 33  1  0  0  0
 24 29  1  0  0  0
 29 30  1  0  0  0
 29 31  2  0  0  0
 30 36  1  0  0  0
 33 34  2  0  0  0
 33 35  1  0  0  0
 35 38  1  0  0  0
 36 37  1  0  0  0
 38 39  1  0  0  0
M  END
> <s_m_entry_id>
105798

> <s_m_entry_name>
PKC.26

> <MOLREGNO>
1949230

> <CHEMBLID>
CHEMBL3586015

> <MAX_PHASE>
0

> <MOLWEIGHT>
502.6

> <ALOGP>
2.74

> <PSA>
127.19

> <HBA>
8

> <HBD>
2

> <RO5>
1

> <RTB>
9

> <RO3>
N

> <ACD_MOST_APKA>
10.96

> <ACD_LOGP>
4.87

> <ACD_LOGD>
4.87

> <AROMATIC_RINGS>
0

> <HEAVY_ATOMS>
36

> <QED_WEIGHTED>
0.36

> <HBA_LIPINSKI>
8

> <HBD_LIPINSKI>
2

> <NUM_LIPINSKI_RO5_VIOLATIONS>
0

> <MW_MONOISOTOPIC>
502.2567

> <MOLECULAR_SPECIES>
NEUTRAL

> <FULL_MOLFORMULA>
C28H38O8

> <s_m_Source_Path>
/home/liwei/Desktop/Machine/Active

> <s_m_Source_File>
PKC.sdf

> <i_m_Source_File_Index>
26

$$$$
CHEMBL3586016
                    3D
 Structure written by MMmdl.
 47 50  0  0  1  0            999 V2000
    1.5500   -2.4600    0.0000 C   0  0  0  0  0  0
   -0.8100   -3.8500    0.0000 C   0  0  0  0  0  0
    0.7100   -3.7400    0.0000 C   0  0  0  0  0  0
   -1.8400   -2.7400    0.0000 C   0  0  1  0  0  0
   -1.6200   -1.2300    0.0000 C   0  0  1  0  0  0
   -3.0300   -0.5200    0.0000 C   0  0  0  0  0  0
   -4.0700   -1.6400    0.0000 C   0  0  0  0  0  0
   -3.3600   -3.0300    0.0000 C   0  0  0  0  0  0
   -0.3100   -0.4200    0.0000 C   0  0  2  0  0  0
    1.0700   -0.9900    0.0000 C   0  0  2  0  0  0
    0.6100    2.0200    0.0000 C   0  0  2  0  0  0
   -0.5200    1.1200    0.0000 C   0  0  1  0  0  0
    2.0600    1.4800    0.0000 C   0  0  2  0  0  0
    2.2900    0.0000    0.0000 C   0  0  1  0  0  0
    3.4900    0.9300    0.0000 C   0  0  0  0  0  0
   -5.2586   -1.4748    0.0000 C   0  0  0  0  0  0
   -3.8874   -4.1079    0.0000 O   0  0  0  0  0  0
   -2.2142   -3.8802    0.0000 O   0  0  0  0  0  0
   -1.6636   -0.2310    0.0000 H   0  0  0  0  0  0
   -1.2144    0.0066    0.0000 O   0  0  0  0  0  0
    1.4664   -5.0380    0.0000 C   0  0  0  0  0  0
    2.0292   -1.2728    0.0000 H   0  0  0  0  0  0
    0.8701    3.4984    0.0000 O   0  0  0  0  0  0
    0.5561    1.4659    0.0000 O   0  0  0  0  0  0
    3.9460    2.0400    0.0000 C   0  0  0  0  0  0
    4.2466   -0.0014    0.0000 C   0  0  0  0  0  0
    2.9114   -0.7835    0.0000 H   0  0  0  0  0  0
   -1.4482    1.4922    0.0000 C   0  0  0  0  0  0
   -0.1949    2.7653    0.0000 C   0  0  0  0  0  0
    0.4049    3.8046    0.0000 C   0  0  0  0  0  0
   -1.1949    2.7654    0.0000 O   0  0  0  0  0  0
    2.6664   -5.0338    0.0000 O   0  0  0  0  0  0
    2.2796    4.0137    0.0000 C   0  0  0  0  0  0
    3.1997    3.2434    0.0000 O   0  0  0  0  0  0
    2.5390    5.4920    0.0000 C   0  0  0  0  0  0
    3.9486    6.0073    0.0000 C   0  0  0  0  0  0
    4.2080    7.4856    0.0000 C   0  0  0  0  0  0
    5.6176    8.0009    0.0000 C   0  0  0  0  0  0
    5.8770    9.4791    0.0000 C   0  0  0  0  0  0
    7.2866    9.9945    0.0000 C   0  0  0  0  0  0
    7.5460   11.4727    0.0000 C   0  0  0  0  0  0
    8.9556   11.9881    0.0000 C   0  0  0  0  0  0
    9.2150   13.4663    0.0000 C   0  0  0  0  0  0
   10.6246   13.9816    0.0000 C   0  0  0  0  0  0
   10.8840   15.4599    0.0000 C   0  0  0  0  0  0
   12.2936   15.9752    0.0000 C   0  0  0  0  0  0
   12.5010   17.1571    0.0000 C   0  0  0  0  0  0
  1 10  1  0  0  0
  1  3  2  0  0  0
  2  4  1  0  0  0
  2  3  1  0  0  0
  3 21  1  0  0  0
  4  5  1  0  0  0
  4  8  1  0  0  0
  4 18  1  6  0  0
  5  9  1  0  0  0
  5  6  1  0  0  0
  5 19  1  1  0  0
  6  7  2  0  0  0
  7  8  1  0  0  0
  7 16  1  0  0  0
  8 17  2  0  0  0
  9 10  1  0  0  0
  9 12  1  0  0  0
  9 20  1  1  0  0
 10 14  1  0  0  0
 10 22  1  6  0  0
 11 13  1  0  0  0
 11 12  1  0  0  0
 11 23  1  6  0  0
 12 28  1  1  0  0
 13 14  1  0  0  0
 13 15  1  0  0  0
 13 24  1  6  0  0
 14 15  1  0  0  0
 14 27  1  6  0  0
 15 25  1  0  0  0
 15 26  1  0  0  0
 21 32  2  0  0  0
 23 33  1  0  0  0
 24 29  1  0  0  0
 29 30  1  0  0  0
 29 31  2  0  0  0
 33 34  2  0  0  0
 33 35  1  0  0  0
 35 36  1  0  0  0
 36 37  1  0  0  0
 37 38  1  0  0  0
 38 39  1  0  0  0
 39 40  1  0  0  0
 40 41  1  0  0  0
 41 42  1  0  0  0
 42 43  1  0  0  0
 43 44  1  0  0  0
 44 45  1  0  0  0
 45 46  1  0  0  0
 46 47  1  0  0  0
M  END
> <s_m_entry_id>
105799

> <s_m_entry_name>
PKC.27

> <MOLREGNO>
1949231

> <CHEMBLID>
CHEMBL3586016

> <MAX_PHASE>
0

> <MOLWEIGHT>
614.81

> <ALOGP>
6.18

> <PSA>
127.19

> <HBA>
8

> <HBD>
2

> <RO5>
2

> <RTB>
17

> <RO3>
N

> <ACD_MOST_APKA>
11

> <ACD_LOGP>
8.94

> <ACD_LOGD>
8.94

> <AROMATIC_RINGS>
0

> <HEAVY_ATOMS>
44

> <QED_WEIGHTED>
0.11

> <HBA_LIPINSKI>
8

> <HBD_LIPINSKI>
2

> <NUM_LIPINSKI_RO5_VIOLATIONS>
1

> <MW_MONOISOTOPIC>
614.3819

> <MOLECULAR_SPECIES>
NEUTRAL

> <FULL_MOLFORMULA>
C36H54O8

> <s_m_Source_Path>
/home/liwei/Desktop/Machine/Active

> <s_m_Source_File>
PKC.sdf

> <i_m_Source_File_Index>
27

$$$$
CHEMBL3586017
                    3D
 Structure written by MMmdl.
 35 38  0  0  1  0            999 V2000
    1.5500   -2.4600    0.0000 C   0  0  0  0  0  0
   -0.8100   -3.8500    0.0000 C   0  0  0  0  0  0
    0.7100   -3.7400    0.0000 C   0  0  0  0  0  0
   -1.8400   -2.7400    0.0000 C   0  0  1  0  0  0
   -1.6200   -1.2300    0.0000 C   0  0  1  0  0  0
   -3.0300   -0.5200    0.0000 C   0  0  0  0  0  0
   -4.0700   -1.6400    0.0000 C   0  0  0  0  0  0
   -3.3600   -3.0300    0.0000 C   0  0  0  0  0  0
   -0.3100   -0.4200    0.0000 C   0  0  2  0  0  0
    1.0700   -0.9900    0.0000 C   0  0  2  0  0  0
    0.6100    2.0200    0.0000 C   0  0  0  0  0  0
   -0.5200    1.1200    0.0000 C   0  0  1  0  0  0
    2.0600    1.4800    0.0000 C   0  0  2  0  0  0
    2.2900    0.0000    0.0000 C   0  0  1  0  0  0
    3.4900    0.9300    0.0000 C   0  0  0  0  0  0
   -5.2586   -1.4748    0.0000 C   0  0  0  0  0  0
   -3.8874   -4.1079    0.0000 O   0  0  0  0  0  0
   -2.2142   -3.8802    0.0000 O   0  0  0  0  0  0
   -1.6636   -0.2310    0.0000 H   0  0  0  0  0  0
   -1.2144    0.0066    0.0000 O   0  0  0  0  0  0
    1.4664   -5.0380    0.0000 C   0  0  0  0  0  0
    2.0292   -1.2728    0.0000 H   0  0  0  0  0  0
    0.5561    1.4659    0.0000 O   0  0  0  0  0  0
    3.9460    2.0400    0.0000 C   0  0  0  0  0  0
    4.2466   -0.0014    0.0000 C   0  0  0  0  0  0
    2.9114   -0.7835    0.0000 H   0  0  0  0  0  0
   -1.4482    1.4922    0.0000 C   0  0  0  0  0  0
   -0.1949    2.7653    0.0000 C   0  0  0  0  0  0
    0.4049    3.8046    0.0000 O   0  0  0  0  0  0
   -1.6958    2.7655    0.0000 C   0  0  0  0  0  0
   -2.2963    3.8044    0.0000 C   0  0  0  0  0  0
   -2.2956    1.7261    0.0000 C   0  0  0  0  0  0
    2.9672   -5.0328    0.0000 C   0  0  0  0  0  0
    3.5715   -6.0695    0.0000 O   0  0  0  0  0  0
    3.5633   -3.9913    0.0000 C   0  0  0  0  0  0
  1 10  1  0  0  0
  1  3  2  0  0  0
  2  4  1  0  0  0
  2  3  1  0  0  0
  3 21  1  0  0  0
  4  5  1  0  0  0
  4  8  1  0  0  0
  4 18  1  6  0  0
  5  9  1  0  0  0
  5  6  1  0  0  0
  5 19  1  1  0  0
  6  7  2  0  0  0
  7  8  1  0  0  0
  7 16  1  0  0  0
  8 17  2  0  0  0
  9 10  1  0  0  0
  9 12  1  0  0  0
  9 20  1  1  0  0
 10 14  1  0  0  0
 10 22  1  6  0  0
 11 13  1  0  0  0
 11 12  1  0  0  0
 12 27  1  1  0  0
 13 14  1  0  0  0
 13 15  1  0  0  0
 13 23  1  6  0  0
 14 15  1  0  0  0
 14 26  1  6  0  0
 15 24  1  0  0  0
 15 25  1  0  0  0
 21 33  1  0  0  0
 23 28  1  0  0  0
 28 29  2  0  0  0
 28 30  1  0  0  0
 30 31  1  0  0  0
 30 32  1  0  0  0
 33 34  2  0  0  0
 33 35  1  0  0  0
M  END
> <s_m_entry_id>
105800

> <s_m_entry_name>
PKC.28

> <MOLREGNO>
1949232

> <CHEMBLID>
CHEMBL3586017

> <MAX_PHASE>
0

> <MOLWEIGHT>
444.56

> <ALOGP>
2.32

> <PSA>
100.9

> <HBA>
6

> <HBD>
2

> <RO5>
0

> <RTB>
5

> <RO3>
N

> <ACD_MOST_APKA>
11.35

> <ACD_LOGP>
3.81

> <ACD_LOGD>
3.81

> <AROMATIC_RINGS>
0

> <HEAVY_ATOMS>
32

> <QED_WEIGHTED>
0.5

> <HBA_LIPINSKI>
6

> <HBD_LIPINSKI>
2

> <NUM_LIPINSKI_RO5_VIOLATIONS>
0

> <MW_MONOISOTOPIC>
444.2512

> <MOLECULAR_SPECIES>
NEUTRAL

> <FULL_MOLFORMULA>
C26H36O6

> <s_m_Source_Path>
/home/liwei/Desktop/Machine/Active

> <s_m_Source_File>
PKC.sdf

> <i_m_Source_File_Index>
28

$$$$
CHEMBL3586018
                    3D
 Structure written by MMmdl.
 39 43  0  0  1  0            999 V2000
    1.5500   -2.4600    0.0000 C   0  0  0  0  0  0
   -0.8100   -3.8500    0.0000 C   0  0  0  0  0  0
    0.7100   -3.7400    0.0000 C   0  0  0  0  0  0
   -1.8400   -2.7400    0.0000 C   0  0  1  0  0  0
   -1.6200   -1.2300    0.0000 C   0  0  1  0  0  0
   -3.0300   -0.5200    0.0000 C   0  0  0  0  0  0
   -4.0700   -1.6400    0.0000 C   0  0  0  0  0  0
   -3.3600   -3.0300    0.0000 C   0  0  0  0  0  0
   -0.3100   -0.4200    0.0000 C   0  0  2  0  0  0
    1.0700   -0.9900    0.0000 C   0  0  2  0  0  0
    0.6100    2.0200    0.0000 C   0  0  0  0  0  0
   -0.5200    1.1200    0.0000 C   0  0  1  0  0  0
    2.0600    1.4800    0.0000 C   0  0  2  0  0  0
    2.2900    0.0000    0.0000 C   0  0  1  0  0  0
    3.4900    0.9300    0.0000 C   0  0  0  0  0  0
   -5.2586   -1.4748    0.0000 C   0  0  0  0  0  0
   -3.8874   -4.1079    0.0000 O   0  0  0  0  0  0
   -2.2142   -3.8802    0.0000 O   0  0  0  0  0  0
   -1.6636   -0.2310    0.0000 H   0  0  0  0  0  0
   -1.2144    0.0066    0.0000 O   0  0  0  0  0  0
    1.4664   -5.0380    0.0000 C   0  0  0  0  0  0
    2.0292   -1.2728    0.0000 H   0  0  0  0  0  0
    0.5561    1.4659    0.0000 O   0  0  0  0  0  0
    3.9460    2.0400    0.0000 C   0  0  0  0  0  0
    4.2466   -0.0014    0.0000 C   0  0  0  0  0  0
    2.9114   -0.7835    0.0000 H   0  0  0  0  0  0
   -1.4482    1.4922    0.0000 C   0  0  0  0  0  0
   -0.1949    2.7653    0.0000 C   0  0  0  0  0  0
    0.4049    3.8046    0.0000 O   0  0  0  0  0  0
   -1.6958    2.7655    0.0000 C   0  0  0  0  0  0
   -2.4468    4.0648    0.0000 C   0  0  0  0  0  0
    2.9672   -5.0328    0.0000 C   0  0  0  0  0  0
    3.5715   -6.0695    0.0000 O   0  0  0  0  0  0
    3.5633   -3.9913    0.0000 C   0  0  0  0  0  0
   -3.9469    4.0672    0.0000 C   0  0  0  0  0  0
   -4.6949    5.3674    0.0000 C   0  0  0  0  0  0
   -3.9429    6.6653    0.0000 C   0  0  0  0  0  0
   -2.4429    6.6630    0.0000 C   0  0  0  0  0  0
   -1.6949    5.3628    0.0000 C   0  0  0  0  0  0
  1 10  1  0  0  0
  1  3  2  0  0  0
  2  4  1  0  0  0
  2  3  1  0  0  0
  3 21  1  0  0  0
  4  5  1  0  0  0
  4  8  1  0  0  0
  4 18  1  6  0  0
  5  9  1  0  0  0
  5  6  1  0  0  0
  5 19  1  1  0  0
  6  7  2  0  0  0
  7  8  1  0  0  0
  7 16  1  0  0  0
  8 17  2  0  0  0
  9 10  1  0  0  0
  9 12  1  0  0  0
  9 20  1  1  0  0
 10 14  1  0  0  0
 10 22  1  6  0  0
 11 13  1  0  0  0
 11 12  1  0  0  0
 12 27  1  1  0  0
 13 14  1  0  0  0
 13 15  1  0  0  0
 13 23  1  6  0  0
 14 15  1  0  0  0
 14 26  1  6  0  0
 15 24  1  0  0  0
 15 25  1  0  0  0
 21 32  1  0  0  0
 23 28  1  0  0  0
 28 29  2  0  0  0
 28 30  1  0  0  0
 30 31  1  0  0  0
 31 35  2  0  0  0
 31 39  1  0  0  0
 32 33  2  0  0  0
 32 34  1  0  0  0
 35 36  1  0  0  0
 36 37  2  0  0  0
 37 38  1  0  0  0
 38 39  2  0  0  0
M  END
> <s_m_entry_id>
105801

> <s_m_entry_name>
PKC.29

> <MOLREGNO>
1949233

> <CHEMBLID>
CHEMBL3586018

> <MAX_PHASE>
0

> <MOLWEIGHT>
492.6

> <ALOGP>
2.89

> <PSA>
100.9

> <HBA>
6

> <HBD>
2

> <RO5>
0

> <RTB>
6

> <RO3>
N

> <ACD_MOST_APKA>
11.36

> <ACD_LOGP>
4.58

> <ACD_LOGD>
4.58

> <AROMATIC_RINGS>
1

> <HEAVY_ATOMS>
36

> <QED_WEIGHTED>
0.47

> <HBA_LIPINSKI>
6

> <HBD_LIPINSKI>
2

> <NUM_LIPINSKI_RO5_VIOLATIONS>
0

> <MW_MONOISOTOPIC>
492.2512

> <MOLECULAR_SPECIES>
NEUTRAL

> <FULL_MOLFORMULA>
C30H36O6

> <s_m_Source_Path>
/home/liwei/Desktop/Machine/Active

> <s_m_Source_File>
PKC.sdf

> <i_m_Source_File_Index>
29

$$$$
ZINC10027741
                    3D
 Structure written by MMmdl.
 29 33  0  0  1  0            999 V2000
   -8.5202    5.3288    2.9007 C   0  0  0  0  0  0
   -7.7094    5.0933    1.8058 C   0  0  0  0  0  0
   -7.7397    3.8644    1.1773 C   0  0  0  0  0  0
   -8.5793    2.8635    1.6381 C   0  0  0  0  0  0
   -9.3903    3.0999    2.7355 C   0  0  0  0  0  0
   -9.3583    4.3334    3.3631 C   0  0  0  0  0  0
  -10.2069    1.8626    3.0455 C   0  0  0  0  0  0
  -10.1243    0.9918    1.7714 C   0  0  0  0  0  0
   -8.8044    1.4597    1.1452 C   0  0  2  0  0  0
   -7.6703    0.5440    1.5259 C   0  0  0  0  0  0
   -7.2739    0.2883    2.6427 O   0  0  0  0  0  0
   -7.1884    0.0702    0.3562 N   0  0  0  0  0  0
   -7.8686    0.5568   -0.6900 C   0  0  0  0  0  0
   -7.6246    0.2732   -1.8464 O   0  0  0  0  0  0
   -8.8545    1.3974   -0.3156 N   0  0  0  0  0  0
   -6.0656   -0.8644    0.2461 C   0  0  0  0  0  0
   -4.7775   -0.0908    0.1307 C   0  0  0  0  0  0
   -4.7956    1.1220    0.1396 O   0  0  0  0  0  0
   -3.6054   -0.7465    0.0176 N   0  0  0  0  0  0
   -2.4001   -0.0324    0.0216 C   0  0  0  0  0  0
   -1.3241   -0.4817   -0.7321 C   0  0  0  0  0  0
   -0.1340    0.2196   -0.7250 C   0  0  0  0  0  0
   -0.0118    1.3773    0.0293 C   0  0  0  0  0  0
   -1.0878    1.8305    0.7834 C   0  0  0  0  0  0
   -2.2808    1.1240    0.7792 C   0  0  0  0  0  0
   -0.9874    2.9648    1.5290 O   0  0  0  0  0  0
    0.3353    3.4385    1.8049 C   0  0  0  0  0  0
    1.1393    3.4053    0.4981 C   0  0  0  0  0  0
    1.1698    2.0546    0.0247 O   0  0  0  0  0  0
  1  6  2  0  0  0
  1  2  1  0  0  0
  2  3  2  0  0  0
  3  4  1  0  0  0
  4  9  1  0  0  0
  4  5  2  0  0  0
  5  6  1  0  0  0
  5  7  1  0  0  0
  7  8  1  0  0  0
  8  9  1  0  0  0
  9 15  1  0  0  0
  9 10  1  0  0  0
 10 11  2  0  0  0
 10 12  1  0  0  0
 12 13  1  0  0  0
 12 16  1  0  0  0
 13 14  2  0  0  0
 13 15  1  0  0  0
 16 17  1  0  0  0
 17 18  2  0  0  0
 17 19  1  0  0  0
 19 20  1  0  0  0
 20 25  1  0  0  0
 20 21  2  0  0  0
 21 22  1  0  0  0
 22 23  2  0  0  0
 23 29  1  0  0  0
 23 24  1  0  0  0
 24 25  2  0  0  0
 24 26  1  0  0  0
 26 27  1  0  0  0
 27 28  1  0  0  0
 28 29  1  0  0  0
M  END
> <s_m_entry_id>
105802

> <s_m_entry_name>
PKC-all_decoys.1

> <s_m_Source_Path>
/home/liwei/Desktop/Machine/Decoys/PKC

> <s_m_Source_File>
PKC-all_decoys.sdf

> <i_m_Source_File_Index>
1

$$$$
ZINC04553984
                    3D
 Structure written by MMmdl.
 26 29  0  0  1  0            999 V2000
   -0.0127    1.0858    0.0080 C   0  0  0  0  0  0
   -0.7288    1.5792    1.2668 C   0  0  0  0  0  0
    0.0111    1.0724    2.5063 C   0  0  0  0  0  0
   -1.5320    3.5579    2.4090 C   0  0  0  0  0  0
   -1.2385    5.0450    2.6251 C   0  0  0  0  0  0
   -1.4225    5.7651    1.2938 C   0  0  0  0  0  0
   -1.4315    5.0576    0.1384 C   0  0  0  0  0  0
   -1.6686    6.2682   -1.1338 S   0  0  0  0  0  0
   -1.7529    7.6695   -0.1551 C   0  0  0  0  0  0
   -1.5941    7.1982    1.1552 C   0  0  0  0  0  0
   -1.6360    8.2038    2.2479 C   0  0  0  0  0  0
   -1.5990    9.4647    1.9159 N   0  0  0  0  0  0
   -1.4248    9.9600    0.5561 C   0  0  2  0  0  0
   -1.9349    9.0009   -0.4413 N   0  0  0  0  0  0
    0.0420   10.1975    0.3048 C   0  0  0  0  0  0
    0.5486   10.0973   -0.9775 C   0  0  0  0  0  0
    1.8932   10.3199   -1.2087 C   0  0  0  0  0  0
    2.7330   10.6328   -0.1562 C   0  0  0  0  0  0
    2.2274   10.7273    1.1269 C   0  0  0  0  0  0
    0.8818   10.5099    1.3573 C   0  0  0  0  0  0
    4.1737   10.8661   -0.4030 N   0  3  0  0  0  0
    4.9137   11.1414    0.5244 O   0  0  0  0  0  0
    4.6192   10.7828   -1.5336 O   0  5  0  0  0  0
   -1.7104    7.8244    3.5446 O   0  0  0  0  0  0
   -1.2713    3.5767    0.0007 C   0  0  0  0  0  0
   -0.7240    3.0580    1.2778 N   0  3  2  0  0  0
  1  2  1  0  0  0
  2  3  1  0  0  0
  2 26  1  0  0  0
  4  5  1  0  0  0
  4 26  1  0  0  0
  5  6  1  0  0  0
  6 10  1  0  0  0
  6  7  2  0  0  0
  7  8  1  0  0  0
  7 25  1  0  0  0
  8  9  1  0  0  0
  9 14  1  0  0  0
  9 10  2  0  0  0
 10 11  1  0  0  0
 11 12  2  0  0  0
 11 24  1  0  0  0
 12 13  1  0  0  0
 13 14  1  0  0  0
 13 15  1  0  0  0
 15 20  1  0  0  0
 15 16  2  0  0  0
 16 17  1  0  0  0
 17 18  2  0  0  0
 18 19  1  0  0  0
 18 21  1  0  0  0
 19 20  2  0  0  0
 21 22  2  0  0  0
 21 23  1  0  0  0
 25 26  1  0  0  0
M  CHG  3  21   1  23  -1  26   1
M  END
> <s_m_entry_id>
105803

> <s_m_entry_name>
PKC-all_decoys.2

> <s_m_Source_Path>
/home/liwei/Desktop/Machine/Decoys/PKC

> <s_m_Source_File>
PKC-all_decoys.sdf

> <i_m_Source_File_Index>
2

$$$$
ZINC71279546
                    3D
 Structure written by MMmdl.
 27 30  0  0  1  0            999 V2000
   -0.0187    1.5258    0.0104 C   0  0  0  0  0  0
    0.0021   -0.0041    0.0020 C   0  0  0  0  0  0
   -1.4333   -0.5336    0.0129 C   0  0  0  0  0  0
    0.6878   -0.4765   -1.2033 N   0  0  0  0  0  0
    1.7938   -1.2429   -1.2379 C   0  0  0  0  0  0
    2.1079   -1.4615   -2.5534 C   0  0  0  0  0  0
    1.1633   -0.8042   -3.3339 C   0  0  0  0  0  0
    1.1291   -0.7791   -4.6931 O   0  0  0  0  0  0
    0.3051   -0.2158   -2.5293 N   0  0  0  0  0  0
    3.2949   -2.2911   -2.9696 C   0  0  2  0  0  0
    3.5609   -3.3334   -1.8794 C   0  0  0  0  0  0
    3.4655   -2.7301   -0.5078 C   0  0  0  0  0  0
    4.2247   -3.1162    0.3558 O   0  0  0  0  0  0
    2.5637   -1.7723   -0.2023 N   0  0  0  0  0  0
    4.5027   -1.4043   -3.1308 C   0  0  0  0  0  0
    5.1249   -1.3218   -4.3341 C   0  0  0  0  0  0
    6.2941   -0.4520   -4.4583 C   0  0  0  0  0  0
    6.9761   -0.3266   -5.6747 C   0  0  0  0  0  0
    8.0634    0.4926   -5.7608 C   0  0  0  0  0  0
    8.5021    1.2066   -4.6464 C   0  0  0  0  0  0
    7.8416    1.0963   -3.4352 C   0  0  0  0  0  0
    6.7323    0.2673   -3.3289 C   0  0  0  0  0  0
    6.0549    0.1395   -2.1346 N   0  0  0  0  0  0
    4.9782   -0.6592   -2.0324 C   0  0  0  0  0  0
    4.4010   -0.7444   -0.9621 O   0  0  0  0  0  0
    9.5867    2.0166   -4.7502 O   0  0  0  0  0  0
   10.2243    2.0865   -6.0272 C   0  0  0  0  0  0
  1  2  1  0  0  0
  2  3  1  0  0  0
  2  4  1  0  0  0
  4  9  1  0  0  0
  4  5  1  0  0  0
  5 14  1  0  0  0
  5  6  2  0  0  0
  6  7  1  0  0  0
  6 10  1  0  0  0
  7  8  1  0  0  0
  7  9  2  0  0  0
 10 11  1  0  0  0
 10 15  1  0  0  0
 11 12  1  0  0  0
 12 13  2  0  0  0
 12 14  1  0  0  0
 15 24  1  0  0  0
 15 16  2  0  0  0
 16 17  1  0  0  0
 17 22  2  0  0  0
 17 18  1  0  0  0
 18 19  2  0  0  0
 19 20  1  0  0  0
 20 21  2  0  0  0
 20 26  1  0  0  0
 21 22  1  0  0  0
 22 23  1  0  0  0
 23 24  1  0  0  0
 24 25  2  0  0  0
 26 27  1  0  0  0
M  END
> <s_m_entry_id>
105804

> <s_m_entry_name>
PKC-all_decoys.3

> <s_m_Source_Path>
/home/liwei/Desktop/Machine/Decoys/PKC

> <s_m_Source_File>
PKC-all_decoys.sdf

> <i_m_Source_File_Index>
3

$$$$
ZINC76462950
                    3D
 Structure written by MMmdl.
 27 30  0  0  1  0            999 V2000
   -0.0184    1.5028    0.0103 C   0  0  0  0  0  0
    0.0021   -0.0041    0.0020 C   0  0  0  0  0  0
   -1.2011   -0.7192    0.0038 C   0  0  0  0  0  0
   -1.1687   -2.0763   -0.0042 C   0  0  0  0  0  0
    0.0372   -2.7118   -0.0138 N   0  0  0  0  0  0
    1.1895   -1.9782   -0.0152 C   0  0  0  0  0  0
    1.1502   -0.6449   -0.0124 N   0  0  0  0  0  0
    2.2554   -2.8981   -0.0258 C   0  0  0  0  0  0
    1.6862   -4.1842   -0.0304 C   0  0  0  0  0  0
    0.3845   -4.0670   -0.0233 N   0  0  0  0  0  0
    2.4509   -5.4827   -0.0416 C   0  0  0  0  0  0
    3.6856   -2.5766   -0.0314 C   0  0  0  0  0  0
    4.2848   -2.4490    1.0203 O   0  0  0  0  0  0
    4.3370   -2.4225   -1.2011 N   0  0  0  0  0  0
    5.7039   -2.1152   -1.2065 N   0  0  0  0  0  0
    6.3553   -1.9610   -2.3763 C   0  0  0  0  0  0
    5.7569   -2.0886   -3.4267 O   0  0  0  0  0  0
    7.7965   -1.6371   -2.3819 C   0  0  0  0  0  0
    8.6082   -1.4414   -3.5118 C   0  0  0  0  0  0
    9.8488   -1.1700   -3.0368 C   0  0  0  0  0  0
    9.7765   -1.2004   -1.6960 N   0  0  0  0  0  0
    8.5723   -1.4693   -1.3247 N   0  0  0  0  0  0
   11.0432   -0.8967   -3.9144 C   0  0  0  0  0  0
   10.7204   -1.3813   -5.3336 C   0  0  0  0  0  0
    9.3641   -0.8226   -5.7724 C   0  0  0  0  0  0
    8.2461   -1.5020   -4.9701 C   0  0  0  0  0  0
   -2.4496   -2.8702   -0.0019 C   0  0  0  0  0  0
  1  2  1  0  0  0
  2  7  2  0  0  0
  2  3  1  0  0  0
  3  4  2  0  0  0
  4  5  1  0  0  0
  4 27  1  0  0  0
  5 10  1  0  0  0
  5  6  1  0  0  0
  6  7  1  0  0  0
  6  8  2  0  0  0
  8  9  1  0  0  0
  8 12  1  0  0  0
  9 10  2  0  0  0
  9 11  1  0  0  0
 12 13  2  0  0  0
 12 14  1  0  0  0
 14 15  1  0  0  0
 15 16  1  0  0  0
 16 17  2  0  0  0
 16 18  1  0  0  0
 18 22  2  0  0  0
 18 19  1  0  0  0
 19 26  1  0  0  0
 19 20  2  0  0  0
 20 21  1  0  0  0
 20 23  1  0  0  0
 21 22  1  0  0  0
 23 24  1  0  0  0
 24 25  1  0  0  0
 25 26  1  0  0  0
M  END
> <s_m_entry_id>
105805

> <s_m_entry_name>
PKC-all_decoys.4

> <s_m_Source_Path>
/home/liwei/Desktop/Machine/Decoys/PKC

> <s_m_Source_File>
PKC-all_decoys.sdf

> <i_m_Source_File_Index>
4

$$$$
ZINC22589291
                    3D
 Structure written by MMmdl.
 24 27  0  0  1  0            999 V2000
   -5.3149   -3.2654    3.4970 C   0  0  0  0  0  0
   -4.9605   -2.6767    2.1300 C   0  0  0  0  0  0
   -5.9785   -3.0169    1.1860 O   0  0  0  0  0  0
   -6.8028   -1.8496    1.0087 C   0  0  2  0  0  0
   -7.0424   -1.6571   -0.5033 C   0  0  2  0  0  0
   -6.3492   -0.4631   -0.9011 O   0  0  0  0  0  0
   -5.2571   -0.2795    0.0257 C   0  0  2  0  0  0
   -5.8754   -0.6606    1.3906 C   0  0  2  0  0  0
   -4.8636   -1.2546    2.2342 O   0  0  0  0  0  0
   -4.8145    1.1170    0.0315 N   0  0  0  0  0  0
   -3.5174    1.5553    0.0276 C   0  0  0  0  0  0
   -3.5796    2.9531    0.0360 C   0  0  0  0  0  0
   -2.3692    3.6847    0.0342 C   0  0  0  0  0  0
   -2.3760    4.9039    0.0417 O   0  0  0  0  0  0
   -1.2047    2.9988    0.0297 N   0  0  0  0  0  0
   -1.2088    1.6358    0.0167 C   0  0  0  0  0  0
   -2.3267    0.9447    0.0182 N   0  0  0  0  0  0
   -0.0111    0.9658    0.0074 N   0  0  0  0  0  0
   -4.8909    3.2979    0.0445 N   0  0  0  0  0  0
   -5.6200    2.2192    0.0418 C   0  0  0  0  0  0
   -7.5107    2.1845    0.0510 Br  0  0  0  0  0  0
   -8.5400   -1.5040   -0.7766 C   0  0  0  0  0  0
   -8.7618   -1.4304   -2.1864 O   0  0  0  0  0  0
   -3.6199   -3.2466    1.6623 C   0  0  0  0  0  0
  1  2  1  0  0  0
  2  9  1  0  0  0
  2  3  1  0  0  0
  2 24  1  0  0  0
  3  4  1  0  0  0
  4  8  1  0  0  0
  4  5  1  0  0  0
  5  6  1  0  0  0
  5 22  1  0  0  0
  6  7  1  0  0  0
  7  8  1  0  0  0
  7 10  1  0  0  0
  8  9  1  0  0  0
 10 20  1  0  0  0
 10 11  1  0  0  0
 11 17  1  0  0  0
 11 12  2  0  0  0
 12 13  1  0  0  0
 12 19  1  0  0  0
 13 14  2  0  0  0
 13 15  1  0  0  0
 15 16  1  0  0  0
 16 17  2  0  0  0
 16 18  1  0  0  0
 19 20  2  0  0  0
 20 21  1  0  0  0
 22 23  1  0  0  0
M  END
> <s_m_entry_id>
105806

> <s_m_entry_name>
PKC-all_decoys.5

> <s_m_Source_Path>
/home/liwei/Desktop/Machine/Decoys/PKC

> <s_m_Source_File>
PKC-all_decoys.sdf

> <i_m_Source_File_Index>
5

$$$$
ZINC06053563
                    3D
 Structure written by MMmdl.
 20 21  0  0  1  0            999 V2000
   -1.3265    3.3287    0.0322 C   0  0  0  0  0  0
   -2.5332    3.9963    0.0352 C   0  0  0  0  0  0
   -3.7212    3.2849    0.0375 C   0  0  0  0  0  0
   -3.7057    1.9002    0.0299 C   0  0  0  0  0  0
   -2.5054    1.2213    0.0206 C   0  0  0  0  0  0
   -1.3043    1.9329    0.0187 C   0  0  0  0  0  0
   -0.0144    1.2114    0.0087 C   0  0  0  0  0  0
    0.0021   -0.0041    0.0020 O   0  0  0  0  0  0
    1.1435    1.9011    0.0014 N   0  0  0  0  0  0
    2.3661    1.2172   -0.0140 N   0  0  0  0  0  0
    3.5240    1.9069   -0.0213 C   0  0  0  0  0  0
    3.5075    3.1233   -0.0147 O   0  0  0  0  0  0
    4.8045    1.1906   -0.0374 C   0  0  0  0  0  0
    4.8119   -0.1063   -0.0445 N   0  0  0  0  0  0
    6.0130   -0.8227   -0.0580 N   0  0  0  0  0  0
    7.1641   -0.2312    0.3172 C   0  0  0  0  0  0
    8.2018   -0.8583    0.3075 O   0  0  0  0  0  0
    7.1571    1.2135    0.7487 C   0  0  0  0  0  0
    6.0917    1.9712   -0.0518 C   0  0  0  0  0  0
   -5.3716    4.2080    0.0502 Br  0  0  0  0  0  0
  1  6  2  0  0  0
  1  2  1  0  0  0
  2  3  2  0  0  0
  3  4  1  0  0  0
  3 20  1  0  0  0
  4  5  2  0  0  0
  5  6  1  0  0  0
  6  7  1  0  0  0
  7  8  2  0  0  0
  7  9  1  0  0  0
  9 10  1  0  0  0
 10 11  1  0  0  0
 11 12  2  0  0  0
 11 13  1  0  0  0
 13 19  1  0  0  0
 13 14  2  0  0  0
 14 15  1  0  0  0
 15 16  1  0  0  0
 16 17  2  0  0  0
 16 18  1  0  0  0
 18 19  1  0  0  0
M  END
> <s_m_entry_id>
105807

> <s_m_entry_name>
PKC-all_decoys.6

> <s_m_Source_Path>
/home/liwei/Desktop/Machine/Decoys/PKC

> <s_m_Source_File>
PKC-all_decoys.sdf

> <i_m_Source_File_Index>
6

$$$$
ZINC72423363
                    3D
 Structure written by MMmdl.
 27 30  0  0  1  0            999 V2000
   -1.0099    1.2994    0.1183 C   0  0  0  0  0  0
   -0.4586   -0.1017    0.0542 C   0  0  0  0  0  0
   -0.4435   -0.7844   -1.1466 C   0  0  0  0  0  0
    0.0621   -2.0699   -1.2063 C   0  0  0  0  0  0
    0.5537   -2.6764   -0.0647 C   0  0  0  0  0  0
    0.5414   -1.9992    1.1387 C   0  0  0  0  0  0
    0.0399   -0.7055    1.2007 C   0  0  0  0  0  0
    0.0312   -0.0144    2.4176 N   0  0  0  0  0  0
   -0.0564   -0.6942    3.5781 C   0  0  0  0  0  0
   -0.0455   -1.9100    3.5727 O   0  0  0  0  0  0
   -0.1560   -0.0263    4.7445 N   0  0  0  0  0  0
   -0.2931    1.4368    4.7592 C   0  0  0  0  0  0
   -1.5525    1.8031    5.5541 C   0  0  0  0  0  0
   -1.5265    1.0812    6.8340 N   0  0  0  0  0  0
   -1.3894   -0.3820    6.8193 C   0  0  0  0  0  0
   -0.1355   -0.7487    6.0242 C   0  0  0  0  0  0
   -1.6261    1.7491    8.0004 C   0  0  0  0  0  0
   -1.7384    2.9567    8.0000 O   0  0  0  0  0  0
   -1.5979    0.9954    9.3051 C   0  0  2  0  0  0
   -2.9600    0.4108    9.5841 C   0  0  0  0  0  0
   -3.5519    0.4556   10.7994 C   0  0  0  0  0  0
   -4.7576   -0.1589   10.6812 N   0  0  0  0  0  0
   -4.8694   -0.5652    9.3946 C   0  0  0  0  0  0
   -3.7865   -0.2185    8.7476 N   0  3  0  0  0  0
   -2.9169    1.0883   12.0108 C   0  0  0  0  0  0
   -1.4219    1.2755   11.7145 C   0  0  0  0  0  0
   -1.2550    1.9156   10.4027 N   0  0  0  0  0  0
  1  2  1  0  0  0
  2  7  2  0  0  0
  2  3  1  0  0  0
  3  4  2  0  0  0
  4  5  1  0  0  0
  5  6  2  0  0  0
  6  7  1  0  0  0
  7  8  1  0  0  0
  8  9  1  0  0  0
  9 10  2  0  0  0
  9 11  1  0  0  0
 11 16  1  0  0  0
 11 12  1  0  0  0
 12 13  1  0  0  0
 13 14  1  0  0  0
 14 15  1  0  0  0
 14 17  1  0  0  0
 15 16  1  0  0  0
 17 18  2  0  0  0
 17 19  1  0  0  0
 19 27  1  0  0  0
 19 20  1  0  0  0
 20 24  1  0  0  0
 20 21  2  0  0  0
 21 22  1  0  0  0
 21 25  1  0  0  0
 22 23  1  0  0  0
 23 24  2  0  0  0
 25 26  1  0  0  0
 26 27  1  0  0  0
M  CHG  1  24   1
M  END
> <s_m_entry_id>
105808

> <s_m_entry_name>
PKC-all_decoys.7

> <s_m_Source_Path>
/home/liwei/Desktop/Machine/Decoys/PKC

> <s_m_Source_File>
PKC-all_decoys.sdf

> <i_m_Source_File_Index>
7

$$$$
ZINC08569680
                    3D
 Structure written by MMmdl.
 28 31  0  0  1  0            999 V2000
    0.8525    4.5564    1.7396 C   0  0  0  0  0  0
    0.8228    3.2185    1.3932 C   0  0  0  0  0  0
   -0.3841    2.5474    1.3305 C   0  0  0  0  0  0
   -1.5617    3.2156    1.6091 C   0  0  0  0  0  0
   -1.5315    4.5521    1.9607 C   0  0  0  0  0  0
   -0.3247    5.2232    2.0234 C   0  0  0  0  0  0
   -2.8780    2.4855    1.5348 C   0  0  0  0  0  0
   -2.2186    0.8528    3.1967 C   0  0  0  0  0  0
   -2.4653    0.3957    4.6384 C   0  0  0  0  0  0
   -3.8772    0.0053    4.7697 N   0  0  0  0  0  0
   -4.9061    0.9503    4.3097 C   0  0  0  0  0  0
   -4.5634    1.3856    2.8810 C   0  0  0  0  0  0
   -4.2249   -1.2069    5.3059 C   0  0  0  0  0  0
   -5.4364   -1.7060    5.4918 N   0  0  0  0  0  0
   -5.6364   -2.8930    6.0215 C   0  0  0  0  0  0
   -6.7593   -3.3426    6.1883 O   0  0  0  0  0  0
   -4.4265   -3.6539    6.4049 C   0  0  0  0  0  0
   -4.3148   -4.8865    6.9658 C   0  0  0  0  0  0
   -3.0053   -5.3749    7.4072 C   0  0  0  0  0  0
   -1.9506   -4.4754    7.6113 C   0  0  0  0  0  0
   -0.7316   -4.9329    8.0225 C   0  0  0  0  0  0
   -0.5267   -6.2921    8.2413 C   0  0  0  0  0  0
   -1.5600   -7.1973    8.0442 C   0  0  0  0  0  0
   -2.8028   -6.7481    7.6336 C   0  0  0  0  0  0
   -3.8183   -7.6280    7.4447 O   0  0  0  0  0  0
    0.6898   -6.7344    8.6500 O   0  0  0  0  0  0
   -3.1523   -2.4982    5.9158 S   0  0  0  0  0  0
   -3.1852    1.9224    2.8659 N   0  3  0  0  0  0
  1  6  2  0  0  0
  1  2  1  0  0  0
  2  3  2  0  0  0
  3  4  1  0  0  0
  4  5  2  0  0  0
  4  7  1  0  0  0
  5  6  1  0  0  0
  7 28  1  0  0  0
  8  9  1  0  0  0
  8 28  1  0  0  0
  9 10  1  0  0  0
 10 11  1  0  0  0
 10 13  1  0  0  0
 11 12  1  0  0  0
 12 28  1  0  0  0
 13 27  1  0  0  0
 13 14  2  0  0  0
 14 15  1  0  0  0
 15 16  2  0  0  0
 15 17  1  0  0  0
 17 18  2  0  0  0
 17 27  1  0  0  0
 18 19  1  0  0  0
 19 24  1  0  0  0
 19 20  2  0  0  0
 20 21  1  0  0  0
 21 22  2  0  0  0
 22 23  1  0  0  0
 22 26  1  0  0  0
 23 24  2  0  0  0
 24 25  1  0  0  0
M  CHG  1  28   1
M  END
> <s_m_entry_id>
105809

> <s_m_entry_name>
PKC-all_decoys.8

> <s_m_Source_Path>
/home/liwei/Desktop/Machine/Decoys/PKC

> <s_m_Source_File>
PKC-all_decoys.sdf

> <i_m_Source_File_Index>
8

$$$$
ZINC02597042
                    3D
 Structure written by MMmdl.
 23 25  0  0  1  0            999 V2000
   -0.0168    1.3870    0.0097 C   0  0  0  0  0  0
    1.1671    2.0910    0.0021 C   0  0  0  0  0  0
    2.3865    1.4264   -0.0131 C   0  0  0  0  0  0
    2.4287    0.0488   -0.0209 C   0  0  0  0  0  0
    1.2362   -0.6789   -0.0134 C   0  0  0  0  0  0
    0.0021   -0.0041    0.0020 C   0  0  0  0  0  0
   -0.9869   -0.9624    0.0063 N   0  0  0  0  0  0
   -0.4219   -2.2159   -0.0058 C   0  0  0  0  0  0
    0.9185   -2.1109   -0.0180 C   0  0  0  0  0  0
    1.8119   -3.1391   -0.0317 O   0  0  0  0  0  0
    1.2762   -4.4639   -0.0338 C   0  0  2  0  0  0
    2.4049   -5.4714    0.2006 C   0  0  2  0  0  0
    1.8330   -6.8909    0.1370 C   0  0  1  0  0  0
    1.1456   -7.0926   -1.2170 C   0  0  2  0  0  0
    0.0656   -6.0225   -1.3966 C   0  0  1  0  0  0
    0.6592   -4.7265   -1.2957 O   0  0  0  0  0  0
   -0.5852   -6.1803   -2.7722 C   0  0  0  0  0  0
   -1.6700   -5.2582   -2.8946 O   0  0  0  0  0  0
    0.5467   -8.3893   -1.2601 O   0  0  0  0  0  0
    2.8914   -7.8397    0.2837 O   0  0  0  0  0  0
    2.9863   -5.2465    1.4864 O   0  0  0  0  0  0
    3.9553   -0.7775   -0.0405 Cl  0  0  0  0  0  0
    3.9973    2.4168   -0.0238 Br  0  0  0  0  0  0
  1  6  2  0  0  0
  1  2  1  0  0  0
  2  3  2  0  0  0
  3  4  1  0  0  0
  3 23  1  0  0  0
  4  5  2  0  0  0
  4 22  1  0  0  0
  5  9  1  0  0  0
  5  6  1  0  0  0
  6  7  1  0  0  0
  7  8  1  0  0  0
  8  9  2  0  0  0
  9 10  1  0  0  0
 10 11  1  0  0  0
 11 16  1  0  0  0
 11 12  1  0  0  0
 12 13  1  0  0  0
 12 21  1  0  0  0
 13 14  1  0  0  0
 13 20  1  0  0  0
 14 15  1  0  0  0
 14 19  1  0  0  0
 15 16  1  0  0  0
 15 17  1  0  0  0
 17 18  1  0  0  0
M  END
> <s_m_entry_id>
105810

> <s_m_entry_name>
PKC-all_decoys.9

> <s_m_Source_Path>
/home/liwei/Desktop/Machine/Decoys/PKC

> <s_m_Source_File>
PKC-all_decoys.sdf

> <i_m_Source_File_Index>
9

$$$$
ZINC70664777
                    3D
 Structure written by MMmdl.
 40 44  0  0  1  0            999 V2000
   -1.3368    0.7748   -2.5303 C   0  0  0  0  0  0
   -0.9733   -0.5361   -1.8819 C   0  0  0  0  0  0
   -0.6165   -1.6186   -2.6641 C   0  0  0  0  0  0
   -0.2831   -2.8211   -2.0693 C   0  0  0  0  0  0
   -0.3060   -2.9409   -0.6923 C   0  0  0  0  0  0
   -0.6618   -1.8581    0.0899 C   0  0  0  0  0  0
   -0.9911   -0.6544   -0.5047 C   0  0  0  0  0  0
    0.0566   -4.2521   -0.0439 C   0  0  0  0  0  0
    0.7708   -3.9888    1.2567 C   0  0  0  0  0  0
    0.5085   -4.7776    2.3612 C   0  0  0  0  0  0
    1.1636   -4.5361    3.5543 C   0  0  0  0  0  0
    2.0813   -3.5061    3.6427 C   0  0  0  0  0  0
    2.3443   -2.7179    2.5379 C   0  0  0  0  0  0
    1.6923   -2.9621    1.3437 C   0  0  0  0  0  0
    2.7948   -3.2422    4.9436 C   0  0  0  0  0  0
   -1.1974   -5.0442    0.2229 C   0  0  0  0  0  0
   -2.2302   -4.4799    0.9481 C   0  0  0  0  0  0
   -3.3804   -5.2064    1.1929 C   0  0  0  0  0  0
   -3.4981   -6.4972    0.7121 C   0  0  0  0  0  0
   -2.4657   -7.0611   -0.0138 C   0  0  0  0  0  0
   -1.3172   -6.3330   -0.2623 C   0  0  0  0  0  0
   -4.7516   -7.2896    0.9799 C   0  0  0  0  0  0
    0.9122   -4.9940   -0.9155 O   0  0  0  0  0  0
    2.1528   -4.3455   -1.2025 C   0  0  0  0  0  0
    2.9189   -5.1522   -2.2528 C   0  0  2  0  0  0
    4.3020   -4.5164   -2.5158 C   0  0  1  0  0  0
    4.5191   -4.7043   -4.0340 C   0  0  1  0  0  0
    3.2415   -5.4314   -4.5087 C   0  0  1  0  0  0
    2.2370   -5.0972   -3.5248 O   0  0  0  0  0  0
    2.8425   -4.9491   -5.8332 N   0  0  0  0  0  0
    2.4500   -3.6469   -5.9909 C   0  0  0  0  0  0
    2.0823   -3.2027   -7.2121 C   0  0  0  0  0  0
    2.1110   -4.0989   -8.3086 C   0  0  0  0  0  0
    1.7843   -3.7215   -9.4194 O   0  0  0  0  0  0
    2.5038   -5.3736   -8.1111 N   0  0  0  0  0  0
    2.8703   -5.7884   -6.8843 C   0  0  0  0  0  0
    3.2269   -6.9396   -6.7227 O   0  0  0  0  0  0
    1.5359   -1.4087   -7.4548 Br  0  0  0  0  0  0
    4.6474   -3.4372   -4.6820 O   0  0  0  0  0  0
    4.2874   -3.1281   -2.1773 O   0  0  0  0  0  0
  1  2  1  0  0  0
  2  7  2  0  0  0
  2  3  1  0  0  0
  3  4  2  0  0  0
  4  5  1  0  0  0
  5  6  2  0  0  0
  5  8  1  0  0  0
  6  7  1  0  0  0
  8  9  1  0  0  0
  8 16  1  0  0  0
  8 23  1  0  0  0
  9 14  1  0  0  0
  9 10  2  0  0  0
 10 11  1  0  0  0
 11 12  2  0  0  0
 12 13  1  0  0  0
 12 15  1  0  0  0
 13 14  2  0  0  0
 16 21  1  0  0  0
 16 17  2  0  0  0
 17 18  1  0  0  0
 18 19  2  0  0  0
 19 20  1  0  0  0
 19 22  1  0  0  0
 20 21  2  0  0  0
 23 24  1  0  0  0
 24 25  1  0  0  0
 25 29  1  0  0  0
 25 26  1  0  0  0
 26 27  1  0  0  0
 26 40  1  0  0  0
 27 28  1  0  0  0
 27 39  1  0  0  0
 28 29  1  0  0  0
 28 30  1  0  0  0
 30 36  1  0  0  0
 30 31  1  0  0  0
 31 32  2  0  0  0
 32 33  1  0  0  0
 32 38  1  0  0  0
 33 34  2  0  0  0
 33 35  1  0  0  0
 35 36  1  0  0  0
 36 37  2  0  0  0
M  END
> <s_m_entry_id>
105811

> <s_m_entry_name>
PKC-all_decoys.10

> <s_m_Source_Path>
/home/liwei/Desktop/Machine/Decoys/PKC

> <s_m_Source_File>
PKC-all_decoys.sdf

> <i_m_Source_File_Index>
10

$$$$
ZINC08396239
                    3D
 Structure written by MMmdl.
 35 37  0  0  1  0            999 V2000
    8.8516    6.9522   -2.1564 C   0  0  0  0  0  0
    7.4595    7.5308   -1.8955 C   0  0  0  0  0  0
    6.5544    6.4612   -1.5147 O   0  0  0  0  0  0
    5.2775    6.8052   -1.2482 C   0  0  0  0  0  0
    4.9307    7.9684   -1.3320 O   0  0  0  0  0  0
    4.3104    5.7804   -0.8586 C   0  0  0  0  0  0
    2.9849    6.1081   -0.5776 C   0  0  0  0  0  0
    2.2209    4.6101   -0.1758 S   0  0  0  0  0  0
    3.5986    3.4947   -0.3473 C   0  0  0  0  0  0
    3.6300    2.1501   -0.1589 C   0  0  0  0  0  0
    2.4869    1.4688    0.4604 C   0  0  0  0  0  0
    2.4331    0.0691    0.4867 C   0  0  0  0  0  0
    1.3555   -0.5658    1.0709 C   0  0  0  0  0  0
    0.3235    0.1853    1.6334 C   0  0  0  0  0  0
    0.3755    1.5731    1.6086 C   0  0  0  0  0  0
    1.4472    2.2158    1.0276 C   0  0  0  0  0  0
   -1.1835    2.6921    2.4490 I   0  0  0  0  0  0
   -0.7354   -0.4424    2.2076 O   0  0  0  0  0  0
   -1.8494   -0.7393    1.3632 C   0  0  0  0  0  0
   -2.9198   -1.4302    2.1682 C   0  0  0  0  0  0
   -4.1718   -1.0658    2.0423 C   0  0  0  0  0  0
    1.3003   -1.9243    1.0986 O   0  0  0  0  0  0
    2.3914   -2.6301    0.5041 C   0  0  0  0  0  0
    4.6939    4.3933   -0.7507 C   0  0  0  0  0  0
    5.8267    3.9991   -0.9745 O   0  0  0  0  0  0
    2.4077    7.3539   -0.6175 N   0  0  0  0  0  0
    1.1026    7.5019   -0.3152 C   0  0  0  0  0  0
    0.4365    6.5332   -0.0073 O   0  0  0  0  0  0
    0.4817    8.8422   -0.3581 C   0  0  0  0  0  0
    1.2688    9.9728   -0.5859 C   0  0  0  0  0  0
    0.6828   11.2208   -0.6247 C   0  0  0  0  0  0
   -0.6821   11.3538   -0.4389 C   0  0  0  0  0  0
   -1.4678   10.2378   -0.2128 C   0  0  0  0  0  0
   -0.8953    8.9830   -0.1768 C   0  0  0  0  0  0
   -1.7537    7.7678    0.0629 C   0  0  0  0  0  0
  1  2  1  0  0  0
  2  3  1  0  0  0
  3  4  1  0  0  0
  4  5  2  0  0  0
  4  6  1  0  0  0
  6 24  1  0  0  0
  6  7  2  0  0  0
  7  8  1  0  0  0
  7 26  1  0  0  0
  8  9  1  0  0  0
  9 10  2  0  0  0
  9 24  1  0  0  0
 10 11  1  0  0  0
 11 16  1  0  0  0
 11 12  2  0  0  0
 12 13  1  0  0  0
 13 14  2  0  0  0
 13 22  1  0  0  0
 14 15  1  0  0  0
 14 18  1  0  0  0
 15 16  2  0  0  0
 15 17  1  0  0  0
 18 19  1  0  0  0
 19 20  1  0  0  0
 20 21  2  0  0  0
 22 23  1  0  0  0
 24 25  2  0  0  0
 26 27  1  0  0  0
 27 28  2  0  0  0
 27 29  1  0  0  0
 29 34  1  0  0  0
 29 30  2  0  0  0
 30 31  1  0  0  0
 31 32  2  0  0  0
 32 33  1  0  0  0
 33 34  2  0  0  0
 34 35  1  0  0  0
M  END
> <s_m_entry_id>
105812

> <s_m_entry_name>
PKC-all_decoys.11

> <s_m_Source_Path>
/home/liwei/Desktop/Machine/Decoys/PKC

> <s_m_Source_File>
PKC-all_decoys.sdf

> <i_m_Source_File_Index>
11

$$$$
ZINC08396255
                    3D
 Structure written by MMmdl.
 36 38  0  0  1  0            999 V2000
   -0.6437   -2.0299    0.8241 C   0  0  0  0  0  0
   -0.9674   -0.5522    0.5944 C   0  0  0  0  0  0
    0.1715    0.1031    0.0327 O   0  0  0  0  0  0
    0.0502    1.4310   -0.2345 C   0  0  0  0  0  0
   -1.1373    2.0830    0.0325 C   0  0  0  0  0  0
   -1.2570    3.4518   -0.2392 C   0  0  0  0  0  0
   -0.1744    4.1492   -0.7900 C   0  0  0  0  0  0
    1.0046    3.4889   -1.0583 C   0  0  0  0  0  0
    1.1233    2.1322   -0.7834 C   0  0  0  0  0  0
    2.2885    1.4869   -1.0497 O   0  0  0  0  0  0
    2.4256    0.9044   -2.3474 C   0  0  0  0  0  0
    3.7410    0.2526   -2.4562 C   0  0  0  0  0  0
    4.7900   -0.2672   -2.5430 C   0  0  0  0  0  0
    2.6230    4.5334   -1.8822 I   0  0  0  0  0  0
   -2.5146    4.1521    0.0479 C   0  0  0  0  0  0
   -2.5282    5.5056    0.1583 C   0  0  0  0  0  0
   -3.6860    6.4064    0.2937 C   0  0  0  0  0  0
   -4.8380    6.0056    0.3231 O   0  0  0  0  0  0
   -3.3390    7.8039    0.3890 C   0  0  0  0  0  0
   -1.9864    8.1385    0.3439 C   0  0  0  0  0  0
   -1.1503    6.6337    0.1833 S   0  0  0  0  0  0
   -1.4354    9.3945    0.4174 N   0  0  0  0  0  0
   -0.0977    9.5481    0.3582 C   0  0  0  0  0  0
    0.6210    8.5753    0.2398 O   0  0  0  0  0  0
    0.4947   10.8987    0.4373 C   0  0  0  0  0  0
   -0.3281   12.0190    0.5734 C   0  0  0  0  0  0
    0.2315   13.2771    0.6466 C   0  0  0  0  0  0
    1.6058   13.4322    0.5855 C   0  0  0  0  0  0
    2.4276   12.3284    0.4508 C   0  0  0  0  0  0
    1.8815   11.0614    0.3820 C   0  0  0  0  0  0
    2.9147    9.6757    0.2201 Cl  0  0  0  0  0  0
   -4.3690    8.8321    0.5275 C   0  0  0  0  0  0
   -4.0520   10.0041    0.6056 O   0  0  0  0  0  0
   -5.6709    8.4813    0.5686 O   0  0  0  0  0  0
   -6.6388    9.5548    0.7075 C   0  0  0  0  0  0
   -8.0513    8.9674    0.7353 C   0  0  0  0  0  0
  1  2  1  0  0  0
  2  3  1  0  0  0
  3  4  1  0  0  0
  4  9  2  0  0  0
  4  5  1  0  0  0
  5  6  2  0  0  0
  6  7  1  0  0  0
  6 15  1  0  0  0
  7  8  2  0  0  0
  8  9  1  0  0  0
  8 14  1  0  0  0
  9 10  1  0  0  0
 10 11  1  0  0  0
 11 12  1  0  0  0
 12 13  3  0  0  0
 15 16  2  0  0  0
 16 21  1  0  0  0
 16 17  1  0  0  0
 17 18  2  0  0  0
 17 19  1  0  0  0
 19 20  2  0  0  0
 19 32  1  0  0  0
 20 21  1  0  0  0
 20 22  1  0  0  0
 22 23  1  0  0  0
 23 24  2  0  0  0
 23 25  1  0  0  0
 25 30  1  0  0  0
 25 26  2  0  0  0
 26 27  1  0  0  0
 27 28  2  0  0  0
 28 29  1  0  0  0
 29 30  2  0  0  0
 30 31  1  0  0  0
 32 33  2  0  0  0
 32 34  1  0  0  0
 34 35  1  0  0  0
 35 36  1  0  0  0
M  END
> <s_m_entry_id>
105813

> <s_m_entry_name>
PKC-all_decoys.12

> <s_m_Source_Path>
/home/liwei/Desktop/Machine/Decoys/PKC

> <s_m_Source_File>
PKC-all_decoys.sdf

> <i_m_Source_File_Index>
12

$$$$
ZINC08453121
                    3D
 Structure written by MMmdl.
 39 41  0  0  1  0            999 V2000
   -1.0184    2.0179    0.5715 C   0  0  0  0  0  0
   -0.0136    1.3600    1.5193 C   0  0  0  0  0  0
    1.0879    0.8491    0.7658 O   0  0  0  0  0  0
    2.0778    0.2288    1.4624 C   0  0  0  0  0  0
    1.9886    0.1156    2.8370 C   0  0  0  0  0  0
    3.0071   -0.5227    3.5499 C   0  0  0  0  0  0
    4.1114   -1.0436    2.8688 C   0  0  0  0  0  0
    4.1900   -0.9314    1.4958 C   0  0  0  0  0  0
    3.1810   -0.2926    0.7900 C   0  0  0  0  0  0
    3.2662   -0.1798   -0.5620 O   0  0  0  0  0  0
    4.4241   -0.7364   -1.1878 C   0  0  0  0  0  0
    4.3433   -0.5146   -2.6994 C   0  0  0  0  0  0
    5.4927   -1.9083    3.8279 Br  0  0  0  0  0  0
    2.9171   -0.6468    5.0157 C   0  0  0  0  0  0
    3.8644   -1.2401    5.6764 N   0  0  0  0  0  0
    3.7789   -1.3581    7.0698 N   0  0  0  0  0  0
    4.7622   -1.9740    7.7555 C   0  0  0  0  0  0
    5.7247   -2.4278    7.1641 O   0  0  0  0  0  0
    4.6727   -2.0976    9.2153 C   0  0  0  0  0  0
    3.6016   -1.5925    9.8734 C   0  0  0  0  0  0
    3.4875   -1.7600   11.3284 C   0  0  0  0  0  0
    4.6382   -1.8164   12.1224 C   0  0  0  0  0  0
    4.5221   -1.9694   13.4913 C   0  0  0  0  0  0
    3.2673   -2.0776   14.0785 C   0  0  0  0  0  0
    2.1257   -2.0282   13.3018 C   0  0  0  0  0  0
    2.2239   -1.8701   11.9293 C   0  0  0  0  0  0
    1.1007   -1.8222   11.1670 O   0  0  0  0  0  0
   -0.1505   -1.9408   11.8472 C   0  0  0  0  0  0
    5.6392   -2.0192   14.2650 O   0  0  0  0  0  0
    5.4466   -2.0672   15.6802 C   0  0  0  0  0  0
    5.6933   -2.7369    9.9271 N   0  0  0  0  0  0
    6.9657   -2.3076    9.8125 C   0  0  0  0  0  0
    7.2147   -1.3102    9.1634 O   0  0  0  0  0  0
    8.0585   -3.0495   10.4760 C   0  0  0  0  0  0
    7.7922   -4.2536   11.1300 C   0  0  0  0  0  0
    8.8178   -4.9441   11.7419 C   0  0  0  0  0  0
   10.1060   -4.4397   11.7185 C   0  0  0  0  0  0
   10.3757   -3.2437   11.0773 C   0  0  0  0  0  0
    9.3604   -2.5463   10.4561 C   0  0  0  0  0  0
  1  2  1  0  0  0
  2  3  1  0  0  0
  3  4  1  0  0  0
  4  9  2  0  0  0
  4  5  1  0  0  0
  5  6  2  0  0  0
  6  7  1  0  0  0
  6 14  1  0  0  0
  7  8  2  0  0  0
  7 13  1  0  0  0
  8  9  1  0  0  0
  9 10  1  0  0  0
 10 11  1  0  0  0
 11 12  1  0  0  0
 14 15  2  0  0  0
 15 16  1  0  0  0
 16 17  1  0  0  0
 17 18  2  0  0  0
 17 19  1  0  0  0
 19 20  2  0  0  0
 19 31  1  0  0  0
 20 21  1  0  0  0
 21 26  1  0  0  0
 21 22  2  0  0  0
 22 23  1  0  0  0
 23 24  2  0  0  0
 23 29  1  0  0  0
 24 25  1  0  0  0
 25 26  2  0  0  0
 26 27  1  0  0  0
 27 28  1  0  0  0
 29 30  1  0  0  0
 31 32  1  0  0  0
 32 33  2  0  0  0
 32 34  1  0  0  0
 34 39  1  0  0  0
 34 35  2  0  0  0
 35 36  1  0  0  0
 36 37  2  0  0  0
 37 38  1  0  0  0
 38 39  2  0  0  0
M  END
> <s_m_entry_id>
105814

> <s_m_entry_name>
PKC-all_decoys.13

> <s_m_Source_Path>
/home/liwei/Desktop/Machine/Decoys/PKC

> <s_m_Source_File>
PKC-all_decoys.sdf

> <i_m_Source_File_Index>
13

$$$$
ZINC08442471
                    3D
 Structure written by MMmdl.
 47 50  0  0  1  0            999 V2000
    6.5437    1.0814   -2.5005 C   0  0  0  0  0  0
    5.9381    2.3941   -3.0014 C   0  0  0  0  0  0
    5.6100    2.2690   -4.4906 C   0  0  0  0  0  0
    4.6573    2.6956   -2.2206 C   0  0  0  0  0  0
    4.1194    4.0672   -2.6333 C   0  0  1  0  0  0
    2.7949    4.3116   -1.9571 C   0  0  0  0  0  0
    2.6600    5.2564   -1.2163 O   0  0  0  0  0  0
    1.7650    3.4795   -2.1780 O   0  0  0  0  0  0
    0.5194    3.7761   -1.4933 C   0  0  0  0  0  0
   -0.5140    2.7423   -1.8602 C   0  0  0  0  0  0
   -0.7416    1.5850   -1.2129 C   0  0  0  0  0  0
   -1.7386    0.9525   -1.8627 O   0  0  0  0  0  0
   -2.1143    1.7314   -2.8918 C   0  0  0  0  0  0
   -1.3702    2.8122   -2.8907 N   0  0  0  0  0  0
   -3.1826    1.4199   -3.8651 C   0  0  0  0  0  0
   -3.4771    2.3165   -4.8933 C   0  0  0  0  0  0
   -4.4714    2.0171   -5.8017 C   0  0  0  0  0  0
   -5.1836    0.8364   -5.6882 C   0  0  0  0  0  0
   -4.9004   -0.0541   -4.6678 C   0  0  0  0  0  0
   -3.9048    0.2306   -3.7563 C   0  0  0  0  0  0
   -0.0127    1.0858    0.0080 C   0  0  0  0  0  0
   -0.6923    1.5541    1.2026 O   0  0  0  0  0  0
   -0.1661    1.1940    2.3838 C   0  0  0  0  0  0
    0.8294    0.5102    2.4184 O   0  0  0  0  0  0
   -0.8170    1.6426    3.6668 C   0  0  1  0  0  0
   -2.2510    1.1121    3.7239 C   0  0  0  0  0  0
   -2.9519    1.6695    4.9644 C   0  0  0  0  0  0
   -3.0870    3.1880    4.8349 C   0  0  0  0  0  0
   -4.3420    1.0426    5.0896 C   0  0  0  0  0  0
   -0.0582    1.1228    4.8071 N   0  0  0  0  0  0
   -0.1082    1.7570    5.9953 C   0  0  0  0  0  0
   -0.7829    2.7603    6.1208 O   0  0  0  0  0  0
    0.6575    1.2324    7.1461 C   0  0  0  0  0  0
    1.4285    0.0773    7.0069 C   0  0  0  0  0  0
    2.1448   -0.4040    8.0833 C   0  0  0  0  0  0
    2.0913    0.2495    9.3016 C   0  0  0  0  0  0
    1.3244    1.3917    9.4478 C   0  0  0  0  0  0
    0.6079    1.8868    8.3779 C   0  0  0  0  0  0
    5.0714    5.1060   -2.2322 N   0  0  0  0  0  0
    6.1091    5.4152   -3.0346 C   0  0  0  0  0  0
    6.2552    4.8321   -4.0911 O   0  0  0  0  0  0
    7.0699    6.4635   -2.6298 C   0  0  0  0  0  0
    6.9018    7.1389   -1.4200 C   0  0  0  0  0  0
    7.8049    8.1123   -1.0457 C   0  0  0  0  0  0
    8.8691    8.4273   -1.8718 C   0  0  0  0  0  0
    9.0383    7.7656   -3.0751 C   0  0  0  0  0  0
    8.1457    6.7860   -3.4585 C   0  0  0  0  0  0
  1  2  1  0  0  0
  2  3  1  0  0  0
  2  4  1  0  0  0
  4  5  1  0  0  0
  5  6  1  0  0  0
  5 39  1  0  0  0
  6  7  2  0  0  0
  6  8  1  0  0  0
  8  9  1  0  0  0
  9 10  1  0  0  0
 10 14  1  0  0  0
 10 11  2  0  0  0
 11 12  1  0  0  0
 11 21  1  0  0  0
 12 13  1  0  0  0
 13 14  2  0  0  0
 13 15  1  0  0  0
 15 20  1  0  0  0
 15 16  2  0  0  0
 16 17  1  0  0  0
 17 18  2  0  0  0
 18 19  1  0  0  0
 19 20  2  0  0  0
 21 22  1  0  0  0
 22 23  1  0  0  0
 23 24  2  0  0  0
 23 25  1  0  0  0
 25 26  1  0  0  0
 25 30  1  0  0  0
 26 27  1  0  0  0
 27 28  1  0  0  0
 27 29  1  0  0  0
 30 31  1  0  0  0
 31 32  2  0  0  0
 31 33  1  0  0  0
 33 38  1  0  0  0
 33 34  2  0  0  0
 34 35  1  0  0  0
 35 36  2  0  0  0
 36 37  1  0  0  0
 37 38  2  0  0  0
 39 40  1  0  0  0
 40 41  2  0  0  0
 40 42  1  0  0  0
 42 47  1  0  0  0
 42 43  2  0  0  0
 43 44  1  0  0  0
 44 45  2  0  0  0
 45 46  1  0  0  0
 46 47  2  0  0  0
M  END
> <s_m_entry_id>
105815

> <s_m_entry_name>
PKC-all_decoys.14

> <s_m_Source_Path>
/home/liwei/Desktop/Machine/Decoys/PKC

> <s_m_Source_File>
PKC-all_decoys.sdf

> <i_m_Source_File_Index>
14

$$$$
ZINC08434855
                    3D
 Structure written by MMmdl.
 38 41  0  0  1  0            999 V2000
    0.0021   -0.0041    0.0020 C   0  0  0  0  0  0
   -0.0166    1.3747    0.0096 C   0  0  0  0  0  0
    1.1717    2.0863    0.0021 C   0  0  0  0  0  0
    2.3853    1.4186   -0.0132 C   0  0  0  0  0  0
    2.4169    0.0401   -0.0209 C   0  0  0  0  0  0
    1.2223   -0.6828   -0.0133 C   0  0  0  0  0  0
    1.2492   -2.1599   -0.0220 C   0  0  0  0  0  0
    0.2077   -2.7869   -0.0158 O   0  0  0  0  0  0
    2.4285   -2.8123   -0.0368 N   0  0  0  0  0  0
    2.4538   -4.2018   -0.0450 C   0  0  0  0  0  0
    1.4546   -5.0734   -0.0410 N   0  0  0  0  0  0
    1.6575   -6.3182   -0.0503 N   0  0  0  0  0  0
    2.8717   -6.8314   -0.0646 C   0  0  0  0  0  0
    3.8452   -5.3286   -0.0719 S   0  0  0  0  0  0
    3.3141   -8.2719   -0.0780 C   0  0  0  0  0  0
    3.4503   -8.7502   -1.5250 C   0  0  0  0  0  0
    3.8698  -10.1161   -1.5377 O   0  0  0  0  0  0
    4.0281  -10.6633   -2.8482 C   0  0  0  0  0  0
    4.4770  -12.1221   -2.7410 C   0  0  0  0  0  0
    3.4417  -12.8954   -2.1310 O   0  0  0  0  0  0
    3.7613  -14.2803   -1.9829 C   0  0  0  0  0  0
    2.5877  -15.0067   -1.3226 C   0  0  0  0  0  0
    2.9247  -16.4672   -1.1664 C   0  0  0  0  0  0
    3.5091  -17.0998   -0.1683 N   0  0  0  0  0  0
    3.7209  -18.3428   -0.1930 N   0  0  0  0  0  0
    3.3673  -19.0921   -1.2282 C   0  0  0  0  0  0
    2.6384  -17.8397   -2.2801 S   0  0  0  0  0  0
    3.5148  -20.4584   -1.4351 N   0  0  0  0  0  0
    4.0977  -21.2238   -0.4912 C   0  0  0  0  0  0
    4.4943  -20.7190    0.5412 O   0  0  0  0  0  0
    4.2545  -22.6763   -0.7111 C   0  0  0  0  0  0
    3.7949  -23.2599   -1.8934 C   0  0  0  0  0  0
    3.9498  -24.6151   -2.0956 C   0  0  0  0  0  0
    4.5492  -25.3991   -1.1236 C   0  0  0  0  0  0
    5.0016  -24.8269    0.0539 C   0  0  0  0  0  0
    4.8580  -23.4719    0.2650 C   0  0  0  0  0  0
    4.7346  -27.1057   -1.3825 Cl  0  0  0  0  0  0
    1.1401    3.8220    0.0112 Cl  0  0  0  0  0  0
  1  6  2  0  0  0
  1  2  1  0  0  0
  2  3  2  0  0  0
  3  4  1  0  0  0
  3 38  1  0  0  0
  4  5  2  0  0  0
  5  6  1  0  0  0
  6  7  1  0  0  0
  7  8  2  0  0  0
  7  9  1  0  0  0
  9 10  1  0  0  0
 10 14  1  0  0  0
 10 11  2  0  0  0
 11 12  1  0  0  0
 12 13  2  0  0  0
 13 14  1  0  0  0
 13 15  1  0  0  0
 15 16  1  0  0  0
 16 17  1  0  0  0
 17 18  1  0  0  0
 18 19  1  0  0  0
 19 20  1  0  0  0
 20 21  1  0  0  0
 21 22  1  0  0  0
 22 23  1  0  0  0
 23 27  1  0  0  0
 23 24  2  0  0  0
 24 25  1  0  0  0
 25 26  2  0  0  0
 26 27  1  0  0  0
 26 28  1  0  0  0
 28 29  1  0  0  0
 29 30  2  0  0  0
 29 31  1  0  0  0
 31 36  1  0  0  0
 31 32  2  0  0  0
 32 33  1  0  0  0
 33 34  2  0  0  0
 34 35  1  0  0  0
 34 37  1  0  0  0
 35 36  2  0  0  0
M  END
> <s_m_entry_id>
105816

> <s_m_entry_name>
PKC-all_decoys.15

> <s_m_Source_Path>
/home/liwei/Desktop/Machine/Decoys/PKC

> <s_m_Source_File>
PKC-all_decoys.sdf

> <i_m_Source_File_Index>
15

$$$$
ZINC70672487
                    3D
 Structure written by MMmdl.
 44 47  0  0  1  0            999 V2000
   -0.1520   -0.9309    2.9061 C   0  0  0  0  0  0
   -0.1904   -2.2188    2.0810 C   0  0  0  0  0  0
   -1.6448   -2.5985    1.7957 C   0  0  0  0  0  0
   -1.6816   -3.8316    1.0056 N   0  0  0  0  0  0
   -1.6205   -5.1330    1.6757 C   0  0  0  0  0  0
   -3.0262   -5.5466    2.1157 C   0  0  0  0  0  0
   -2.9624   -6.9056    2.8156 C   0  0  0  0  0  0
   -1.7922   -3.7546   -0.6449 S   0  0  0  0  0  0
   -2.3570   -4.9866   -1.0720 O   0  0  0  0  0  0
   -2.3808   -2.4988   -0.9543 O   0  0  0  0  0  0
   -0.1476   -3.7090   -1.2757 C   0  0  0  0  0  0
    0.4857   -2.4927   -1.4602 C   0  0  0  0  0  0
    1.7733   -2.4499   -1.9537 C   0  0  0  0  0  0
    2.4371   -3.6372   -2.2671 C   0  0  0  0  0  0
    1.7923   -4.8608   -2.0785 C   0  0  0  0  0  0
    0.5067   -4.8898   -1.5790 C   0  0  0  0  0  0
    3.8166   -3.5989   -2.7967 C   0  0  0  0  0  0
    4.3417   -2.5317   -3.0483 O   0  0  0  0  0  0
    4.4922   -4.7471   -3.0008 N   0  0  0  0  0  0
    5.8297   -4.7085   -3.4133 C   0  0  0  0  0  0
    6.3067   -3.6130   -4.1211 C   0  0  0  0  0  0
    7.6297   -3.5762   -4.5279 C   0  0  0  0  0  0
    8.4787   -4.6373   -4.2265 C   0  0  0  0  0  0
    7.9998   -5.7285   -3.5204 C   0  0  0  0  0  0
    6.6803   -5.7628   -3.1097 C   0  0  0  0  0  0
    6.1632   -6.9486   -2.3367 C   0  0  0  0  0  0
    6.2384   -6.6571   -0.8601 C   0  0  0  0  0  0
    7.3481   -7.0851   -0.1149 C   0  0  0  0  0  0
    8.4124   -7.7875   -0.7029 C   0  0  0  0  0  0
    9.4675   -8.1800    0.0682 C   0  0  0  0  0  0
    9.5038   -7.8917    1.4413 C   0  0  0  0  0  0
    8.4835   -7.2101    2.0409 C   0  0  0  0  0  0
    7.3864   -6.7936    1.2742 C   0  0  0  0  0  0
    6.3063   -6.0879    1.8358 C   0  0  0  0  0  0
    5.2762   -5.7170    1.0262 C   0  0  0  0  0  0
    5.2684   -5.9977   -0.2700 N   0  0  0  0  0  0
   10.5675   -8.2963    2.1837 O   0  0  0  0  0  0
   10.5476   -7.9736    3.5756 C   0  0  0  0  0  0
   10.4976   -8.8600   -0.5014 O   0  0  0  0  0  0
   10.4302   -9.0773   -1.9122 C   0  0  0  0  0  0
    9.7789   -4.6029   -4.6259 O   0  0  0  0  0  0
   10.5931   -5.7258   -4.2823 C   0  0  0  0  0  0
    8.0989   -2.5047   -5.2214 O   0  0  0  0  0  0
    7.1716   -1.4527   -5.4957 C   0  0  0  0  0  0
  1  2  1  0  0  0
  2  3  1  0  0  0
  3  4  1  0  0  0
  4  5  1  0  0  0
  4  8  1  0  0  0
  5  6  1  0  0  0
  6  7  1  0  0  0
  8  9  2  0  0  0
  8 10  2  0  0  0
  8 11  1  0  0  0
 11 16  2  0  0  0
 11 12  1  0  0  0
 12 13  2  0  0  0
 13 14  1  0  0  0
 14 15  2  0  0  0
 14 17  1  0  0  0
 15 16  1  0  0  0
 17 18  2  0  0  0
 17 19  1  0  0  0
 19 20  1  0  0  0
 20 25  1  0  0  0
 20 21  2  0  0  0
 21 22  1  0  0  0
 22 23  2  0  0  0
 22 43  1  0  0  0
 23 24  1  0  0  0
 23 41  1  0  0  0
 24 25  2  0  0  0
 25 26  1  0  0  0
 26 27  1  0  0  0
 27 36  2  0  0  0
 27 28  1  0  0  0
 28 33  1  0  0  0
 28 29  2  0  0  0
 29 30  1  0  0  0
 30 31  2  0  0  0
 30 39  1  0  0  0
 31 32  1  0  0  0
 31 37  1  0  0  0
 32 33  2  0  0  0
 33 34  1  0  0  0
 34 35  2  0  0  0
 35 36  1  0  0  0
 37 38  1  0  0  0
 39 40  1  0  0  0
 41 42  1  0  0  0
 43 44  1  0  0  0
M  END
> <s_m_entry_id>
105817

> <s_m_entry_name>
PKC-all_decoys.16

> <s_m_Source_Path>
/home/liwei/Desktop/Machine/Decoys/PKC

> <s_m_Source_File>
PKC-all_decoys.sdf

> <i_m_Source_File_Index>
16

$$$$
ZINC08496968
                    3D
 Structure written by MMmdl.
 34 35  0  0  1  0            999 V2000
    2.1878    3.9261    3.0734 C   0  0  0  0  0  0
    1.2043    3.1455    2.3912 O   0  0  0  0  0  0
    0.8056    1.9924    2.9920 C   0  0  0  0  0  0
    1.3493    1.6232    4.2082 C   0  0  0  0  0  0
    0.9377    0.4379    4.8230 C   0  0  0  0  0  0
   -0.0215   -0.3686    4.2059 C   0  0  0  0  0  0
   -0.5634    0.0088    2.9942 C   0  0  0  0  0  0
   -0.1501    1.1836    2.3816 C   0  0  0  0  0  0
   -0.6836    1.5487    1.1855 O   0  0  0  0  0  0
   -0.0148    1.0887    0.0094 C   0  0  0  0  0  0
   -0.7441    1.5883   -1.2111 C   0  0  0  0  0  0
   -0.0717    2.0989   -2.2127 C   0  0  0  0  0  0
   -1.8666   -1.0806    2.1631 Br  0  0  0  0  0  0
    1.5140    0.0396    6.1204 C   0  0  0  0  0  0
    1.0617   -1.0089    6.7368 N   0  0  0  0  0  0
    1.5352   -1.3279    8.0162 N   0  0  0  0  0  0
    1.1421   -2.4696    8.6149 C   0  0  0  0  0  0
    1.6224   -2.7918    9.6849 O   0  0  0  0  0  0
    0.2167   -3.2543    8.0280 N   0  0  0  0  0  0
   -0.2691   -4.3851    8.6974 N   0  0  0  0  0  0
   -1.0863   -5.1940    8.0957 C   0  0  0  0  0  0
   -1.6838   -6.3219    8.8337 C   0  0  0  0  0  0
   -2.4849   -7.2508    8.1644 C   0  0  0  0  0  0
   -3.0382   -8.3098    8.8597 C   0  0  0  0  0  0
   -2.8067   -8.4429   10.2268 C   0  0  0  0  0  0
   -2.0159   -7.5175   10.8934 C   0  0  0  0  0  0
   -1.4552   -6.4613   10.2047 C   0  0  0  0  0  0
   -1.7054   -7.7047   12.7494 Br  0  0  0  0  0  0
   -3.3565   -9.4820   10.9098 O   0  0  0  0  0  0
   -4.6501   -9.2721   11.4794 C   0  0  0  0  0  0
   -5.0943  -10.5234   12.1920 C   0  0  0  0  0  0
   -5.6333  -10.4425   13.3833 C   0  0  0  0  0  0
   -3.8130   -9.2191    8.2098 O   0  0  0  0  0  0
   -4.0082   -9.0212    6.8081 C   0  0  0  0  0  0
  1  2  1  0  0  0
  2  3  1  0  0  0
  3  8  2  0  0  0
  3  4  1  0  0  0
  4  5  2  0  0  0
  5  6  1  0  0  0
  5 14  1  0  0  0
  6  7  2  0  0  0
  7  8  1  0  0  0
  7 13  1  0  0  0
  8  9  1  0  0  0
  9 10  1  0  0  0
 10 11  1  0  0  0
 11 12  2  0  0  0
 14 15  2  0  0  0
 15 16  1  0  0  0
 16 17  1  0  0  0
 17 18  2  0  0  0
 17 19  1  0  0  0
 19 20  1  0  0  0
 20 21  2  0  0  0
 21 22  1  0  0  0
 22 27  1  0  0  0
 22 23  2  0  0  0
 23 24  1  0  0  0
 24 25  2  0  0  0
 24 33  1  0  0  0
 25 26  1  0  0  0
 25 29  1  0  0  0
 26 27  2  0  0  0
 26 28  1  0  0  0
 29 30  1  0  0  0
 30 31  1  0  0  0
 31 32  2  0  0  0
 33 34  1  0  0  0
M  END
> <s_m_entry_id>
105818

> <s_m_entry_name>
PKC-all_decoys.17

> <s_m_Source_Path>
/home/liwei/Desktop/Machine/Decoys/PKC

> <s_m_Source_File>
PKC-all_decoys.sdf

> <i_m_Source_File_Index>
17

$$$$
ZINC08426140
                    3D
 Structure written by MMmdl.
 45 48  0  0  1  0            999 V2000
   -1.6165    4.2873    0.0406 C   0  0  0  0  0  0
   -0.7287    3.0697    0.0255 C   0  0  0  0  0  0
    0.6692    3.0596    0.0121 C   0  0  0  0  0  0
    1.0750    1.7670    0.0013 C   0  0  0  0  0  0
   -0.0111    0.9658    0.0074 N   0  0  0  0  0  0
   -1.1410    1.7528    0.0164 C   0  0  0  0  0  0
   -2.5271    1.2788    0.0191 C   0  0  0  0  0  0
   -3.4433    2.0786    0.0269 O   0  0  0  0  0  0
   -2.7873   -0.0448    0.0131 O   0  0  0  0  0  0
   -4.1838   -0.4421    0.0163 C   0  0  0  0  0  0
   -4.2783   -1.9461    0.0086 C   0  0  0  0  0  0
   -4.3319   -2.6292   -1.1920 C   0  0  0  0  0  0
   -4.4131   -4.0091   -1.1991 C   0  0  0  0  0  0
   -4.4519   -4.7053   -0.0055 C   0  0  0  0  0  0
   -4.4040   -4.0219    1.1951 C   0  0  0  0  0  0
   -4.3170   -2.6423    1.2022 C   0  0  0  0  0  0
    2.5075    1.2994   -0.0157 C   0  0  0  0  0  0
    3.0377    1.2535    1.3942 C   0  0  0  0  0  0
    2.8862    0.2213    2.2587 C   0  0  0  0  0  0
    3.5215    0.5676    3.4549 C   0  0  0  0  0  0
    4.0456    1.8322    3.2810 C   0  0  0  0  0  0
    3.7350    2.2363    2.0018 N   0  0  0  0  0  0
    4.7948    2.6039    4.2756 C   0  0  0  0  0  0
    5.0049    2.1341    5.3776 O   0  0  0  0  0  0
    5.2517    3.8356    3.9692 O   0  0  0  0  0  0
    5.9860    4.5424    5.0034 C   0  0  0  0  0  0
    6.4141    5.8905    4.4833 C   0  0  0  0  0  0
    7.6352    6.0315    3.8509 C   0  0  0  0  0  0
    8.0255    7.2670    3.3692 C   0  0  0  0  0  0
    7.1995    8.3638    3.5296 C   0  0  0  0  0  0
    5.9809    8.2239    4.1670 C   0  0  0  0  0  0
    5.5881    6.9873    4.6437 C   0  0  0  0  0  0
    3.6121   -0.2774    4.6994 C   0  0  0  0  0  0
    2.1634   -1.0713    1.9796 C   0  0  0  0  0  0
    3.1474   -2.0918    1.4041 C   0  0  0  0  0  0
    2.4247   -3.3844    1.1250 C   0  0  0  0  0  0
    1.2437   -3.4796    1.3620 O   0  0  0  0  0  0
    3.0929   -4.4300    0.6131 O   0  0  0  0  0  0
    2.3327   -5.6430    0.3698 C   0  0  0  0  0  0
    1.5655    4.2711    0.0108 C   0  0  0  0  0  0
    1.8558    4.6892   -1.4320 C   0  0  0  0  0  0
    2.7521    5.9007   -1.4333 C   0  0  0  0  0  0
    3.1208    6.3805   -0.3875 O   0  0  0  0  0  0
    3.1408    6.4467   -2.5963 O   0  0  0  0  0  0
    4.0039    7.6120   -2.5215 C   0  0  0  0  0  0
  1  2  1  0  0  0
  2  6  2  0  0  0
  2  3  1  0  0  0
  3  4  2  0  0  0
  3 40  1  0  0  0
  4  5  1  0  0  0
  4 17  1  0  0  0
  5  6  1  0  0  0
  6  7  1  0  0  0
  7  8  2  0  0  0
  7  9  1  0  0  0
  9 10  1  0  0  0
 10 11  1  0  0  0
 11 16  1  0  0  0
 11 12  2  0  0  0
 12 13  1  0  0  0
 13 14  2  0  0  0
 14 15  1  0  0  0
 15 16  2  0  0  0
 17 18  1  0  0  0
 18 22  1  0  0  0
 18 19  2  0  0  0
 19 20  1  0  0  0
 19 34  1  0  0  0
 20 21  2  0  0  0
 20 33  1  0  0  0
 21 22  1  0  0  0
 21 23  1  0  0  0
 23 24  2  0  0  0
 23 25  1  0  0  0
 25 26  1  0  0  0
 26 27  1  0  0  0
 27 32  1  0  0  0
 27 28  2  0  0  0
 28 29  1  0  0  0
 29 30  2  0  0  0
 30 31  1  0  0  0
 31 32  2  0  0  0
 34 35  1  0  0  0
 35 36  1  0  0  0
 36 37  2  0  0  0
 36 38  1  0  0  0
 38 39  1  0  0  0
 40 41  1  0  0  0
 41 42  1  0  0  0
 42 43  2  0  0  0
 42 44  1  0  0  0
 44 45  1  0  0  0
M  END
> <s_m_entry_id>
105819

> <s_m_entry_name>
PKC-all_decoys.18

> <s_m_Source_Path>
/home/liwei/Desktop/Machine/Decoys/PKC

> <s_m_Source_File>
PKC-all_decoys.sdf

> <i_m_Source_File_Index>
18

$$$$
ZINC04288832
                    3D
 Structure written by MMmdl.
 43 45  0  0  1  0            999 V2000
   -3.6769    6.5805   11.6554 C   0  0  0  0  0  0
   -2.7882    7.7201   11.1529 C   0  0  0  0  0  0
   -1.5198    7.1953   10.7557 O   0  0  0  0  0  0
   -0.3333    8.1153   10.1743 P   0  0  0  0  0  0
   -0.8311    8.8870    9.0136 O   0  0  0  0  0  0
    1.0551    7.0568    9.6499 C   0  0  0  0  0  0
    0.6313    6.2158    8.5277 N   0  0  0  0  0  0
    0.8833    6.6243    7.2129 C   0  0  0  0  0  0
    1.5336    7.8252    6.9704 C   0  0  0  0  0  0
    1.7812    8.2272    5.6713 C   0  0  0  0  0  0
    1.3818    7.4345    4.6097 C   0  0  0  0  0  0
    0.7373    6.2329    4.8431 C   0  0  0  0  0  0
    0.4807    5.8252    6.1434 C   0  0  0  0  0  0
   -0.1765    4.6105    6.3821 N   0  0  0  0  0  0
    0.0375    3.5574    5.5688 C   0  0  0  0  0  0
    0.7346    3.6833    4.5841 O   0  0  0  0  0  0
   -0.5892    2.2233    5.8826 C   0  0  0  0  0  0
   -0.1905    1.2075    4.8102 C   0  0  1  0  0  0
   -0.7147   -0.1539    5.1881 C   0  0  0  0  0  0
   -1.4845   -0.7294    4.4560 O   0  0  0  0  0  0
   -0.3264   -0.7271    6.3381 O   0  0  0  0  0  0
   -0.8715   -2.0392    6.6375 C   0  0  0  0  0  0
   -0.3270   -2.5199    7.9580 C   0  0  0  0  0  0
    0.8415   -3.2574    7.9965 C   0  0  0  0  0  0
    1.3437   -3.6939    9.2082 C   0  0  0  0  0  0
    0.6716   -3.4021   10.3803 C   0  0  0  0  0  0
   -0.4999   -2.6694   10.3413 C   0  0  0  0  0  0
   -0.9991   -2.2281    9.1302 C   0  0  0  0  0  0
   -0.7594    1.6094    3.5214 N   0  0  0  0  0  0
   -0.1772    1.2091    2.3736 C   0  0  0  0  0  0
    0.8195    0.5149    2.4078 O   0  0  0  0  0  0
   -0.7000    1.5784    1.1891 O   0  0  0  0  0  0
   -0.0207    1.1106   -0.0058 C   0  0  0  0  0  0
   -0.7436    1.6194   -1.2263 C   0  0  0  0  0  0
   -1.7554    0.8677   -1.7938 C   0  0  0  0  0  0
   -2.4218    1.3367   -2.9105 C   0  0  0  0  0  0
   -2.0695    2.5526   -3.4656 C   0  0  0  0  0  0
   -1.0539    3.3017   -2.9015 C   0  0  0  0  0  0
   -0.3910    2.8352   -1.7818 C   0  0  0  0  0  0
    1.6958    7.9464    2.9809 Cl  0  0  0  0  0  0
    0.1683    9.1307   11.3186 O   0  0  0  0  0  0
   -0.6596   10.1606   11.8627 C   0  0  0  0  0  0
    0.1236   10.9378   12.9227 C   0  0  0  0  0  0
  1  2  1  0  0  0
  2  3  1  0  0  0
  3  4  1  0  0  0
  4  5  2  0  0  0
  4  6  1  0  0  0
  4 41  1  0  0  0
  6  7  1  0  0  0
  7  8  1  0  0  0
  8 13  2  0  0  0
  8  9  1  0  0  0
  9 10  2  0  0  0
 10 11  1  0  0  0
 11 12  2  0  0  0
 11 40  1  0  0  0
 12 13  1  0  0  0
 13 14  1  0  0  0
 14 15  1  0  0  0
 15 16  2  0  0  0
 15 17  1  0  0  0
 17 18  1  0  0  0
 18 19  1  0  0  0
 18 29  1  0  0  0
 19 20  2  0  0  0
 19 21  1  0  0  0
 21 22  1  0  0  0
 22 23  1  0  0  0
 23 28  1  0  0  0
 23 24  2  0  0  0
 24 25  1  0  0  0
 25 26  2  0  0  0
 26 27  1  0  0  0
 27 28  2  0  0  0
 29 30  1  0  0  0
 30 31  2  0  0  0
 30 32  1  0  0  0
 32 33  1  0  0  0
 33 34  1  0  0  0
 34 39  1  0  0  0
 34 35  2  0  0  0
 35 36  1  0  0  0
 36 37  2  0  0  0
 37 38  1  0  0  0
 38 39  2  0  0  0
 41 42  1  0  0  0
 42 43  1  0  0  0
M  END
> <s_m_entry_id>
105820

> <s_m_entry_name>
PKC-all_decoys.19

> <s_m_Source_Path>
/home/liwei/Desktop/Machine/Decoys/PKC

> <s_m_Source_File>
PKC-all_decoys.sdf

> <i_m_Source_File_Index>
19

$$$$
ZINC78396081
                    3D
 Structure written by MMmdl.
 22 23  0  0  1  0            999 V2000
   -1.7618    1.0296    0.0164 C   0  0  0  0  0  0
   -1.5029   -0.4524   -0.0704 C   0  0  0  0  0  0
   -1.6807   -1.1570    0.9006 O   0  0  0  0  0  0
   -1.0737   -0.9949   -1.2271 N   0  0  0  0  0  0
   -0.8121   -0.2598   -2.4732 C   0  0  0  0  0  0
   -0.3145   -1.2848   -3.5140 C   0  0  0  0  0  0
    0.2155   -2.4462   -2.6322 C   0  0  1  0  0  0
   -0.7827   -2.4228   -1.4506 C   0  0  0  0  0  0
    0.1519   -3.7580   -3.3712 C   0  0  0  0  0  0
   -0.2749   -3.7947   -4.5059 O   0  0  0  0  0  0
    0.5695   -4.8904   -2.7713 N   0  0  0  0  0  0
    0.5104   -6.1099   -3.4584 N   0  0  0  0  0  0
    0.9280   -7.2422   -2.8585 C   0  0  0  0  0  0
    0.8558   -8.7325   -3.6981 S   0  0  0  0  0  0
    1.4023   -7.2014   -1.5976 N   0  0  0  0  0  0
    1.7517   -8.3883   -0.9424 C   0  0  0  0  0  0
    2.5075   -9.3494   -1.6006 C   0  0  0  0  0  0
    2.8515  -10.5193   -0.9523 C   0  0  0  0  0  0
    2.4433  -10.7343    0.3533 C   0  0  0  0  0  0
    1.6892   -9.7774    1.0115 C   0  0  0  0  0  0
    1.3479   -8.6035    0.3686 C   0  0  0  0  0  0
    2.7808  -11.8794    0.9858 F   0  0  0  0  0  0
  1  2  1  0  0  0
  2  3  2  0  0  0
  2  4  1  0  0  0
  4  8  1  0  0  0
  4  5  1  0  0  0
  5  6  1  0  0  0
  6  7  1  0  0  0
  7  8  1  0  0  0
  7  9  1  0  0  0
  9 10  2  0  0  0
  9 11  1  0  0  0
 11 12  1  0  0  0
 12 13  1  0  0  0
 13 14  2  0  0  0
 13 15  1  0  0  0
 15 16  1  0  0  0
 16 21  1  0  0  0
 16 17  2  0  0  0
 17 18  1  0  0  0
 18 19  2  0  0  0
 19 20  1  0  0  0
 19 22  1  0  0  0
 20 21  2  0  0  0
M  END
> <s_m_entry_id>
105821

> <s_m_entry_name>
PKC-all_decoys.20

> <s_m_Source_Path>
/home/liwei/Desktop/Machine/Decoys/PKC

> <s_m_Source_File>
PKC-all_decoys.sdf

> <i_m_Source_File_Index>
20

$$$$
ZINC81638056
                    3D
 Structure written by MMmdl.
 23 24  0  0  1  0            999 V2000
    0.0756    1.2553    0.6377 C   0  0  0  0  0  0
    1.2594    1.9590    0.6181 C   0  0  0  0  0  0
    2.3806    1.4204   -0.0030 C   0  0  0  0  0  0
    2.3109    0.1671   -0.6079 C   0  0  0  0  0  0
    1.1292   -0.5419   -0.5916 C   0  0  0  0  0  0
    0.0010   -0.0017    0.0326 C   0  0  0  0  0  0
   -1.2663   -0.7578    0.0526 C   0  0  0  0  0  0
   -2.2467   -0.2870    0.5962 O   0  0  0  0  0  0
   -1.3368   -1.9704   -0.5316 N   0  0  0  0  0  0
    3.4021   -0.3532   -1.2109 F   0  0  0  0  0  0
    3.5782    2.1367   -0.0211 N   0  0  0  0  0  0
    3.5580    3.4810   -0.1159 C   0  0  0  0  0  0
    2.4975    4.0755   -0.1027 O   0  0  0  0  0  0
    4.7133    4.1662   -0.2252 N   0  0  0  0  0  0
    6.0632    3.5746   -0.2602 C   0  0  0  0  0  0
    6.9368    4.6229   -0.9935 C   0  0  0  0  0  0
    6.3390    5.9526   -0.4627 C   0  0  2  0  0  0
    4.8359    5.6272   -0.3358 C   0  0  0  0  0  0
    6.5614    7.0852   -1.4671 C   0  0  0  0  0  0
    5.9407    6.7626   -2.6786 F   0  0  0  0  0  0
    6.0134    8.2696   -0.9632 F   0  0  0  0  0  0
    7.9335    7.2588   -1.6778 F   0  0  0  0  0  0
    6.8981    6.2861    0.8094 O   0  0  0  0  0  0
  1  6  2  0  0  0
  1  2  1  0  0  0
  2  3  2  0  0  0
  3  4  1  0  0  0
  3 11  1  0  0  0
  4  5  2  0  0  0
  4 10  1  0  0  0
  5  6  1  0  0  0
  6  7  1  0  0  0
  7  8  2  0  0  0
  7  9  1  0  0  0
 11 12  1  0  0  0
 12 13  2  0  0  0
 12 14  1  0  0  0
 14 18  1  0  0  0
 14 15  1  0  0  0
 15 16  1  0  0  0
 16 17  1  0  0  0
 17 18  1  0  0  0
 17 19  1  0  0  0
 17 23  1  0  0  0
 19 20  1  0  0  0
 19 21  1  0  0  0
 19 22  1  0  0  0
M  END
> <s_m_entry_id>
105822

> <s_m_entry_name>
PKC-all_decoys.21

> <s_m_Source_Path>
/home/liwei/Desktop/Machine/Decoys/PKC

> <s_m_Source_File>
PKC-all_decoys.sdf

> <i_m_Source_File_Index>
21

$$$$
ZINC09029281
                    3D
 Structure written by MMmdl.
 33 36  0  0  1  0            999 V2000
    4.7632    5.5529    0.8890 C   0  0  0  0  0  0
    4.9524    4.0471    0.6944 C   0  0  0  0  0  0
    3.6565    3.4146    0.5242 O   0  0  0  0  0  0
    3.6468    2.0787    0.3401 C   0  0  0  0  0  0
    4.6934    1.4597    0.3225 O   0  0  0  0  0  0
    2.3733    1.3719    0.1611 C   0  0  0  0  0  0
    1.1554    2.0857    0.1798 C   0  0  0  0  0  0
   -0.0166    1.4047    0.0104 C   0  0  0  0  0  0
    0.0092    0.0095   -0.1790 C   0  0  0  0  0  0
   -1.0382   -0.5976   -0.3302 O   0  0  0  0  0  0
    1.1754   -0.6622   -0.1957 N   0  0  0  0  0  0
    2.3576   -0.0133   -0.0301 C   0  0  0  0  0  0
    3.3625   -0.9075   -0.0882 O   0  0  0  0  0  0
    2.8508   -2.1444   -0.2915 C   0  0  0  0  0  0
    1.4636   -2.0172   -0.3635 C   0  0  0  0  0  0
    0.6732   -3.1374   -0.5691 C   0  0  0  0  0  0
    1.2637   -4.3800   -0.7024 C   0  0  0  0  0  0
    2.6412   -4.5073   -0.6309 C   0  0  0  0  0  0
    3.4343   -3.3958   -0.4264 C   0  0  0  0  0  0
    0.2764   -5.7846   -0.9593 Cl  0  0  0  0  0  0
   -1.2400    2.0929    0.0193 N   0  0  0  0  0  0
   -2.1890    1.7688    0.9198 C   0  0  0  0  0  0
   -1.9531    0.9435    1.7814 O   0  0  0  0  0  0
   -3.5143    2.4154    0.8603 C   0  0  0  0  0  0
   -3.7850    3.3679   -0.1254 C   0  0  0  0  0  0
   -5.0246    3.9667   -0.1829 C   0  0  0  0  0  0
   -6.0035    3.6338    0.7436 C   0  0  0  0  0  0
   -5.7383    2.6886    1.7332 C   0  0  0  0  0  0
   -4.4993    2.0805    1.7932 C   0  0  0  0  0  0
   -6.6994    2.3646    2.6393 O   0  0  0  0  0  0
   -6.3587    1.3879    3.6252 C   0  0  0  0  0  0
   -7.2220    4.2307    0.6859 O   0  0  0  0  0  0
   -7.4260    5.1899   -0.3535 C   0  0  0  0  0  0
  1  2  1  0  0  0
  2  3  1  0  0  0
  3  4  1  0  0  0
  4  5  2  0  0  0
  4  6  1  0  0  0
  6 12  2  0  0  0
  6  7  1  0  0  0
  7  8  2  0  0  0
  8  9  1  0  0  0
  8 21  1  0  0  0
  9 10  2  0  0  0
  9 11  1  0  0  0
 11 15  1  0  0  0
 11 12  1  0  0  0
 12 13  1  0  0  0
 13 14  1  0  0  0
 14 19  1  0  0  0
 14 15  2  0  0  0
 15 16  1  0  0  0
 16 17  2  0  0  0
 17 18  1  0  0  0
 17 20  1  0  0  0
 18 19  2  0  0  0
 21 22  1  0  0  0
 22 23  2  0  0  0
 22 24  1  0  0  0
 24 29  1  0  0  0
 24 25  2  0  0  0
 25 26  1  0  0  0
 26 27  2  0  0  0
 27 28  1  0  0  0
 27 32  1  0  0  0
 28 29  2  0  0  0
 28 30  1  0  0  0
 30 31  1  0  0  0
 32 33  1  0  0  0
M  END
> <s_m_entry_id>
105823

> <s_m_entry_name>
PKC-all_decoys.22

> <s_m_Source_Path>
/home/liwei/Desktop/Machine/Decoys/PKC

> <s_m_Source_File>
PKC-all_decoys.sdf

> <i_m_Source_File_Index>
22

$$$$
ZINC02921018
                    3D
 Structure written by MMmdl.
 32 35  0  0  1  0            999 V2000
    0.8511    6.1680    0.0420 C   0  0  0  0  0  0
   -0.3126    5.2105    0.0535 C   0  0  0  0  0  0
   -0.0852    3.8324    0.0550 C   0  0  0  0  0  0
   -1.2405    3.0179    0.0666 C   0  0  0  0  0  0
   -1.1632    1.6933    0.0651 N   0  0  0  0  0  0
   -0.0137    1.0749    0.0624 C   0  0  0  0  0  0
    1.1627    1.7489    0.0506 N   0  0  0  0  0  0
    1.1992    3.0958    0.0466 C   0  0  0  0  0  0
    2.2615    3.6920    0.0368 O   0  0  0  0  0  0
    2.4201    0.9972    0.0425 C   0  0  0  0  0  0
    2.8395    0.7351   -1.3811 C   0  0  0  0  0  0
    2.1554    1.1367   -2.2985 O   0  0  0  0  0  0
    3.9747    0.0544   -1.6347 N   0  0  0  0  0  0
    4.8139   -0.4384   -0.5339 C   0  0  0  0  0  0
    6.2460    0.0637   -0.7428 C   0  0  0  0  0  0
    6.7292   -0.3493   -2.1349 C   0  0  0  0  0  0
    5.8333    0.2901   -3.1982 C   0  0  2  0  0  0
    4.3935   -0.2142   -3.0171 C   0  0  0  0  0  0
    6.3368   -0.0967   -4.5902 C   0  0  0  0  0  0
   -2.5690    4.1951    0.0747 S   0  0  0  0  0  0
   -1.5906    5.6878    0.0629 C   0  0  0  0  0  0
   -2.0470    7.0810    0.0633 C   0  0  0  0  0  0
   -1.2348    7.9875    0.0543 O   0  0  0  0  0  0
   -3.3660    7.3580    0.0736 N   0  0  0  0  0  0
   -3.8021    8.6836    0.1908 C   0  0  0  0  0  0
   -2.9893    9.6325    0.7939 C   0  0  0  0  0  0
   -3.4198   10.9411    0.9037 C   0  0  0  0  0  0
   -4.6641   11.3059    0.4231 C   0  0  0  0  0  0
   -5.4819   10.3646   -0.1739 C   0  0  0  0  0  0
   -5.0558    9.0518   -0.2927 C   0  0  0  0  0  0
   -5.8593    8.1248   -0.8793 O   0  0  0  0  0  0
   -7.1309    8.5742   -1.3516 C   0  0  0  0  0  0
  1  2  1  0  0  0
  2 21  2  0  0  0
  2  3  1  0  0  0
  3  8  1  0  0  0
  3  4  2  0  0  0
  4  5  1  0  0  0
  4 20  1  0  0  0
  5  6  2  0  0  0
  6  7  1  0  0  0
  7  8  1  0  0  0
  7 10  1  0  0  0
  8  9  2  0  0  0
 10 11  1  0  0  0
 11 12  2  0  0  0
 11 13  1  0  0  0
 13 18  1  0  0  0
 13 14  1  0  0  0
 14 15  1  0  0  0
 15 16  1  0  0  0
 16 17  1  0  0  0
 17 18  1  0  0  0
 17 19  1  0  0  0
 20 21  1  0  0  0
 21 22  1  0  0  0
 22 23  2  0  0  0
 22 24  1  0  0  0
 24 25  1  0  0  0
 25 30  1  0  0  0
 25 26  2  0  0  0
 26 27  1  0  0  0
 27 28  2  0  0  0
 28 29  1  0  0  0
 29 30  2  0  0  0
 30 31  1  0  0  0
 31 32  1  0  0  0
M  END
> <s_m_entry_id>
105824

> <s_m_entry_name>
PKC-all_decoys.23

> <s_m_Source_Path>
/home/liwei/Desktop/Machine/Decoys/PKC

> <s_m_Source_File>
PKC-all_decoys.sdf

> <i_m_Source_File_Index>
23

$$$$
ZINC02494159
                    3D
 Structure written by MMmdl.
 32 35  0  0  1  0            999 V2000
   -0.0187    1.5258    0.0104 C   0  0  0  0  0  0
    0.0021   -0.0041    0.0020 C   0  0  1  0  0  0
    0.7433   -0.5129    1.2436 C   0  0  0  0  0  0
    0.5879   -1.9747    1.3103 N   0  0  0  0  0  0
   -0.7690   -2.5320    1.1941 C   0  0  0  0  0  0
   -1.4366   -1.9248   -0.0451 C   0  0  1  0  0  0
   -1.3387   -0.4999    0.0181 O   0  0  0  0  0  0
   -0.7309   -2.4301   -1.3051 C   0  0  0  0  0  0
    1.9013   -2.9634    1.5097 S   0  0  0  0  0  0
    1.5364   -4.2337    0.9877 O   0  0  0  0  0  0
    3.0294   -2.2406    1.0361 O   0  0  0  0  0  0
    2.1328   -3.1788    3.2431 C   0  0  0  0  0  0
    2.9471   -2.3061    3.9429 C   0  0  0  0  0  0
    3.1281   -2.4657    5.3012 C   0  0  0  0  0  0
    2.4966   -3.5175    5.9675 C   0  0  0  0  0  0
    1.6809   -4.3978    5.2543 C   0  0  0  0  0  0
    1.5039   -4.2234    3.8973 C   0  0  0  0  0  0
    2.6911   -3.6985    7.4213 C   0  0  0  0  0  0
    2.1403   -4.6155    7.9987 O   0  0  0  0  0  0
    3.4793   -2.8469    8.1069 N   0  0  0  0  0  0
    3.6616   -3.0166    9.4692 C   0  0  0  0  0  0
    3.1304   -3.9580   10.2116 N   0  0  0  0  0  0
    3.5154   -3.8109   11.4303 N   0  0  0  0  0  0
    4.3077   -2.7693   11.5137 C   0  0  0  0  0  0
    4.4211   -2.2485   10.2728 O   0  0  0  0  0  0
    4.9610   -2.2627   12.7384 C   0  0  0  0  0  0
    5.7889   -1.1402   12.6776 C   0  0  0  0  0  0
    6.3923   -0.6688   13.8246 C   0  0  0  0  0  0
    6.1866   -1.3135   15.0341 C   0  0  0  0  0  0
    5.3699   -2.4314   15.0992 C   0  0  0  0  0  0
    4.7573   -2.9083   13.9594 C   0  0  0  0  0  0
    6.7846   -0.8508   16.1536 F   0  0  0  0  0  0
  1  2  1  0  0  0
  2  7  1  0  0  0
  2  3  1  0  0  0
  3  4  1  0  0  0
  4  5  1  0  0  0
  4  9  1  0  0  0
  5  6  1  0  0  0
  6  7  1  0  0  0
  6  8  1  0  0  0
  9 10  2  0  0  0
  9 11  2  0  0  0
  9 12  1  0  0  0
 12 17  1  0  0  0
 12 13  2  0  0  0
 13 14  1  0  0  0
 14 15  2  0  0  0
 15 16  1  0  0  0
 15 18  1  0  0  0
 16 17  2  0  0  0
 18 19  2  0  0  0
 18 20  1  0  0  0
 20 21  1  0  0  0
 21 25  1  0  0  0
 21 22  2  0  0  0
 22 23  1  0  0  0
 23 24  2  0  0  0
 24 25  1  0  0  0
 24 26  1  0  0  0
 26 31  1  0  0  0
 26 27  2  0  0  0
 27 28  1  0  0  0
 28 29  2  0  0  0
 29 30  1  0  0  0
 29 32  1  0  0  0
 30 31  2  0  0  0
M  END
> <s_m_entry_id>
105825

> <s_m_entry_name>
PKC-all_decoys.24

> <s_m_Source_Path>
/home/liwei/Desktop/Machine/Decoys/PKC

> <s_m_Source_File>
PKC-all_decoys.sdf

> <i_m_Source_File_Index>
24

$$$$
ZINC11095542
                    3D
 Structure written by MMmdl.
 31 34  0  0  1  0            999 V2000
   -6.4424    2.6166    0.0473 C   0  0  0  0  0  0
   -6.0555    1.1601    0.0375 C   0  0  0  0  0  0
   -7.0329    0.1992    0.0373 C   0  0  0  0  0  0
   -6.7208   -1.1523    0.0285 C   0  0  0  0  0  0
   -5.3933   -1.5409    0.0197 C   0  0  0  0  0  0
   -4.4080   -0.5859    0.0198 C   0  0  0  0  0  0
   -4.6884    0.7999    0.0286 C   0  0  0  0  0  0
   -3.6112    1.6146    0.0280 N   0  0  0  0  0  0
   -2.3808    1.1575    0.0196 C   0  0  0  0  0  0
   -2.6316   -0.6120    0.0033 S   0  0  0  0  0  0
   -1.1906    1.8664    0.0178 N   0  0  0  0  0  0
   -0.0144    1.2085    0.0087 C   0  0  0  0  0  0
    0.0021   -0.0041    0.0020 O   0  0  0  0  0  0
    1.2803    1.9797    0.0005 C   0  0  0  0  0  0
    1.3370    2.8677   -1.2447 C   0  0  0  0  0  0
    2.6383    3.6759   -1.2318 C   0  0  0  0  0  0
    3.7698    2.7479   -1.1008 N   0  0  0  0  0  0
    3.7709    1.7877    0.0113 C   0  0  0  0  0  0
    2.4567    1.0009   -0.0153 C   0  0  0  0  0  0
    4.7876    2.7771   -1.9838 C   0  0  0  0  0  0
    5.7161    2.0060   -1.8646 O   0  0  0  0  0  0
    4.7719    3.7678   -3.1192 C   0  0  1  0  0  0
    4.8437    5.2185   -2.5888 C   0  0  0  0  0  0
    5.7101    5.9399   -3.5976 C   0  0  0  0  0  0
    5.7894    7.1449   -3.7095 O   0  0  0  0  0  0
    6.3800    5.0510   -4.3512 N   0  0  0  0  0  0
    6.0681    3.6723   -3.9542 C   0  0  0  0  0  0
    7.3022    5.4114   -5.4309 C   0  0  0  0  0  0
    7.3738    6.9348   -5.5533 C   0  0  0  0  0  0
    8.6943    4.8590   -5.1182 C   0  0  0  0  0  0
    6.8018    4.8168   -6.7489 C   0  0  0  0  0  0
  1  2  1  0  0  0
  2  7  2  0  0  0
  2  3  1  0  0  0
  3  4  2  0  0  0
  4  5  1  0  0  0
  5  6  2  0  0  0
  6 10  1  0  0  0
  6  7  1  0  0  0
  7  8  1  0  0  0
  8  9  2  0  0  0
  9 10  1  0  0  0
  9 11  1  0  0  0
 11 12  1  0  0  0
 12 13  2  0  0  0
 12 14  1  0  0  0
 14 19  1  0  0  0
 14 15  1  0  0  0
 15 16  1  0  0  0
 16 17  1  0  0  0
 17 18  1  0  0  0
 17 20  1  0  0  0
 18 19  1  0  0  0
 20 21  2  0  0  0
 20 22  1  0  0  0
 22 27  1  0  0  0
 22 23  1  0  0  0
 23 24  1  0  0  0
 24 25  2  0  0  0
 24 26  1  0  0  0
 26 27  1  0  0  0
 26 28  1  0  0  0
 28 29  1  0  0  0
 28 30  1  0  0  0
 28 31  1  0  0  0
M  END
> <s_m_entry_id>
105826

> <s_m_entry_name>
PKC-all_decoys.25

> <s_m_Source_Path>
/home/liwei/Desktop/Machine/Decoys/PKC

> <s_m_Source_File>
PKC-all_decoys.sdf

> <i_m_Source_File_Index>
25

$$$$
ZINC12697875
                    3D
 Structure written by MMmdl.
 30 34  0  0  1  0            999 V2000
   -6.5489    4.3102    0.3328 C   0  0  0  0  0  0
   -5.5057    3.2283    0.6192 C   0  0  1  0  0  0
   -5.8857    1.9606   -0.1017 C   0  0  0  0  0  0
   -5.1338    1.4819   -0.9241 O   0  0  0  0  0  0
   -7.0613    1.3588    0.1675 N   0  0  0  0  0  0
   -7.4307    0.1265   -0.5332 C   0  0  0  0  0  0
   -8.7815   -0.3385   -0.0534 C   0  0  0  0  0  0
   -8.8716   -1.2028    1.0219 C   0  0  0  0  0  0
  -10.1085   -1.6286    1.4686 C   0  0  0  0  0  0
  -11.2614   -1.1975    0.8326 C   0  0  0  0  0  0
  -11.1705   -0.3311   -0.2540 C   0  0  0  0  0  0
   -9.9276    0.0955   -0.6930 C   0  0  0  0  0  0
  -12.4310   -0.0576   -0.7007 O   0  0  0  0  0  0
  -13.3107   -0.4384    0.3738 C   0  0  0  0  0  0
  -12.5790   -1.4670    1.0666 O   0  0  0  0  0  0
   -4.1925    3.6803    0.1527 N   0  0  0  0  0  0
   -3.1140    3.8301    0.9507 C   0  0  0  0  0  0
   -3.0483    3.6241    2.1436 O   0  0  0  0  0  0
   -2.0075    4.3076    0.0428 C   0  0  1  0  0  0
   -1.4877    5.6686    0.4819 C   0  0  0  0  0  0
   -0.2619    6.0578   -0.3514 C   0  0  0  0  0  0
    0.9063    5.1330    0.0212 C   0  0  0  0  0  0
    0.4179    3.7216    0.0175 C   0  0  0  0  0  0
   -0.8760    3.2939    0.0268 C   0  0  0  0  0  0
   -1.0743    1.9136    0.0166 C   0  0  0  0  0  0
   -0.0126    1.0758    0.0080 C   0  0  0  0  0  0
    1.3593    2.2202    0.0010 S   0  0  0  0  0  0
   -2.6322    4.3824   -1.2815 N   0  0  0  0  0  0
   -3.9130    3.9964   -1.1181 C   0  0  0  0  0  0
   -4.7230    3.9409   -2.0225 O   0  0  0  0  0  0
  1  2  1  0  0  0
  2  3  1  0  0  0
  2 16  1  0  0  0
  3  4  2  0  0  0
  3  5  1  0  0  0
  5  6  1  0  0  0
  6  7  1  0  0  0
  7 12  1  0  0  0
  7  8  2  0  0  0
  8  9  1  0  0  0
  9 10  2  0  0  0
 10 15  1  0  0  0
 10 11  1  0  0  0
 11 12  2  0  0  0
 11 13  1  0  0  0
 13 14  1  0  0  0
 14 15  1  0  0  0
 16 29  1  0  0  0
 16 17  1  0  0  0
 17 18  2  0  0  0
 17 19  1  0  0  0
 19 24  1  0  0  0
 19 20  1  0  0  0
 19 28  1  0  0  0
 20 21  1  0  0  0
 21 22  1  0  0  0
 22 23  1  0  0  0
 23 27  1  0  0  0
 23 24  2  0  0  0
 24 25  1  0  0  0
 25 26  2  0  0  0
 26 27  1  0  0  0
 28 29  1  0  0  0
 29 30  2  0  0  0
M  END
> <s_m_entry_id>
105827

> <s_m_entry_name>
PKC-all_decoys.26

> <s_m_Source_Path>
/home/liwei/Desktop/Machine/Decoys/PKC

> <s_m_Source_File>
PKC-all_decoys.sdf

> <i_m_Source_File_Index>
26

$$$$
ZINC14271624
                    3D
 Structure written by MMmdl.
 33 35  0  0  1  0            999 V2000
   -0.8909    2.7665    3.9451 C   0  0  0  0  0  0
   -1.9303    2.4734    2.8940 C   0  0  0  0  0  0
   -1.6705    1.5313    1.8966 C   0  0  0  0  0  0
   -2.6408    1.2619    0.9299 C   0  0  0  0  0  0
   -3.8469    1.9310    0.9625 C   0  0  0  0  0  0
   -4.0958    2.8670    1.9504 C   0  0  0  0  0  0
   -3.1384    3.1386    2.9120 C   0  0  0  0  0  0
   -3.4134    4.1417    3.9652 N   0  3  0  0  0  0
   -4.5218    4.6378    4.0592 O   0  0  0  0  0  0
   -2.5313    4.4710    4.7378 O   0  5  0  0  0  0
   -0.3765    0.8181    1.8683 C   0  0  0  0  0  0
    0.5093    1.1359    2.6371 O   0  0  0  0  0  0
   -0.1769   -0.1810    0.9860 N   0  0  0  0  0  0
    1.0052   -0.8277    0.9564 C   0  0  0  0  0  0
    2.2532   -0.3801    2.0395 S   0  0  0  0  0  0
    1.2048   -1.8268    0.0741 N   0  0  0  0  0  0
    2.3898   -2.5733    0.1173 C   0  0  0  0  0  0
    3.6052   -1.9376    0.3216 C   0  0  0  0  0  0
    4.7725   -2.6765    0.3687 C   0  0  0  0  0  0
    4.7343   -4.0487    0.2020 C   0  0  0  0  0  0
    3.5279   -4.6902   -0.0074 C   0  0  0  0  0  0
    2.3511   -3.9573   -0.0508 C   0  0  0  0  0  0
    1.1289   -4.6044   -0.2631 N   0  0  0  0  0  0
    0.8156   -5.5150    0.8463 C   0  0  0  0  0  0
   -0.6040   -6.0635    0.6672 C   0  0  0  0  0  0
   -0.7095   -6.6579   -0.6740 N   0  0  0  0  0  0
   -0.2826   -5.8520   -1.8279 C   0  0  0  0  0  0
    1.1243   -5.3118   -1.5506 C   0  0  0  0  0  0
   -1.1843   -7.9082   -0.8411 C   0  0  0  0  0  0
   -1.3474   -8.3505   -1.9585 O   0  0  0  0  0  0
   -1.5124   -8.7564    0.3605 C   0  0  0  0  0  0
   -2.5542   -9.8079   -0.0268 C   0  0  0  0  0  0
   -0.2433   -9.4537    0.8545 C   0  0  0  0  0  0
  1  2  1  0  0  0
  2  7  2  0  0  0
  2  3  1  0  0  0
  3  4  2  0  0  0
  3 11  1  0  0  0
  4  5  1  0  0  0
  5  6  2  0  0  0
  6  7  1  0  0  0
  7  8  1  0  0  0
  8  9  2  0  0  0
  8 10  1  0  0  0
 11 12  2  0  0  0
 11 13  1  0  0  0
 13 14  1  0  0  0
 14 15  2  0  0  0
 14 16  1  0  0  0
 16 17  1  0  0  0
 17 22  1  0  0  0
 17 18  2  0  0  0
 18 19  1  0  0  0
 19 20  2  0  0  0
 20 21  1  0  0  0
 21 22  2  0  0  0
 22 23  1  0  0  0
 23 28  1  0  0  0
 23 24  1  0  0  0
 24 25  1  0  0  0
 25 26  1  0  0  0
 26 27  1  0  0  0
 26 29  1  0  0  0
 27 28  1  0  0  0
 29 30  2  0  0  0
 29 31  1  0  0  0
 31 32  1  0  0  0
 31 33  1  0  0  0
M  CHG  2   8   1  10  -1
M  END
> <s_m_entry_id>
105828

> <s_m_entry_name>
PKC-all_decoys.27

> <s_m_Source_Path>
/home/liwei/Desktop/Machine/Decoys/PKC

> <s_m_Source_File>
PKC-all_decoys.sdf

> <i_m_Source_File_Index>
27

$$$$
ZINC14647322
                    3D
 Structure written by MMmdl.
 26 27  0  0  1  0            999 V2000
  -12.2431    9.4502    0.1816 C   0  0  0  0  0  0
  -12.3061    7.9215    0.1724 C   0  0  0  0  0  0
  -10.8859    7.3526    0.1544 C   0  0  0  0  0  0
  -10.9447    5.9249    0.1459 O   0  0  0  0  0  0
   -9.7618    5.2595    0.1297 C   0  0  0  0  0  0
   -8.5671    5.9697    0.1216 C   0  0  0  0  0  0
   -7.3648    5.2985    0.1110 C   0  0  0  0  0  0
   -7.3465    3.9013    0.0965 C   0  0  0  0  0  0
   -8.5492    3.1903    0.1042 C   0  0  0  0  0  0
   -9.7483    3.8691    0.1207 C   0  0  0  0  0  0
  -11.3772    2.9087    0.1304 Br  0  0  0  0  0  0
   -6.0597    3.1783    0.0794 C   0  0  0  0  0  0
   -6.0455    1.9626    0.0719 O   0  0  0  0  0  0
   -4.9005    3.8659    0.0720 N   0  0  0  0  0  0
   -3.6792    3.1797    0.0557 N   0  0  0  0  0  0
   -2.5200    3.8672    0.0483 C   0  0  0  0  0  0
   -2.5342    5.0830    0.0558 O   0  0  0  0  0  0
   -1.2332    3.1443    0.0312 C   0  0  0  0  0  0
   -1.2149    1.7470    0.0173 C   0  0  0  0  0  0
   -0.0126    1.0758    0.0080 C   0  0  0  0  0  0
    1.1821    1.7860    0.0004 C   0  0  0  0  0  0
    1.1686    3.1764    0.0080 C   0  0  0  0  0  0
   -0.0305    3.8552    0.0235 C   0  0  0  0  0  0
    2.7975    4.1369   -0.0024 Br  0  0  0  0  0  0
    2.3650    1.1207   -0.0150 O   0  0  0  0  0  0
    2.3062   -0.3071   -0.0225 C   0  0  0  0  0  0
  1  2  1  0  0  0
  2  3  1  0  0  0
  3  4  1  0  0  0
  4  5  1  0  0  0
  5 10  2  0  0  0
  5  6  1  0  0  0
  6  7  2  0  0  0
  7  8  1  0  0  0
  8  9  2  0  0  0
  8 12  1  0  0  0
  9 10  1  0  0  0
 10 11  1  0  0  0
 12 13  2  0  0  0
 12 14  1  0  0  0
 14 15  1  0  0  0
 15 16  1  0  0  0
 16 17  2  0  0  0
 16 18  1  0  0  0
 18 23  1  0  0  0
 18 19  2  0  0  0
 19 20  1  0  0  0
 20 21  2  0  0  0
 21 22  1  0  0  0
 21 25  1  0  0  0
 22 23  2  0  0  0
 22 24  1  0  0  0
 25 26  1  0  0  0
M  END
> <s_m_entry_id>
105829

> <s_m_entry_name>
PKC-all_decoys.28

> <s_m_Source_Path>
/home/liwei/Desktop/Machine/Decoys/PKC

> <s_m_Source_File>
PKC-all_decoys.sdf

> <i_m_Source_File_Index>
28

$$$$
ZINC33141400
                    3D
 Structure written by MMmdl.
 33 36  0  0  1  0            999 V2000
   -3.1954   -6.7171    1.7514 C   0  0  0  0  0  0
   -3.3195   -5.3791    1.0198 C   0  0  0  0  0  0
   -4.3719   -4.5132    1.7153 C   0  0  0  0  0  0
   -2.0274   -4.6890    1.0416 N   0  0  0  0  0  0
   -1.0988   -4.9676    0.1054 C   0  0  0  0  0  0
   -1.3328   -5.7896   -0.7551 O   0  0  0  0  0  0
    0.2304   -4.2577    0.1277 C   0  0  1  0  0  0
    1.0927   -4.7504   -1.0377 C   0  0  0  0  0  0
    2.4169   -3.9816   -1.0432 C   0  0  0  0  0  0
    2.1300   -2.4820   -1.1482 C   0  0  0  0  0  0
    1.3029   -2.0598   -0.0106 N   0  0  0  0  0  0
    0.0069   -2.7502   -0.0112 C   0  0  0  0  0  0
    1.1340   -0.6924   -0.0035 C   0  0  0  0  0  0
    0.0100   -0.0044    0.0027 N   0  0  0  0  0  0
   -0.0116    1.3288    0.0092 C   0  0  0  0  0  0
    1.2549    1.9423    0.0089 C   0  0  0  0  0  0
    2.3504    0.5479   -0.0007 S   0  0  0  0  0  0
    1.3941    3.3233    0.0156 C   0  0  0  0  0  0
    2.4979    3.8436    0.0157 O   0  0  0  0  0  0
    0.2669    4.0767    0.0225 N   0  0  0  0  0  0
   -0.9430    3.4607    0.0227 C   0  0  0  0  0  0
   -1.0842    2.1723    0.0214 N   0  0  0  0  0  0
    0.3535    5.5391    0.0293 C   0  0  0  0  0  0
    0.3790    6.0474   -1.3892 C   0  0  0  0  0  0
    0.3297    5.2651   -2.3147 O   0  0  0  0  0  0
    0.4566    7.3714   -1.6293 N   0  0  0  0  0  0
    0.5778    7.8382   -2.9428 C   0  0  0  0  0  0
    1.3380    8.9692   -3.2119 C   0  0  0  0  0  0
    1.4605    9.4249   -4.5097 C   0  0  0  0  0  0
    0.8183    8.7632   -5.5402 C   0  0  0  0  0  0
    0.0558    7.6392   -5.2754 C   0  0  0  0  0  0
   -0.0661    7.1753   -3.9787 C   0  0  0  0  0  0
   -0.7487    6.8114   -6.5720 Cl  0  0  0  0  0  0
  1  2  1  0  0  0
  2  3  1  0  0  0
  2  4  1  0  0  0
  4  5  1  0  0  0
  5  6  2  0  0  0
  5  7  1  0  0  0
  7 12  1  0  0  0
  7  8  1  0  0  0
  8  9  1  0  0  0
  9 10  1  0  0  0
 10 11  1  0  0  0
 11 12  1  0  0  0
 11 13  1  0  0  0
 13 17  1  0  0  0
 13 14  2  0  0  0
 14 15  1  0  0  0
 15 22  1  0  0  0
 15 16  2  0  0  0
 16 17  1  0  0  0
 16 18  1  0  0  0
 18 19  2  0  0  0
 18 20  1  0  0  0
 20 21  1  0  0  0
 20 23  1  0  0  0
 21 22  2  0  0  0
 23 24  1  0  0  0
 24 25  2  0  0  0
 24 26  1  0  0  0
 26 27  1  0  0  0
 27 32  1  0  0  0
 27 28  2  0  0  0
 28 29  1  0  0  0
 29 30  2  0  0  0
 30 31  1  0  0  0
 31 32  2  0  0  0
 31 33  1  0  0  0
M  END
> <s_m_entry_id>
105830

> <s_m_entry_name>
PKC-all_decoys.29

> <s_m_Source_Path>
/home/liwei/Desktop/Machine/Decoys/PKC

> <s_m_Source_File>
PKC-all_decoys.sdf

> <i_m_Source_File_Index>
29

$$$$
ZINC40376438
                    3D
 Structure written by MMmdl.
 29 31  0  0  1  0            999 V2000
    1.1641    0.2233   -1.1823 C   0  0  0  0  0  0
    0.0335   -0.7585   -1.3521 C   0  0  0  0  0  0
   -0.0250   -1.5583   -2.4748 C   0  0  0  0  0  0
   -1.0622   -2.4601   -2.6322 C   0  0  0  0  0  0
   -2.0474   -2.5667   -1.6662 C   0  0  0  0  0  0
   -2.0008   -1.7735   -0.5388 C   0  0  0  0  0  0
   -0.9539   -0.8649   -0.3710 C   0  0  0  0  0  0
   -0.8991   -0.0775    0.7485 N   0  0  0  0  0  0
   -0.9576   -0.6253    1.9395 C   0  0  0  0  0  0
   -0.9274   -1.9911    2.0686 N   0  0  0  0  0  0
   -1.0493    0.1700    3.0590 N   0  0  0  0  0  0
   -0.9995   -0.4001    4.3183 C   0  0  0  0  0  0
   -1.1281    0.2794    5.4234 N   0  0  0  0  0  0
   -1.0158   -0.6935    6.5247 C   0  0  2  0  0  0
   -0.8046   -2.0114    5.8052 C   0  0  0  0  0  0
   -0.6426   -3.2254    6.3609 O   0  5  0  0  0  0
   -0.8183   -1.7206    4.5340 N   0  0  0  0  0  0
   -2.3037   -0.7254    7.3500 C   0  0  0  0  0  0
   -2.4789    0.5929    8.0588 C   0  0  0  0  0  0
   -1.6548    1.4715    7.9178 O   0  0  0  0  0  0
   -3.5514    0.7955    8.8495 N   0  0  0  0  0  0
   -3.7713    2.0540    9.4216 C   0  0  0  0  0  0
   -3.1812    3.1823    8.8684 C   0  0  0  0  0  0
   -3.4007    4.4237    9.4355 C   0  0  0  0  0  0
   -4.2079    4.5424   10.5535 C   0  0  0  0  0  0
   -4.7965    3.4206   11.1069 C   0  0  0  0  0  0
   -4.5855    2.1772   10.5410 C   0  0  0  0  0  0
   -5.3309    0.7701   11.2324 Cl  0  0  0  0  0  0
   -2.6628    5.8352    8.7449 Cl  0  0  0  0  0  0
  1  2  1  0  0  0
  2  7  2  0  0  0
  2  3  1  0  0  0
  3  4  2  0  0  0
  4  5  1  0  0  0
  5  6  2  0  0  0
  6  7  1  0  0  0
  7  8  1  0  0  0
  8  9  2  0  0  0
  9 10  1  0  0  0
  9 11  1  0  0  0
 11 12  1  0  0  0
 12 17  1  0  0  0
 12 13  2  0  0  0
 13 14  1  0  0  0
 14 15  1  0  0  0
 14 18  1  0  0  0
 15 16  1  0  0  0
 15 17  2  0  0  0
 18 19  1  0  0  0
 19 20  2  0  0  0
 19 21  1  0  0  0
 21 22  1  0  0  0
 22 27  1  0  0  0
 22 23  2  0  0  0
 23 24  1  0  0  0
 24 25  2  0  0  0
 24 29  1  0  0  0
 25 26  1  0  0  0
 26 27  2  0  0  0
 27 28  1  0  0  0
M  CHG  1  16  -1
M  END
> <s_m_entry_id>
105831

> <s_m_entry_name>
PKC-all_decoys.30

> <s_m_Source_Path>
/home/liwei/Desktop/Machine/Decoys/PKC

> <s_m_Source_File>
PKC-all_decoys.sdf

> <i_m_Source_File_Index>
30

$$$$
ZINC16010022
                    3D
 Structure written by MMmdl.
 31 35  0  0  1  0            999 V2000
   -0.0766    1.2956   -0.3152 C   0  0  0  0  0  0
    1.1068    1.9471   -0.6118 C   0  0  0  0  0  0
    2.2706    1.2291   -0.7929 C   0  0  0  0  0  0
    2.2626   -0.1592   -0.6784 C   0  0  0  0  0  0
    1.0657   -0.8037   -0.3802 C   0  0  0  0  0  0
   -0.0934   -0.0830   -0.2004 C   0  0  0  0  0  0
    1.3909   -2.2695   -0.3279 C   0  0  1  0  0  0
    1.0555   -2.8714    1.0422 C   0  0  1  0  0  0
   -0.3310   -3.5451    0.8438 C   0  0  1  0  0  0
   -0.7066   -3.2555   -0.6247 C   0  0  1  0  0  0
    0.6014   -3.0347   -1.3105 N   0  0  0  0  0  0
   -1.4184   -4.4621   -1.2399 C   0  0  0  0  0  0
   -1.8915   -4.1099   -2.6517 C   0  0  0  0  0  0
   -2.5925   -5.2983   -3.2577 C   0  0  0  0  0  0
   -2.7035   -6.3312   -2.6195 O   0  0  0  0  0  0
   -3.0487   -5.2268   -4.3861 O   0  5  0  0  0  0
   -0.0324   -5.0165    1.0178 C   0  0  0  0  0  0
   -0.8456   -5.9114    0.9308 O   0  0  0  0  0  0
    1.2694   -5.1776    1.2821 N   0  0  0  0  0  0
    1.9841   -4.0298    1.3297 C   0  0  0  0  0  0
    3.1704   -3.9358    1.5611 O   0  0  0  0  0  0
    1.8488   -6.4356    1.4992 C   0  0  0  0  0  0
    1.9367   -7.3499    0.4579 C   0  0  0  0  0  0
    2.5083   -8.5885    0.6739 C   0  0  0  0  0  0
    2.9932   -8.9191    1.9259 C   0  0  0  0  0  0
    2.9074   -8.0104    2.9660 C   0  0  0  0  0  0
    2.3408   -6.7672    2.7538 C   0  0  0  0  0  0
    3.5168   -8.4295    4.5365 Cl  0  0  0  0  0  0
    2.8636   -2.3544   -0.6215 C   0  0  0  0  0  0
    3.5346   -3.3635   -0.6738 O   0  0  0  0  0  0
    3.2930   -1.0923   -0.8146 N   0  0  0  0  0  0
  1  6  2  0  0  0
  1  2  1  0  0  0
  2  3  2  0  0  0
  3  4  1  0  0  0
  4 31  1  0  0  0
  4  5  2  0  0  0
  5  6  1  0  0  0
  5  7  1  0  0  0
  7 11  1  0  0  0
  7  8  1  0  0  0
  7 29  1  0  0  0
  8 20  1  0  0  0
  8  9  1  0  0  0
  9 10  1  0  0  0
  9 17  1  0  0  0
 10 11  1  0  0  0
 10 12  1  0  0  0
 12 13  1  0  0  0
 13 14  1  0  0  0
 14 15  2  0  0  0
 14 16  1  0  0  0
 17 18  2  0  0  0
 17 19  1  0  0  0
 19 20  1  0  0  0
 19 22  1  0  0  0
 20 21  2  0  0  0
 22 27  1  0  0  0
 22 23  2  0  0  0
 23 24  1  0  0  0
 24 25  2  0  0  0
 25 26  1  0  0  0
 26 27  2  0  0  0
 26 28  1  0  0  0
 29 30  2  0  0  0
 29 31  1  0  0  0
M  CHG  1  16  -1
M  END
> <s_m_entry_id>
105832

> <s_m_entry_name>
PKC-all_decoys.31

> <s_m_Source_Path>
/home/liwei/Desktop/Machine/Decoys/PKC

> <s_m_Source_File>
PKC-all_decoys.sdf

> <i_m_Source_File_Index>
31

$$$$
ZINC72016663
                    3D
 Structure written by MMmdl.
 35 38  0  0  1  0            999 V2000
    0.1263    1.1371    0.1753 C   0  0  0  0  0  0
    0.1070   -0.3905    0.2579 C   0  0  1  0  0  0
    0.8390   -0.9668   -0.9266 C   0  0  0  0  0  0
    0.1691   -1.1468   -2.1222 C   0  0  0  0  0  0
    0.8516   -1.6777   -3.2058 C   0  0  0  0  0  0
    2.1886   -2.0093   -3.0455 C   0  0  0  0  0  0
    2.7918   -1.8010   -1.8199 C   0  0  0  0  0  0
    2.1126   -1.2886   -0.8121 N   0  0  0  0  0  0
    0.7639   -0.8211    1.4946 N   0  0  0  0  0  0
    0.0413   -0.8808    2.6812 C   0  0  0  0  0  0
   -1.2795   -0.4414    2.7131 C   0  0  0  0  0  0
   -1.9970   -0.4988    3.8857 C   0  0  0  0  0  0
   -1.3985   -0.9995    5.0460 C   0  0  0  0  0  0
   -0.0725   -1.4404    5.0105 C   0  0  0  0  0  0
    0.6382   -1.3852    3.8331 C   0  0  0  0  0  0
    2.0405   -1.8573    3.7932 N   0  3  0  0  0  0
    2.3722   -2.8222    4.4418 O   0  0  0  0  0  0
    2.8542   -1.2781    3.1119 O   0  5  0  0  0  0
   -2.1646   -1.0620    6.3048 C   0  0  0  0  0  0
   -1.6429   -1.4978    7.3132 O   0  0  0  0  0  0
   -3.4430   -0.6362    6.3375 N   0  0  0  0  0  0
   -4.1443   -0.6179    7.5501 C   0  0  0  0  0  0
   -3.9065   -1.5944    8.5057 C   0  0  0  0  0  0
   -4.5998   -1.5739    9.7025 C   0  0  0  0  0  0
   -5.5313   -0.5809    9.9498 C   0  0  0  0  0  0
   -5.7744    0.3956    9.0021 C   0  0  0  0  0  0
   -5.0793    0.3857    7.8019 C   0  0  0  0  0  0
   -5.3197    1.3773    6.8437 N   0  0  0  0  0  0
   -6.3586    1.2013    5.8172 C   0  0  0  0  0  0
   -7.2477    2.4492    5.8070 C   0  0  0  0  0  0
   -6.4122    3.6429    5.6252 N   0  3  0  0  0  0
   -5.5158    3.8059    6.7767 C   0  0  0  0  0  0
   -4.5446    2.6277    6.8383 C   0  0  0  0  0  0
   -7.2730    4.8272    5.5055 C   0  0  0  0  0  0
   -4.3010   -2.7976   10.8971 Cl  0  0  0  0  0  0
  1  2  1  0  0  0
  2  3  1  0  0  0
  2  9  1  0  0  0
  3  8  1  0  0  0
  3  4  2  0  0  0
  4  5  1  0  0  0
  5  6  2  0  0  0
  6  7  1  0  0  0
  7  8  2  0  0  0
  9 10  1  0  0  0
 10 15  1  0  0  0
 10 11  2  0  0  0
 11 12  1  0  0  0
 12 13  2  0  0  0
 13 14  1  0  0  0
 13 19  1  0  0  0
 14 15  2  0  0  0
 15 16  1  0  0  0
 16 17  2  0  0  0
 16 18  1  0  0  0
 19 20  2  0  0  0
 19 21  1  0  0  0
 21 22  1  0  0  0
 22 27  1  0  0  0
 22 23  2  0  0  0
 23 24  1  0  0  0
 24 25  2  0  0  0
 24 35  1  0  0  0
 25 26  1  0  0  0
 26 27  2  0  0  0
 27 28  1  0  0  0
 28 33  1  0  0  0
 28 29  1  0  0  0
 29 30  1  0  0  0
 30 31  1  0  0  0
 31 32  1  0  0  0
 31 34  1  0  0  0
 32 33  1  0  0  0
M  CHG  3  16   1  18  -1  31   1
M  END
> <s_m_entry_id>
105833

> <s_m_entry_name>
PKC-all_decoys.32

> <s_m_Source_Path>
/home/liwei/Desktop/Machine/Decoys/PKC

> <s_m_Source_File>
PKC-all_decoys.sdf

> <i_m_Source_File_Index>
32

$$$$
ZINC12501029
                    3D
 Structure written by MMmdl.
 25 26  0  0  1  0            999 V2000
    8.0110    7.0585   -0.0308 C   0  0  0  0  0  0
    9.2929    6.5525   -0.0520 C   0  0  0  0  0  0
   10.3804    7.4127   -0.0578 C   0  0  0  0  0  0
   10.1853    8.7855   -0.0481 C   0  0  0  0  0  0
    8.9077    9.3024   -0.0330 C   0  0  0  0  0  0
    7.8084    8.4406   -0.0272 C   0  0  0  0  0  0
    6.4375    8.9885   -0.0111 C   0  0  0  0  0  0
    6.2638   10.1914   -0.0030 O   0  0  0  0  0  0
    5.3786    8.1547   -0.0055 N   0  0  0  0  0  0
    4.1271    8.6548    0.0091 C   0  0  0  0  0  0
    3.8825   10.3492    0.0206 S   0  0  0  0  0  0
    3.0682    7.8211    0.0148 N   0  0  0  0  0  0
    3.2684    6.4345    0.0054 N   0  0  0  0  0  0
    2.2095    5.6007    0.0110 C   0  0  0  0  0  0
    1.0834    6.0507    0.0242 O   0  0  0  0  0  0
    2.4248    4.1092    0.0010 C   0  0  0  0  0  0
    1.1595    3.4452    0.0095 O   0  0  0  0  0  0
    1.1757    2.0862    0.0020 C   0  0  0  0  0  0
   -0.0167    1.3772    0.0096 C   0  0  0  0  0  0
    0.0021   -0.0041    0.0020 C   0  0  0  0  0  0
    1.2088   -0.6804   -0.0127 C   0  0  0  0  0  0
    2.3991    0.0247   -0.0198 C   0  0  0  0  0  0
    2.3848    1.4061   -0.0127 C   0  0  0  0  0  0
    1.2315   -2.5712   -0.0224 Br  0  0  0  0  0  0
   11.6349    6.9114   -0.0734 F   0  0  0  0  0  0
  1  6  2  0  0  0
  1  2  1  0  0  0
  2  3  2  0  0  0
  3  4  1  0  0  0
  3 25  1  0  0  0
  4  5  2  0  0  0
  5  6  1  0  0  0
  6  7  1  0  0  0
  7  8  2  0  0  0
  7  9  1  0  0  0
  9 10  1  0  0  0
 10 11  2  0  0  0
 10 12  1  0  0  0
 12 13  1  0  0  0
 13 14  1  0  0  0
 14 15  2  0  0  0
 14 16  1  0  0  0
 16 17  1  0  0  0
 17 18  1  0  0  0
 18 23  1  0  0  0
 18 19  2  0  0  0
 19 20  1  0  0  0
 20 21  2  0  0  0
 21 22  1  0  0  0
 21 24  1  0  0  0
 22 23  2  0  0  0
M  END
> <s_m_entry_id>
105834

> <s_m_entry_name>
PKC-all_decoys.33

> <s_m_Source_Path>
/home/liwei/Desktop/Machine/Decoys/PKC

> <s_m_Source_File>
PKC-all_decoys.sdf

> <i_m_Source_File_Index>
33

$$$$
ZINC14142208
                    3D
 Structure written by MMmdl.
 31 34  0  0  1  0            999 V2000
    0.0470   -4.0687   -1.0192 C   0  0  0  0  0  0
    0.0336   -2.6589   -0.4871 C   0  0  0  0  0  0
    0.0400   -2.2360    0.7978 C   0  0  0  0  0  0
    0.0239   -0.8696    1.0586 C   0  0  0  0  0  0
    0.0021   -0.0041    0.0020 C   0  0  0  0  0  0
   -0.0038   -1.1203   -1.3908 S   0  0  0  0  0  0
   -0.0184    1.5028    0.0103 C   0  0  0  0  0  0
    0.0307   -0.3633    2.4543 C   0  0  0  0  0  0
    0.0472   -1.2245    3.5149 C   0  0  0  0  0  0
    0.0496   -0.0714    4.8797 S   0  0  0  0  0  0
    0.0208    1.3913    3.9450 C   0  0  0  0  0  0
    0.0153    0.9372    2.7085 N   0  0  0  0  0  0
    0.0067    2.7080    4.3890 N   0  0  0  0  0  0
    0.0156    2.9737    5.7102 C   0  0  0  0  0  0
    0.0360    2.0637    6.5117 O   0  0  0  0  0  0
    0.0002    4.4017    6.1917 C   0  0  0  0  0  0
    0.0146    4.4242    7.7215 C   0  0  0  0  0  0
   -0.0003    5.8124    8.1896 N   0  0  0  0  0  0
    1.1158    6.6078    8.4476 C   0  0  0  0  0  0
    2.4816    6.3880    8.3612 C   0  0  0  0  0  0
    3.3625    7.3985    8.6940 C   0  0  0  0  0  0
    2.8848    8.6281    9.1132 C   0  0  0  0  0  0
    1.5250    8.8571    9.1936 C   0  0  0  0  0  0
    0.6334    7.8476    8.8661 C   0  0  0  0  0  0
   -0.7202    7.7753    8.8617 O   0  0  0  0  0  0
   -1.0951    6.5522    8.4551 C   0  0  0  0  0  0
   -2.2444    6.1709    8.3435 O   0  0  0  0  0  0
    4.0165    9.9109    9.5355 S   0  0  0  0  0  0
    3.3278   10.7857   10.4184 O   0  0  0  0  0  0
    5.2367    9.2752    9.8910 O   0  0  0  0  0  0
    4.3171   10.7730    8.1539 N   0  0  0  0  0  0
  1  2  1  0  0  0
  2  6  1  0  0  0
  2  3  2  0  0  0
  3  4  1  0  0  0
  4  5  2  0  0  0
  4  8  1  0  0  0
  5  6  1  0  0  0
  5  7  1  0  0  0
  8 12  1  0  0  0
  8  9  2  0  0  0
  9 10  1  0  0  0
 10 11  1  0  0  0
 11 12  2  0  0  0
 11 13  1  0  0  0
 13 14  1  0  0  0
 14 15  2  0  0  0
 14 16  1  0  0  0
 16 17  1  0  0  0
 17 18  1  0  0  0
 18 26  1  0  0  0
 18 19  1  0  0  0
 19 24  1  0  0  0
 19 20  2  0  0  0
 20 21  1  0  0  0
 21 22  2  0  0  0
 22 23  1  0  0  0
 22 28  1  0  0  0
 23 24  2  0  0  0
 24 25  1  0  0  0
 25 26  1  0  0  0
 26 27  2  0  0  0
 28 29  2  0  0  0
 28 30  2  0  0  0
 28 31  1  0  0  0
M  END
> <s_m_entry_id>
105835

> <s_m_entry_name>
PKC-all_decoys.34

> <s_m_Source_Path>
/home/liwei/Desktop/Machine/Decoys/PKC

> <s_m_Source_File>
PKC-all_decoys.sdf

> <i_m_Source_File_Index>
34

$$$$
ZINC33141401
                    3D
 Structure written by MMmdl.
 33 36  0  0  1  0            999 V2000
   -0.0086    1.5797    0.0240 C   0  0  0  0  0  0
    0.0216    0.0501    0.0089 C   0  0  0  0  0  0
    0.7617   -0.4578    1.2479 C   0  0  0  0  0  0
   -1.3497   -0.4655    0.0137 N   0  0  0  0  0  0
   -1.6119   -1.6879   -0.4896 C   0  0  0  0  0  0
   -0.7126   -2.3612   -0.9466 O   0  0  0  0  0  0
   -3.0225   -2.2182   -0.4846 C   0  0  2  0  0  0
   -3.0455   -3.6157   -1.1099 C   0  0  0  0  0  0
   -4.4900   -4.1217   -1.1566 C   0  0  0  0  0  0
   -5.3470   -3.1332   -1.9506 C   0  0  0  0  0  0
   -5.2925   -1.8124   -1.3111 N   0  0  0  0  0  0
   -3.9221   -1.2849   -1.2981 C   0  0  0  0  0  0
   -6.1551   -0.9307   -1.9248 C   0  0  0  0  0  0
   -5.8871    0.2471   -2.4518 N   0  0  0  0  0  0
   -6.8241    1.0035   -3.0245 C   0  0  0  0  0  0
   -8.1195    0.4539   -3.0114 C   0  0  0  0  0  0
   -7.8646   -1.0953   -2.1871 S   0  0  0  0  0  0
   -9.2005    1.1262   -3.5646 C   0  0  0  0  0  0
  -10.3192    0.6391   -3.5475 O   0  0  0  0  0  0
   -8.9760    2.3403   -4.1250 N   0  0  0  0  0  0
   -7.7170    2.8486   -4.1249 C   0  0  0  0  0  0
   -6.7009    2.2295   -3.6109 N   0  0  0  0  0  0
  -10.0794    3.0949   -4.7244 C   0  0  0  0  0  0
  -10.7104    3.9779   -3.6788 C   0  0  0  0  0  0
  -10.2807    3.9769   -2.5446 O   0  0  0  0  0  0
  -11.7522    4.7686   -4.0040 N   0  0  0  0  0  0
  -12.3982    5.5178   -3.0137 C   0  0  0  0  0  0
  -11.6708    6.0459   -1.9553 C   0  0  0  0  0  0
  -12.3101    6.7896   -0.9827 C   0  0  0  0  0  0
  -13.6751    6.9993   -1.0555 C   0  0  0  0  0  0
  -14.4039    6.4704   -2.1046 C   0  0  0  0  0  0
  -13.7696    5.7300   -3.0844 C   0  0  0  0  0  0
  -14.6851    5.0656   -4.4013 Cl  0  0  0  0  0  0
  1  2  1  0  0  0
  2  3  1  0  0  0
  2  4  1  0  0  0
  4  5  1  0  0  0
  5  6  2  0  0  0
  5  7  1  0  0  0
  7 12  1  0  0  0
  7  8  1  0  0  0
  8  9  1  0  0  0
  9 10  1  0  0  0
 10 11  1  0  0  0
 11 12  1  0  0  0
 11 13  1  0  0  0
 13 17  1  0  0  0
 13 14  2  0  0  0
 14 15  1  0  0  0
 15 22  1  0  0  0
 15 16  2  0  0  0
 16 17  1  0  0  0
 16 18  1  0  0  0
 18 19  2  0  0  0
 18 20  1  0  0  0
 20 21  1  0  0  0
 20 23  1  0  0  0
 21 22  2  0  0  0
 23 24  1  0  0  0
 24 25  2  0  0  0
 24 26  1  0  0  0
 26 27  1  0  0  0
 27 32  1  0  0  0
 27 28  2  0  0  0
 28 29  1  0  0  0
 29 30  2  0  0  0
 30 31  1  0  0  0
 31 32  2  0  0  0
 32 33  1  0  0  0
M  END
> <s_m_entry_id>
105836

> <s_m_entry_name>
PKC-all_decoys.35

> <s_m_Source_Path>
/home/liwei/Desktop/Machine/Decoys/PKC

> <s_m_Source_File>
PKC-all_decoys.sdf

> <i_m_Source_File_Index>
35

$$$$
ZINC43620053
                    3D
 Structure written by MMmdl.
 36 40  0  0  1  0            999 V2000
    0.0495    1.4846    0.1880 C   0  0  0  0  0  0
    0.3825    0.6020    1.1984 C   0  0  0  0  0  0
    1.5725   -0.0989    1.1396 C   0  0  0  0  0  0
    2.4294    0.0825    0.0701 C   0  0  0  0  0  0
    2.0960    0.9644   -0.9408 C   0  0  0  0  0  0
    0.9066    1.6664   -0.8813 C   0  0  0  0  0  0
    3.7272   -0.6809    0.0064 C   0  0  1  0  0  0
    4.3056   -0.8243    1.4163 C   0  0  0  0  0  0
    5.6419   -1.5695    1.3477 C   0  0  0  0  0  0
    5.4417   -2.8421    0.6393 N   0  0  0  0  0  0
    4.8097   -2.8141   -0.6849 C   0  0  2  0  0  0
    3.4731   -2.0754   -0.5792 C   0  0  1  0  0  0
    2.5369   -2.8400    0.3602 C   0  0  0  0  0  0
    2.3130   -4.2555   -0.1731 C   0  0  0  0  0  0
    3.6550   -4.9881   -0.2425 C   0  0  0  0  0  0
    4.5784   -4.2365   -1.1859 C   0  0  0  0  0  0
    5.8302   -4.0078    1.1932 C   0  0  0  0  0  0
    5.7913   -5.0308    0.5429 O   0  0  0  0  0  0
    6.3128   -4.0400    2.6204 C   0  0  0  0  0  0
    6.6735   -5.4128    2.9831 N   0  0  0  0  0  0
    7.8691   -5.8198    3.4823 C   0  0  0  0  0  0
    7.7942   -7.1602    3.6836 C   0  0  0  0  0  0
    6.5142   -7.5821    3.2952 C   0  0  0  0  0  0
    5.8442   -6.5371    2.8821 N   0  0  0  0  0  0
    8.8189   -7.9809    4.1914 N   0  0  0  0  0  0
    8.6106   -9.3039    4.3418 C   0  0  0  0  0  0
    7.5399   -9.7875    4.0396 O   0  0  0  0  0  0
    9.7077  -10.1824    4.8854 C   0  0  0  0  0  0
    9.2477  -11.5338    4.9503 O   0  0  0  0  0  0
   10.1219  -12.4612    5.4222 C   0  0  0  0  0  0
   11.3944  -12.0774    5.8200 C   0  0  0  0  0  0
   12.2810  -13.0219    6.2998 C   0  0  0  0  0  0
   11.9014  -14.3488    6.3832 C   0  0  0  0  0  0
   10.6339  -14.7339    5.9868 C   0  0  0  0  0  0
    9.7415  -13.7923    5.5122 C   0  0  0  0  0  0
    4.6548    0.0229   -0.8219 O   0  0  0  0  0  0
  1  6  2  0  0  0
  1  2  1  0  0  0
  2  3  2  0  0  0
  3  4  1  0  0  0
  4  5  2  0  0  0
  4  7  1  0  0  0
  5  6  1  0  0  0
  7 12  1  0  0  0
  7  8  1  0  0  0
  7 36  1  0  0  0
  8  9  1  0  0  0
  9 10  1  0  0  0
 10 11  1  0  0  0
 10 17  1  0  0  0
 11 16  1  0  0  0
 11 12  1  0  0  0
 12 13  1  0  0  0
 13 14  1  0  0  0
 14 15  1  0  0  0
 15 16  1  0  0  0
 17 18  2  0  0  0
 17 19  1  0  0  0
 19 20  1  0  0  0
 20 24  1  0  0  0
 20 21  1  0  0  0
 21 22  2  0  0  0
 22 23  1  0  0  0
 22 25  1  0  0  0
 23 24  2  0  0  0
 25 26  1  0  0  0
 26 27  2  0  0  0
 26 28  1  0  0  0
 28 29  1  0  0  0
 29 30  1  0  0  0
 30 35  1  0  0  0
 30 31  2  0  0  0
 31 32  1  0  0  0
 32 33  2  0  0  0
 33 34  1  0  0  0
 34 35  2  0  0  0
M  END
> <s_m_entry_id>
105837

> <s_m_entry_name>
PKC-all_decoys.36

> <s_m_Source_Path>
/home/liwei/Desktop/Machine/Decoys/PKC

> <s_m_Source_File>
PKC-all_decoys.sdf

> <i_m_Source_File_Index>
36

$$$$
ZINC65309448
                    3D
 Structure written by MMmdl.
 33 36  0  0  1  0            999 V2000
    0.0064    1.5016    0.0061 C   0  0  0  0  0  0
    0.0152   -0.0054    0.0002 C   0  0  0  0  0  0
    0.0192   -0.6921   -1.1984 C   0  0  0  0  0  0
    0.0267   -2.0746   -1.2046 C   0  0  0  0  0  0
    0.0303   -2.7742   -0.0117 C   0  0  0  0  0  0
    0.0268   -2.0933    1.1898 C   0  0  0  0  0  0
    0.0250   -0.7048    1.1992 C   0  0  0  0  0  0
    0.0269   -0.0108    2.4171 N   0  0  0  0  0  0
   -1.0930    0.3646    3.1046 C   0  0  0  0  0  0
   -0.7197    1.0076    4.2251 C   0  0  0  0  0  0
    0.7473    1.0268    4.2221 C   0  0  0  0  0  0
    1.1343    0.3776    3.0820 C   0  0  0  0  0  0
    2.5559    0.1395    2.6422 C   0  0  0  0  0  0
    1.6262    1.6209    5.2432 C   0  0  0  0  0  0
    2.8342    1.5646    5.1133 O   0  0  0  0  0  0
    1.0920    2.2272    6.3219 N   0  0  0  0  0  0
    1.9663    2.8184    7.3379 C   0  0  0  0  0  0
    1.1263    3.4281    8.4304 C   0  0  0  0  0  0
   -0.0837    3.3741    8.3667 O   0  0  0  0  0  0
    1.7196    4.0333    9.4783 N   0  0  0  0  0  0
    0.9435    4.6814   10.4413 C   0  0  0  0  0  0
   -0.2959    4.1754   10.7958 C   0  0  0  0  0  0
   -1.0727    4.8125   11.7515 C   0  0  0  0  0  0
   -0.6290    5.9622   12.3693 C   0  0  0  0  0  0
    0.6147    6.4921   12.0306 C   0  0  0  0  0  0
    1.4144    5.8460   11.0617 C   0  0  0  0  0  0
    2.7194    6.4237   10.7310 C   0  0  0  0  0  0
    3.5090    5.8298    9.8004 O   0  5  0  0  0  0
    3.1217    7.5096   11.3314 N   0  0  0  0  0  0
    2.3538    8.1639   12.2951 N   0  0  0  0  0  0
    1.1346    7.7143   12.6578 C   0  0  0  0  0  0
    0.4826    8.3035   13.5018 O   0  0  0  0  0  0
   -2.5139    0.1014    2.6767 C   0  0  0  0  0  0
  1  2  1  0  0  0
  2  7  2  0  0  0
  2  3  1  0  0  0
  3  4  2  0  0  0
  4  5  1  0  0  0
  5  6  2  0  0  0
  6  7  1  0  0  0
  7  8  1  0  0  0
  8 12  1  0  0  0
  8  9  1  0  0  0
  9 10  2  0  0  0
  9 33  1  0  0  0
 10 11  1  0  0  0
 11 12  2  0  0  0
 11 14  1  0  0  0
 12 13  1  0  0  0
 14 15  2  0  0  0
 14 16  1  0  0  0
 16 17  1  0  0  0
 17 18  1  0  0  0
 18 19  2  0  0  0
 18 20  1  0  0  0
 20 21  1  0  0  0
 21 26  1  0  0  0
 21 22  2  0  0  0
 22 23  1  0  0  0
 23 24  2  0  0  0
 24 25  1  0  0  0
 25 31  1  0  0  0
 25 26  2  0  0  0
 26 27  1  0  0  0
 27 28  1  0  0  0
 27 29  2  0  0  0
 29 30  1  0  0  0
 30 31  1  0  0  0
 31 32  2  0  0  0
M  CHG  1  28  -1
M  END
> <s_m_entry_id>
105838

> <s_m_entry_name>
PKC-all_decoys.37

> <s_m_Source_Path>
/home/liwei/Desktop/Machine/Decoys/PKC

> <s_m_Source_File>
PKC-all_decoys.sdf

> <i_m_Source_File_Index>
37

$$$$
ZINC33141403
                    3D
 Structure written by MMmdl.
 33 36  0  0  1  0            999 V2000
   -0.0116    1.4908    0.0083 C   0  0  0  0  0  0
    0.0078   -0.0391    0.0110 C   0  0  0  0  0  0
    0.7253   -0.5423   -1.2431 C   0  0  0  0  0  0
    0.7142   -0.5164    1.2024 N   0  0  0  0  0  0
    0.0530   -0.6514    2.3690 C   0  0  0  0  0  0
   -1.1268   -0.3777    2.4326 O   0  0  0  0  0  0
    0.7797   -1.1423    3.5946 C   0  0  2  0  0  0
   -0.1928   -1.2025    4.7757 C   0  0  0  0  0  0
    0.5667   -1.6435    6.0301 C   0  0  0  0  0  0
    1.7168   -0.6689    6.2941 C   0  0  0  0  0  0
    2.6188   -0.6489    5.1355 N   0  0  0  0  0  0
    1.9236   -0.1823    3.9292 C   0  0  0  0  0  0
    3.7337    0.1191    5.3911 C   0  0  0  0  0  0
    4.1984    1.1446    4.7061 N   0  0  0  0  0  0
    5.2960    1.8086    5.0701 C   0  0  0  0  0  0
    5.9248    1.3230    6.2316 C   0  0  0  0  0  0
    4.8764   -0.0313    6.6910 S   0  0  0  0  0  0
    7.0806    1.9070    6.7314 C   0  0  0  0  0  0
    7.6165    1.4771    7.7398 O   0  0  0  0  0  0
    7.5958    2.9699    6.0656 N   0  0  0  0  0  0
    6.9703    3.4193    4.9475 C   0  0  0  0  0  0
    5.8912    2.8812    4.4722 N   0  0  0  0  0  0
    8.8141    3.6257    6.5471 C   0  0  0  0  0  0
   10.0181    2.9725    5.9188 C   0  0  0  0  0  0
    9.8728    2.0499    5.1450 O   0  0  0  0  0  0
   11.2563    3.4135    6.2167 N   0  0  0  0  0  0
   12.3776    2.7464    5.7100 C   0  0  0  0  0  0
   13.5356    2.6554    6.4710 C   0  0  0  0  0  0
   14.6391    1.9925    5.9706 C   0  0  0  0  0  0
   14.5949    1.4282    4.7077 C   0  0  0  0  0  0
   13.4439    1.5220    3.9453 C   0  0  0  0  0  0
   12.3359    2.1793    4.4431 C   0  0  0  0  0  0
   15.9856    0.6009    4.0792 Cl  0  0  0  0  0  0
  1  2  1  0  0  0
  2  3  1  0  0  0
  2  4  1  0  0  0
  4  5  1  0  0  0
  5  6  2  0  0  0
  5  7  1  0  0  0
  7 12  1  0  0  0
  7  8  1  0  0  0
  8  9  1  0  0  0
  9 10  1  0  0  0
 10 11  1  0  0  0
 11 12  1  0  0  0
 11 13  1  0  0  0
 13 17  1  0  0  0
 13 14  2  0  0  0
 14 15  1  0  0  0
 15 22  1  0  0  0
 15 16  2  0  0  0
 16 17  1  0  0  0
 16 18  1  0  0  0
 18 19  2  0  0  0
 18 20  1  0  0  0
 20 21  1  0  0  0
 20 23  1  0  0  0
 21 22  2  0  0  0
 23 24  1  0  0  0
 24 25  2  0  0  0
 24 26  1  0  0  0
 26 27  1  0  0  0
 27 32  1  0  0  0
 27 28  2  0  0  0
 28 29  1  0  0  0
 29 30  2  0  0  0
 30 31  1  0  0  0
 30 33  1  0  0  0
 31 32  2  0  0  0
M  END
> <s_m_entry_id>
105839

> <s_m_entry_name>
PKC-all_decoys.38

> <s_m_Source_Path>
/home/liwei/Desktop/Machine/Decoys/PKC

> <s_m_Source_File>
PKC-all_decoys.sdf

> <i_m_Source_File_Index>
38

$$$$
ZINC08855155
                    3D
 Structure written by MMmdl.
 24 24  0  0  1  0            999 V2000
   -0.0179    1.4724    0.0101 C   0  0  0  0  0  0
    1.4233    1.9859   -0.0009 C   0  0  0  0  0  0
    1.4712    3.2844    0.5936 O   0  0  0  0  0  0
    2.6683    4.0105    0.3076 C   0  0  0  0  0  0
    3.1546    4.7128    1.5768 C   0  0  0  0  0  0
    4.3931    4.1360    1.9958 O   0  0  0  0  0  0
    4.8624    4.6193    3.2560 C   0  0  0  0  0  0
    6.1865    3.9358    3.6032 C   0  0  0  0  0  0
    5.9899    3.0497    4.7070 O   0  0  0  0  0  0
    7.0566    2.1191    4.9025 C   0  0  0  0  0  0
    6.7802    1.2822    6.1531 C   0  0  0  0  0  0
    6.6846   -0.1391    5.7647 N   0  0  0  0  0  0
    5.4823   -0.7455    5.9669 C   0  0  0  0  0  0
    5.3631   -2.0569    5.6201 N   0  0  0  0  0  0
    4.0476   -2.6846    5.8556 C   0  0  0  0  0  0
    3.5244   -3.2474    4.5326 C   0  0  0  0  0  0
    2.2339   -2.6980    4.2587 O   0  0  0  0  0  0
    2.0208   -2.3723    2.8838 C   0  0  0  0  0  0
    0.5515   -2.6057    2.5263 C   0  0  0  0  0  0
    0.2731   -1.9765    1.2197 N   0  0  0  0  0  0
    0.2484   -0.6155    1.1934 C   0  0  0  0  0  0
    0.0021   -0.0041    0.0020 N   0  0  0  0  0  0
    0.5183    0.2993    2.6151 S   0  0  0  0  0  0
    4.1618    0.1138    6.6368 S   0  0  0  0  0  0
  1 22  1  0  0  0
  1  2  1  0  0  0
  2  3  1  0  0  0
  3  4  1  0  0  0
  4  5  1  0  0  0
  5  6  1  0  0  0
  6  7  1  0  0  0
  7  8  1  0  0  0
  8  9  1  0  0  0
  9 10  1  0  0  0
 10 11  1  0  0  0
 11 12  1  0  0  0
 12 13  1  0  0  0
 13 14  1  0  0  0
 13 24  2  0  0  0
 14 15  1  0  0  0
 15 16  1  0  0  0
 16 17  1  0  0  0
 17 18  1  0  0  0
 18 19  1  0  0  0
 19 20  1  0  0  0
 20 21  1  0  0  0
 21 22  1  0  0  0
 21 23  2  0  0  0
M  END
> <s_m_entry_id>
105840

> <s_m_entry_name>
PKC-all_decoys.39

> <s_m_Source_Path>
/home/liwei/Desktop/Machine/Decoys/PKC

> <s_m_Source_File>
PKC-all_decoys.sdf

> <i_m_Source_File_Index>
39

$$$$
ZINC58017196
                    3D
 Structure written by MMmdl.
 31 33  0  0  1  0            999 V2000
   -0.0187    1.5258    0.0104 C   0  0  0  0  0  0
    0.0021   -0.0041    0.0020 C   0  0  0  0  0  0
    0.7421   -0.5109    1.2415 C   0  0  0  0  0  0
   -1.4333   -0.5336    0.0129 C   0  0  0  0  0  0
    0.6709   -0.4649   -1.1737 O   0  0  0  0  0  0
    1.9522   -0.0848   -1.3367 C   0  0  0  0  0  0
    2.4879    0.6189   -0.5034 O   0  0  0  0  0  0
    2.6407   -0.4850   -2.4240 N   0  0  0  0  0  0
    1.9949   -1.3334   -3.4286 C   0  0  0  0  0  0
    4.0349   -0.0714   -2.6014 C   0  0  0  0  0  0
    4.9595   -1.1033   -1.9523 C   0  0  1  0  0  0
    4.8370   -2.4366   -2.6936 C   0  0  0  0  0  0
    5.7368   -3.4784   -2.0249 C   0  0  0  0  0  0
    7.1945   -3.0139   -2.1030 C   0  0  0  0  0  0
    7.2938   -1.6684   -1.5213 N   0  0  0  0  0  0
    6.4083   -0.6115   -2.0289 C   0  0  0  0  0  0
    8.3831   -1.3487   -0.3156 S   0  0  0  0  0  0
    7.8852   -0.2225    0.3935 O   0  0  0  0  0  0
    8.6595   -2.5886    0.3212 O   0  0  0  0  0  0
    9.8806   -0.8350   -1.0891 C   0  0  0  0  0  0
   10.8378   -1.7753   -1.4320 C   0  0  0  0  0  0
   12.0132   -1.3815   -2.0375 C   0  0  0  0  0  0
   12.2411   -0.0362   -2.3061 C   0  0  0  0  0  0
   11.2763    0.9116   -1.9606 C   0  0  0  0  0  0
   10.0927    0.5018   -1.3561 C   0  0  0  0  0  0
   11.4858    2.2629   -2.2207 N   0  0  0  0  0  0
   12.6282    2.6686   -2.8114 C   0  0  0  0  0  0
   12.8160    3.8467   -3.0397 O   0  0  0  0  0  0
   13.6589    1.6558   -3.1811 C   0  0  0  0  0  0
   14.6946    2.0008   -3.7136 O   0  0  0  0  0  0
   13.4297    0.3535   -2.9170 N   0  0  0  0  0  0
  1  2  1  0  0  0
  2  3  1  0  0  0
  2  4  1  0  0  0
  2  5  1  0  0  0
  5  6  1  0  0  0
  6  7  2  0  0  0
  6  8  1  0  0  0
  8  9  1  0  0  0
  8 10  1  0  0  0
 10 11  1  0  0  0
 11 16  1  0  0  0
 11 12  1  0  0  0
 12 13  1  0  0  0
 13 14  1  0  0  0
 14 15  1  0  0  0
 15 16  1  0  0  0
 15 17  1  0  0  0
 17 18  2  0  0  0
 17 19  2  0  0  0
 17 20  1  0  0  0
 20 25  1  0  0  0
 20 21  2  0  0  0
 21 22  1  0  0  0
 22 23  2  0  0  0
 23 31  1  0  0  0
 23 24  1  0  0  0
 24 25  2  0  0  0
 24 26  1  0  0  0
 26 27  1  0  0  0
 27 28  2  0  0  0
 27 29  1  0  0  0
 29 30  2  0  0  0
 29 31  1  0  0  0
M  END
> <s_m_entry_id>
105841

> <s_m_entry_name>
PKC-all_decoys.40

> <s_m_Source_Path>
/home/liwei/Desktop/Machine/Decoys/PKC

> <s_m_Source_File>
PKC-all_decoys.sdf

> <i_m_Source_File_Index>
40

$$$$
ZINC28721439
                    3D
 Structure written by MMmdl.
 33 37  0  0  1  0            999 V2000
    4.7554   -4.6282   -3.3485 C   0  0  0  0  0  0
    3.6842   -5.6839   -3.2531 C   0  0  0  0  0  0
    3.3844   -6.4478   -2.1198 C   0  0  0  0  0  0
    2.3683   -7.2831   -2.4373 C   0  0  0  0  0  0
    2.0309   -7.0494   -3.7258 N   0  0  0  0  0  0
    2.8738   -6.0435   -4.2158 N   0  0  0  0  0  0
    1.0204   -7.7022   -4.4455 C   0  0  0  0  0  0
    1.2385   -8.0805   -5.7634 C   0  0  0  0  0  0
    0.2428   -8.7282   -6.4683 C   0  0  0  0  0  0
   -0.9741   -8.9902   -5.8661 C   0  0  0  0  0  0
   -1.1963   -8.6095   -4.5554 C   0  0  0  0  0  0
   -0.2024   -7.9666   -3.8436 C   0  0  0  0  0  0
    1.7256   -8.2904   -1.5189 C   0  0  0  0  0  0
    4.0756   -6.3604   -0.7835 C   0  0  1  0  0  0
    5.4181   -7.0294   -0.8717 C   0  0  0  0  0  0
    5.5034   -8.0853   -1.4623 O   0  0  0  0  0  0
    6.5227   -6.5095   -0.3262 N   0  0  0  0  0  0
    6.5346   -5.2282    0.3738 C   0  0  0  0  0  0
    5.1106   -4.8342    0.7706 C   0  0  0  0  0  0
    4.2416   -4.9489   -0.4118 N   0  3  2  0  0  0
    2.9402   -4.3109   -0.1726 C   0  0  0  0  0  0
    3.1314   -2.8249   -0.0110 C   0  0  0  0  0  0
    4.2425   -2.3445   -0.0875 O   0  0  0  0  0  0
    2.0678   -2.0296    0.2187 N   0  0  0  0  0  0
    2.2301   -0.6389    0.2651 C   0  0  0  0  0  0
    1.4429    0.1239    1.1174 C   0  0  0  0  0  0
    1.6017    1.4956    1.1643 C   0  0  0  0  0  0
    2.5460    2.1141    0.3606 C   0  0  0  0  0  0
    3.3371    1.3516   -0.4953 C   0  0  0  0  0  0
    3.1774   -0.0233   -0.5413 C   0  0  0  0  0  0
    4.1832    2.1862   -1.1669 O   0  0  0  0  0  0
    3.6173    3.5037   -1.0214 C   0  0  0  0  0  0
    2.8934    3.4277    0.2210 O   0  0  0  0  0  0
  1  2  1  0  0  0
  2  6  2  0  0  0
  2  3  1  0  0  0
  3  4  2  0  0  0
  3 14  1  0  0  0
  4  5  1  0  0  0
  4 13  1  0  0  0
  5  6  1  0  0  0
  5  7  1  0  0  0
  7 12  1  0  0  0
  7  8  2  0  0  0
  8  9  1  0  0  0
  9 10  2  0  0  0
 10 11  1  0  0  0
 11 12  2  0  0  0
 14 20  1  0  0  0
 14 15  1  0  0  0
 15 16  2  0  0  0
 15 17  1  0  0  0
 17 18  1  0  0  0
 18 19  1  0  0  0
 19 20  1  0  0  0
 20 21  1  0  0  0
 21 22  1  0  0  0
 22 23  2  0  0  0
 22 24  1  0  0  0
 24 25  1  0  0  0
 25 30  1  0  0  0
 25 26  2  0  0  0
 26 27  1  0  0  0
 27 28  2  0  0  0
 28 33  1  0  0  0
 28 29  1  0  0  0
 29 30  2  0  0  0
 29 31  1  0  0  0
 31 32  1  0  0  0
 32 33  1  0  0  0
M  CHG  1  20   1
M  END
> <s_m_entry_id>
105842

> <s_m_entry_name>
PKC-all_decoys.41

> <s_m_Source_Path>
/home/liwei/Desktop/Machine/Decoys/PKC

> <s_m_Source_File>
PKC-all_decoys.sdf

> <i_m_Source_File_Index>
41

$$$$
ZINC08253612
                    3D
 Structure written by MMmdl.
 31 34  0  0  1  0            999 V2000
    3.8821    2.8952   -0.6732 C   0  0  0  0  0  0
    3.7662    1.8506    0.2950 O   0  0  0  0  0  0
    2.5901    1.1690    0.3298 C   0  0  0  0  0  0
    1.5707    1.4997   -0.5509 C   0  0  0  0  0  0
    0.3761    0.8079   -0.5161 C   0  0  0  0  0  0
    0.1955   -0.2193    0.4005 C   0  0  0  0  0  0
    1.2164   -0.5501    1.2815 C   0  0  0  0  0  0
    2.4106    0.1426    1.2455 C   0  0  0  0  0  0
   -1.0163   -0.9212    0.4367 N   0  0  0  0  0  0
   -1.2024   -2.3338    0.1056 C   0  0  2  0  0  0
   -0.3771   -2.8223   -1.0315 C   0  0  1  0  0  0
   -1.0671   -2.8522   -2.3752 C   0  0  0  0  0  0
   -2.4566   -3.4476   -2.2835 C   0  0  2  0  0  0
   -3.3219   -2.7371   -1.2746 C   0  0  1  0  0  0
   -2.6981   -2.5510    0.0883 C   0  0  2  0  0  0
   -3.2238   -1.2888    0.6636 N   0  0  0  0  0  0
   -2.2121   -0.4166    0.7876 C   0  0  0  0  0  0
   -2.4244    1.1911    1.3363 S   0  0  0  0  0  0
   -4.6172   -1.0379    1.0400 C   0  0  0  0  0  0
   -4.8290   -1.4375    2.4775 C   0  0  0  0  0  0
   -5.2257   -2.7256    2.7850 C   0  0  0  0  0  0
   -5.4157   -3.0946    4.1032 C   0  0  0  0  0  0
   -5.2187   -2.1706    5.1154 C   0  0  0  0  0  0
   -4.8265   -0.8793    4.8059 C   0  0  0  0  0  0
   -4.6321   -0.5141    3.4873 C   0  0  0  0  0  0
   -5.4086   -2.5288    6.4042 F   0  0  0  0  0  0
   -3.6559   -1.4492   -1.7961 O   0  0  0  0  0  0
   -2.3450   -4.8225   -1.9105 O   0  0  0  0  0  0
    0.8391   -1.9396   -1.1452 C   0  0  0  0  0  0
    0.8499   -1.0213   -1.9373 O   0  0  0  0  0  0
    1.9146   -2.1707   -0.3666 N   0  0  0  0  0  0
  1  2  1  0  0  0
  2  3  1  0  0  0
  3  8  2  0  0  0
  3  4  1  0  0  0
  4  5  2  0  0  0
  5  6  1  0  0  0
  6  7  2  0  0  0
  6  9  1  0  0  0
  7  8  1  0  0  0
  9 17  1  0  0  0
  9 10  1  0  0  0
 10 15  1  0  0  0
 10 11  1  0  0  0
 11 12  1  0  0  0
 11 29  1  0  0  0
 12 13  1  0  0  0
 13 14  1  0  0  0
 13 28  1  0  0  0
 14 15  1  0  0  0
 14 27  1  0  0  0
 15 16  1  0  0  0
 16 17  1  0  0  0
 16 19  1  0  0  0
 17 18  2  0  0  0
 19 20  1  0  0  0
 20 25  1  0  0  0
 20 21  2  0  0  0
 21 22  1  0  0  0
 22 23  2  0  0  0
 23 24  1  0  0  0
 23 26  1  0  0  0
 24 25  2  0  0  0
 29 30  2  0  0  0
 29 31  1  0  0  0
M  END
> <s_m_entry_id>
105843

> <s_m_entry_name>
PKC-all_decoys.42

> <s_m_Source_Path>
/home/liwei/Desktop/Machine/Decoys/PKC

> <s_m_Source_File>
PKC-all_decoys.sdf

> <i_m_Source_File_Index>
42

$$$$
ZINC01118218
                    3D
 Structure written by MMmdl.
 20 21  0  0  1  0            999 V2000
   -0.8440    9.0830    0.0543 C   0  0  0  0  0  0
   -1.7441    7.9271    0.0531 N   0  0  0  0  0  0
   -3.0928    7.9984    0.0605 C   0  0  0  0  0  0
   -3.5614    6.7279    0.0498 C   0  0  0  0  0  0
   -2.4126    5.9012    0.0456 C   0  0  0  0  0  0
   -1.3640    6.7000    0.0445 N   0  0  0  0  0  0
   -2.3926    4.4245    0.0374 C   0  0  0  0  0  0
   -3.4371    3.8024    0.0390 O   0  0  0  0  0  0
   -1.2164    3.7665    0.0283 N   0  0  0  0  0  0
   -1.1974    2.3657    0.0206 N   0  0  0  0  0  0
   -0.0211    1.7077    0.0114 C   0  0  0  0  0  0
    0.0021   -0.0041    0.0020 S   0  0  0  0  0  0
    1.1368    2.3974    0.0041 N   0  0  0  0  0  0
    2.4152    1.6823   -0.0120 C   0  0  0  0  0  0
    3.5645    2.6923   -0.0175 C   0  0  2  0  0  0
    4.9195    1.9643   -0.1606 C   0  0  0  0  0  0
    5.8773    2.7729    0.7427 C   0  0  0  0  0  0
    4.9878    3.8938    1.3247 C   0  0  0  0  0  0
    3.6431    3.3715    1.2546 O   0  0  0  0  0  0
   -5.5648    6.1152    0.0459 I   0  0  0  0  0  0
  1  2  1  0  0  0
  2  6  1  0  0  0
  2  3  1  0  0  0
  3  4  2  0  0  0
  4  5  1  0  0  0
  4 20  1  0  0  0
  5  6  2  0  0  0
  5  7  1  0  0  0
  7  8  2  0  0  0
  7  9  1  0  0  0
  9 10  1  0  0  0
 10 11  1  0  0  0
 11 12  2  0  0  0
 11 13  1  0  0  0
 13 14  1  0  0  0
 14 15  1  0  0  0
 15 19  1  0  0  0
 15 16  1  0  0  0
 16 17  1  0  0  0
 17 18  1  0  0  0
 18 19  1  0  0  0
M  END
> <s_m_entry_id>
105844

> <s_m_entry_name>
PKC-all_decoys.43

> <s_m_Source_Path>
/home/liwei/Desktop/Machine/Decoys/PKC

> <s_m_Source_File>
PKC-all_decoys.sdf

> <i_m_Source_File_Index>
43

$$$$
ZINC19354136
                    3D
 Structure written by MMmdl.
 34 39  0  0  1  0            999 V2000
   -0.0167    1.3782    0.0096 C   0  0  0  0  0  0
    1.1700    2.0882    0.0021 C   0  0  0  0  0  0
    2.3773    1.4175   -0.0134 C   0  0  0  0  0  0
    2.3989    0.0301   -0.0210 C   0  0  0  0  0  0
    1.2072   -0.6797   -0.0130 C   0  0  0  0  0  0
    0.0021   -0.0041    0.0020 C   0  0  0  0  0  0
    1.2269   -2.1866   -0.0218 C   0  0  2  0  0  0
   -0.0409   -2.7048   -0.5672 N   0  0  0  0  0  0
   -1.1409   -2.8079    0.2425 C   0  0  0  0  0  0
   -1.0234   -3.0263    1.5406 N   0  3  0  0  0  0
    0.2206   -3.0847    2.0736 C   0  0  0  0  0  0
    1.3348   -2.6955    1.3501 N   0  0  0  0  0  0
    2.4407   -2.8791    2.1466 C   0  0  0  0  0  0
    3.8048   -2.6858    1.9714 C   0  0  0  0  0  0
    4.6787   -2.9739    3.0022 C   0  0  0  0  0  0
    4.2021   -3.4588    4.2167 C   0  0  0  0  0  0
    2.8507   -3.6578    4.4077 C   0  0  0  0  0  0
    1.9549   -3.3693    3.3734 C   0  0  0  0  0  0
    0.5947   -3.4625    3.2677 N   0  0  0  0  0  0
    5.0827   -3.7364    5.2233 O   0  0  0  0  0  0
    5.9554   -4.8459    5.0027 C   0  0  0  0  0  0
    7.1778   -4.4204    4.2046 C   0  0  0  0  0  0
    6.8212   -3.9661    2.7979 C   0  0  0  0  0  0
    6.0210   -2.7830    2.8341 O   0  0  0  0  0  0
   -2.3891   -2.6815   -0.3048 N   0  0  0  0  0  0
    3.5855   -0.6321   -0.0368 O   0  0  0  0  0  0
    4.7724    0.1636   -0.0448 C   0  0  0  0  0  0
    5.9807   -0.7369   -0.0620 C   0  0  0  0  0  0
    5.8393   -1.9414   -0.0670 O   0  0  0  0  0  0
    7.2185   -0.2036   -0.0719 N   0  0  0  0  0  0
    7.5328    1.2326   -0.0611 C   0  0  0  0  0  0
    9.0697    1.3656   -0.1051 C   0  0  0  0  0  0
    9.5187    0.0088   -0.7091 C   0  0  0  0  0  0
    8.4814   -0.9639   -0.0890 C   0  0  0  0  0  0
  1  6  2  0  0  0
  1  2  1  0  0  0
  2  3  2  0  0  0
  3  4  1  0  0  0
  4  5  2  0  0  0
  4 26  1  0  0  0
  5  6  1  0  0  0
  5  7  1  0  0  0
  7 12  1  0  0  0
  7  8  1  0  0  0
  8  9  1  0  0  0
  9 10  2  0  0  0
  9 25  1  0  0  0
 10 11  1  0  0  0
 11 19  2  0  0  0
 11 12  1  0  0  0
 12 13  1  0  0  0
 13 18  2  0  0  0
 13 14  1  0  0  0
 14 15  2  0  0  0
 15 24  1  0  0  0
 15 16  1  0  0  0
 16 17  2  0  0  0
 16 20  1  0  0  0
 17 18  1  0  0  0
 18 19  1  0  0  0
 20 21  1  0  0  0
 21 22  1  0  0  0
 22 23  1  0  0  0
 23 24  1  0  0  0
 26 27  1  0  0  0
 27 28  1  0  0  0
 28 29  2  0  0  0
 28 30  1  0  0  0
 30 34  1  0  0  0
 30 31  1  0  0  0
 31 32  1  0  0  0
 32 33  1  0  0  0
 33 34  1  0  0  0
M  CHG  1  10   1
M  END
> <s_m_entry_id>
105845

> <s_m_entry_name>
PKC-all_decoys.44

> <s_m_Source_Path>
/home/liwei/Desktop/Machine/Decoys/PKC

> <s_m_Source_File>
PKC-all_decoys.sdf

> <i_m_Source_File_Index>
44

$$$$
ZINC20800012
                    3D
 Structure written by MMmdl.
 28 31  0  0  1  0            999 V2000
   -1.2639    1.1834    0.1809 C   0  0  0  0  0  0
   -0.5834   -0.1577    0.0842 C   0  0  0  0  0  0
   -0.5681   -0.8402   -1.1167 C   0  0  0  0  0  0
    0.0560   -2.0707   -1.2063 C   0  0  0  0  0  0
    0.6672   -2.6220   -0.0948 C   0  0  0  0  0  0
    0.6558   -1.9446    1.1084 C   0  0  0  0  0  0
    0.0338   -0.7061    1.2006 C   0  0  0  0  0  0
    0.0251   -0.0147    2.4170 N   0  0  0  0  0  0
   -0.0564   -0.6944    3.5780 C   0  0  0  0  0  0
   -0.0401   -1.9072    3.5730 O   0  0  0  0  0  0
   -0.1678    0.0524    4.8822 C   0  0  2  0  0  0
    1.0590    0.9484    5.0626 C   0  0  0  0  0  0
    2.2649    0.1029    5.3775 C   0  0  0  0  0  0
    3.3459    0.4059    4.9190 O   0  0  0  0  0  0
    2.1562   -0.9839    6.1617 N   0  0  0  0  0  0
    0.9149   -1.4154    6.6081 C   0  0  0  0  0  0
   -0.2443   -0.9312    6.0177 C   0  0  0  0  0  0
   -1.4735   -1.3718    6.4949 C   0  0  0  0  0  0
   -1.4957   -2.2573    7.4900 N   0  0  0  0  0  0
   -0.3691   -2.7164    8.0134 C   0  0  0  0  0  0
    0.8168   -2.3117    7.5850 N   0  0  0  0  0  0
   -0.4329   -3.6441    9.0382 N   0  0  0  0  0  0
    0.7923   -4.1776    9.6545 C   0  0  0  0  0  0
    0.6670   -4.0411   11.1762 C   0  0  0  0  0  0
   -0.5652   -4.6282   11.6016 O   0  0  0  0  0  0
   -1.7305   -3.9920   11.0713 C   0  0  0  0  0  0
   -1.7280   -4.1217    9.5481 C   0  0  0  0  0  0
   -2.6545   -0.8981    5.9456 N   0  0  0  0  0  0
  1  2  1  0  0  0
  2  7  2  0  0  0
  2  3  1  0  0  0
  3  4  2  0  0  0
  4  5  1  0  0  0
  5  6  2  0  0  0
  6  7  1  0  0  0
  7  8  1  0  0  0
  8  9  1  0  0  0
  9 10  2  0  0  0
  9 11  1  0  0  0
 11 17  1  0  0  0
 11 12  1  0  0  0
 12 13  1  0  0  0
 13 14  2  0  0  0
 13 15  1  0  0  0
 15 16  1  0  0  0
 16 21  2  0  0  0
 16 17  1  0  0  0
 17 18  2  0  0  0
 18 19  1  0  0  0
 18 28  1  0  0  0
 19 20  2  0  0  0
 20 21  1  0  0  0
 20 22  1  0  0  0
 22 27  1  0  0  0
 22 23  1  0  0  0
 23 24  1  0  0  0
 24 25  1  0  0  0
 25 26  1  0  0  0
 26 27  1  0  0  0
M  END
> <s_m_entry_id>
105846

> <s_m_entry_name>
PKC-all_decoys.45

> <s_m_Source_Path>
/home/liwei/Desktop/Machine/Decoys/PKC

> <s_m_Source_File>
PKC-all_decoys.sdf

> <i_m_Source_File_Index>
45

$$$$
ZINC39206320
                    3D
 Structure written by MMmdl.
 29 32  0  0  1  0            999 V2000
   -0.0163    1.3483    0.0095 C   0  0  0  0  0  0
    1.1564    2.1160    0.0024 C   0  0  0  0  0  0
    2.3818    1.5445   -0.0189 C   0  0  0  0  0  0
    2.4904    0.0806   -0.0345 C   0  0  0  0  0  0
    3.5303   -0.7190   -0.0237 N   0  3  0  0  0  0
    3.0698   -2.0890   -0.1745 C   0  0  2  0  0  0
    1.5607   -2.0383   -0.0138 C   0  0  0  0  0  0
    1.2300   -0.7045   -0.0140 C   0  0  0  0  0  0
    0.0021   -0.0041    0.0020 C   0  0  0  0  0  0
    0.8416   -3.1390    0.2199 N   0  0  0  0  0  0
    1.4730   -4.1020    0.8207 N   0  0  0  0  0  0
    2.7548   -3.9706    1.2416 C   0  0  0  0  0  0
    3.5653   -3.0189    0.8389 N   0  0  0  0  0  0
    3.3731   -5.1500    2.3955 S   0  0  0  0  0  0
    5.0839   -4.6226    2.6879 C   0  0  0  0  0  0
    5.7374   -5.5597    3.6707 C   0  0  0  0  0  0
    5.1107   -6.4915    4.1287 O   0  0  0  0  0  0
    7.0182   -5.3622    4.0407 N   0  0  0  0  0  0
    7.6230   -6.2293    4.9501 C   0  0  0  0  0  0
    8.9439   -6.0163    5.3321 C   0  0  0  0  0  0
    9.5314   -6.8849    6.2361 C   0  0  0  0  0  0
    8.7747   -7.9399    6.7282 C   0  0  0  0  0  0
    7.4692   -8.0906    6.3051 C   0  0  0  0  0  0
    6.9338   -7.2442    5.4461 N   0  0  0  0  0  0
    9.3724   -8.9107    7.7137 C   0  0  0  0  0  0
    9.1470   -8.4516    9.0159 F   0  0  0  0  0  0
    8.7761  -10.1659    7.5520 F   0  0  0  0  0  0
   10.7491   -9.0159    7.4882 F   0  0  0  0  0  0
    9.8430   -4.6803    4.6838 Cl  0  0  0  0  0  0
  1  9  2  0  0  0
  1  2  1  0  0  0
  2  3  2  0  0  0
  3  4  1  0  0  0
  4  8  1  0  0  0
  4  5  2  0  0  0
  5  6  1  0  0  0
  6 13  1  0  0  0
  6  7  1  0  0  0
  7  8  2  0  0  0
  7 10  1  0  0  0
  8  9  1  0  0  0
 10 11  2  0  0  0
 11 12  1  0  0  0
 12 13  2  0  0  0
 12 14  1  0  0  0
 14 15  1  0  0  0
 15 16  1  0  0  0
 16 17  2  0  0  0
 16 18  1  0  0  0
 18 19  1  0  0  0
 19 24  1  0  0  0
 19 20  2  0  0  0
 20 21  1  0  0  0
 20 29  1  0  0  0
 21 22  2  0  0  0
 22 23  1  0  0  0
 22 25  1  0  0  0
 23 24  2  0  0  0
 25 26  1  0  0  0
 25 27  1  0  0  0
 25 28  1  0  0  0
M  CHG  1   5   1
M  END
> <s_m_entry_id>
105847

> <s_m_entry_name>
PKC-all_decoys.46

> <s_m_Source_Path>
/home/liwei/Desktop/Machine/Decoys/PKC

> <s_m_Source_File>
PKC-all_decoys.sdf

> <i_m_Source_File_Index>
46

$$$$
ZINC40570481
                    3D
 Structure written by MMmdl.
 33 35  0  0  1  0            999 V2000
   -5.1130    1.7440    4.3544 C   0  0  0  0  0  0
   -5.1751    0.2667    4.7476 C   0  0  0  0  0  0
   -5.9671   -0.4467    3.7958 O   0  0  0  0  0  0
   -6.1226   -1.7698    3.9983 C   0  0  0  0  0  0
   -5.6000   -2.3032    4.9569 O   0  0  0  0  0  0
   -6.9269   -2.5702    3.0568 C   0  0  0  0  0  0
   -7.5242   -1.9591    1.9502 C   0  0  0  0  0  0
   -8.2743   -2.7093    1.0734 C   0  0  0  0  0  0
   -8.4390   -4.0746    1.2875 C   0  0  0  0  0  0
   -7.8459   -4.6862    2.3880 C   0  0  0  0  0  0
   -7.0893   -3.9432    3.2654 C   0  0  0  0  0  0
   -9.1997   -4.8307    0.3984 N   0  0  0  0  0  0
   -8.8418   -6.0987    0.1145 C   0  0  0  0  0  0
   -7.9120   -6.6147    0.7047 O   0  0  0  0  0  0
   -9.5764   -6.8593   -0.9103 C   0  0  0  0  0  0
   -9.1726   -6.8199   -2.2480 C   0  0  0  0  0  0
   -9.9054   -7.5589   -3.1719 C   0  0  0  0  0  0
  -11.0168   -8.3151   -2.7427 C   0  0  0  0  0  0
  -11.3670   -8.3264   -1.4679 N   0  0  0  0  0  0
  -10.6936   -7.6422   -0.5557 C   0  0  0  0  0  0
  -11.0954   -7.6920    0.7616 N   0  0  0  0  0  0
  -11.7233   -9.0383   -3.6839 N   0  0  0  0  0  0
  -11.3619   -9.0233   -4.9774 C   0  0  0  0  0  0
  -12.0137   -9.6753   -5.7697 O   0  0  0  0  0  0
  -10.3138   -8.3207   -5.4348 N   0  0  0  0  0  0
   -9.5540   -7.5779   -4.6002 C   0  0  0  0  0  0
   -8.6053   -6.9422   -5.0185 O   0  0  0  0  0  0
   -9.9879   -8.3602   -6.8626 C   0  0  0  0  0  0
  -12.8815   -9.8321   -3.2659 C   0  0  0  0  0  0
   -7.9812   -6.0023   -2.6763 C   0  0  0  0  0  0
   -7.4504   -5.2092   -1.4805 C   0  0  0  0  0  0
   -6.8849   -6.9333   -3.1981 C   0  0  0  0  0  0
   -8.3990   -5.0346   -3.7853 C   0  0  0  0  0  0
  1  2  1  0  0  0
  2  3  1  0  0  0
  3  4  1  0  0  0
  4  5  2  0  0  0
  4  6  1  0  0  0
  6 11  2  0  0  0
  6  7  1  0  0  0
  7  8  2  0  0  0
  8  9  1  0  0  0
  9 10  2  0  0  0
  9 12  1  0  0  0
 10 11  1  0  0  0
 12 13  1  0  0  0
 13 14  2  0  0  0
 13 15  1  0  0  0
 15 20  1  0  0  0
 15 16  2  0  0  0
 16 17  1  0  0  0
 16 30  1  0  0  0
 17 26  1  0  0  0
 17 18  2  0  0  0
 18 19  1  0  0  0
 18 22  1  0  0  0
 19 20  2  0  0  0
 20 21  1  0  0  0
 22 23  1  0  0  0
 22 29  1  0  0  0
 23 24  2  0  0  0
 23 25  1  0  0  0
 25 26  1  0  0  0
 25 28  1  0  0  0
 26 27  2  0  0  0
 30 31  1  0  0  0
 30 32  1  0  0  0
 30 33  1  0  0  0
M  END
> <s_m_entry_id>
105848

> <s_m_entry_name>
PKC-all_decoys.47

> <s_m_Source_Path>
/home/liwei/Desktop/Machine/Decoys/PKC

> <s_m_Source_File>
PKC-all_decoys.sdf

> <i_m_Source_File_Index>
47

$$$$
ZINC12521849
                    3D
 Structure written by MMmdl.
 33 36  0  0  1  0            999 V2000
    0.0397    1.4149   -0.0576 C   0  0  0  0  0  0
    1.2292    2.1194   -0.0504 C   0  0  0  0  0  0
    2.4350    1.4442   -0.0547 C   0  0  0  0  0  0
    2.4548    0.0573   -0.0659 C   0  0  0  0  0  0
    1.2591   -0.6509   -0.0707 C   0  0  0  0  0  0
    0.0524    0.0330   -0.0679 C   0  0  0  0  0  0
    1.2557   -2.0120   -0.0738 O   0  0  0  0  0  0
    2.4763   -2.6577   -0.4523 C   0  0  0  0  0  0
    3.6316   -1.9771    0.2942 C   0  0  2  0  0  0
    3.6500   -0.5937   -0.0741 O   0  0  0  0  0  0
    4.9370   -2.6234   -0.0922 C   0  0  0  0  0  0
    5.7755   -1.9849   -0.6924 O   0  0  0  0  0  0
    5.1728   -3.9108    0.2292 N   0  0  0  0  0  0
    6.3864   -4.5116   -0.1300 N   0  0  0  0  0  0
    6.6221   -5.7991    0.1914 C   0  0  0  0  0  0
    5.7836   -6.4376    0.7917 O   0  0  0  0  0  0
    7.9275   -6.4453   -0.1950 C   0  0  0  0  0  0
    7.9387   -7.8401    0.2659 N   0  0  0  0  0  0
    6.9246   -8.6356   -0.4388 C   0  0  0  0  0  0
    6.8438  -10.0294    0.1928 C   0  0  0  0  0  0
    8.1931  -10.6145    0.2079 N   0  0  0  0  0  0
    9.2910   -9.8172    0.7755 C   0  0  0  0  0  0
    9.2755   -8.4317    0.1209 C   0  0  0  0  0  0
    8.4257  -11.8935   -0.3029 C   0  0  0  0  0  0
    9.7224  -12.3857   -0.3839 C   0  0  0  0  0  0
    9.9487  -13.6508   -0.8890 C   0  0  0  0  0  0
    8.8863  -14.4275   -1.3143 C   0  0  0  0  0  0
    7.5946  -13.9406   -1.2355 C   0  0  0  0  0  0
    7.3606  -12.6784   -0.7256 C   0  0  0  0  0  0
    6.4403  -14.7902   -1.7010 C   0  0  0  0  0  0
    6.9230  -16.0179   -2.1668 F   0  0  0  0  0  0
    5.5621  -15.0088   -0.6342 F   0  0  0  0  0  0
    5.7642  -14.1326   -2.7343 F   0  0  0  0  0  0
  1  6  2  0  0  0
  1  2  1  0  0  0
  2  3  2  0  0  0
  3  4  1  0  0  0
  4 10  1  0  0  0
  4  5  2  0  0  0
  5  6  1  0  0  0
  5  7  1  0  0  0
  7  8  1  0  0  0
  8  9  1  0  0  0
  9 10  1  0  0  0
  9 11  1  0  0  0
 11 12  2  0  0  0
 11 13  1  0  0  0
 13 14  1  0  0  0
 14 15  1  0  0  0
 15 16  2  0  0  0
 15 17  1  0  0  0
 17 18  1  0  0  0
 18 23  1  0  0  0
 18 19  1  0  0  0
 19 20  1  0  0  0
 20 21  1  0  0  0
 21 22  1  0  0  0
 21 24  1  0  0  0
 22 23  1  0  0  0
 24 29  1  0  0  0
 24 25  2  0  0  0
 25 26  1  0  0  0
 26 27  2  0  0  0
 27 28  1  0  0  0
 28 29  2  0  0  0
 28 30  1  0  0  0
 30 31  1  0  0  0
 30 32  1  0  0  0
 30 33  1  0  0  0
M  END
> <s_m_entry_id>
105849

> <s_m_entry_name>
PKC-all_decoys.48

> <s_m_Source_Path>
/home/liwei/Desktop/Machine/Decoys/PKC

> <s_m_Source_File>
PKC-all_decoys.sdf

> <i_m_Source_File_Index>
48

$$$$
ZINC61719658
                    3D
 Structure written by MMmdl.
 30 33  0  0  1  0            999 V2000
   -0.0361    1.3887   -0.0063 C   0  0  0  0  0  0
    1.1442    2.1084   -0.0211 C   0  0  0  0  0  0
    2.3595    1.4461   -0.0356 C   0  0  0  0  0  0
    2.3927    0.0603   -0.0353 C   0  0  0  0  0  0
    1.2085   -0.6592   -0.0205 C   0  0  0  0  0  0
   -0.0051    0.0070   -0.0060 C   0  0  0  0  0  0
   -1.2933   -0.7750    0.0100 C   0  0  2  0  0  0
   -2.1188   -0.4236   -1.2290 C   0  0  0  0  0  0
   -2.6820    0.9653   -1.0892 C   0  0  0  0  0  0
   -2.7937    1.6674   -2.0715 O   0  0  0  0  0  0
   -3.0625    1.4380    0.1115 N   0  0  0  0  0  0
   -2.9274    0.6624    1.2506 C   0  0  0  0  0  0
   -2.0752   -0.4283    1.2477 C   0  0  0  0  0  0
   -1.9526   -1.1993    2.4072 C   0  0  0  0  0  0
   -1.2089   -2.1670    2.4364 O   0  0  0  0  0  0
   -2.6739   -0.8511    3.4947 N   0  0  0  0  0  0
   -3.4983    0.2305    3.4483 C   0  0  0  0  0  0
   -3.6161    0.9601    2.3580 N   0  0  0  0  0  0
   -4.2216    0.5685    4.5608 N   0  0  0  0  0  0
   -5.0301    1.7951    4.5839 C   0  0  0  0  0  0
   -6.4643    1.4329    4.9821 C   0  0  0  0  0  0
   -6.4439    0.6685    6.3078 C   0  0  0  0  0  0
   -5.6475   -0.6274    6.1392 C   0  0  0  0  0  0
   -4.2088   -0.2917    5.7519 C   0  0  0  0  0  0
   -7.8558    0.3402    6.7198 C   0  0  0  0  0  0
   -8.7865    0.6835    6.0222 O   0  0  0  0  0  0
   -8.0842   -0.3351    7.8637 N   0  0  0  0  0  0
    1.2382   -2.0099   -0.0206 F   0  0  0  0  0  0
    3.5779   -0.5879   -0.0500 F   0  0  0  0  0  0
    3.5127    2.1499   -0.0505 F   0  0  0  0  0  0
  1  6  2  0  0  0
  1  2  1  0  0  0
  2  3  2  0  0  0
  3  4  1  0  0  0
  3 30  1  0  0  0
  4  5  2  0  0  0
  4 29  1  0  0  0
  5  6  1  0  0  0
  5 28  1  0  0  0
  6  7  1  0  0  0
  7 13  1  0  0  0
  7  8  1  0  0  0
  8  9  1  0  0  0
  9 10  2  0  0  0
  9 11  1  0  0  0
 11 12  1  0  0  0
 12 18  1  0  0  0
 12 13  2  0  0  0
 13 14  1  0  0  0
 14 15  2  0  0  0
 14 16  1  0  0  0
 16 17  1  0  0  0
 17 18  2  0  0  0
 17 19  1  0  0  0
 19 24  1  0  0  0
 19 20  1  0  0  0
 20 21  1  0  0  0
 21 22  1  0  0  0
 22 23  1  0  0  0
 22 25  1  0  0  0
 23 24  1  0  0  0
 25 26  2  0  0  0
 25 27  1  0  0  0
M  END
> <s_m_entry_id>
105850

> <s_m_entry_name>
PKC-all_decoys.49

> <s_m_Source_Path>
/home/liwei/Desktop/Machine/Decoys/PKC

> <s_m_Source_File>
PKC-all_decoys.sdf

> <i_m_Source_File_Index>
49

$$$$
ZINC05275863
                    3D
 Structure written by MMmdl.
 26 29  0  0  1  0            999 V2000
   -6.0904    4.7992    3.8065 C   0  0  0  0  0  0
   -4.6995    5.3086    3.4233 C   0  0  1  0  0  0
   -4.1370    6.2744    4.4706 C   0  0  0  0  0  0
   -3.7839    5.5200    5.7482 C   0  0  0  0  0  0
   -2.6736    4.5074    5.4395 C   0  0  2  0  0  0
   -3.1879    3.4995    4.4207 C   0  0  1  0  0  0
   -3.7128    4.1561    3.1774 C   0  0  2  0  0  0
   -2.5832    4.8144    2.3636 C   0  0  0  0  0  0
   -3.3361    5.7714    1.4107 C   0  0  0  0  0  0
   -4.7101    6.0737    2.0731 C   0  0  1  0  0  0
   -5.8324    5.5710    1.2021 C   0  0  0  0  0  0
   -5.6808    4.5735    0.5372 O   0  0  0  0  0  0
   -4.3492    3.1635    2.3701 O   0  0  0  0  0  0
   -2.1108    2.4807    4.0447 C   0  0  0  0  0  0
   -1.3082    2.0549    5.2750 C   0  0  0  0  0  0
   -2.1635    2.3048    6.5108 C   0  0  2  0  0  0
   -2.2764    3.8142    6.7363 C   0  0  2  0  0  0
   -3.2840    4.0602    7.8579 C   0  0  0  0  0  0
   -2.7282    3.4248    9.1405 C   0  0  0  0  0  0
   -2.5284    1.9235    8.9370 C   0  0  1  0  0  0
   -1.5759    1.6637    7.7640 C   0  0  0  0  0  0
   -1.9786    1.3545   10.1269 O   0  0  0  0  0  0
   -0.9154    4.3493    7.1863 C   0  0  0  0  0  0
   -0.9848    5.7698    7.3264 O   0  0  0  0  0  0
   -3.4659    1.7666    6.2741 O   0  0  0  0  0  0
   -7.0005    6.2312    1.1649 O   0  5  0  0  0  0
  1  2  1  0  0  0
  2  7  1  0  0  0
  2 10  1  0  0  0
  2  3  1  0  0  0
  3  4  1  0  0  0
  4  5  1  0  0  0
  5 17  1  0  0  0
  5  6  1  0  0  0
  6  7  1  0  0  0
  6 14  1  0  0  0
  7  8  1  0  0  0
  7 13  1  0  0  0
  8  9  1  0  0  0
  9 10  1  0  0  0
 10 11  1  0  0  0
 11 12  2  0  0  0
 11 26  1  0  0  0
 14 15  1  0  0  0
 15 16  1  0  0  0
 16 21  1  0  0  0
 16 17  1  0  0  0
 16 25  1  0  0  0
 17 18  1  0  0  0
 17 23  1  0  0  0
 18 19  1  0  0  0
 19 20  1  0  0  0
 20 21  1  0  0  0
 20 22  1  0  0  0
 23 24  1  0  0  0
M  CHG  1  26  -1
M  END
> <s_m_entry_id>
105851

> <s_m_entry_name>
PKC-all_decoys.50

> <s_m_Source_Path>
/home/liwei/Desktop/Machine/Decoys/PKC

> <s_m_Source_File>
PKC-all_decoys.sdf

> <i_m_Source_File_Index>
50

$$$$
ZINC08253645
                    3D
 Structure written by MMmdl.
 22 24  0  0  1  0            999 V2000
   -0.3101    3.1301    4.4563 C   0  0  0  0  0  0
    0.4287    2.8154    5.5799 C   0  0  0  0  0  0
    1.8112    2.8529    5.5334 C   0  0  0  0  0  0
    2.4573    3.2010    4.3602 C   0  0  0  0  0  0
    1.7234    3.5114    3.2322 C   0  0  0  0  0  0
    0.3359    3.4742    3.2760 C   0  0  0  0  0  0
   -0.4102    3.7883    2.1345 N   0  0  0  0  0  0
   -1.2565    2.8648    1.3790 C   0  0  2  0  0  0
   -0.7214    1.4827    1.2573 C   0  0  1  0  0  0
    0.0238    1.1792   -0.0214 C   0  0  0  0  0  0
   -0.7145    1.6939   -1.2395 C   0  0  2  0  0  0
   -1.0103    3.1692   -1.1522 C   0  0  1  0  0  0
   -1.6641    3.6177    0.1334 C   0  0  2  0  0  0
   -1.2121    5.0014    0.4185 N   0  0  0  0  0  0
   -0.4759    4.9921    1.5395 C   0  0  0  0  0  0
    0.3074    6.3841    2.1557 S   0  0  0  0  0  0
    0.2176    3.8840   -1.3055 O   0  0  0  0  0  0
   -1.9467    0.9819   -1.3687 O   0  0  0  0  0  0
    0.2098    1.2358    2.4161 C   0  0  0  0  0  0
    1.4064    1.3709    2.2718 O   0  0  0  0  0  0
   -0.2870    0.8650    3.6128 N   0  0  0  0  0  0
    2.7367    2.4632    6.9495 Cl  0  0  0  0  0  0
  1  6  2  0  0  0
  1  2  1  0  0  0
  2  3  2  0  0  0
  3  4  1  0  0  0
  3 22  1  0  0  0
  4  5  2  0  0  0
  5  6  1  0  0  0
  6  7  1  0  0  0
  7 15  1  0  0  0
  7  8  1  0  0  0
  8 13  1  0  0  0
  8  9  1  0  0  0
  9 10  1  0  0  0
  9 19  1  0  0  0
 10 11  1  0  0  0
 11 12  1  0  0  0
 11 18  1  0  0  0
 12 13  1  0  0  0
 12 17  1  0  0  0
 13 14  1  0  0  0
 14 15  1  0  0  0
 15 16  2  0  0  0
 19 20  2  0  0  0
 19 21  1  0  0  0
M  END
> <s_m_entry_id>
105852

> <s_m_entry_name>
PKC-all_decoys.51

> <s_m_Source_Path>
/home/liwei/Desktop/Machine/Decoys/PKC

> <s_m_Source_File>
PKC-all_decoys.sdf

> <i_m_Source_File_Index>
51

$$$$
ZINC00661019
                    3D
 Structure written by MMmdl.
 32 35  0  0  1  0            999 V2000
   -0.0187    1.5258    0.0104 C   0  0  0  0  0  0
    0.0021   -0.0041    0.0020 C   0  0  0  0  0  0
   -1.3386   -0.4987    0.0122 O   0  0  0  0  0  0
   -1.4984   -1.8492    0.0064 C   0  0  0  0  0  0
   -0.3892   -2.6796   -0.0144 C   0  0  0  0  0  0
   -0.5531   -4.0523   -0.0154 C   0  0  0  0  0  0
   -1.8224   -4.6001   -0.0062 C   0  0  0  0  0  0
   -2.9337   -3.7771    0.0093 C   0  0  0  0  0  0
   -2.7760   -2.4000    0.0157 C   0  0  0  0  0  0
   -3.8678   -1.5890    0.0305 O   0  0  0  0  0  0
   -4.4007   -1.1953   -1.2356 C   0  0  0  0  0  0
   -5.5981   -0.3056   -1.0219 C   0  0  0  0  0  0
   -5.4332    1.0638   -0.9256 C   0  0  0  0  0  0
   -6.5310    1.8806   -0.7305 C   0  0  0  0  0  0
   -7.7945    1.3287   -0.6311 C   0  0  0  0  0  0
   -7.9601   -0.0413   -0.7270 C   0  0  0  0  0  0
   -6.8613   -0.8580   -0.9280 C   0  0  0  0  0  0
   -9.5466   -0.7350   -0.6030 Cl  0  0  0  0  0  0
   -4.8553   -4.6117    0.0225 I   0  0  0  0  0  0
    0.6545   -4.9536   -0.0323 C   0  0  1  0  0  0
    0.6497   -5.8332    1.1913 C   0  0  0  0  0  0
    0.9064   -5.5003    2.5145 C   0  0  0  0  0  0
    0.7870   -6.5877    3.2387 N   0  0  0  0  0  0
    0.4478   -7.6518    2.3884 N   0  0  0  0  0  0
    0.3693   -7.1701    1.1376 C   0  0  0  0  0  0
    0.0767   -7.8110   -0.0213 O   0  0  0  0  0  0
    0.3331   -7.1623   -1.1755 C   0  0  0  0  0  0
    0.6098   -5.8416   -1.2507 C   0  0  0  0  0  0
    0.8704   -5.2639   -2.5348 C   0  0  0  0  0  0
    1.0770   -4.8055   -3.5535 N   0  0  0  0  0  0
    0.3112   -7.8856   -2.3420 N   0  0  0  0  0  0
    1.2609   -4.1289    3.0291 C   0  0  0  0  0  0
  1  2  1  0  0  0
  2  3  1  0  0  0
  3  4  1  0  0  0
  4  9  2  0  0  0
  4  5  1  0  0  0
  5  6  2  0  0  0
  6  7  1  0  0  0
  6 20  1  0  0  0
  7  8  2  0  0  0
  8  9  1  0  0  0
  8 19  1  0  0  0
  9 10  1  0  0  0
 10 11  1  0  0  0
 11 12  1  0  0  0
 12 17  1  0  0  0
 12 13  2  0  0  0
 13 14  1  0  0  0
 14 15  2  0  0  0
 15 16  1  0  0  0
 16 17  2  0  0  0
 16 18  1  0  0  0
 20 28  1  0  0  0
 20 21  1  0  0  0
 21 25  2  0  0  0
 21 22  1  0  0  0
 22 23  2  0  0  0
 22 32  1  0  0  0
 23 24  1  0  0  0
 24 25  1  0  0  0
 25 26  1  0  0  0
 26 27  1  0  0  0
 27 28  2  0  0  0
 27 31  1  0  0  0
 28 29  1  0  0  0
 29 30  3  0  0  0
M  END
> <s_m_entry_id>
105853

> <s_m_entry_name>
PKC-all_decoys.52

> <s_m_Source_Path>
/home/liwei/Desktop/Machine/Decoys/PKC

> <s_m_Source_File>
PKC-all_decoys.sdf

> <i_m_Source_File_Index>
52

$$$$
ZINC03266384
                    3D
 Structure written by MMmdl.
 36 38  0  0  1  0            999 V2000
    5.8593   -0.0533   -4.6480 C   0  0  0  0  0  0
    4.4898    0.4034   -4.2157 C   0  0  0  0  0  0
    3.9871    1.6069   -4.6749 C   0  0  0  0  0  0
    2.7323    2.0283   -4.2806 C   0  0  0  0  0  0
    1.9751    1.2417   -3.4224 C   0  0  0  0  0  0
    2.4849    0.0358   -2.9592 C   0  0  0  0  0  0
    3.7384   -0.3822   -3.3611 C   0  0  0  0  0  0
    0.7037    1.6660   -3.0207 N   0  0  0  0  0  0
   -0.2677    0.7603   -2.7914 C   0  0  0  0  0  0
   -0.0691   -0.4137   -3.0224 O   0  0  0  0  0  0
   -1.6007    1.2063   -2.2481 C   0  0  0  0  0  0
   -2.4769    0.0431   -2.0883 N   0  0  0  0  0  0
   -3.2616   -0.4446   -3.2252 C   0  0  0  0  0  0
   -4.5499    0.3320   -3.3164 C   0  0  0  0  0  0
   -4.7890    1.2067   -2.5109 O   0  0  0  0  0  0
   -5.4364    0.0545   -4.2929 N   0  0  0  0  0  0
   -6.5818    0.8440   -4.4432 C   0  0  0  0  0  0
   -7.7665    0.2736   -4.8898 C   0  0  0  0  0  0
   -8.8964    1.0547   -5.0329 C   0  0  0  0  0  0
   -8.8463    2.4056   -4.7415 C   0  0  0  0  0  0
   -7.6669    2.9776   -4.3011 C   0  0  0  0  0  0
   -6.5347    2.2010   -4.1514 C   0  0  0  0  0  0
  -10.0798    3.2560   -4.9038 C   0  0  0  0  0  0
   -2.5802   -0.7205   -0.6225 S   0  0  0  0  0  0
   -2.8644   -2.0858   -0.8950 O   0  0  0  0  0  0
   -1.4442   -0.3139    0.1282 O   0  0  0  0  0  0
   -3.9915   -0.0680    0.2065 C   0  0  0  0  0  0
   -3.8596    1.0366    1.0279 C   0  0  0  0  0  0
   -4.9648    1.5533    1.6753 C   0  0  0  0  0  0
   -6.2075    0.9563    1.5086 C   0  0  0  0  0  0
   -6.3355   -0.1561    0.6872 C   0  0  0  0  0  0
   -5.2274   -0.6651    0.0388 C   0  0  0  0  0  0
   -7.3283    1.4747    2.1666 N   0  0  0  0  0  0
   -8.3110    0.6485    2.5767 C   0  0  0  0  0  0
   -8.1813   -0.5520    2.4621 O   0  0  0  0  0  0
   -9.5710    1.2163    3.1775 C   0  0  0  0  0  0
  1  2  1  0  0  0
  2  7  2  0  0  0
  2  3  1  0  0  0
  3  4  2  0  0  0
  4  5  1  0  0  0
  5  6  2  0  0  0
  5  8  1  0  0  0
  6  7  1  0  0  0
  8  9  1  0  0  0
  9 10  2  0  0  0
  9 11  1  0  0  0
 11 12  1  0  0  0
 12 13  1  0  0  0
 12 24  1  0  0  0
 13 14  1  0  0  0
 14 15  2  0  0  0
 14 16  1  0  0  0
 16 17  1  0  0  0
 17 22  1  0  0  0
 17 18  2  0  0  0
 18 19  1  0  0  0
 19 20  2  0  0  0
 20 21  1  0  0  0
 20 23  1  0  0  0
 21 22  2  0  0  0
 24 25  2  0  0  0
 24 26  2  0  0  0
 24 27  1  0  0  0
 27 32  1  0  0  0
 27 28  2  0  0  0
 28 29  1  0  0  0
 29 30  2  0  0  0
 30 31  1  0  0  0
 30 33  1  0  0  0
 31 32  2  0  0  0
 33 34  1  0  0  0
 34 35  2  0  0  0
 34 36  1  0  0  0
M  END
> <s_m_entry_id>
105854

> <s_m_entry_name>
PKC-all_decoys.53

> <s_m_Source_Path>
/home/liwei/Desktop/Machine/Decoys/PKC

> <s_m_Source_File>
PKC-all_decoys.sdf

> <i_m_Source_File_Index>
53

$$$$
ZINC13592739
                    3D
 Structure written by MMmdl.
 37 40  0  0  1  0            999 V2000
   -0.0184    1.5028    0.0103 C   0  0  0  0  0  0
    0.0021   -0.0041    0.0020 C   0  0  0  0  0  0
    0.0058   -0.6924   -1.2004 C   0  0  0  0  0  0
    0.0252   -2.0849   -1.2180 C   0  0  0  0  0  0
    0.0402   -2.7903   -0.0485 C   0  0  0  0  0  0
    0.0367   -2.1114    1.1720 C   0  0  0  0  0  0
    0.0230   -0.7060    1.1979 C   0  0  0  0  0  0
    0.0244   -0.0523    2.3795 O   0  0  0  0  0  0
    0.0439   -0.7058    3.5517 C   0  0  0  0  0  0
    0.0441   -0.0642    4.5876 O   0  0  0  0  0  0
    0.0636   -2.1093    3.6174 C   0  0  0  0  0  0
    0.0526   -2.8460    2.4480 C   0  0  0  0  0  0
    0.0729   -4.3251    2.4773 C   0  0  0  0  0  0
    1.1765   -5.0208    1.9814 C   0  0  0  0  0  0
    1.1894   -6.3999    2.0120 C   0  0  0  0  0  0
    0.1113   -7.0934    2.5329 C   0  0  0  0  0  0
   -0.9859   -6.4097    3.0262 C   0  0  0  0  0  0
   -1.0090   -5.0305    3.0062 C   0  0  0  0  0  0
   -0.0099   -0.0041   -2.3705 O   0  0  0  0  0  0
   -0.0050   -0.7726   -3.5753 C   0  0  0  0  0  0
   -0.0242    0.1549   -4.7629 C   0  0  0  0  0  0
   -0.0405    1.3558   -4.5941 O   0  0  0  0  0  0
   -0.0232   -0.3500   -6.0124 N   0  0  0  0  0  0
   -0.0419    0.5517   -7.1669 C   0  0  0  0  0  0
   -0.0367   -0.2711   -8.4568 C   0  0  2  0  0  0
    1.2813   -1.0406   -8.5655 C   0  0  0  0  0  0
    1.2865   -1.8634   -9.8555 C   0  0  0  0  0  0
    1.1414   -0.9281  -11.0576 C   0  0  2  0  0  0
   -0.1765   -0.1586  -10.9489 C   0  0  0  0  0  0
   -0.1818    0.6642   -9.6589 C   0  0  0  0  0  0
    1.1466   -1.7385  -12.3281 C   0  0  0  0  0  0
    1.2556   -2.9454  -12.2771 O   0  0  0  0  0  0
    1.0300   -1.1222  -13.5210 N   0  0  0  0  0  0
    1.0351   -1.9101  -14.7561 C   0  0  0  0  0  0
    0.8899   -0.9748  -15.9582 C   0  0  0  0  0  0
    0.8952   -1.7976  -17.2481 C   0  0  0  0  0  0
    0.7596   -0.9240  -18.3709 O   0  0  0  0  0  0
  1  2  1  0  0  0
  2  7  2  0  0  0
  2  3  1  0  0  0
  3  4  2  0  0  0
  3 19  1  0  0  0
  4  5  1  0  0  0
  5  6  2  0  0  0
  6 12  1  0  0  0
  6  7  1  0  0  0
  7  8  1  0  0  0
  8  9  1  0  0  0
  9 10  2  0  0  0
  9 11  1  0  0  0
 11 12  2  0  0  0
 12 13  1  0  0  0
 13 18  1  0  0  0
 13 14  2  0  0  0
 14 15  1  0  0  0
 15 16  2  0  0  0
 16 17  1  0  0  0
 17 18  2  0  0  0
 19 20  1  0  0  0
 20 21  1  0  0  0
 21 22  2  0  0  0
 21 23  1  0  0  0
 23 24  1  0  0  0
 24 25  1  0  0  0
 25 30  1  0  0  0
 25 26  1  0  0  0
 26 27  1  0  0  0
 27 28  1  0  0  0
 28 29  1  0  0  0
 28 31  1  0  0  0
 29 30  1  0  0  0
 31 32  2  0  0  0
 31 33  1  0  0  0
 33 34  1  0  0  0
 34 35  1  0  0  0
 35 36  1  0  0  0
 36 37  1  0  0  0
M  END
> <s_m_entry_id>
105855

> <s_m_entry_name>
PKC-all_decoys.54

> <s_m_Source_Path>
/home/liwei/Desktop/Machine/Decoys/PKC

> <s_m_Source_File>
PKC-all_decoys.sdf

> <i_m_Source_File_Index>
54

$$$$
ZINC33356163
                    3D
 Structure written by MMmdl.
 35 38  0  0  1  0            999 V2000
   -6.3333    1.3298   -3.7823 C   0  0  0  0  0  0
   -4.8831    1.8159   -3.7423 C   0  0  0  0  0  0
   -4.2189    1.2618   -2.5760 O   0  0  0  0  0  0
   -2.9312    1.5937   -2.3930 C   0  0  0  0  0  0
   -2.3774    2.3230   -3.1812 O   0  0  0  0  0  0
   -2.1763    1.0566   -1.2045 C   0  0  0  0  0  0
   -0.7387    1.5832   -1.2308 C   0  0  0  0  0  0
    0.0055    1.0828    0.0093 C   0  0  0  0  0  0
   -0.6846    1.5513    1.2178 N   0  0  0  0  0  0
   -2.0514    1.0198    1.2889 C   0  0  0  0  0  0
   -2.8570    1.5183    0.0870 C   0  0  0  0  0  0
    0.0419    1.2232    2.3699 C   0  0  0  0  0  0
    0.3106   -0.1039    2.6640 C   0  0  0  0  0  0
    1.0348   -0.4265    3.8020 C   0  0  0  0  0  0
    1.4823    0.5839    4.6554 C   0  0  0  0  0  0
    1.2081    1.9112    4.3635 C   0  0  0  0  0  0
    0.4892    2.2331    3.2231 C   0  0  0  0  0  0
    0.2106    3.5749    2.9265 N   0  0  0  0  0  0
   -0.0244    4.4507    3.9236 C   0  0  0  0  0  0
    0.0851    4.0971    5.0817 O   0  0  0  0  0  0
   -0.4153    5.8406    3.6093 C   0  0  0  0  0  0
   -0.5419    6.2494    2.2807 C   0  0  0  0  0  0
   -0.9088    7.5528    1.9940 C   0  0  0  0  0  0
   -1.1502    8.4505    3.0257 C   0  0  0  0  0  0
   -1.0256    8.0485    4.3421 C   0  0  0  0  0  0
   -0.6652    6.7489    4.6405 C   0  0  0  0  0  0
   -0.5032    6.2018    6.4434 Br  0  0  0  0  0  0
   -1.0335    7.9544    0.7014 O   0  0  0  0  0  0
   -1.4154    9.3132    0.4782 C   0  0  0  0  0  0
    2.1642   -0.0432    5.6989 N   0  0  0  0  0  0
    2.1318   -1.3724    5.4881 C   0  0  0  0  0  0
    2.6356   -2.2094    6.2139 O   0  0  0  0  0  0
    1.4583   -1.6357    4.3526 N   0  0  0  0  0  0
    1.2124   -2.9661    3.7908 C   0  0  0  0  0  0
    2.8055    0.6301    6.8310 C   0  0  0  0  0  0
  1  2  1  0  0  0
  2  3  1  0  0  0
  3  4  1  0  0  0
  4  5  2  0  0  0
  4  6  1  0  0  0
  6 11  1  0  0  0
  6  7  1  0  0  0
  7  8  1  0  0  0
  8  9  1  0  0  0
  9 10  1  0  0  0
  9 12  1  0  0  0
 10 11  1  0  0  0
 12 17  1  0  0  0
 12 13  2  0  0  0
 13 14  1  0  0  0
 14 33  1  0  0  0
 14 15  2  0  0  0
 15 16  1  0  0  0
 15 30  1  0  0  0
 16 17  2  0  0  0
 17 18  1  0  0  0
 18 19  1  0  0  0
 19 20  2  0  0  0
 19 21  1  0  0  0
 21 26  1  0  0  0
 21 22  2  0  0  0
 22 23  1  0  0  0
 23 24  2  0  0  0
 23 28  1  0  0  0
 24 25  1  0  0  0
 25 26  2  0  0  0
 26 27  1  0  0  0
 28 29  1  0  0  0
 30 31  1  0  0  0
 30 35  1  0  0  0
 31 32  2  0  0  0
 31 33  1  0  0  0
 33 34  1  0  0  0
M  END
> <s_m_entry_id>
105856

> <s_m_entry_name>
PKC-all_decoys.55

> <s_m_Source_Path>
/home/liwei/Desktop/Machine/Decoys/PKC

> <s_m_Source_File>
PKC-all_decoys.sdf

> <i_m_Source_File_Index>
55

$$$$
ZINC08686506
                    3D
 Structure written by MMmdl.
 35 37  0  0  1  0            999 V2000
   -0.0526    1.5054    0.0444 C   0  0  0  0  0  0
   -0.0546    0.0766    0.0222 O   0  0  0  0  0  0
    0.5770   -0.5579    1.0468 C   0  0  0  0  0  0
    1.1760    0.1789    2.0470 C   0  0  0  0  0  0
    1.8257   -0.4736    3.1011 C   0  0  0  0  0  0
    1.8637   -1.8773    3.1336 C   0  0  0  0  0  0
    1.2580   -2.6067    2.1224 C   0  0  0  0  0  0
    0.6120   -1.9527    1.0856 C   0  0  0  0  0  0
    0.0153   -2.6716    0.1002 O   0  0  0  0  0  0
    0.0882   -4.0952    0.2007 C   0  0  0  0  0  0
    2.5087   -2.5345    4.1789 N   0  0  0  0  0  0
    3.1656   -3.6882    3.9463 C   0  0  0  0  0  0
    3.2774   -4.1061    2.8087 O   0  0  0  0  0  0
    3.7452   -4.4393    5.0630 C   0  0  0  0  0  0
    4.4559   -5.6300    5.0403 C   0  0  0  0  0  0
    4.8778   -6.0966    6.2621 C   0  0  0  0  0  0
    4.5814   -5.3848    7.3777 C   0  0  0  0  0  0
    3.7273   -4.0567    6.8041 S   0  0  0  0  0  0
    2.4666    0.3076    4.1702 C   0  0  0  0  0  0
    2.9513   -0.2592    5.1300 O   0  0  0  0  0  0
    2.5162    1.6520    4.0856 O   0  0  0  0  0  0
    3.1535    2.3466    5.1595 C   0  0  0  0  0  0
    3.1134    3.8292    4.8928 C   0  0  0  0  0  0
    2.5908    4.2495    3.8829 O   0  0  0  0  0  0
    3.6586    4.6880    5.7770 N   0  0  0  0  0  0
    3.6228    6.0140    5.5385 C   0  0  0  0  0  0
    3.0988    6.4353    4.5260 O   0  0  0  0  0  0
    4.1679    6.8727    6.4226 N   0  0  0  0  0  0
    4.1290    8.3141    6.1633 C   0  0  0  0  0  0
    4.8011    9.0466    7.2959 C   0  0  0  0  0  0
    4.0623    9.4524    8.3916 C   0  0  0  0  0  0
    4.6788   10.1243    9.4305 C   0  0  0  0  0  0
    6.0342   10.3900    9.3740 C   0  0  0  0  0  0
    6.7732    9.9834    8.2788 C   0  0  0  0  0  0
    6.1575    9.3077    7.2418 C   0  0  0  0  0  0
  1  2  1  0  0  0
  2  3  1  0  0  0
  3  8  2  0  0  0
  3  4  1  0  0  0
  4  5  2  0  0  0
  5  6  1  0  0  0
  5 19  1  0  0  0
  6  7  2  0  0  0
  6 11  1  0  0  0
  7  8  1  0  0  0
  8  9  1  0  0  0
  9 10  1  0  0  0
 11 12  1  0  0  0
 12 13  2  0  0  0
 12 14  1  0  0  0
 14 18  1  0  0  0
 14 15  2  0  0  0
 15 16  1  0  0  0
 16 17  2  0  0  0
 17 18  1  0  0  0
 19 20  2  0  0  0
 19 21  1  0  0  0
 21 22  1  0  0  0
 22 23  1  0  0  0
 23 24  2  0  0  0
 23 25  1  0  0  0
 25 26  1  0  0  0
 26 27  2  0  0  0
 26 28  1  0  0  0
 28 29  1  0  0  0
 29 30  1  0  0  0
 30 35  1  0  0  0
 30 31  2  0  0  0
 31 32  1  0  0  0
 32 33  2  0  0  0
 33 34  1  0  0  0
 34 35  2  0  0  0
M  END
> <s_m_entry_id>
105857

> <s_m_entry_name>
PKC-all_decoys.56

> <s_m_Source_Path>
/home/liwei/Desktop/Machine/Decoys/PKC

> <s_m_Source_File>
PKC-all_decoys.sdf

> <i_m_Source_File_Index>
56

$$$$
ZINC02075945
                    3D
 Structure written by MMmdl.
 41 46  0  0  1  0            999 V2000
   -9.5599   -2.3813    1.7582 C   0  0  0  0  0  0
   -8.2908   -2.6563    0.9934 C   0  0  0  0  0  0
   -8.0194   -3.9249    0.5657 C   0  0  0  0  0  0
   -6.7365   -4.1608   -0.1982 C   0  0  1  0  0  0
   -5.8574   -2.9814   -0.4289 N   0  0  0  0  0  0
   -4.6873   -2.9756   -1.0778 C   0  0  0  0  0  0
   -4.2413   -4.0056   -1.5509 O   0  0  0  0  0  0
   -3.9705   -1.7561   -1.2101 C   0  0  0  0  0  0
   -2.7766   -1.5174   -1.8215 C   0  0  0  0  0  0
   -2.2000   -0.1738   -1.8003 C   0  0  0  0  0  0
   -2.8536    0.9935   -1.5170 C   0  0  0  0  0  0
   -1.9847    2.0334   -1.5914 N   0  0  0  0  0  0
   -0.7260    1.5856   -1.9368 C   0  0  0  0  0  0
   -0.7978    0.1906   -2.0800 C   0  0  0  0  0  0
    0.3390   -0.5357   -2.4232 C   0  0  0  0  0  0
    1.5343    0.1212   -2.6216 C   0  0  0  0  0  0
    1.6071    1.4991   -2.4811 C   0  0  0  0  0  0
    0.4893    2.2303   -2.1416 C   0  0  0  0  0  0
   -2.3357    3.4348   -1.3482 C   0  0  0  0  0  0
   -2.6515    4.0906   -2.6276 C   0  0  0  0  0  0
   -2.9033    4.6137   -3.6481 C   0  0  0  0  0  0
   -5.0512   -0.6213   -0.3527 S   0  0  0  0  0  0
   -6.3206   -1.7916    0.0882 C   0  0  0  0  0  0
   -7.4462   -1.6630    0.7408 N   0  0  0  0  0  0
   -5.9364   -5.1964    0.5492 C   0  0  0  0  0  0
   -5.1710   -4.8239    1.6389 C   0  0  0  0  0  0
   -4.4397   -5.7723    2.3296 C   0  0  0  0  0  0
   -4.4638   -7.0935    1.9259 C   0  0  0  0  0  0
   -5.2266   -7.4688    0.8299 C   0  0  0  0  0  0
   -5.9638   -6.5159    0.1416 C   0  0  0  0  0  0
   -5.2523   -8.7677    0.4311 O   0  0  0  0  0  0
   -4.4690   -9.6939    1.1866 C   0  0  0  0  0  0
   -8.9086   -4.9821    0.8291 C   0  0  0  0  0  0
   -9.6381   -5.3992   -0.0538 O   0  0  0  0  0  0
   -8.9540   -5.5341    2.0578 N   0  0  0  0  0  0
   -9.7225   -6.6807    2.2812 C   0  0  0  0  0  0
   -9.8867   -7.6167    1.2682 C   0  0  0  0  0  0
  -10.6425   -8.7505    1.4936 C   0  0  0  0  0  0
  -11.2440   -8.9492    2.7228 C   0  0  0  0  0  0
  -11.0868   -8.0167    3.7318 C   0  0  0  0  0  0
  -10.3281   -6.8834    3.5146 C   0  0  0  0  0  0
  1  2  1  0  0  0
  2 24  1  0  0  0
  2  3  2  0  0  0
  3  4  1  0  0  0
  3 33  1  0  0  0
  4  5  1  0  0  0
  4 25  1  0  0  0
  5 23  1  0  0  0
  5  6  1  0  0  0
  6  7  2  0  0  0
  6  8  1  0  0  0
  8  9  2  0  0  0
  8 22  1  0  0  0
  9 10  1  0  0  0
 10 14  1  0  0  0
 10 11  2  0  0  0
 11 12  1  0  0  0
 12 13  1  0  0  0
 12 19  1  0  0  0
 13 18  1  0  0  0
 13 14  2  0  0  0
 14 15  1  0  0  0
 15 16  2  0  0  0
 16 17  1  0  0  0
 17 18  2  0  0  0
 19 20  1  0  0  0
 20 21  3  0  0  0
 22 23  1  0  0  0
 23 24  2  0  0  0
 25 30  1  0  0  0
 25 26  2  0  0  0
 26 27  1  0  0  0
 27 28  2  0  0  0
 28 29  1  0  0  0
 29 30  2  0  0  0
 29 31  1  0  0  0
 31 32  1  0  0  0
 33 34  2  0  0  0
 33 35  1  0  0  0
 35 36  1  0  0  0
 36 41  1  0  0  0
 36 37  2  0  0  0
 37 38  1  0  0  0
 38 39  2  0  0  0
 39 40  1  0  0  0
 40 41  2  0  0  0
M  END
> <s_m_entry_id>
105858

> <s_m_entry_name>
PKC-all_decoys.57

> <s_m_Source_Path>
/home/liwei/Desktop/Machine/Decoys/PKC

> <s_m_Source_File>
PKC-all_decoys.sdf

> <i_m_Source_File_Index>
57

$$$$
ZINC59603543
                    3D
 Structure written by MMmdl.
 40 43  0  0  1  0            999 V2000
    0.7365    1.5343   -0.0967 C   0  0  0  0  0  0
    0.5994    0.0105   -0.1092 C   0  0  0  0  0  0
    1.2027   -0.5124   -1.2944 O   0  0  0  0  0  0
    1.1673   -1.8620   -1.4617 C   0  0  0  0  0  0
    0.5599   -2.6624   -0.5083 C   0  0  0  0  0  0
    0.5234   -4.0388   -0.6791 C   0  0  0  0  0  0
    1.0976   -4.6157   -1.8096 C   0  0  0  0  0  0
    1.7047   -3.8155   -2.7627 C   0  0  0  0  0  0
    1.7365   -2.4383   -2.5943 C   0  0  0  0  0  0
    2.3468   -1.6274   -3.5623 N   0  0  0  0  0  0
    2.2843   -1.9693   -4.8644 C   0  0  0  0  0  0
    1.6175   -2.9219   -5.2101 O   0  0  0  0  0  0
    3.0429   -1.1683   -5.8910 C   0  0  0  0  0  0
    2.8032   -1.7625   -7.2804 C   0  0  0  0  0  0
    3.5407   -0.9837   -8.2784 N   0  0  0  0  0  0
    3.0467    0.0877   -8.9248 C   0  0  0  0  0  0
    1.9360    0.5556   -8.7756 O   0  0  0  0  0  0
    4.0824    0.6006   -9.8463 C   0  0  0  0  0  0
    4.1424    1.6537  -10.7449 C   0  0  0  0  0  0
    5.2994    1.8663  -11.4780 C   0  0  0  0  0  0
    6.3924    1.0352  -11.3189 C   0  0  0  0  0  0
    6.3469   -0.0220  -10.4237 C   0  0  0  0  0  0
    5.1971   -0.2465   -9.6837 C   0  0  0  0  0  0
    4.8029   -1.2424   -8.6649 C   0  0  0  0  0  0
    5.5011   -2.1447   -8.2483 O   0  0  0  0  0  0
    7.5216   -0.9073  -10.2586 N   0  3  0  0  0  0
    8.5237   -0.7088  -10.9052 O   0  0  0  0  0  0
    7.4791   -1.8287   -9.4770 O   0  5  0  0  0  0
    1.0623   -5.9654   -1.9771 O   0  0  0  0  0  0
    1.6705   -6.4886   -3.1596 C   0  0  0  0  0  0
    1.5327   -8.0123   -3.1726 C   0  0  0  0  0  0
   -0.0908   -4.8489    0.2859 N   0  0  0  0  0  0
   -1.0596   -4.3417    1.0737 C   0  0  0  0  0  0
   -1.3522   -3.1643    0.9959 O   0  0  0  0  0  0
   -1.7664   -5.2172    2.0324 C   0  0  0  0  0  0
   -1.4290   -6.5682    2.1283 C   0  0  0  0  0  0
   -2.0926   -7.3798    3.0251 C   0  0  0  0  0  0
   -3.0906   -6.8572    3.8284 C   0  0  0  0  0  0
   -3.4300   -5.5189    3.7383 C   0  0  0  0  0  0
   -2.7703   -4.6951    2.8498 C   0  0  0  0  0  0
  1  2  1  0  0  0
  2  3  1  0  0  0
  3  4  1  0  0  0
  4  9  2  0  0  0
  4  5  1  0  0  0
  5  6  2  0  0  0
  6  7  1  0  0  0
  6 32  1  0  0  0
  7  8  2  0  0  0
  7 29  1  0  0  0
  8  9  1  0  0  0
  9 10  1  0  0  0
 10 11  1  0  0  0
 11 12  2  0  0  0
 11 13  1  0  0  0
 13 14  1  0  0  0
 14 15  1  0  0  0
 15 24  1  0  0  0
 15 16  1  0  0  0
 16 17  2  0  0  0
 16 18  1  0  0  0
 18 23  2  0  0  0
 18 19  1  0  0  0
 19 20  2  0  0  0
 20 21  1  0  0  0
 21 22  2  0  0  0
 22 23  1  0  0  0
 22 26  1  0  0  0
 23 24  1  0  0  0
 24 25  2  0  0  0
 26 27  2  0  0  0
 26 28  1  0  0  0
 29 30  1  0  0  0
 30 31  1  0  0  0
 32 33  1  0  0  0
 33 34  2  0  0  0
 33 35  1  0  0  0
 35 40  1  0  0  0
 35 36  2  0  0  0
 36 37  1  0  0  0
 37 38  2  0  0  0
 38 39  1  0  0  0
 39 40  2  0  0  0
M  CHG  2  26   1  28  -1
M  END
> <s_m_entry_id>
105859

> <s_m_entry_name>
PKC-all_decoys.58

> <s_m_Source_Path>
/home/liwei/Desktop/Machine/Decoys/PKC

> <s_m_Source_File>
PKC-all_decoys.sdf

> <i_m_Source_File_Index>
58

$$$$
ZINC77257706
                    3D
 Structure written by MMmdl.
 50 55  0  0  1  0            999 V2000
   -3.0726   -0.0428   -0.0739 C   0  0  0  0  0  0
   -2.4385   -1.3948    0.1287 C   0  0  0  0  0  0
   -2.0607   -2.2427   -0.8582 C   0  0  0  0  0  0
   -1.5177   -3.3830   -0.2588 C   0  0  0  0  0  0
   -1.5830   -3.1903    1.1061 C   0  0  0  0  0  0
   -2.1500   -1.9542    1.3225 N   0  0  0  0  0  0
   -1.1277   -4.1271    2.1362 C   0  0  0  0  0  0
   -0.6364   -5.1923    1.8150 O   0  0  0  0  0  0
   -1.2534   -3.8084    3.4408 O   0  0  0  0  0  0
   -0.7884   -4.7690    4.3911 C   0  0  0  0  0  0
   -1.0155   -4.2278    5.8268 C   0  0  2  0  0  0
   -0.4996   -5.2641    6.7998 C   0  0  1  0  0  0
    1.0188   -5.4140    6.7572 C   0  0  0  0  0  0
    1.3926   -6.7089    7.4821 C   0  0  0  0  0  0
    0.9430   -6.6703    8.9470 C   0  0  2  0  0  0
   -0.5302   -6.3112    9.0531 C   0  0  2  0  0  0
   -0.9581   -5.0891    8.2436 C   0  0  2  0  0  0
   -2.4948   -5.0186    8.2517 C   0  0  0  0  0  0
   -2.9577   -3.8329    7.4096 C   0  0  0  0  0  0
   -2.5212   -4.0037    5.9614 C   0  0  1  0  0  0
   -2.8861   -2.8345    5.2166 O   0  0  0  0  0  0
   -4.1342   -2.7904    4.7247 C   0  0  0  0  0  0
   -4.9078   -3.6887    4.9581 O   0  0  0  0  0  0
   -4.5708   -1.6203    3.8813 C   0  0  0  0  0  0
   -0.4167   -3.8147    8.8830 C   0  0  0  0  0  0
   -0.9826   -6.2174   10.5032 C   0  0  0  0  0  0
    0.0303   -5.5542   11.3823 C   0  0  0  0  0  0
    1.2556   -5.3305   11.0398 C   0  0  0  0  0  0
    1.8442   -5.7045    9.7143 C   0  0  1  0  0  0
    3.1683   -6.3760    9.9724 C   0  0  0  0  0  0
    3.4801   -7.1449   11.0179 C   0  0  0  0  0  0
    4.8726   -7.5962   10.8783 C   0  0  0  0  0  0
    5.4581   -8.3118   11.6667 O   0  0  0  0  0  0
    5.4004   -7.0976    9.7455 O   0  0  0  0  0  0
    4.3957   -6.3138    9.0943 C   0  0  2  0  0  0
    4.8395   -4.9614    8.9674 O   0  0  0  0  0  0
    2.6462   -7.4590   12.0452 O   0  5  0  0  0  0
    2.1534   -4.6470   12.0398 C   0  0  0  0  0  0
    1.1522   -8.0896    9.5343 C   0  0  0  0  0  0
   -0.2753   -2.8947    5.9174 C   0  0  0  0  0  0
    1.0954   -3.0858    5.5612 O   0  0  0  0  0  0
    1.9073   -1.9219    5.7291 C   0  0  1  0  0  0
    3.3841   -2.3090    5.6161 C   0  0  0  0  0  0
    3.6525   -2.8647    4.2141 C   0  0  0  0  0  0
    3.2453   -1.8159    3.1746 C   0  0  2  0  0  0
    1.7738   -1.4478    3.3819 C   0  0  1  0  0  0
    1.5873   -0.9673    4.7149 O   0  0  0  0  0  0
    1.3755   -0.3570    2.3858 C   0  0  0  0  0  0
    3.4248   -2.3502    1.8615 O   0  0  0  0  0  0
    4.7207   -2.1111    1.3088 C   0  0  0  0  0  0
  1  2  1  0  0  0
  2  6  1  0  0  0
  2  3  2  0  0  0
  3  4  1  0  0  0
  4  5  2  0  0  0
  5  6  1  0  0  0
  5  7  1  0  0  0
  7  8  2  0  0  0
  7  9  1  0  0  0
  9 10  1  0  0  0
 10 11  1  0  0  0
 11 20  1  0  0  0
 11 12  1  0  0  0
 11 40  1  0  0  0
 12 17  1  0  0  0
 12 13  1  0  0  0
 13 14  1  0  0  0
 14 15  1  0  0  0
 15 29  1  0  0  0
 15 16  1  0  0  0
 15 39  1  0  0  0
 16 17  1  0  0  0
 16 26  1  0  0  0
 17 18  1  0  0  0
 17 25  1  0  0  0
 18 19  1  0  0  0
 19 20  1  0  0  0
 20 21  1  0  0  0
 21 22  1  0  0  0
 22 23  2  0  0  0
 22 24  1  0  0  0
 26 27  1  0  0  0
 27 28  2  0  0  0
 28 29  1  0  0  0
 28 38  1  0  0  0
 29 30  1  0  0  0
 30 35  1  0  0  0
 30 31  2  0  0  0
 31 32  1  0  0  0
 31 37  1  0  0  0
 32 33  2  0  0  0
 32 34  1  0  0  0
 34 35  1  0  0  0
 35 36  1  0  0  0
 40 41  1  0  0  0
 41 42  1  0  0  0
 42 47  1  0  0  0
 42 43  1  0  0  0
 43 44  1  0  0  0
 44 45  1  0  0  0
 45 46  1  0  0  0
 45 49  1  0  0  0
 46 47  1  0  0  0
 46 48  1  0  0  0
 49 50  1  0  0  0
M  CHG  1  37  -1
M  END
> <s_m_entry_id>
105860

> <s_m_entry_name>
PKC-all_decoys.59

> <s_m_Source_Path>
/home/liwei/Desktop/Machine/Decoys/PKC

> <s_m_Source_File>
PKC-all_decoys.sdf

> <i_m_Source_File_Index>
59

$$$$
ZINC20546646
                    3D
 Structure written by MMmdl.
 37 42  0  0  1  0            999 V2000
    1.3199    1.3343   -7.6054 C   0  0  0  0  0  0
    1.2462    1.2433   -6.0799 C   0  0  0  0  0  0
    1.5211   -0.0975   -5.6689 O   0  0  0  0  0  0
    1.4958   -0.3492   -4.3442 C   0  0  0  0  0  0
    1.2470    0.5463   -3.5597 O   0  0  0  0  0  0
    1.7682   -1.7017   -3.8500 C   0  0  0  0  0  0
    3.1248   -2.1296   -3.5132 C   0  0  0  0  0  0
    3.2066   -3.3990   -3.0750 C   0  0  0  0  0  0
    1.5347   -3.9933   -3.1103 S   0  0  0  0  0  0
    0.7520   -2.6229   -3.6778 C   0  0  0  0  0  0
   -0.6064   -2.4529   -3.9208 N   0  0  0  0  0  0
   -1.4664   -2.0567   -2.9756 C   0  0  0  0  0  0
   -1.1760   -1.8033   -1.8263 O   0  0  0  0  0  0
   -2.8568   -1.9734   -3.5640 C   0  0  2  0  0  0
   -3.7354   -3.0819   -2.9457 C   0  0  2  0  0  0
   -4.4471   -3.6922   -4.1000 N   0  0  0  0  0  0
   -3.4377   -3.7165   -5.1750 C   0  0  1  0  0  0
   -2.6440   -2.3930   -5.0452 C   0  0  2  0  0  0
   -1.1592   -2.6668   -5.1205 C   0  0  0  0  0  0
   -0.5626   -3.0266   -6.1126 O   0  0  0  0  0  0
   -2.5442   -4.9192   -5.0650 C   0  0  0  0  0  0
   -1.6972   -5.3852   -4.0844 C   0  0  0  0  0  0
   -0.9894   -6.5578   -4.2802 C   0  0  0  0  0  0
   -1.1349   -7.2604   -5.4626 C   0  0  0  0  0  0
   -1.9819   -6.7974   -6.4478 C   0  0  0  0  0  0
   -2.6984   -5.6180   -6.2587 C   0  0  0  0  0  0
   -3.6026   -4.9564   -7.0924 N   0  0  0  0  0  0
   -4.0828   -3.8309   -6.5296 C   0  0  0  0  0  0
   -4.8800   -3.0593   -7.0196 O   0  0  0  0  0  0
   -4.7365   -2.4792   -1.9582 C   0  0  0  0  0  0
   -5.5103   -3.6032   -1.2663 C   0  0  0  0  0  0
   -6.4964   -3.0095   -0.2936 C   0  0  0  0  0  0
   -6.5728   -1.8058   -0.1663 O   0  0  0  0  0  0
   -7.2934   -3.8161    0.4348 N   0  0  0  0  0  0
    4.6225   -3.7889   -2.7473 C   0  0  0  0  0  0
    5.4931   -2.7211   -3.4460 C   0  0  0  0  0  0
    4.5259   -1.5219   -3.5152 C   0  0  0  0  0  0
  1  2  1  0  0  0
  2  3  1  0  0  0
  3  4  1  0  0  0
  4  5  2  0  0  0
  4  6  1  0  0  0
  6 10  2  0  0  0
  6  7  1  0  0  0
  7 37  1  0  0  0
  7  8  2  0  0  0
  8  9  1  0  0  0
  8 35  1  0  0  0
  9 10  1  0  0  0
 10 11  1  0  0  0
 11 19  1  0  0  0
 11 12  1  0  0  0
 12 13  2  0  0  0
 12 14  1  0  0  0
 14 18  1  0  0  0
 14 15  1  0  0  0
 15 16  1  0  0  0
 15 30  1  0  0  0
 16 17  1  0  0  0
 17 28  1  0  0  0
 17 18  1  0  0  0
 17 21  1  0  0  0
 18 19  1  0  0  0
 19 20  2  0  0  0
 21 26  1  0  0  0
 21 22  2  0  0  0
 22 23  1  0  0  0
 23 24  2  0  0  0
 24 25  1  0  0  0
 25 26  2  0  0  0
 26 27  1  0  0  0
 27 28  1  0  0  0
 28 29  2  0  0  0
 30 31  1  0  0  0
 31 32  1  0  0  0
 32 33  2  0  0  0
 32 34  1  0  0  0
 35 36  1  0  0  0
 36 37  1  0  0  0
M  END
> <s_m_entry_id>
105861

> <s_m_entry_name>
PKC-all_decoys.60

> <s_m_Source_Path>
/home/liwei/Desktop/Machine/Decoys/PKC

> <s_m_Source_File>
PKC-all_decoys.sdf

> <i_m_Source_File_Index>
60

$$$$
ZINC01283177
                    3D
 Structure written by MMmdl.
 38 41  0  0  1  0            999 V2000
   -0.0173    1.4248    0.0099 C   0  0  0  0  0  0
    0.0021   -0.0041    0.0020 O   0  0  0  0  0  0
    0.6257   -0.6182    1.0413 C   0  0  0  0  0  0
    1.2017    0.1422    2.0504 C   0  0  0  0  0  0
    1.8353   -0.4770    3.1065 C   0  0  0  0  0  0
    1.8970   -1.8707    3.1609 C   0  0  0  0  0  0
    1.3163   -2.6317    2.1445 C   0  0  0  0  0  0
    0.6803   -2.0048    1.0944 C   0  0  0  0  0  0
    2.5757   -2.5387    4.2910 C   0  0  0  0  0  0
    3.3845   -1.9759    5.1588 N   0  0  0  0  0  0
    3.7953   -2.8486    6.0078 N   0  0  0  0  0  0
    3.2749   -4.0242    5.7362 C   0  0  0  0  0  0
    2.4748   -3.8686    4.6368 N   0  0  0  0  0  0
    1.7143   -4.8563    3.9948 C   0  0  0  0  0  0
    0.3290   -4.7672    3.9803 C   0  0  0  0  0  0
   -0.4179   -5.7413    3.3473 C   0  0  0  0  0  0
    0.2135   -6.8058    2.7283 C   0  0  0  0  0  0
    1.5942   -6.8970    2.7418 C   0  0  0  0  0  0
    2.3457   -5.9218    3.3678 C   0  0  0  0  0  0
   -0.7281   -8.0290    1.9340 Cl  0  0  0  0  0  0
    3.5503   -5.5202    6.6255 S   0  0  0  0  0  0
    4.6870   -5.0379    7.9544 C   0  0  0  0  0  0
    5.0087   -6.2417    8.8019 C   0  0  0  0  0  0
    4.5191   -7.3193    8.5356 O   0  0  0  0  0  0
    5.8402   -6.1212    9.8557 N   0  0  0  0  0  0
    6.1392   -7.2404   10.6436 N   0  0  0  0  0  0
    6.9400   -7.1244   11.6584 C   0  0  0  0  0  0
    7.2546   -8.3021   12.4875 C   0  0  0  0  0  0
    6.6962   -9.5449   12.1787 C   0  0  0  0  0  0
    6.9937  -10.6481   12.9583 C   0  0  0  0  0  0
    7.8482  -10.5211   14.0490 C   0  0  0  0  0  0
    8.4056   -9.2845   14.3594 C   0  0  0  0  0  0
    8.1164   -8.1788   13.5802 C   0  0  0  0  0  0
    9.2396   -9.1640   15.4269 O   0  0  0  0  0  0
    9.7760   -7.8654   15.6877 C   0  0  0  0  0  0
    8.1389  -11.6078   14.8138 O   0  0  0  0  0  0
    6.4501  -11.8582   12.6585 O   0  0  0  0  0  0
    5.5813  -11.9164   11.5255 C   0  0  0  0  0  0
  1  2  1  0  0  0
  2  3  1  0  0  0
  3  8  2  0  0  0
  3  4  1  0  0  0
  4  5  2  0  0  0
  5  6  1  0  0  0
  6  7  2  0  0  0
  6  9  1  0  0  0
  7  8  1  0  0  0
  9 13  1  0  0  0
  9 10  2  0  0  0
 10 11  1  0  0  0
 11 12  2  0  0  0
 12 13  1  0  0  0
 12 21  1  0  0  0
 13 14  1  0  0  0
 14 19  1  0  0  0
 14 15  2  0  0  0
 15 16  1  0  0  0
 16 17  2  0  0  0
 17 18  1  0  0  0
 17 20  1  0  0  0
 18 19  2  0  0  0
 21 22  1  0  0  0
 22 23  1  0  0  0
 23 24  2  0  0  0
 23 25  1  0  0  0
 25 26  1  0  0  0
 26 27  2  0  0  0
 27 28  1  0  0  0
 28 33  1  0  0  0
 28 29  2  0  0  0
 29 30  1  0  0  0
 30 31  2  0  0  0
 30 37  1  0  0  0
 31 32  1  0  0  0
 31 36  1  0  0  0
 32 33  2  0  0  0
 32 34  1  0  0  0
 34 35  1  0  0  0
 37 38  1  0  0  0
M  END
> <s_m_entry_id>
105862

> <s_m_entry_name>
PKC-all_decoys.61

> <s_m_Source_Path>
/home/liwei/Desktop/Machine/Decoys/PKC

> <s_m_Source_File>
PKC-all_decoys.sdf

> <i_m_Source_File_Index>
61

$$$$
ZINC03210813
                    3D
 Structure written by MMmdl.
 35 37  0  0  1  0            999 V2000
    0.3446    1.3151   -0.4167 C   0  0  0  0  0  0
    0.3078   -0.2135   -0.3627 C   0  0  0  0  0  0
    1.0380   -0.6972    0.8918 C   0  0  0  0  0  0
    1.0037   -2.1249    0.9423 O   0  0  0  0  0  0
    1.6118   -2.7193    2.0016 C   0  0  0  0  0  0
    2.2241   -1.9392    2.9755 C   0  0  0  0  0  0
    2.8430   -2.5343    4.0528 C   0  0  0  0  0  0
    2.8559   -3.9268    4.1682 C   0  0  0  0  0  0
    2.2375   -4.7120    3.1846 C   0  0  0  0  0  0
    1.6142   -4.1023    2.1100 C   0  0  0  0  0  0
    2.2458   -6.0660    3.2889 O   0  0  0  0  0  0
    3.5168   -4.5674    5.3183 C   0  0  0  0  0  0
    3.5272   -5.8617    5.4230 N   0  0  0  0  0  0
    4.1559   -6.4709    6.5168 N   0  0  0  0  0  0
    4.1667   -7.8143    6.6254 C   0  0  0  0  0  0
    3.6307   -8.4977    5.7737 O   0  0  0  0  0  0
    4.8284   -8.4557    7.7768 C   0  0  0  0  0  0
    5.4400   -7.6714    8.7595 C   0  0  0  0  0  0
    6.0567   -8.2729    9.8326 C   0  0  0  0  0  0
    6.0724   -9.6608    9.9402 C   0  0  0  0  0  0
    5.4643  -10.4446    8.9634 C   0  0  0  0  0  0
    4.8406   -9.8491    7.8910 C   0  0  0  0  0  0
    6.6972  -10.2656   11.0254 N   0  0  0  0  0  0
    5.9359  -11.4876   11.8438 S   0  0  0  0  0  0
    5.5437  -12.4456   10.8703 O   0  0  0  0  0  0
    6.7692  -11.8189   12.9461 O   0  0  0  0  0  0
    4.4520  -10.8178   12.5176 C   0  0  0  0  0  0
    4.4827  -10.1546   13.7305 C   0  0  0  0  0  0
    3.3206   -9.6290   14.2612 C   0  0  0  0  0  0
    2.1222   -9.7666   13.5759 C   0  0  0  0  0  0
    2.0942  -10.4321   12.3589 C   0  0  0  0  0  0
    3.2600  -10.9514   11.8300 C   0  0  0  0  0  0
    0.9775   -9.2508   14.0961 O   0  0  0  0  0  0
   -0.2190   -9.4301   13.3357 C   0  0  0  0  0  0
   -1.3943   -8.7874   14.0751 C   0  0  0  0  0  0
  1  2  1  0  0  0
  2  3  1  0  0  0
  3  4  1  0  0  0
  4  5  1  0  0  0
  5 10  2  0  0  0
  5  6  1  0  0  0
  6  7  2  0  0  0
  7  8  1  0  0  0
  8  9  2  0  0  0
  8 12  1  0  0  0
  9 10  1  0  0  0
  9 11  1  0  0  0
 12 13  2  0  0  0
 13 14  1  0  0  0
 14 15  1  0  0  0
 15 16  2  0  0  0
 15 17  1  0  0  0
 17 22  1  0  0  0
 17 18  2  0  0  0
 18 19  1  0  0  0
 19 20  2  0  0  0
 20 21  1  0  0  0
 20 23  1  0  0  0
 21 22  2  0  0  0
 23 24  1  0  0  0
 24 25  2  0  0  0
 24 26  2  0  0  0
 24 27  1  0  0  0
 27 32  1  0  0  0
 27 28  2  0  0  0
 28 29  1  0  0  0
 29 30  2  0  0  0
 30 31  1  0  0  0
 30 33  1  0  0  0
 31 32  2  0  0  0
 33 34  1  0  0  0
 34 35  1  0  0  0
M  END
> <s_m_entry_id>
105863

> <s_m_entry_name>
PKC-all_decoys.62

> <s_m_Source_Path>
/home/liwei/Desktop/Machine/Decoys/PKC

> <s_m_Source_File>
PKC-all_decoys.sdf

> <i_m_Source_File_Index>
62

$$$$
ZINC08438173
                    3D
 Structure written by MMmdl.
 37 40  0  0  1  0            999 V2000
   -5.8514   -7.8469    3.8636 C   0  0  0  0  0  0
   -4.4507   -8.2514    3.4822 C   0  0  0  0  0  0
   -3.8961   -9.4010    4.0064 C   0  0  0  0  0  0
   -2.6108   -9.7743    3.6566 C   0  0  0  0  0  0
   -1.8728   -8.9987    2.7798 C   0  0  0  0  0  0
   -2.4168   -7.8494    2.2452 C   0  0  0  0  0  0
   -3.7116   -7.4644    2.5977 C   0  0  0  0  0  0
   -4.2995   -6.2318    2.0319 C   0  0  0  0  0  0
   -5.4627   -5.9564    2.2528 O   0  0  0  0  0  0
   -3.5459   -5.4134    1.2712 N   0  0  0  0  0  0
   -4.1317   -4.3150    0.6336 C   0  0  0  0  0  0
   -5.4131   -4.4203    0.1048 C   0  0  0  0  0  0
   -5.9961   -3.3379   -0.5266 C   0  0  0  0  0  0
   -5.3123   -2.1435   -0.6313 C   0  0  0  0  0  0
   -4.0230   -2.0293   -0.1088 C   0  0  0  0  0  0
   -3.4345   -3.1217    0.5285 C   0  0  0  0  0  0
   -3.2858   -0.7530   -0.2250 C   0  0  0  0  0  0
   -3.8015    0.4241   -0.4926 N   0  0  0  0  0  0
   -2.8750    1.3145   -0.5130 N   0  0  0  0  0  0
   -1.7092    0.7584   -0.2690 C   0  0  0  0  0  0
   -1.9300   -0.5750   -0.0736 N   0  0  0  0  0  0
   -0.9313   -1.6019    0.2333 C   0  0  0  0  0  0
   -0.1528    1.5813   -0.1996 S   0  0  0  0  0  0
   -0.6774    3.2766   -0.5558 C   0  0  0  0  0  0
    0.5241    4.1863   -0.5485 C   0  0  0  0  0  0
    1.6265    3.7330   -0.3245 O   0  0  0  0  0  0
    0.3735    5.5035   -0.7909 N   0  0  0  0  0  0
    1.5415    6.3878   -0.7838 C   0  0  0  0  0  0
    1.0980    7.8208   -1.0849 C   0  0  0  0  0  0
    0.2604    8.2924   -0.0276 O   0  0  0  0  0  0
   -0.2227    9.5578   -0.1406 C   0  0  0  0  0  0
    0.1078   10.3314   -1.2437 C   0  0  0  0  0  0
   -0.3880   11.6156   -1.3592 C   0  0  0  0  0  0
   -1.2052   12.1342   -0.3703 C   0  0  0  0  0  0
   -1.5316   11.3660    0.7333 C   0  0  0  0  0  0
   -1.0420   10.0795    0.8498 C   0  0  0  0  0  0
   -1.8221   13.7504   -0.5147 Cl  0  0  0  0  0  0
  1  2  1  0  0  0
  2  7  2  0  0  0
  2  3  1  0  0  0
  3  4  2  0  0  0
  4  5  1  0  0  0
  5  6  2  0  0  0
  6  7  1  0  0  0
  7  8  1  0  0  0
  8  9  2  0  0  0
  8 10  1  0  0  0
 10 11  1  0  0  0
 11 16  1  0  0  0
 11 12  2  0  0  0
 12 13  1  0  0  0
 13 14  2  0  0  0
 14 15  1  0  0  0
 15 16  2  0  0  0
 15 17  1  0  0  0
 17 21  1  0  0  0
 17 18  2  0  0  0
 18 19  1  0  0  0
 19 20  2  0  0  0
 20 21  1  0  0  0
 20 23  1  0  0  0
 21 22  1  0  0  0
 23 24  1  0  0  0
 24 25  1  0  0  0
 25 26  2  0  0  0
 25 27  1  0  0  0
 27 28  1  0  0  0
 28 29  1  0  0  0
 29 30  1  0  0  0
 30 31  1  0  0  0
 31 36  1  0  0  0
 31 32  2  0  0  0
 32 33  1  0  0  0
 33 34  2  0  0  0
 34 35  1  0  0  0
 34 37  1  0  0  0
 35 36  2  0  0  0
M  END
> <s_m_entry_id>
105864

> <s_m_entry_name>
PKC-all_decoys.63

> <s_m_Source_Path>
/home/liwei/Desktop/Machine/Decoys/PKC

> <s_m_Source_File>
PKC-all_decoys.sdf

> <i_m_Source_File_Index>
63

$$$$
ZINC12871212
                    3D
 Structure written by MMmdl.
 35 37  0  0  1  0            999 V2000
    7.3903   -1.6362   -3.2586 C   0  0  0  0  0  0
    7.5926   -1.2446   -1.7935 C   0  0  0  0  0  0
    9.0136   -1.6095   -1.3596 C   0  0  0  0  0  0
    7.3820    0.2625   -1.6347 C   0  0  0  0  0  0
    7.4611    0.6352   -0.1529 C   0  0  0  0  0  0
    7.2595    2.0783   -0.0008 N   0  0  0  0  0  0
    8.3616    2.9561   -0.0744 C   0  0  0  0  0  0
    8.4423    3.8985   -1.0791 C   0  0  0  0  0  0
    9.5265    4.7441   -1.1212 N   0  0  0  0  0  0
   10.5022    4.6462   -0.2002 C   0  0  0  0  0  0
   11.4548    5.3999   -0.2574 O   0  0  0  0  0  0
   10.4433    3.7303    0.7828 N   0  0  0  0  0  0
    9.4004    2.8819    0.8724 C   0  0  0  0  0  0
    9.3567    2.0554    1.7680 O   0  0  0  0  0  0
    9.6224    5.7530   -2.1791 C   0  0  0  0  0  0
   10.3411    5.1679   -3.3675 C   0  0  0  0  0  0
   11.7157    5.2763   -3.4660 C   0  0  0  0  0  0
   12.3755    4.7355   -4.5536 C   0  0  0  0  0  0
   11.6597    4.0954   -5.5480 C   0  0  0  0  0  0
   10.2846    3.9915   -5.4521 C   0  0  0  0  0  0
    9.6253    4.5278   -4.3618 C   0  0  0  0  0  0
    7.4487    3.9945   -2.0237 N   0  0  0  0  0  0
    6.0198    2.5678    0.2097 C   0  0  0  0  0  0
    5.8629    3.7526    0.4187 O   0  0  0  0  0  0
    4.8302    1.6430    0.1851 C   0  0  0  0  0  0
    3.5548    2.4455    0.4501 C   0  0  0  0  0  0
    2.3471    1.5065    0.4252 C   0  0  0  0  0  0
    1.1258    2.2749    0.6789 N   0  0  0  0  0  0
   -0.0692    1.6522    0.7040 C   0  0  0  0  0  0
   -0.1337    0.4522    0.5159 O   0  0  0  0  0  0
   -1.2968    2.4251    0.9530 C   0  0  0  0  0  0
   -2.5922    1.7936    0.9754 C   0  0  0  0  0  0
   -3.6559    2.5848    1.2170 C   0  0  0  0  0  0
   -2.9247    4.1980    1.4042 S   0  0  0  0  0  0
   -1.2590    3.7870    1.1695 C   0  0  0  0  0  0
  1  2  1  0  0  0
  2  3  1  0  0  0
  2  4  1  0  0  0
  4  5  1  0  0  0
  5  6  1  0  0  0
  6  7  1  0  0  0
  6 23  1  0  0  0
  7 13  1  0  0  0
  7  8  2  0  0  0
  8  9  1  0  0  0
  8 22  1  0  0  0
  9 10  1  0  0  0
  9 15  1  0  0  0
 10 11  2  0  0  0
 10 12  1  0  0  0
 12 13  1  0  0  0
 13 14  2  0  0  0
 15 16  1  0  0  0
 16 21  1  0  0  0
 16 17  2  0  0  0
 17 18  1  0  0  0
 18 19  2  0  0  0
 19 20  1  0  0  0
 20 21  2  0  0  0
 23 24  2  0  0  0
 23 25  1  0  0  0
 25 26  1  0  0  0
 26 27  1  0  0  0
 27 28  1  0  0  0
 28 29  1  0  0  0
 29 30  2  0  0  0
 29 31  1  0  0  0
 31 35  2  0  0  0
 31 32  1  0  0  0
 32 33  2  0  0  0
 33 34  1  0  0  0
 34 35  1  0  0  0
M  END
> <s_m_entry_id>
105865

> <s_m_entry_name>
PKC-all_decoys.64

> <s_m_Source_Path>
/home/liwei/Desktop/Machine/Decoys/PKC

> <s_m_Source_File>
PKC-all_decoys.sdf

> <i_m_Source_File_Index>
64

$$$$
ZINC32796277
                    3D
 Structure written by MMmdl.
 31 33  0  0  1  0            999 V2000
   -2.1231    8.0687   14.8783 C   0  0  0  0  0  0
   -1.2608    7.3050   14.1251 C   0  0  0  0  0  0
   -1.7838    6.4189   13.2208 C   0  0  0  0  0  0
   -3.5389    6.6574   13.4456 S   0  0  0  0  0  0
   -3.4627    7.9142   14.7111 C   0  0  0  0  0  0
   -1.0792    5.5004   12.3031 C   0  0  0  0  0  0
   -1.6527    4.6384   11.4307 N   0  0  0  0  0  0
   -0.6592    4.0333   10.8298 C   0  0  0  0  0  0
    0.4724    4.5265   11.3430 O   0  0  0  0  0  0
    0.2186    5.3670   12.1798 N   0  0  0  0  0  0
   -0.7705    2.9740    9.7637 C   0  0  0  0  0  0
   -0.8003    3.6384    8.3858 C   0  0  0  0  0  0
   -0.9133    2.5630    7.3034 C   0  0  0  0  0  0
   -0.9430    3.2274    5.9255 C   0  0  0  0  0  0
   -1.0561    2.1519    4.8431 C   0  0  0  0  0  0
   -1.0846    2.7881    3.5238 N   0  0  0  0  0  0
   -1.1811    2.0313    2.4127 C   0  0  0  0  0  0
   -1.2444    0.8237    2.5051 O   0  0  0  0  0  0
   -1.2104    2.6857    1.0555 C   0  0  0  0  0  0
   -1.3234    1.6103   -0.0269 C   0  0  1  0  0  0
   -1.4763    2.2678   -1.3743 C   0  0  0  0  0  0
   -0.3785    2.8331   -1.9958 C   0  0  0  0  0  0
   -0.5172    3.4320   -3.2337 C   0  0  0  0  0  0
   -1.7569    3.4749   -3.8460 C   0  0  0  0  0  0
   -2.8561    2.9138   -3.2213 C   0  0  0  0  0  0
   -2.7154    2.3105   -1.9857 C   0  0  0  0  0  0
   -1.9489    4.3011   -5.5361 Br  0  0  0  0  0  0
   -0.1144    0.7831   -0.0215 N   0  0  0  0  0  0
   -0.1643   -0.4863   -0.4716 C   0  0  0  0  0  0
   -1.2285   -0.9726   -0.8025 O   0  0  0  0  0  0
    0.9652   -1.2168   -0.5548 N   0  0  0  0  0  0
  1  5  2  0  0  0
  1  2  1  0  0  0
  2  3  2  0  0  0
  3  4  1  0  0  0
  3  6  1  0  0  0
  4  5  1  0  0  0
  6 10  2  0  0  0
  6  7  1  0  0  0
  7  8  2  0  0  0
  8  9  1  0  0  0
  8 11  1  0  0  0
  9 10  1  0  0  0
 11 12  1  0  0  0
 12 13  1  0  0  0
 13 14  1  0  0  0
 14 15  1  0  0  0
 15 16  1  0  0  0
 16 17  1  0  0  0
 17 18  2  0  0  0
 17 19  1  0  0  0
 19 20  1  0  0  0
 20 21  1  0  0  0
 20 28  1  0  0  0
 21 26  1  0  0  0
 21 22  2  0  0  0
 22 23  1  0  0  0
 23 24  2  0  0  0
 24 25  1  0  0  0
 24 27  1  0  0  0
 25 26  2  0  0  0
 28 29  1  0  0  0
 29 30  2  0  0  0
 29 31  1  0  0  0
M  END
> <s_m_entry_id>
105866

> <s_m_entry_name>
PKC-all_decoys.65

> <s_m_Source_Path>
/home/liwei/Desktop/Machine/Decoys/PKC

> <s_m_Source_File>
PKC-all_decoys.sdf

> <i_m_Source_File_Index>
65

$$$$
ZINC06077591
                    3D
 Structure written by MMmdl.
 38 43  0  0  1  0            999 V2000
   -1.4787   -3.1833   -3.4362 C   0  0  0  0  0  0
   -1.7664   -1.6824   -3.3639 C   0  0  0  0  0  0
   -1.0257   -1.0780   -2.1694 C   0  0  0  0  0  0
    0.4787   -1.3014   -2.3360 C   0  0  0  0  0  0
   -1.5016   -1.7512   -0.8805 C   0  0  0  0  0  0
   -1.3013    0.3592   -2.1002 N   0  0  0  0  0  0
   -0.7831    1.2308   -1.2151 C   0  0  0  0  0  0
   -1.2921    2.4044   -1.5008 N   0  0  0  0  0  0
   -2.0758    2.2624   -2.5135 N   0  0  0  0  0  0
   -2.0860    1.0272   -2.8764 N   0  0  0  0  0  0
    0.1887    0.9172   -0.1068 C   0  0  1  0  0  0
    1.5279    1.5310   -0.4244 C   0  0  0  0  0  0
    2.6014    0.7316   -0.6508 C   0  0  0  0  0  0
    3.8871    1.3573   -0.9570 C   0  0  0  0  0  0
    5.0280    0.5822   -1.2008 C   0  0  0  0  0  0
    6.2249    1.2002   -1.4874 C   0  0  0  0  0  0
    6.3041    2.5979   -1.5350 C   0  0  0  0  0  0
    5.1829    3.3708   -1.2950 C   0  0  0  0  0  0
    3.9680    2.7626   -1.0054 C   0  0  0  0  0  0
    2.8384    3.5184   -0.7649 N   0  0  0  0  0  0
    1.6597    2.9327   -0.4907 C   0  0  0  0  0  0
    0.6815    3.6317   -0.2891 O   0  0  0  0  0  0
    7.5879    2.9482   -1.8359 O   0  0  0  0  0  0
    8.1959    1.7604   -2.3758 C   0  0  0  0  0  0
    7.4610    0.6865   -1.7598 O   0  0  0  0  0  0
    0.6082    1.1818    2.2636 C   0  0  0  0  0  0
    0.0880    1.8402    3.5436 C   0  0  0  0  0  0
   -1.2586    1.3320    3.8403 N   0  0  0  0  0  0
   -2.1825    1.6197    2.7342 C   0  0  0  0  0  0
   -1.6623    0.9613    1.4542 C   0  0  0  0  0  0
   -1.7391    1.8581    5.0447 C   0  0  0  0  0  0
   -2.9429    2.5498    5.0695 C   0  0  0  0  0  0
   -3.4192    3.0638    6.2597 C   0  0  0  0  0  0
   -2.6896    2.8994    7.4278 C   0  0  0  0  0  0
   -1.4845    2.2132    7.4030 C   0  0  0  0  0  0
   -1.0095    1.6937    6.2147 C   0  0  0  0  0  0
   -3.1563    3.4111    8.5982 O   0  0  0  0  0  0
   -0.3177    1.4973    1.1554 N   0  3  0  0  0  0
  1  2  1  0  0  0
  2  3  1  0  0  0
  3  4  1  0  0  0
  3  5  1  0  0  0
  3  6  1  0  0  0
  6 10  1  0  0  0
  6  7  1  0  0  0
  7  8  2  0  0  0
  7 11  1  0  0  0
  8  9  1  0  0  0
  9 10  2  0  0  0
 11 12  1  0  0  0
 11 38  1  0  0  0
 12 21  1  0  0  0
 12 13  2  0  0  0
 13 14  1  0  0  0
 14 19  2  0  0  0
 14 15  1  0  0  0
 15 16  2  0  0  0
 16 25  1  0  0  0
 16 17  1  0  0  0
 17 18  2  0  0  0
 17 23  1  0  0  0
 18 19  1  0  0  0
 19 20  1  0  0  0
 20 21  1  0  0  0
 21 22  2  0  0  0
 23 24  1  0  0  0
 24 25  1  0  0  0
 26 27  1  0  0  0
 26 38  1  0  0  0
 27 28  1  0  0  0
 28 29  1  0  0  0
 28 31  1  0  0  0
 29 30  1  0  0  0
 30 38  1  0  0  0
 31 36  1  0  0  0
 31 32  2  0  0  0
 32 33  1  0  0  0
 33 34  2  0  0  0
 34 35  1  0  0  0
 34 37  1  0  0  0
 35 36  2  0  0  0
M  CHG  1  38   1
M  END
> <s_m_entry_id>
105867

> <s_m_entry_name>
PKC-all_decoys.66

> <s_m_Source_Path>
/home/liwei/Desktop/Machine/Decoys/PKC

> <s_m_Source_File>
PKC-all_decoys.sdf

> <i_m_Source_File_Index>
66

$$$$
ZINC08426140
                    3D
 Structure written by MMmdl.
 45 48  0  0  1  0            999 V2000
   -1.6165    4.2873    0.0406 C   0  0  0  0  0  0
   -0.7287    3.0697    0.0255 C   0  0  0  0  0  0
    0.6692    3.0596    0.0121 C   0  0  0  0  0  0
    1.0750    1.7670    0.0013 C   0  0  0  0  0  0
   -0.0111    0.9658    0.0074 N   0  0  0  0  0  0
   -1.1410    1.7528    0.0164 C   0  0  0  0  0  0
   -2.5271    1.2788    0.0191 C   0  0  0  0  0  0
   -3.4433    2.0786    0.0269 O   0  0  0  0  0  0
   -2.7873   -0.0448    0.0131 O   0  0  0  0  0  0
   -4.1838   -0.4421    0.0163 C   0  0  0  0  0  0
   -4.2783   -1.9461    0.0086 C   0  0  0  0  0  0
   -4.3319   -2.6292   -1.1920 C   0  0  0  0  0  0
   -4.4131   -4.0091   -1.1991 C   0  0  0  0  0  0
   -4.4519   -4.7053   -0.0055 C   0  0  0  0  0  0
   -4.4040   -4.0219    1.1951 C   0  0  0  0  0  0
   -4.3170   -2.6423    1.2022 C   0  0  0  0  0  0
    2.5075    1.2994   -0.0157 C   0  0  0  0  0  0
    3.0377    1.2535    1.3942 C   0  0  0  0  0  0
    2.8862    0.2213    2.2587 C   0  0  0  0  0  0
    3.5215    0.5676    3.4549 C   0  0  0  0  0  0
    4.0456    1.8322    3.2810 C   0  0  0  0  0  0
    3.7350    2.2363    2.0018 N   0  0  0  0  0  0
    4.7948    2.6039    4.2756 C   0  0  0  0  0  0
    5.0049    2.1341    5.3776 O   0  0  0  0  0  0
    5.2517    3.8356    3.9692 O   0  0  0  0  0  0
    5.9860    4.5424    5.0034 C   0  0  0  0  0  0
    6.4141    5.8905    4.4833 C   0  0  0  0  0  0
    7.6352    6.0315    3.8509 C   0  0  0  0  0  0
    8.0255    7.2670    3.3692 C   0  0  0  0  0  0
    7.1995    8.3638    3.5296 C   0  0  0  0  0  0
    5.9809    8.2239    4.1670 C   0  0  0  0  0  0
    5.5881    6.9873    4.6437 C   0  0  0  0  0  0
    3.6121   -0.2774    4.6994 C   0  0  0  0  0  0
    2.1634   -1.0713    1.9796 C   0  0  0  0  0  0
    3.1474   -2.0918    1.4041 C   0  0  0  0  0  0
    2.4247   -3.3844    1.1250 C   0  0  0  0  0  0
    1.2437   -3.4796    1.3620 O   0  0  0  0  0  0
    3.0929   -4.4300    0.6131 O   0  0  0  0  0  0
    2.3327   -5.6430    0.3698 C   0  0  0  0  0  0
    1.5655    4.2711    0.0108 C   0  0  0  0  0  0
    1.8558    4.6892   -1.4320 C   0  0  0  0  0  0
    2.7521    5.9007   -1.4333 C   0  0  0  0  0  0
    3.1208    6.3805   -0.3875 O   0  0  0  0  0  0
    3.1408    6.4467   -2.5963 O   0  0  0  0  0  0
    4.0039    7.6120   -2.5215 C   0  0  0  0  0  0
  1  2  1  0  0  0
  2  6  2  0  0  0
  2  3  1  0  0  0
  3  4  2  0  0  0
  3 40  1  0  0  0
  4  5  1  0  0  0
  4 17  1  0  0  0
  5  6  1  0  0  0
  6  7  1  0  0  0
  7  8  2  0  0  0
  7  9  1  0  0  0
  9 10  1  0  0  0
 10 11  1  0  0  0
 11 16  1  0  0  0
 11 12  2  0  0  0
 12 13  1  0  0  0
 13 14  2  0  0  0
 14 15  1  0  0  0
 15 16  2  0  0  0
 17 18  1  0  0  0
 18 22  1  0  0  0
 18 19  2  0  0  0
 19 20  1  0  0  0
 19 34  1  0  0  0
 20 21  2  0  0  0
 20 33  1  0  0  0
 21 22  1  0  0  0
 21 23  1  0  0  0
 23 24  2  0  0  0
 23 25  1  0  0  0
 25 26  1  0  0  0
 26 27  1  0  0  0
 27 32  1  0  0  0
 27 28  2  0  0  0
 28 29  1  0  0  0
 29 30  2  0  0  0
 30 31  1  0  0  0
 31 32  2  0  0  0
 34 35  1  0  0  0
 35 36  1  0  0  0
 36 37  2  0  0  0
 36 38  1  0  0  0
 38 39  1  0  0  0
 40 41  1  0  0  0
 41 42  1  0  0  0
 42 43  2  0  0  0
 42 44  1  0  0  0
 44 45  1  0  0  0
M  END
> <s_m_entry_id>
105868

> <s_m_entry_name>
PKC-all_decoys.67

> <s_m_Source_Path>
/home/liwei/Desktop/Machine/Decoys/PKC

> <s_m_Source_File>
PKC-all_decoys.sdf

> <i_m_Source_File_Index>
67

$$$$
ZINC08143462
                    3D
 Structure written by MMmdl.
 47 51  0  0  1  0            999 V2000
   -5.5537   -2.1401   -6.4484 C   0  0  0  0  0  0
   -5.9477   -0.9987   -5.5087 C   0  0  0  0  0  0
   -4.9270    0.1348   -5.6272 C   0  0  1  0  0  0
   -5.2870    1.2710   -4.6459 C   0  0  0  0  0  0
   -3.8913    1.7147   -4.1290 C   0  0  0  0  0  0
   -3.1360    0.3617   -4.1233 C   0  0  1  0  0  0
   -3.6244   -0.3453   -5.2743 O   0  0  0  0  0  0
   -1.6286    0.5945   -4.2431 C   0  0  2  0  0  0
   -0.8930   -0.7585   -4.3073 C   0  0  0  0  0  0
    0.0769   -0.7215   -3.1001 C   0  0  0  0  0  0
    0.1764    0.7928   -2.8131 C   0  0  1  0  0  0
   -1.1447    1.2911   -3.0811 O   0  0  0  0  0  0
    0.5470    1.0226   -1.3524 C   0  0  0  0  0  0
    0.6916    2.5270   -1.0968 C   0  0  1  0  0  0
    1.7192    3.1016   -2.0771 C   0  0  2  0  0  0
    1.2692    2.8073   -3.5104 C   0  0  2  0  0  0
    1.1265    1.3947   -3.6824 O   0  0  0  0  0  0
    2.3147    3.3380   -4.4933 C   0  0  1  0  0  0
    3.2975    2.2196   -4.8457 C   0  0  0  0  0  0
    1.6181    3.8244   -5.7657 C   0  0  2  0  0  0
    0.5303    4.8352   -5.3969 C   0  0  1  0  0  0
    1.1432    5.9630   -4.5642 C   0  0  0  0  0  0
   -0.0698    5.4086   -6.6548 C   0  0  0  0  0  0
    0.4119    5.1414   -7.7302 O   0  0  0  0  0  0
    1.0259    2.7120   -6.4395 O   0  0  0  0  0  0
    1.8202    2.1885   -7.5059 C   0  0  0  0  0  0
    3.0821    2.4530   -1.8260 C   0  0  0  0  0  0
   -0.5692    3.1694   -1.2956 O   0  0  0  0  0  0
   -1.3271    1.4106   -5.5017 C   0  0  0  0  0  0
   -4.9118    0.6718   -7.0598 C   0  0  1  0  0  0
   -6.3516    0.9849   -7.5406 C   0  0  2  0  0  0
   -6.1029    2.0472   -8.6389 C   0  0  0  0  0  0
   -4.7059    2.6092   -8.3114 C   0  0  1  0  0  0
   -4.2518    1.9547   -7.1149 O   0  0  0  0  0  0
   -3.7432    2.3140   -9.4633 C   0  0  2  0  0  0
   -2.4118    3.0266   -9.2114 C   0  0  2  0  0  0
   -1.4750    2.7756  -10.3970 C   0  0  0  0  0  0
   -2.1565    3.2546  -11.6824 C   0  0  2  0  0  0
   -3.4977    2.5333  -11.8389 C   0  0  1  0  0  0
   -4.3087    2.7830  -10.6891 O   0  0  0  0  0  0
   -4.2123    3.0502  -13.0892 C   0  0  0  0  0  0
   -5.4641    2.3767  -13.2351 O   0  0  0  0  0  0
   -3.2711    1.1281  -11.9662 O   0  0  0  0  0  0
   -1.2628    2.9386  -12.8833 C   0  0  0  0  0  0
   -1.7744    2.4815   -7.9317 C   0  0  0  0  0  0
   -7.1940    1.5629   -6.4017 C   0  0  0  0  0  0
   -1.1394    6.2162   -6.5804 O   0  5  0  0  0  0
  1  2  1  0  0  0
  2  3  1  0  0  0
  3  7  1  0  0  0
  3  4  1  0  0  0
  3 30  1  0  0  0
  4  5  1  0  0  0
  5  6  1  0  0  0
  6  7  1  0  0  0
  6  8  1  0  0  0
  8 12  1  0  0  0
  8  9  1  0  0  0
  8 29  1  0  0  0
  9 10  1  0  0  0
 10 11  1  0  0  0
 11 17  1  0  0  0
 11 12  1  0  0  0
 11 13  1  0  0  0
 13 14  1  0  0  0
 14 15  1  0  0  0
 14 28  1  0  0  0
 15 16  1  0  0  0
 15 27  1  0  0  0
 16 17  1  0  0  0
 16 18  1  0  0  0
 18 19  1  0  0  0
 18 20  1  0  0  0
 20 21  1  0  0  0
 20 25  1  0  0  0
 21 22  1  0  0  0
 21 23  1  0  0  0
 23 24  2  0  0  0
 23 47  1  0  0  0
 25 26  1  0  0  0
 30 34  1  0  0  0
 30 31  1  0  0  0
 31 32  1  0  0  0
 31 46  1  0  0  0
 32 33  1  0  0  0
 33 34  1  0  0  0
 33 35  1  0  0  0
 35 40  1  0  0  0
 35 36  1  0  0  0
 36 37  1  0  0  0
 36 45  1  0  0  0
 37 38  1  0  0  0
 38 39  1  0  0  0
 38 44  1  0  0  0
 39 40  1  0  0  0
 39 41  1  0  0  0
 39 43  1  0  0  0
 41 42  1  0  0  0
M  CHG  1  47  -1
M  END
> <s_m_entry_id>
105869

> <s_m_entry_name>
PKC-all_decoys.68

> <s_m_Source_Path>
/home/liwei/Desktop/Machine/Decoys/PKC

> <s_m_Source_File>
PKC-all_decoys.sdf

> <i_m_Source_File_Index>
68

$$$$
ZINC70669839
                    3D
 Structure written by MMmdl.
 40 45  0  0  1  0            999 V2000
    0.1074    1.4725   -0.2004 C   0  0  0  0  0  0
    0.1112   -0.0573   -0.1730 C   0  0  2  0  0  0
   -1.3307   -0.5717   -0.1844 C   0  0  2  0  0  0
   -1.3197   -2.1009   -0.0960 C   0  0  2  0  0  0
   -0.5619   -2.5229    1.1665 C   0  0  0  0  0  0
    0.8503   -1.9332    1.1258 C   0  0  1  0  0  0
    0.7683   -0.5110    1.0121 O   0  0  0  0  0  0
    1.5449   -2.2763    2.3265 O   0  0  0  0  0  0
    2.9145   -1.8691    2.3423 C   0  0  1  0  0  0
    3.0210   -0.4605    2.9299 C   0  0  0  0  0  0
    2.4726   -0.4609    4.3582 C   0  0  0  0  0  0
    3.2841   -1.4341    5.2155 C   0  0  2  0  0  0
    4.7509   -0.9978    5.2333 C   0  0  1  0  0  0
    4.8545    0.3991    5.8548 C   0  0  0  0  0  0
    6.3128    0.8468    5.8081 C   0  0  0  0  0  0
    7.1939   -0.0880    6.6405 C   0  0  2  0  0  0
    8.6633    0.2133    6.2419 C   0  0  2  0  0  0
    9.0005   -0.7402    5.0803 C   0  0  0  0  0  0
    7.7443   -1.6104    4.8448 C   0  0  0  0  0  0
    7.0073   -1.5490    6.1954 C   0  0  2  0  0  0
    5.5652   -1.9798    6.0739 C   0  0  2  0  0  0
    5.4570   -3.3821    5.4708 C   0  0  0  0  0  0
    3.9908   -3.8184    5.4536 C   0  0  0  0  0  0
    3.1778   -2.8426    4.6280 C   0  0  2  0  0  0
    3.7261   -2.8424    3.1997 C   0  0  0  0  0  0
    1.8082   -3.2501    4.6124 O   0  0  0  0  0  0
    7.6653   -2.4099    7.1270 O   0  0  0  0  0  0
    9.5800   -0.0468    7.4094 C   0  0  0  0  0  0
   10.2912    0.8592    8.0770 C   0  0  0  0  0  0
   11.0462    0.1863    9.1385 C   0  0  0  0  0  0
   11.7910    0.7385    9.9242 O   0  0  0  0  0  0
   10.7900   -1.1346    9.1127 O   0  0  0  0  0  0
    9.8632   -1.3846    8.0510 C   0  0  0  0  0  0
    6.9481    0.0866    8.1405 C   0  0  0  0  0  0
    2.7439   -1.4347    6.6223 C   0  0  0  0  0  0
    1.7507   -0.6875    6.9266 N   0  0  0  0  0  0
    1.2431   -0.6880    8.2485 O   0  0  0  0  0  0
   -0.6706   -2.6417   -1.2484 O   0  0  0  0  0  0
   -1.1531   -3.9296   -1.6365 C   0  0  0  0  0  0
   -1.9726   -0.1667   -1.3951 O   0  0  0  0  0  0
  1  2  1  0  0  0
  2  7  1  0  0  0
  2  3  1  0  0  0
  3  4  1  0  0  0
  3 40  1  0  0  0
  4  5  1  0  0  0
  4 38  1  0  0  0
  5  6  1  0  0  0
  6  7  1  0  0  0
  6  8  1  0  0  0
  8  9  1  0  0  0
  9 25  1  0  0  0
  9 10  1  0  0  0
 10 11  1  0  0  0
 11 12  1  0  0  0
 12 24  1  0  0  0
 12 13  1  0  0  0
 12 35  1  0  0  0
 13 21  1  0  0  0
 13 14  1  0  0  0
 14 15  1  0  0  0
 15 16  1  0  0  0
 16 20  1  0  0  0
 16 17  1  0  0  0
 16 34  1  0  0  0
 17 18  1  0  0  0
 17 28  1  0  0  0
 18 19  1  0  0  0
 19 20  1  0  0  0
 20 21  1  0  0  0
 20 27  1  0  0  0
 21 22  1  0  0  0
 22 23  1  0  0  0
 23 24  1  0  0  0
 24 25  1  0  0  0
 24 26  1  0  0  0
 28 33  1  0  0  0
 28 29  2  0  0  0
 29 30  1  0  0  0
 30 31  2  0  0  0
 30 32  1  0  0  0
 32 33  1  0  0  0
 35 36  2  0  0  0
 36 37  1  0  0  0
 38 39  1  0  0  0
M  END
> <s_m_entry_id>
105870

> <s_m_entry_name>
PKC-all_decoys.69

> <s_m_Source_Path>
/home/liwei/Desktop/Machine/Decoys/PKC

> <s_m_Source_File>
PKC-all_decoys.sdf

> <i_m_Source_File_Index>
69

$$$$
ZINC77313288
                    3D
 Structure written by MMmdl.
 51 57  0  0  1  0            999 V2000
    0.7011    0.3743   -0.8672 C   0  0  0  0  0  0
    0.7478   -1.1428   -0.6745 C   0  0  0  0  0  0
   -0.6784   -1.6939   -0.6182 C   0  0  0  0  0  0
   -0.6324   -3.1882   -0.4284 C   0  0  0  0  0  0
   -0.5939   -4.0613   -1.3932 N   0  0  0  0  0  0
   -0.5592   -5.3144   -0.8746 C   0  0  0  0  0  0
   -0.5124   -6.5909   -1.4465 C   0  0  0  0  0  0
   -0.4863   -7.6957   -0.6495 C   0  0  0  0  0  0
   -0.5059   -7.5674    0.7453 C   0  0  0  0  0  0
   -0.5523   -6.3047    1.3307 C   0  0  0  0  0  0
   -0.5786   -5.1783    0.5253 C   0  0  0  0  0  0
   -0.6190   -3.8201    0.7754 N   0  0  0  0  0  0
   -0.6464   -3.1799    2.0928 C   0  0  0  0  0  0
   -2.0758   -3.0057    2.5371 C   0  0  0  0  0  0
   -2.7627   -1.8500    2.2106 C   0  0  0  0  0  0
   -4.0717   -1.6847    2.6146 C   0  0  0  0  0  0
   -4.7021   -2.6854    3.3533 C   0  0  0  0  0  0
   -4.0046   -3.8480    3.6793 C   0  0  0  0  0  0
   -2.6977   -4.0044    3.2648 C   0  0  0  0  0  0
   -6.1075   -2.5138    3.7905 C   0  0  0  0  0  0
   -7.1121   -2.3001    2.8509 C   0  0  0  0  0  0
   -8.4200   -2.1407    3.2624 C   0  0  0  0  0  0
   -8.7437   -2.1923    4.6084 C   0  0  0  0  0  0
   -7.7628   -2.4032    5.5547 C   0  0  0  0  0  0
   -6.4355   -2.5718    5.1573 C   0  0  0  0  0  0
   -5.3829   -2.8037    6.1641 C   0  0  0  0  0  0
   -4.2157   -2.8294    5.8279 O   0  0  0  0  0  0
   -5.7159   -2.9871    7.4569 O   0  0  0  0  0  0
   -4.6453   -3.2065    8.3777 C   0  0  2  0  0  0
   -5.2163   -3.6372    9.7313 C   0  0  2  0  0  0
   -4.0673   -3.8120   10.7290 C   0  0  1  0  0  0
   -3.2811   -2.5005   10.8204 C   0  0  2  0  0  0
   -2.7848   -2.1138    9.4248 C   0  0  1  0  0  0
   -3.9002   -1.9978    8.5390 O   0  0  0  0  0  0
   -2.0606   -0.7942    9.4967 C   0  0  0  0  0  0
   -1.0226   -0.7022   10.1297 O   0  0  0  0  0  0
   -2.5126    0.1814    8.9219 O   0  5  0  0  0  0
   -2.1641   -2.6733   11.6949 O   0  0  0  0  0  0
   -4.5965   -4.1446   12.0141 O   0  0  0  0  0  0
   -5.9142   -4.8753    9.5830 O   0  0  0  0  0  0
   -0.4776   -8.7746    1.5973 C   0  0  0  0  0  0
   -0.1334   -8.7971    2.8621 N   0  0  0  0  0  0
   -0.2201  -10.0642    3.3352 C   0  0  0  0  0  0
    0.0253  -10.6420    4.5852 C   0  0  0  0  0  0
   -0.1554  -11.9844    4.7618 C   0  0  0  0  0  0
   -0.5815  -12.7856    3.7119 C   0  0  0  0  0  0
   -0.8297  -12.2382    2.4707 C   0  0  0  0  0  0
   -0.6518  -10.8762    2.2714 C   0  0  0  0  0  0
   -0.8125  -10.0369    1.1860 N   0  0  0  0  0  0
   -1.2556  -10.4253   -0.1553 C   0  0  0  0  0  0
   -0.4915   -6.7436   -2.9456 C   0  0  0  0  0  0
  1  2  1  0  0  0
  2  3  1  0  0  0
  3  4  1  0  0  0
  4 12  1  0  0  0
  4  5  2  0  0  0
  5  6  1  0  0  0
  6 11  2  0  0  0
  6  7  1  0  0  0
  7  8  2  0  0  0
  7 51  1  0  0  0
  8  9  1  0  0  0
  9 10  2  0  0  0
  9 41  1  0  0  0
 10 11  1  0  0  0
 11 12  1  0  0  0
 12 13  1  0  0  0
 13 14  1  0  0  0
 14 19  1  0  0  0
 14 15  2  0  0  0
 15 16  1  0  0  0
 16 17  2  0  0  0
 17 18  1  0  0  0
 17 20  1  0  0  0
 18 19  2  0  0  0
 20 25  1  0  0  0
 20 21  2  0  0  0
 21 22  1  0  0  0
 22 23  2  0  0  0
 23 24  1  0  0  0
 24 25  2  0  0  0
 25 26  1  0  0  0
 26 27  2  0  0  0
 26 28  1  0  0  0
 28 29  1  0  0  0
 29 34  1  0  0  0
 29 30  1  0  0  0
 30 31  1  0  0  0
 30 40  1  0  0  0
 31 32  1  0  0  0
 31 39  1  0  0  0
 32 33  1  0  0  0
 32 38  1  0  0  0
 33 34  1  0  0  0
 33 35  1  0  0  0
 35 36  2  0  0  0
 35 37  1  0  0  0
 41 49  1  0  0  0
 41 42  2  0  0  0
 42 43  1  0  0  0
 43 48  2  0  0  0
 43 44  1  0  0  0
 44 45  2  0  0  0
 45 46  1  0  0  0
 46 47  2  0  0  0
 47 48  1  0  0  0
 48 49  1  0  0  0
 49 50  1  0  0  0
M  CHG  1  37  -1
M  END
> <s_m_entry_id>
105871

> <s_m_entry_name>
PKC-all_decoys.70

> <s_m_Source_Path>
/home/liwei/Desktop/Machine/Decoys/PKC

> <s_m_Source_File>
PKC-all_decoys.sdf

> <i_m_Source_File_Index>
70

$$$$
ZINC70665973
                    3D
 Structure written by MMmdl.
 42 45  0  0  1  0            999 V2000
   -0.0187    1.5258    0.0104 C   0  0  0  0  0  0
    0.0021   -0.0041    0.0020 C   0  0  0  0  0  0
    0.7421   -0.5109    1.2415 C   0  0  0  0  0  0
   -1.4333   -0.5336    0.0129 C   0  0  0  0  0  0
   -1.4157   -2.0577   -0.1212 C   0  0  1  0  0  0
   -2.8192   -2.5900    0.0125 C   0  0  0  0  0  0
   -3.3197   -3.2157   -0.8979 O   0  0  0  0  0  0
   -3.5181   -2.3707    1.1439 N   0  0  0  0  0  0
   -4.8824   -2.8882    1.2739 C   0  0  1  0  0  0
   -4.8338   -4.3384    1.7591 C   0  0  0  0  0  0
   -4.1798   -5.1981    0.7082 C   0  0  0  0  0  0
   -4.9482   -5.7906   -0.2764 C   0  0  0  0  0  0
   -4.3483   -6.5792   -1.2404 C   0  0  0  0  0  0
   -2.9800   -6.7747   -1.2201 C   0  0  0  0  0  0
   -2.2115   -6.1814   -0.2360 C   0  0  0  0  0  0
   -2.8109   -5.3894    0.7254 C   0  0  0  0  0  0
   -5.6446   -2.0511    2.2686 C   0  0  0  0  0  0
   -5.1036   -1.1179    2.8130 O   0  0  0  0  0  0
   -6.9244   -2.3421    2.5497 O   0  0  0  0  0  0
   -7.5856   -1.5066    3.5020 C   0  0  0  0  0  0
   -9.0251   -1.9891    3.6912 C   0  0  0  0  0  0
   -9.0369   -3.3309    4.3817 C   0  0  0  0  0  0
   -8.5141   -4.5573    4.0304 C   0  0  0  0  0  0
   -8.6754   -5.6453    4.8700 C   0  0  0  0  0  0
   -9.3612   -5.5050    6.0630 C   0  0  0  0  0  0
   -9.8876   -4.2816    6.4225 C   0  0  0  0  0  0
   -9.7287   -3.1796    5.5804 C   0  0  0  0  0  0
  -10.1824   -1.7732    5.7149 C   0  0  0  0  0  0
   -9.7741   -1.0458    4.6002 C   0  0  0  0  0  0
  -10.0798    0.2945    4.4941 C   0  0  0  0  0  0
  -10.7951    0.9234    5.4979 C   0  0  0  0  0  0
  -11.2047    0.2092    6.6094 C   0  0  0  0  0  0
  -10.9037   -1.1321    6.7236 C   0  0  0  0  0  0
   -0.8765   -2.4263   -1.4325 N   0  0  0  0  0  0
    0.4560   -2.5245   -1.6099 C   0  0  0  0  0  0
    1.2086   -2.3077   -0.6839 O   0  0  0  0  0  0
    1.0106   -2.9037   -2.9588 C   0  0  1  0  0  0
    1.0183   -1.6752   -3.8708 C   0  0  0  0  0  0
    1.4634   -2.0858   -5.2758 C   0  0  0  0  0  0
    1.4725   -0.6293   -6.3571 S   0  0  0  0  0  0
    2.0147   -1.2777   -7.9622 C   0  0  0  0  0  0
    2.3824   -3.4048   -2.8009 N   0  0  0  0  0  0
  1  2  1  0  0  0
  2  3  1  0  0  0
  2  4  1  0  0  0
  4  5  1  0  0  0
  5  6  1  0  0  0
  5 34  1  0  0  0
  6  7  2  0  0  0
  6  8  1  0  0  0
  8  9  1  0  0  0
  9 10  1  0  0  0
  9 17  1  0  0  0
 10 11  1  0  0  0
 11 16  1  0  0  0
 11 12  2  0  0  0
 12 13  1  0  0  0
 13 14  2  0  0  0
 14 15  1  0  0  0
 15 16  2  0  0  0
 17 18  2  0  0  0
 17 19  1  0  0  0
 19 20  1  0  0  0
 20 21  1  0  0  0
 21 29  1  0  0  0
 21 22  1  0  0  0
 22 27  1  0  0  0
 22 23  2  0  0  0
 23 24  1  0  0  0
 24 25  2  0  0  0
 25 26  1  0  0  0
 26 27  2  0  0  0
 27 28  1  0  0  0
 28 33  2  0  0  0
 28 29  1  0  0  0
 29 30  2  0  0  0
 30 31  1  0  0  0
 31 32  2  0  0  0
 32 33  1  0  0  0
 34 35  1  0  0  0
 35 36  2  0  0  0
 35 37  1  0  0  0
 37 38  1  0  0  0
 37 42  1  0  0  0
 38 39  1  0  0  0
 39 40  1  0  0  0
 40 41  1  0  0  0
M  END
> <s_m_entry_id>
105872

> <s_m_entry_name>
PKC-all_decoys.71

> <s_m_Source_Path>
/home/liwei/Desktop/Machine/Decoys/PKC

> <s_m_Source_File>
PKC-all_decoys.sdf

> <i_m_Source_File_Index>
71

$$$$
ZINC08432596
                    3D
 Structure written by MMmdl.
 41 44  0  0  1  0            999 V2000
   -0.0127    1.0858    0.0080 C   0  0  0  0  0  0
   -0.7288    1.5792    1.2668 C   0  0  0  0  0  0
    0.0111    1.0724    2.5063 C   0  0  0  0  0  0
   -0.7050    1.5658    3.7651 C   0  0  2  0  0  0
    0.1012    1.1661    5.0044 C   0  0  0  0  0  0
   -0.4690    1.8610    6.2422 C   0  0  0  0  0  0
   -1.9670    1.5906    6.3099 C   0  0  0  0  0  0
   -2.6485    1.1737    5.2207 C   0  0  0  0  0  0
   -4.3210    0.9969    5.7737 S   0  0  0  0  0  0
   -4.1200    1.4704    7.4283 C   0  0  0  0  0  0
   -2.7642    1.7537    7.5136 C   0  0  0  0  0  0
   -2.1586    2.2007    8.7718 C   0  0  0  0  0  0
   -2.0998    3.3885    9.0307 O   0  0  0  0  0  0
   -1.6670    1.2963    9.6418 N   0  0  0  0  0  0
   -5.0808    1.5478    8.4251 N   0  0  0  0  0  0
   -6.3617    1.2296    8.1526 C   0  0  0  0  0  0
   -6.6741    0.8755    7.0355 O   0  0  0  0  0  0
   -7.4059    1.3137    9.2359 C   0  0  0  0  0  0
   -8.7654    0.9024    8.6670 C   0  0  0  0  0  0
  -10.0222    1.0037    9.9711 S   0  0  0  0  0  0
  -11.5539    0.4915    9.1451 C   0  0  0  0  0  0
  -12.7109    0.5321   10.1453 C   0  0  0  0  0  0
  -13.9834    0.1066    9.4591 C   0  0  0  0  0  0
  -13.9665   -0.1990    8.2856 O   0  0  0  0  0  0
  -15.1401    0.0657   10.1495 N   0  0  0  0  0  0
  -16.3109   -0.3258    9.5181 C   0  0  0  0  0  0
  -17.5855   -0.4355   10.0559 C   0  0  0  0  0  0
  -18.6532   -0.8678    9.1703 C   0  0  0  0  0  0
  -18.2760   -1.1304    7.9001 C   0  0  0  0  0  0
  -16.5362   -0.8040    7.8681 S   0  0  0  0  0  0
  -19.1496   -1.5961    6.7764 C   0  0  0  0  0  0
  -20.4758   -2.0939    7.3694 C   0  0  1  0  0  0
  -20.9937   -1.0507    8.3637 C   0  0  0  0  0  0
  -20.1037   -1.0305    9.6076 C   0  0  0  0  0  0
  -21.4989   -2.2860    6.2481 C   0  0  0  0  0  0
  -21.0380   -3.4158    5.3252 C   0  0  0  0  0  0
  -22.0611   -3.6079    4.2039 C   0  0  0  0  0  0
  -17.8458   -0.1228   11.4645 C   0  0  0  0  0  0
  -18.1498    1.0098   11.7903 O   0  0  0  0  0  0
  -17.7485   -1.0895   12.3985 N   0  0  0  0  0  0
   -2.0965    0.9221    3.8515 C   0  0  0  0  0  0
  1  2  1  0  0  0
  2  3  1  0  0  0
  3  4  1  0  0  0
  4 41  1  0  0  0
  4  5  1  0  0  0
  5  6  1  0  0  0
  6  7  1  0  0  0
  7 11  1  0  0  0
  7  8  2  0  0  0
  8  9  1  0  0  0
  8 41  1  0  0  0
  9 10  1  0  0  0
 10 11  2  0  0  0
 10 15  1  0  0  0
 11 12  1  0  0  0
 12 13  2  0  0  0
 12 14  1  0  0  0
 15 16  1  0  0  0
 16 17  2  0  0  0
 16 18  1  0  0  0
 18 19  1  0  0  0
 19 20  1  0  0  0
 20 21  1  0  0  0
 21 22  1  0  0  0
 22 23  1  0  0  0
 23 24  2  0  0  0
 23 25  1  0  0  0
 25 26  1  0  0  0
 26 30  1  0  0  0
 26 27  2  0  0  0
 27 28  1  0  0  0
 27 38  1  0  0  0
 28 34  1  0  0  0
 28 29  2  0  0  0
 29 30  1  0  0  0
 29 31  1  0  0  0
 31 32  1  0  0  0
 32 33  1  0  0  0
 32 35  1  0  0  0
 33 34  1  0  0  0
 35 36  1  0  0  0
 36 37  1  0  0  0
 38 39  2  0  0  0
 38 40  1  0  0  0
M  END
> <s_m_entry_id>
105873

> <s_m_entry_name>
PKC-all_decoys.72

> <s_m_Source_Path>
/home/liwei/Desktop/Machine/Decoys/PKC

> <s_m_Source_File>
PKC-all_decoys.sdf

> <i_m_Source_File_Index>
72

$$$$
ZINC08497437
                    3D
 Structure written by MMmdl.
 45 47  0  0  1  0            999 V2000
    9.2559   -0.2105    5.2477 C   0  0  0  0  0  0
   10.5504    0.6049    5.2318 C   0  0  0  0  0  0
   11.5039    0.0277    4.1836 C   0  0  0  0  0  0
   10.2320    2.0607    4.8851 C   0  0  0  0  0  0
    9.4163    2.6492    5.9502 N   0  0  0  0  0  0
    9.2333    4.2926    6.0409 S   0  0  0  0  0  0
   10.5372    4.8515    5.9582 O   0  0  0  0  0  0
    8.3644    4.5446    7.1366 O   0  0  0  0  0  0
    8.3741    4.8020    4.5893 C   0  0  0  0  0  0
    8.9840    5.6142    3.6829 C   0  0  0  0  0  0
    8.3206    6.0267    2.5295 C   0  0  0  0  0  0
    7.0428    5.6294    2.2763 C   0  0  0  0  0  0
    6.3821    4.7920    3.1881 C   0  0  0  0  0  0
    7.0560    4.3715    4.3612 C   0  0  0  0  0  0
    6.3952    3.5332    5.2757 C   0  0  0  0  0  0
    5.1178    3.1322    5.0297 C   0  0  0  0  0  0
    4.4437    3.5431    3.8831 C   0  0  0  0  0  0
    5.0578    4.3604    2.9594 C   0  0  0  0  0  0
    4.3744    4.7627    1.8104 N   0  0  0  0  0  0
    3.3119    4.0563    1.3762 C   0  0  0  0  0  0
    3.0112    3.0159    1.9223 O   0  0  0  0  0  0
    2.4974    4.5592    0.2123 C   0  0  1  0  0  0
    3.2119    4.2159   -1.0963 C   0  0  0  0  0  0
    2.4502    4.8339   -2.2706 C   0  0  0  0  0  0
    3.1647    4.4906   -3.5792 C   0  0  0  0  0  0
    2.4030    5.1085   -4.7535 C   0  0  0  0  0  0
    3.0891    4.7790   -6.0099 N   0  0  0  0  0  0
    2.4635    5.2922   -7.0325 O   0  0  0  0  0  0
    2.9897    5.0639   -8.2461 C   0  0  0  0  0  0
    3.9989    4.4084   -8.3534 O   0  0  0  0  0  0
    2.3216    5.6254   -9.4747 C   0  0  0  0  0  0
    3.1057    5.2279  -10.6988 C   0  0  0  0  0  0
    4.1189    6.0442  -11.1658 C   0  0  0  0  0  0
    4.8413    5.6773  -12.2858 C   0  0  0  0  0  0
    4.5440    4.4990  -12.9446 C   0  0  0  0  0  0
    3.5271    3.6855  -12.4809 C   0  0  0  0  0  0
    2.8081    4.0498  -11.3579 C   0  0  0  0  0  0
    1.1774    3.9238    0.2292 N   0  0  0  0  0  0
    1.0739    2.5827    0.1437 C   0  0  0  0  0  0
    2.0754    1.9007    0.0527 O   0  0  0  0  0  0
   -0.1391    1.9988    0.1592 O   0  0  0  0  0  0
   -0.1747    0.5504    0.0635 C   0  0  0  0  0  0
    0.5892   -0.0575    1.2416 C   0  0  0  0  0  0
   -1.6279    0.0727    0.0970 C   0  0  0  0  0  0
    0.4768    0.1098   -1.2488 C   0  0  0  0  0  0
  1  2  1  0  0  0
  2  3  1  0  0  0
  2  4  1  0  0  0
  4  5  1  0  0  0
  5  6  1  0  0  0
  6  7  2  0  0  0
  6  8  2  0  0  0
  6  9  1  0  0  0
  9 14  2  0  0  0
  9 10  1  0  0  0
 10 11  2  0  0  0
 11 12  1  0  0  0
 12 13  2  0  0  0
 13 18  1  0  0  0
 13 14  1  0  0  0
 14 15  1  0  0  0
 15 16  2  0  0  0
 16 17  1  0  0  0
 17 18  2  0  0  0
 18 19  1  0  0  0
 19 20  1  0  0  0
 20 21  2  0  0  0
 20 22  1  0  0  0
 22 23  1  0  0  0
 22 38  1  0  0  0
 23 24  1  0  0  0
 24 25  1  0  0  0
 25 26  1  0  0  0
 26 27  1  0  0  0
 27 28  1  0  0  0
 28 29  1  0  0  0
 29 30  2  0  0  0
 29 31  1  0  0  0
 31 32  1  0  0  0
 32 37  1  0  0  0
 32 33  2  0  0  0
 33 34  1  0  0  0
 34 35  2  0  0  0
 35 36  1  0  0  0
 36 37  2  0  0  0
 38 39  1  0  0  0
 39 40  2  0  0  0
 39 41  1  0  0  0
 41 42  1  0  0  0
 42 43  1  0  0  0
 42 44  1  0  0  0
 42 45  1  0  0  0
M  END
> <s_m_entry_id>
105874

> <s_m_entry_name>
PKC-all_decoys.73

> <s_m_Source_Path>
/home/liwei/Desktop/Machine/Decoys/PKC

> <s_m_Source_File>
PKC-all_decoys.sdf

> <i_m_Source_File_Index>
73

$$$$
ZINC71788429
                    3D
 Structure written by MMmdl.
 43 46  0  0  1  0            999 V2000
   -0.4630   -2.4484   -0.4194 C   0  0  0  0  0  0
   -1.3415   -1.7233    0.6020 C   0  0  0  0  0  0
   -0.7774   -1.9431    2.0072 C   0  0  0  0  0  0
   -1.3590   -0.2260    0.2880 C   0  0  0  0  0  0
   -2.0289    0.0029   -1.0684 C   0  0  1  0  0  0
   -3.4793   -0.3978   -0.9863 C   0  0  0  0  0  0
   -4.3382    0.4520   -0.8816 O   0  0  0  0  0  0
   -3.8220   -1.7006   -1.0291 N   0  0  0  0  0  0
   -5.2352   -2.0857   -1.0571 C   0  0  1  0  0  0
   -5.7434   -2.0558   -2.4999 C   0  0  0  0  0  0
   -5.7056   -0.6406   -3.0165 C   0  0  0  0  0  0
   -6.8021    0.1849   -2.8517 C   0  0  0  0  0  0
   -6.7674    1.4830   -3.3256 C   0  0  0  0  0  0
   -5.6361    1.9558   -3.9639 C   0  0  0  0  0  0
   -4.5392    1.1306   -4.1279 C   0  0  0  0  0  0
   -4.5724   -0.1662   -3.6502 C   0  0  0  0  0  0
   -5.3876   -3.4775   -0.4996 C   0  0  0  0  0  0
   -4.4119   -4.0876   -0.1166 O   0  0  0  0  0  0
   -6.6083   -4.0442   -0.4266 N   0  0  0  0  0  0
   -6.7651   -5.2903    0.1889 C   0  0  0  0  0  0
   -7.7010   -6.1773   -0.2974 C   0  0  0  0  0  0
   -7.8583   -7.4284    0.3207 C   0  0  0  0  0  0
   -8.8025   -8.3585   -0.1485 C   0  0  0  0  0  0
   -8.9287   -9.5623    0.4739 C   0  0  0  0  0  0
   -8.1351   -9.8882    1.5720 C   0  0  0  0  0  0
   -7.2109   -9.0121    2.0537 C   0  0  0  0  0  0
   -7.0511   -7.7607    1.4373 C   0  0  0  0  0  0
   -6.1025   -6.8305    1.9104 C   0  0  0  0  0  0
   -5.9667   -5.6240    1.2870 C   0  0  0  0  0  0
   -5.3231   -7.1364    2.9795 O   0  0  0  0  0  0
   -4.3845   -6.1455    3.4028 C   0  0  0  0  0  0
   -1.9333    1.4200   -1.4273 N   0  0  0  0  0  0
   -0.8660    1.8702   -2.1163 C   0  0  0  0  0  0
   -0.0304    1.0887   -2.5187 O   0  0  0  0  0  0
   -0.7110    3.3446   -2.3869 C   0  0  2  0  0  0
   -1.5949    3.7415   -3.5710 C   0  0  0  0  0  0
   -1.5349    5.2349   -3.7642 C   0  0  0  0  0  0
   -2.4354    6.0534   -3.1085 C   0  0  0  0  0  0
   -2.3804    7.4232   -3.2857 C   0  0  0  0  0  0
   -1.4246    7.9746   -4.1184 C   0  0  0  0  0  0
   -0.5235    7.1561   -4.7734 C   0  0  0  0  0  0
   -0.5758    5.7866   -4.5928 C   0  0  0  0  0  0
    0.6929    3.6394   -2.7032 N   0  0  0  0  0  0
  1  2  1  0  0  0
  2  3  1  0  0  0
  2  4  1  0  0  0
  4  5  1  0  0  0
  5  6  1  0  0  0
  5 32  1  0  0  0
  6  7  2  0  0  0
  6  8  1  0  0  0
  8  9  1  0  0  0
  9 10  1  0  0  0
  9 17  1  0  0  0
 10 11  1  0  0  0
 11 16  1  0  0  0
 11 12  2  0  0  0
 12 13  1  0  0  0
 13 14  2  0  0  0
 14 15  1  0  0  0
 15 16  2  0  0  0
 17 18  2  0  0  0
 17 19  1  0  0  0
 19 20  1  0  0  0
 20 29  1  0  0  0
 20 21  2  0  0  0
 21 22  1  0  0  0
 22 27  2  0  0  0
 22 23  1  0  0  0
 23 24  2  0  0  0
 24 25  1  0  0  0
 25 26  2  0  0  0
 26 27  1  0  0  0
 27 28  1  0  0  0
 28 29  2  0  0  0
 28 30  1  0  0  0
 30 31  1  0  0  0
 32 33  1  0  0  0
 33 34  2  0  0  0
 33 35  1  0  0  0
 35 36  1  0  0  0
 35 43  1  0  0  0
 36 37  1  0  0  0
 37 42  1  0  0  0
 37 38  2  0  0  0
 38 39  1  0  0  0
 39 40  2  0  0  0
 40 41  1  0  0  0
 41 42  2  0  0  0
M  END
> <s_m_entry_id>
105875

> <s_m_entry_name>
PKC-all_decoys.74

> <s_m_Source_Path>
/home/liwei/Desktop/Machine/Decoys/PKC

> <s_m_Source_File>
PKC-all_decoys.sdf

> <i_m_Source_File_Index>
74

$$$$
ZINC77301774
                    3D
 Structure written by MMmdl.
 42 44  0  0  1  0            999 V2000
   -0.4404    2.7798    0.4432 C   0  0  0  0  0  0
   -0.9897    1.4190    0.8764 C   0  0  0  0  0  0
   -2.5119    1.4112    0.7231 C   0  0  1  0  0  0
   -2.8750    1.2387   -0.7532 C   0  0  2  0  0  0
   -2.0141    0.1196   -1.3914 C   0  0  2  0  0  0
   -2.0450    0.5400   -2.8861 C   0  0  0  0  0  0
   -2.0675    2.0809   -2.7926 C   0  0  1  0  0  0
   -2.5513    2.4293   -1.4887 O   0  0  0  0  0  0
   -0.6543    2.6334   -2.9883 C   0  0  0  0  0  0
    0.3410    1.7786   -2.2011 C   0  0  0  0  0  0
   -3.0024    2.6521   -3.8606 C   0  0  1  0  0  0
   -2.9232    4.1809   -3.8437 C   0  0  0  0  0  0
   -3.8153    4.7429   -4.9548 C   0  0  0  0  0  0
   -3.3730    4.1527   -6.2973 C   0  0  1  0  0  0
   -3.4348    2.6250   -6.2195 C   0  0  1  0  0  0
   -2.6077    2.1700   -5.1467 O   0  0  0  0  0  0
   -4.8791    2.1848   -5.9723 C   0  0  0  0  0  0
   -4.3058    4.6464   -7.4051 C   0  0  0  0  0  0
   -4.2490    6.1737   -7.4766 C   0  0  0  0  0  0
   -2.0338    4.5626   -6.5811 O   0  0  0  0  0  0
   -2.6579   -1.2538   -1.1905 C   0  0  0  0  0  0
   -3.0912    0.2705    1.5195 C   0  0  0  0  0  0
   -2.8453   -0.8699    1.2075 O   0  0  0  0  0  0
   -3.9773    0.5529    2.7053 C   0  0  1  0  0  0
   -5.4342    0.6347    2.2453 C   0  0  0  0  0  0
   -3.8290   -0.5716    3.7321 C   0  0  2  0  0  0
   -4.7286   -0.2849    4.9360 C   0  0  2  0  0  0
   -4.3195    1.0446    5.5731 C   0  0  0  0  0  0
   -4.5803   -1.4095    5.9627 C   0  0  0  0  0  0
   -5.5702   -1.1881    7.1082 C   0  0  0  0  0  0
   -5.4241   -2.2958    8.1195 C   0  0  0  0  0  0
   -6.2496   -3.3970    8.0605 C   0  0  0  0  0  0
   -6.1202   -4.4187    8.9875 C   0  0  0  0  0  0
   -5.1637   -4.3449    9.9806 C   0  0  0  0  0  0
   -4.3237   -3.2441   10.0567 C   0  0  0  0  0  0
   -4.4466   -2.2100    9.1159 C   0  0  0  0  0  0
   -3.5570   -1.0395    9.1817 C   0  0  0  0  0  0
   -3.8488   -0.0887    9.8942 O   0  0  0  0  0  0
   -2.5257   -1.0172    8.5240 O   0  5  0  0  0  0
   -3.3842   -3.1701   11.0317 O   0  0  0  0  0  0
   -5.0328   -5.4621   10.9836 C   0  0  0  0  0  0
   -2.4682   -0.6480    4.1617 O   0  0  0  0  0  0
  1  2  1  0  0  0
  2  3  1  0  0  0
  3  4  1  0  0  0
  3 22  1  0  0  0
  4  8  1  0  0  0
  4  5  1  0  0  0
  5  6  1  0  0  0
  5 21  1  0  0  0
  6  7  1  0  0  0
  7  8  1  0  0  0
  7  9  1  0  0  0
  7 11  1  0  0  0
  9 10  1  0  0  0
 11 16  1  0  0  0
 11 12  1  0  0  0
 12 13  1  0  0  0
 13 14  1  0  0  0
 14 15  1  0  0  0
 14 18  1  0  0  0
 14 20  1  0  0  0
 15 16  1  0  0  0
 15 17  1  0  0  0
 18 19  1  0  0  0
 22 23  2  0  0  0
 22 24  1  0  0  0
 24 25  1  0  0  0
 24 26  1  0  0  0
 26 27  1  0  0  0
 26 42  1  0  0  0
 27 28  1  0  0  0
 27 29  1  0  0  0
 29 30  1  0  0  0
 30 31  1  0  0  0
 31 36  1  0  0  0
 31 32  2  0  0  0
 32 33  1  0  0  0
 33 34  2  0  0  0
 34 35  1  0  0  0
 34 41  1  0  0  0
 35 36  2  0  0  0
 35 40  1  0  0  0
 36 37  1  0  0  0
 37 38  2  0  0  0
 37 39  1  0  0  0
M  CHG  1  39  -1
M  END
> <s_m_entry_id>
105876

> <s_m_entry_name>
PKC-all_decoys.75

> <s_m_Source_Path>
/home/liwei/Desktop/Machine/Decoys/PKC

> <s_m_Source_File>
PKC-all_decoys.sdf

> <i_m_Source_File_Index>
75

$$$$
ZINC58950415
                    3D
 Structure written by MMmdl.
 25 27  0  0  1  0            999 V2000
   -1.0942    1.3809    0.0281 C   0  0  0  0  0  0
   -0.5234   -0.0133    0.0666 C   0  0  0  0  0  0
   -0.0986   -0.6187   -1.1013 C   0  0  0  0  0  0
    0.4249   -1.8976   -1.0660 C   0  0  0  0  0  0
    0.5241   -2.5709    0.1372 C   0  0  0  0  0  0
    0.1001   -1.9652    1.3052 C   0  0  0  0  0  0
   -0.4195   -0.6847    1.2705 C   0  0  0  0  0  0
    0.2077   -2.6994    2.6168 C   0  0  0  0  0  0
    1.0939   -3.9655    0.1755 C   0  0  2  0  0  0
    0.0123   -4.9358    0.5645 C   0  0  0  0  0  0
   -0.9580   -5.3172   -0.3819 C   0  0  0  0  0  0
   -0.9240   -4.8633   -1.5126 O   0  0  0  0  0  0
   -1.9247   -6.1872   -0.0288 N   0  0  0  0  0  0
   -1.9654   -6.6896    1.2188 C   0  0  0  0  0  0
   -2.8443   -7.4738    1.5200 O   0  0  0  0  0  0
   -1.0484   -6.3379    2.1375 N   0  0  0  0  0  0
   -0.0454   -5.4529    1.8200 C   0  0  0  0  0  0
    0.8606   -5.1147    2.7571 O   0  0  0  0  0  0
    2.0398   -4.5829    2.3931 C   0  0  0  0  0  0
    2.2162   -4.0184    1.1752 C   0  0  0  0  0  0
    3.4689   -3.4740    0.8417 C   0  0  0  0  0  0
    4.1849   -4.0419    0.0354 O   0  0  0  0  0  0
    3.8778   -2.3242    1.4136 N   0  0  0  0  0  0
    3.0870   -4.6122    3.2757 N   0  0  0  0  0  0
    0.8872   -2.5579   -2.3393 C   0  0  0  0  0  0
  1  2  1  0  0  0
  2  7  2  0  0  0
  2  3  1  0  0  0
  3  4  2  0  0  0
  4  5  1  0  0  0
  4 25  1  0  0  0
  5  6  2  0  0  0
  5  9  1  0  0  0
  6  7  1  0  0  0
  6  8  1  0  0  0
  9 20  1  0  0  0
  9 10  1  0  0  0
 10 17  2  0  0  0
 10 11  1  0  0  0
 11 12  2  0  0  0
 11 13  1  0  0  0
 13 14  1  0  0  0
 14 15  2  0  0  0
 14 16  1  0  0  0
 16 17  1  0  0  0
 17 18  1  0  0  0
 18 19  1  0  0  0
 19 20  2  0  0  0
 19 24  1  0  0  0
 20 21  1  0  0  0
 21 22  2  0  0  0
 21 23  1  0  0  0
M  END
> <s_m_entry_id>
105877

> <s_m_entry_name>
PKC-all_decoys.76

> <s_m_Source_Path>
/home/liwei/Desktop/Machine/Decoys/PKC

> <s_m_Source_File>
PKC-all_decoys.sdf

> <i_m_Source_File_Index>
76

$$$$
ZINC58950499
                    3D
 Structure written by MMmdl.
 25 28  0  0  1  0            999 V2000
   -0.2284    1.7151    0.1786 C   0  0  0  0  0  0
    0.8404    2.5891    0.2566 C   0  0  0  0  0  0
    2.1357    2.0994    0.2841 C   0  0  0  0  0  0
    2.3581    0.7251    0.2334 C   0  0  0  0  0  0
    1.2828   -0.1444    0.1552 C   0  0  0  0  0  0
   -0.0077    0.3517    0.1283 C   0  0  0  0  0  0
   -1.1760   -0.5964    0.0434 C   0  0  2  0  0  0
   -1.9600   -0.3109   -1.2082 C   0  0  0  0  0  0
   -1.4689   -0.7441   -2.4547 C   0  0  0  0  0  0
   -0.4121   -1.3475   -2.5217 O   0  0  0  0  0  0
   -2.1752   -0.4864   -3.5730 N   0  0  0  0  0  0
   -3.3420    0.1801   -3.5026 C   0  0  0  0  0  0
   -3.9664    0.4034   -4.5217 O   0  0  0  0  0  0
   -3.8283    0.6026   -2.3220 N   0  0  0  0  0  0
   -3.1399    0.3616   -1.1567 C   0  0  0  0  0  0
   -3.6461    0.7957    0.0133 O   0  0  0  0  0  0
   -3.2233    0.2592    1.1706 C   0  0  0  0  0  0
   -2.0529   -0.4167    1.2519 C   0  0  0  0  0  0
   -1.6532   -0.9586    2.4861 C   0  0  0  0  0  0
   -1.7988   -2.1487    2.7049 O   0  0  0  0  0  0
   -1.1091   -0.1620    3.4273 N   0  0  0  0  0  0
   -3.9944    0.4007    2.2939 N   0  0  0  0  0  0
    3.7037    0.4993    0.2740 O   0  0  0  0  0  0
    4.3152    1.7588   -0.0619 C   0  0  0  0  0  0
    3.3420    2.7340    0.3565 O   0  0  0  0  0  0
  1  6  2  0  0  0
  1  2  1  0  0  0
  2  3  2  0  0  0
  3 25  1  0  0  0
  3  4  1  0  0  0
  4  5  2  0  0  0
  4 23  1  0  0  0
  5  6  1  0  0  0
  6  7  1  0  0  0
  7 18  1  0  0  0
  7  8  1  0  0  0
  8 15  2  0  0  0
  8  9  1  0  0  0
  9 10  2  0  0  0
  9 11  1  0  0  0
 11 12  1  0  0  0
 12 13  2  0  0  0
 12 14  1  0  0  0
 14 15  1  0  0  0
 15 16  1  0  0  0
 16 17  1  0  0  0
 17 18  2  0  0  0
 17 22  1  0  0  0
 18 19  1  0  0  0
 19 20  2  0  0  0
 19 21  1  0  0  0
 23 24  1  0  0  0
 24 25  1  0  0  0
M  END
> <s_m_entry_id>
105878

> <s_m_entry_name>
PKC-all_decoys.77

> <s_m_Source_Path>
/home/liwei/Desktop/Machine/Decoys/PKC

> <s_m_Source_File>
PKC-all_decoys.sdf

> <i_m_Source_File_Index>
77

$$$$
ZINC25865512
                    3D
 Structure written by MMmdl.
 24 25  0  0  1  0            999 V2000
   -2.5571    1.3145   -0.3402 C   0  0  0  0  0  0
   -2.4822   -0.1887   -0.2638 C   0  0  0  0  0  0
   -3.4026   -0.8182    0.2131 O   0  0  0  0  0  0
   -1.3924   -0.8334   -0.7254 N   0  3  0  0  0  0
   -1.2860   -2.2168   -0.5786 C   0  0  0  0  0  0
   -0.0384   -2.7935   -0.3399 C   0  0  0  0  0  0
    0.0804   -4.1441   -0.1879 C   0  0  0  0  0  0
   -1.0545   -4.9579   -0.2847 C   0  0  0  0  0  0
   -0.9550   -6.4108   -0.1314 C   0  0  0  0  0  0
   -2.0924   -7.1466   -0.2349 C   0  0  0  0  0  0
   -3.3228   -6.5044   -0.4836 C   0  0  0  0  0  0
   -4.3349   -7.1759   -0.5741 O   0  0  0  0  0  0
   -3.4073   -5.1721   -0.6226 O   0  0  0  0  0  0
   -2.3153   -4.3831   -0.5311 C   0  0  0  0  0  0
   -2.4203   -3.0083   -0.6768 C   0  0  0  0  0  0
    0.3730   -7.0720    0.1334 C   0  0  0  0  0  0
    1.1605   -7.4958   -1.4402 S   0  0  0  0  0  0
    2.6487   -8.2313   -0.8494 C   0  0  0  0  0  0
    2.8687   -8.3181    0.4333 N   0  3  0  0  0  0
    4.0370   -9.0504    0.9282 C   0  0  0  0  0  0
    5.3140   -8.3577    0.4484 C   0  0  0  0  0  0
    4.0136   -9.0743    2.4578 C   0  0  0  0  0  0
    4.0035  -10.4842    0.3952 C   0  0  0  0  0  0
    3.5785   -8.7140   -1.7410 N   0  0  0  0  0  0
  1  2  1  0  0  0
  2  3  2  0  0  0
  2  4  1  0  0  0
  4  5  2  0  0  0
  5 15  1  0  0  0
  5  6  1  0  0  0
  6  7  2  0  0  0
  7  8  1  0  0  0
  8 14  1  0  0  0
  8  9  2  0  0  0
  9 10  1  0  0  0
  9 16  1  0  0  0
 10 11  2  0  0  0
 11 12  1  0  0  0
 11 13  1  0  0  0
 13 14  1  0  0  0
 14 15  2  0  0  0
 16 17  1  0  0  0
 17 18  1  0  0  0
 18 19  2  0  0  0
 18 24  1  0  0  0
 19 20  1  0  0  0
 20 21  1  0  0  0
 20 22  1  0  0  0
 20 23  1  0  0  0
M  CHG  2   4   1  19   1
M  END
> <s_m_entry_id>
105879

> <s_m_entry_name>
PKC-all_decoys.78

> <s_m_Source_Path>
/home/liwei/Desktop/Machine/Decoys/PKC

> <s_m_Source_File>
PKC-all_decoys.sdf

> <i_m_Source_File_Index>
78

$$$$
ZINC81237560
                    3D
 Structure written by MMmdl.
 25 28  0  0  1  0            999 V2000
   -0.0167    1.3768    0.0096 C   0  0  0  0  0  0
    1.1719    2.0830    0.0021 C   0  0  0  0  0  0
    2.3756    1.4061   -0.0130 C   0  0  0  0  0  0
    2.3964    0.0213   -0.0206 C   0  0  0  0  0  0
    1.2082   -0.6847   -0.0132 C   0  0  0  0  0  0
    0.0021   -0.0041    0.0020 C   0  0  0  0  0  0
    1.4958   -2.1708   -0.0240 C   0  0  0  0  0  0
    2.9656   -2.2944   -0.4788 C   0  0  0  0  0  0
    3.5639   -0.9420   -0.0368 C   0  0  0  0  0  0
    3.6495   -3.4383    0.2246 C   0  0  0  0  0  0
    3.2433   -3.8172    1.3027 O   0  0  0  0  0  0
    4.7128   -4.0402   -0.3444 N   0  0  0  0  0  0
    5.3486   -5.1037    0.3095 N   0  0  0  0  0  0
    6.4118   -5.7056   -0.2595 C   0  0  0  0  0  0
    6.8193   -5.3256   -1.3406 O   0  0  0  0  0  0
    7.0798   -6.8226    0.4274 C   0  0  0  0  0  0
    8.1654   -7.5348   -0.0157 C   0  0  0  0  0  0
    8.4289   -8.4887    0.9758 C   0  0  0  0  0  0
    7.5518   -8.3279    1.9233 N   0  0  0  0  0  0
    6.7485   -7.3605    1.6431 N   0  0  0  0  0  0
    9.5511   -9.4925    0.8797 C   0  0  0  0  0  0
   10.0164   -9.5519   -0.5808 C   0  0  0  0  0  0
   10.2916   -8.1379   -1.0972 C   0  0  0  0  0  0
    8.9654   -7.3871   -1.2806 C   0  0  0  0  0  0
    3.0473   -2.4467   -1.8973 O   0  0  0  0  0  0
  1  6  2  0  0  0
  1  2  1  0  0  0
  2  3  2  0  0  0
  3  4  1  0  0  0
  4  9  1  0  0  0
  4  5  2  0  0  0
  5  6  1  0  0  0
  5  7  1  0  0  0
  7  8  1  0  0  0
  8  9  1  0  0  0
  8 10  1  0  0  0
  8 25  1  0  0  0
 10 11  2  0  0  0
 10 12  1  0  0  0
 12 13  1  0  0  0
 13 14  1  0  0  0
 14 15  2  0  0  0
 14 16  1  0  0  0
 16 17  2  0  0  0
 16 20  1  0  0  0
 17 18  1  0  0  0
 17 24  1  0  0  0
 18 19  2  0  0  0
 18 21  1  0  0  0
 19 20  1  0  0  0
 21 22  1  0  0  0
 22 23  1  0  0  0
 23 24  1  0  0  0
M  END
> <s_m_entry_id>
105880

> <s_m_entry_name>
PKC-all_decoys.79

> <s_m_Source_Path>
/home/liwei/Desktop/Machine/Decoys/PKC

> <s_m_Source_File>
PKC-all_decoys.sdf

> <i_m_Source_File_Index>
79

$$$$
ZINC77472091
                    3D
 Structure written by MMmdl.
 24 28  0  0  1  0            999 V2000
   -0.0167    1.3791    0.0096 C   0  0  0  0  0  0
    1.1471    2.1280    0.0025 C   0  0  0  0  0  0
    2.4009    1.5377   -0.0123 C   0  0  0  0  0  0
    2.4483    0.1489   -0.0200 C   0  0  0  0  0  0
    1.2577   -0.6230   -0.0130 C   0  0  0  0  0  0
    0.0021   -0.0041    0.0020 C   0  0  0  0  0  0
    1.6154   -1.9218   -0.0225 N   0  0  0  0  0  0
    2.9233   -2.0156   -0.0429 C   0  0  0  0  0  0
    3.4777   -0.7436   -0.0317 N   0  0  0  0  0  0
    4.9260   -0.5462   -0.0258 C   0  0  2  0  0  0
    5.4335   -0.2096    1.3373 C   0  0  0  0  0  0
    5.3889   -0.8998    2.5300 C   0  0  0  0  0  0
    5.9679   -0.2885    3.6364 C   0  0  0  0  0  0
    6.5610    0.9541    3.5433 C   0  0  0  0  0  0
    6.6105    1.6554    2.3477 C   0  0  0  0  0  0
    6.0319    1.0523    1.2287 C   0  0  0  0  0  0
    5.9387    1.5192   -0.0713 N   0  0  0  0  0  0
    5.3029    0.6434   -0.8787 C   0  0  0  0  0  0
    5.0777    0.7841   -2.0621 O   0  0  0  0  0  0
    7.3599    3.2180    2.2464 Cl  0  0  0  0  0  0
    5.5535   -1.7649   -0.5473 N   0  0  0  0  0  0
    4.9981   -2.9884   -0.2741 C   0  0  0  0  0  0
    3.7014   -3.1219   -0.0571 N   0  3  0  0  0  0
    5.8030   -4.0940   -0.2256 N   0  0  0  0  0  0
  1  6  2  0  0  0
  1  2  1  0  0  0
  2  3  2  0  0  0
  3  4  1  0  0  0
  4  9  1  0  0  0
  4  5  2  0  0  0
  5  6  1  0  0  0
  5  7  1  0  0  0
  7  8  2  0  0  0
  8 23  1  0  0  0
  8  9  1  0  0  0
  9 10  1  0  0  0
 10 18  1  0  0  0
 10 11  1  0  0  0
 10 21  1  0  0  0
 11 16  1  0  0  0
 11 12  2  0  0  0
 12 13  1  0  0  0
 13 14  2  0  0  0
 14 15  1  0  0  0
 15 16  2  0  0  0
 15 20  1  0  0  0
 16 17  1  0  0  0
 17 18  1  0  0  0
 18 19  2  0  0  0
 21 22  1  0  0  0
 22 23  2  0  0  0
 22 24  1  0  0  0
M  CHG  1  23   1
M  END
> <s_m_entry_id>
105881

> <s_m_entry_name>
PKC-all_decoys.80

> <s_m_Source_Path>
/home/liwei/Desktop/Machine/Decoys/PKC

> <s_m_Source_File>
PKC-all_decoys.sdf

> <i_m_Source_File_Index>
80

$$$$
ZINC77472099
                    3D
 Structure written by MMmdl.
 25 29  0  0  1  0            999 V2000
   -0.0167    1.3790    0.0096 C   0  0  0  0  0  0
    1.1471    2.1279    0.0025 C   0  0  0  0  0  0
    2.4009    1.5374   -0.0126 C   0  0  0  0  0  0
    2.4483    0.1486   -0.0205 C   0  0  0  0  0  0
    1.2576   -0.6231   -0.0133 C   0  0  0  0  0  0
    0.0021   -0.0041    0.0020 C   0  0  0  0  0  0
    1.6150   -1.9219   -0.0233 N   0  0  0  0  0  0
    2.9228   -2.0160   -0.0450 C   0  0  0  0  0  0
    3.4774   -0.7442   -0.0325 N   0  0  0  0  0  0
    4.9258   -0.5474   -0.0241 C   0  0  2  0  0  0
    5.4295   -0.2150    1.3416 C   0  0  0  0  0  0
    6.0283    1.0478    1.2386 C   0  0  0  0  0  0
    6.6022    1.6480    2.3597 C   0  0  0  0  0  0
    6.5499    0.9439    3.5556 C   0  0  0  0  0  0
    5.9569   -0.3006    3.6452 C   0  0  0  0  0  0
    5.3811   -0.9104    2.5330 C   0  0  0  0  0  0
    4.8014   -2.1278    2.6166 F   0  0  0  0  0  0
    7.0944    1.4922    4.6638 F   0  0  0  0  0  0
    5.9395    1.5178   -0.0601 N   0  0  0  0  0  0
    5.3053    0.6448   -0.8719 C   0  0  0  0  0  0
    5.0827    0.7898   -2.0553 O   0  0  0  0  0  0
    5.5536   -1.7650   -0.5474 N   0  0  0  0  0  0
    4.9976   -2.9889   -0.2776 C   0  0  0  0  0  0
    3.7008   -3.1225   -0.0611 N   0  3  0  0  0  0
    5.8021   -4.0948   -0.2316 N   0  0  0  0  0  0
  1  6  2  0  0  0
  1  2  1  0  0  0
  2  3  2  0  0  0
  3  4  1  0  0  0
  4  9  1  0  0  0
  4  5  2  0  0  0
  5  6  1  0  0  0
  5  7  1  0  0  0
  7  8  2  0  0  0
  8 24  1  0  0  0
  8  9  1  0  0  0
  9 10  1  0  0  0
 10 20  1  0  0  0
 10 11  1  0  0  0
 10 22  1  0  0  0
 11 16  2  0  0  0
 11 12  1  0  0  0
 12 13  2  0  0  0
 12 19  1  0  0  0
 13 14  1  0  0  0
 14 15  2  0  0  0
 14 18  1  0  0  0
 15 16  1  0  0  0
 16 17  1  0  0  0
 19 20  1  0  0  0
 20 21  2  0  0  0
 22 23  1  0  0  0
 23 24  2  0  0  0
 23 25  1  0  0  0
M  CHG  1  24   1
M  END
> <s_m_entry_id>
105882

> <s_m_entry_name>
PKC-all_decoys.81

> <s_m_Source_Path>
/home/liwei/Desktop/Machine/Decoys/PKC

> <s_m_Source_File>
PKC-all_decoys.sdf

> <i_m_Source_File_Index>
81

$$$$
ZINC83331771
                    3D
 Structure written by MMmdl.
 27 29  0  0  1  0            999 V2000
    0.0222    1.4077    0.0046 C   0  0  0  0  0  0
    1.2102    2.1176   -0.0107 C   0  0  0  0  0  0
    2.4164    1.4497   -0.0287 C   0  0  0  0  0  0
    2.4372    0.0513   -0.0313 C   0  0  0  0  0  0
    1.2324   -0.6587   -0.0157 C   0  0  0  0  0  0
    0.0344    0.0238    0.0022 C   0  0  0  0  0  0
    3.7201   -0.6692   -0.0509 C   0  0  0  0  0  0
    3.7356   -1.9745   -0.0533 N   0  0  0  0  0  0
    4.8602   -2.6062   -0.0704 N   0  0  0  0  0  0
    4.8759   -3.9233   -0.0729 C   0  0  0  0  0  0
    3.8020   -4.7872   -0.0650 N   0  0  0  0  0  0
    3.9476   -6.1012   -0.0690 C   0  0  0  0  0  0
    5.3810   -6.6080   -0.0828 C   0  0  1  0  0  0
    6.2940   -5.0097   -0.0950 S   0  0  0  0  0  0
    5.6934   -7.4224    1.1741 C   0  0  0  0  0  0
    7.0783   -8.0062    1.0631 C   0  0  0  0  0  0
    7.7494   -7.7919    0.0758 O   0  0  0  0  0  0
    7.5711   -8.7664    2.0610 N   0  0  0  0  0  0
    8.8171   -9.3879    1.9174 C   0  0  0  0  0  0
    9.0357  -10.6435    2.4693 C   0  0  0  0  0  0
   10.2655  -11.2554    2.3262 C   0  0  0  0  0  0
   11.2802  -10.6187    1.6335 C   0  0  0  0  0  0
   11.0656   -9.3666    1.0824 C   0  0  0  0  0  0
    9.8344   -8.7527    1.2182 C   0  0  0  0  0  0
   12.3411   -8.5702    0.2150 Cl  0  0  0  0  0  0
   12.8249  -11.3907    1.4555 Cl  0  0  0  0  0  0
    2.9977   -6.8548   -0.0617 O   0  0  0  0  0  0
  1  6  2  0  0  0
  1  2  1  0  0  0
  2  3  2  0  0  0
  3  4  1  0  0  0
  4  5  2  0  0  0
  4  7  1  0  0  0
  5  6  1  0  0  0
  7  8  2  0  0  0
  8  9  1  0  0  0
  9 10  2  0  0  0
 10 14  1  0  0  0
 10 11  1  0  0  0
 11 12  1  0  0  0
 12 13  1  0  0  0
 12 27  2  0  0  0
 13 14  1  0  0  0
 13 15  1  0  0  0
 15 16  1  0  0  0
 16 17  2  0  0  0
 16 18  1  0  0  0
 18 19  1  0  0  0
 19 24  1  0  0  0
 19 20  2  0  0  0
 20 21  1  0  0  0
 21 22  2  0  0  0
 22 23  1  0  0  0
 22 26  1  0  0  0
 23 24  2  0  0  0
 23 25  1  0  0  0
M  END
> <s_m_entry_id>
105883

> <s_m_entry_name>
PKC-all_decoys.82

> <s_m_Source_Path>
/home/liwei/Desktop/Machine/Decoys/PKC

> <s_m_Source_File>
PKC-all_decoys.sdf

> <i_m_Source_File_Index>
82

$$$$
ZINC83331786
                    3D
 Structure written by MMmdl.
 26 28  0  0  1  0            999 V2000
   -0.0071    1.4015   -0.0005 C   0  0  0  0  0  0
    1.1858    2.0857   -0.0122 C   0  0  0  0  0  0
    2.3633    1.3543   -0.0234 C   0  0  0  0  0  0
    1.7519   -0.3231   -0.0168 S   0  0  0  0  0  0
    0.0049    0.0428   -0.0001 C   0  0  0  0  0  0
    3.7460    1.8322   -0.0373 C   0  0  0  0  0  0
    4.7342    0.9751   -0.0465 N   0  0  0  0  0  0
    6.0583    1.4327   -0.0599 N   0  0  0  0  0  0
    7.0523    0.5706   -0.0691 C   0  0  0  0  0  0
    6.9848   -0.8076   -0.0736 N   0  0  0  0  0  0
    8.0645   -1.5704   -0.0826 C   0  0  0  0  0  0
    9.3949   -0.8347   -0.0882 C   0  0  1  0  0  0
    8.8063    0.9093   -0.0867 S   0  0  0  0  0  0
   10.2097   -1.1526    1.1672 C   0  0  0  0  0  0
   11.5657   -0.5034    1.0637 C   0  0  0  0  0  0
   11.8523    0.1493    0.0825 O   0  0  0  0  0  0
   12.4600   -0.6481    2.0616 N   0  0  0  0  0  0
   13.7521   -0.1276    1.9244 C   0  0  0  0  0  0
   14.8355   -0.8024    2.4720 C   0  0  0  0  0  0
   16.1096   -0.2876    2.3352 C   0  0  0  0  0  0
   16.3081    0.8999    1.6530 C   0  0  0  0  0  0
   15.2299    1.5754    1.1063 C   0  0  0  0  0  0
   13.9533    1.0609    1.2358 C   0  0  0  0  0  0
   15.4823    3.0654    0.2521 Cl  0  0  0  0  0  0
   17.9111    1.5442    1.4829 Cl  0  0  0  0  0  0
    7.9978   -2.7812   -0.0857 O   0  0  0  0  0  0
  1  5  2  0  0  0
  1  2  1  0  0  0
  2  3  2  0  0  0
  3  4  1  0  0  0
  3  6  1  0  0  0
  4  5  1  0  0  0
  6  7  2  0  0  0
  7  8  1  0  0  0
  8  9  2  0  0  0
  9 13  1  0  0  0
  9 10  1  0  0  0
 10 11  1  0  0  0
 11 12  1  0  0  0
 11 26  2  0  0  0
 12 13  1  0  0  0
 12 14  1  0  0  0
 14 15  1  0  0  0
 15 16  2  0  0  0
 15 17  1  0  0  0
 17 18  1  0  0  0
 18 23  1  0  0  0
 18 19  2  0  0  0
 19 20  1  0  0  0
 20 21  2  0  0  0
 21 22  1  0  0  0
 21 25  1  0  0  0
 22 23  2  0  0  0
 22 24  1  0  0  0
M  END
> <s_m_entry_id>
105884

> <s_m_entry_name>
PKC-all_decoys.83

> <s_m_Source_Path>
/home/liwei/Desktop/Machine/Decoys/PKC

> <s_m_Source_File>
PKC-all_decoys.sdf

> <i_m_Source_File_Index>
83

$$$$
ZINC03099408
                    3D
 Structure written by MMmdl.
 20 21  0  0  1  0            999 V2000
    0.0148    1.3885   -0.5026 C   0  0  0  0  0  0
    0.0397    0.0325   -0.7511 C   0  0  0  0  0  0
    1.2436   -0.6082   -0.9927 C   0  0  0  0  0  0
    2.4293    0.1074   -0.9863 C   0  0  0  0  0  0
    2.4180    1.4639   -0.7391 C   0  0  0  0  0  0
    1.2072    2.1161   -0.4947 C   0  0  0  0  0  0
    1.1877    3.5686   -0.2297 C   0  0  0  0  0  0
    0.1329    4.1334   -0.0179 O   0  0  0  0  0  0
    2.3398    4.2679   -0.2228 N   0  0  0  0  0  0
    2.3228    5.5368    0.0087 N   0  0  0  0  0  0
    3.4527    6.2037    0.1008 C   0  0  0  0  0  0
    4.7610    5.5130    0.0949 C   0  0  0  0  0  0
    4.8285    4.3023    0.0038 O   0  0  0  0  0  0
    5.8773    6.2649    0.1876 N   0  0  0  0  0  0
    5.8176    7.5994    0.2940 C   0  0  0  0  0  0
    6.8616    8.2156    0.3795 O   0  0  0  0  0  0
    4.6706    8.2922    0.3117 N   0  0  0  0  0  0
    3.4729    7.6780    0.2211 C   0  0  0  0  0  0
    2.4392    8.3181    0.2384 O   0  0  0  0  0  0
    1.2685   -2.4683   -1.3321 Br  0  0  0  0  0  0
  1  6  2  0  0  0
  1  2  1  0  0  0
  2  3  2  0  0  0
  3  4  1  0  0  0
  3 20  1  0  0  0
  4  5  2  0  0  0
  5  6  1  0  0  0
  6  7  1  0  0  0
  7  8  2  0  0  0
  7  9  1  0  0  0
  9 10  1  0  0  0
 10 11  2  0  0  0
 11 18  1  0  0  0
 11 12  1  0  0  0
 12 13  2  0  0  0
 12 14  1  0  0  0
 14 15  1  0  0  0
 15 16  2  0  0  0
 15 17  1  0  0  0
 17 18  1  0  0  0
 18 19  2  0  0  0
M  END
> <s_m_entry_id>
105885

> <s_m_entry_name>
PKC-all_decoys.84

> <s_m_Source_Path>
/home/liwei/Desktop/Machine/Decoys/PKC

> <s_m_Source_File>
PKC-all_decoys.sdf

> <i_m_Source_File_Index>
84

$$$$
ZINC40567767
                    3D
 Structure written by MMmdl.
 39 40  0  0  1  0            999 V2000
   -1.1743    1.5719   -0.4277 C   0  0  0  0  0  0
   -1.0647    0.1128   -0.4992 N   0  0  0  0  0  0
   -2.1186   -0.7298    0.0714 C   0  0  0  0  0  0
    0.0057   -0.4545   -1.0900 C   0  0  0  0  0  0
    0.9261    0.2377   -1.4702 O   0  0  0  0  0  0
    0.0588   -1.9487   -1.2781 C   0  0  2  0  0  0
   -0.8793   -2.3934   -0.9457 H   0  0  0  0  0  0
    1.2190   -2.5285   -0.4660 C   0  0  0  0  0  0
    2.5293   -2.1279   -1.0781 C   0  0  0  0  0  0
    2.6590   -1.6807   -2.2859 C   0  0  0  0  0  0
    1.5159   -1.4909   -3.2395 C   0  0  0  0  0  0
    0.2873   -2.2741   -2.7596 C   0  0  2  0  0  0
    0.4682   -3.3426   -2.8763 H   0  0  0  0  0  0
   -0.9246   -1.8709   -3.5595 C   0  0  0  0  0  0
   -1.8797   -1.3718   -3.0034 O   0  0  0  0  0  0
   -0.9468   -2.0650   -4.8931 N   0  0  0  0  0  0
   -2.1040   -1.7825   -5.6200 C   0  0  0  0  0  0
   -2.9272   -0.7144   -5.2671 C   0  0  0  0  0  0
   -4.0624   -0.4684   -6.0114 C   0  0  0  0  0  0
   -4.3717   -1.2289   -7.0446 N   0  0  0  0  0  0
   -3.6183   -2.2488   -7.4101 C   0  0  0  0  0  0
   -2.4635   -2.5576   -6.7214 C   0  0  0  0  0  0
   -0.7079    1.9267    0.4913 H   0  0  0  0  0  0
   -0.6707    2.0166   -1.2860 H   0  0  0  0  0  0
   -2.2261    1.8580   -0.4352 H   0  0  0  0  0  0
   -2.9129   -0.8652   -0.6626 H   0  0  0  0  0  0
   -1.7022   -1.7008    0.3395 H   0  0  0  0  0  0
   -2.5248   -0.2503    0.9621 H   0  0  0  0  0  0
    1.1678   -2.1531    0.5560 H   0  0  0  0  0  0
    1.1434   -3.6158   -0.4536 H   0  0  0  0  0  0
    3.4195   -2.2187   -0.4734 H   0  0  0  0  0  0
    3.6517   -1.4289   -2.6288 H   0  0  0  0  0  0
    1.2662   -0.4315   -3.2980 H   0  0  0  0  0  0
    1.8071   -1.8465   -4.2279 H   0  0  0  0  0  0
   -0.1585   -2.4010   -5.3475 H   0  0  0  0  0  0
   -2.6800   -0.0884   -4.4224 H   0  0  0  0  0  0
   -4.7062    0.3567   -5.7450 H   0  0  0  0  0  0
   -3.9070   -2.8466   -8.2620 H   0  0  0  0  0  0
   -1.8490   -3.3908   -7.0287 H   0  0  0  0  0  0
  1  2  1  0  0  0
  1 23  1  0  0  0
  1 24  1  0  0  0
  1 25  1  0  0  0
  2  3  1  0  0  0
  2  4  1  0  0  0
  3 26  1  0  0  0
  3 27  1  0  0  0
  3 28  1  0  0  0
  4  5  2  0  0  0
  4  6  1  0  0  0
  6  7  1  0  0  0
  6 12  1  0  0  0
  6  8  1  0  0  0
  8  9  1  0  0  0
  8 29  1  0  0  0
  8 30  1  0  0  0
  9 10  2  0  0  0
  9 31  1  0  0  0
 10 11  1  0  0  0
 10 32  1  0  0  0
 11 12  1  0  0  0
 11 33  1  0  0  0
 11 34  1  0  0  0
 12 13  1  0  0  0
 12 14  1  0  0  0
 14 15  2  0  0  0
 14 16  1  0  0  0
 16 17  1  0  0  0
 16 35  1  0  0  0
 17 22  2  0  0  0
 17 18  1  0  0  0
 18 19  2  0  0  0
 18 36  1  0  0  0
 19 20  1  0  0  0
 19 37  1  0  0  0
 20 21  2  0  0  0
 21 22  1  0  0  0
 21 38  1  0  0  0
 22 39  1  0  0  0
M  END
> <s_m_entry_id>
105886

> <s_m_entry_name>
PKC-all_decoys.85

> <s_m_Source_Path>
/home/liwei/Desktop/Machine/Decoys/PKC

> <s_m_Source_File>
PKC-all_decoys.sdf

> <i_m_Source_File_Index>
85

$$$$
ZINC41532803
                    3D
 Structure written by MMmdl.
 47 48  0  0  1  0            999 V2000
   -0.0517    1.5391   -0.0917 C   0  0  0  0  0  0
   -0.0038    0.0132    0.0095 C   0  0  1  0  0  0
    0.4631   -0.3959   -0.8865 H   0  0  0  0  0  0
    0.8117   -0.3910    1.2393 C   0  0  0  0  0  0
    2.2038    0.0296    1.0620 N   0  0  0  0  0  0
    3.1119   -0.2225    2.0255 C   0  0  0  0  0  0
    2.7766   -0.7975    3.0393 O   0  0  0  0  0  0
    4.5439    0.2101    1.8431 C   0  0  0  0  0  0
    5.3594   -0.1941    3.0729 C   0  0  0  0  0  0
    6.7914    0.2385    2.8905 C   0  0  0  0  0  0
    7.6992   -0.6127    2.2886 C   0  0  0  0  0  0
    9.0128   -0.2159    2.1213 C   0  0  0  0  0  0
    9.4184    1.0323    2.5554 C   0  0  0  0  0  0
    8.5103    1.8839    3.1564 C   0  0  0  0  0  0
    7.1958    1.4887    3.3198 C   0  0  0  0  0  0
   -1.4266   -0.5342    0.1385 C   0  0  0  0  0  0
   -2.1729   -0.2542   -1.0954 N   0  0  0  0  0  0
   -3.6225   -0.3334   -0.8639 C   0  0  0  0  0  0
   -4.3606    0.0228   -2.1571 C   0  0  0  0  0  0
   -3.9305   -0.8534   -3.2024 O   0  0  0  0  0  0
   -2.5238   -0.8013   -3.4550 C   0  0  0  0  0  0
   -1.7671   -1.1659   -2.1750 C   0  0  0  0  0  0
    0.9639    1.9351   -0.0954 H   0  0  0  0  0  0
   -0.5570    1.8264   -1.0138 H   0  0  0  0  0  0
   -0.5960    1.9430    0.7619 H   0  0  0  0  0  0
    0.3967    0.0905    2.1248 H   0  0  0  0  0  0
    0.7720   -1.4733    1.3620 H   0  0  0  0  0  0
    2.4720    0.4894    0.2511 H   0  0  0  0  0  0
    4.9589   -0.2714    0.9576 H   0  0  0  0  0  0
    4.5836    1.2925    1.7204 H   0  0  0  0  0  0
    4.9444    0.2874    3.9583 H   0  0  0  0  0  0
    5.3196   -1.2764    3.1955 H   0  0  0  0  0  0
    7.3823   -1.5879    1.9495 H   0  0  0  0  0  0
    9.7222   -0.8812    1.6518 H   0  0  0  0  0  0
   10.4448    1.3421    2.4253 H   0  0  0  0  0  0
    8.8273    2.8589    3.4958 H   0  0  0  0  0  0
    6.4854    2.1554    3.7860 H   0  0  0  0  0  0
   -1.3880   -1.6110    0.3034 H   0  0  0  0  0  0
   -1.9251   -0.0553    0.9813 H   0  0  0  0  0  0
   -3.8878   -1.3462   -0.5606 H   0  0  0  0  0  0
   -3.9046    0.3680   -0.0788 H   0  0  0  0  0  0
   -5.4342   -0.0900   -2.0063 H   0  0  0  0  0  0
   -4.1372    1.0538   -2.4314 H   0  0  0  0  0  0
   -2.2689   -1.5101   -4.2428 H   0  0  0  0  0  0
   -2.2470    0.2057   -3.7670 H   0  0  0  0  0  0
   -0.6948   -1.0721   -2.3468 H   0  0  0  0  0  0
   -2.0027   -2.1920   -1.8926 H   0  0  0  0  0  0
  1  2  1  0  0  0
  1 23  1  0  0  0
  1 24  1  0  0  0
  1 25  1  0  0  0
  2  3  1  0  0  0
  2  4  1  0  0  0
  2 16  1  0  0  0
  4  5  1  0  0  0
  4 26  1  0  0  0
  4 27  1  0  0  0
  5  6  1  0  0  0
  5 28  1  0  0  0
  6  7  2  0  0  0
  6  8  1  0  0  0
  8  9  1  0  0  0
  8 29  1  0  0  0
  8 30  1  0  0  0
  9 10  1  0  0  0
  9 31  1  0  0  0
  9 32  1  0  0  0
 10 15  2  0  0  0
 10 11  1  0  0  0
 11 12  2  0  0  0
 11 33  1  0  0  0
 12 13  1  0  0  0
 12 34  1  0  0  0
 13 14  2  0  0  0
 13 35  1  0  0  0
 14 15  1  0  0  0
 14 36  1  0  0  0
 15 37  1  0  0  0
 16 17  1  0  0  0
 16 38  1  0  0  0
 16 39  1  0  0  0
 17 22  1  0  0  0
 17 18  1  0  0  0
 18 19  1  0  0  0
 18 40  1  0  0  0
 18 41  1  0  0  0
 19 20  1  0  0  0
 19 42  1  0  0  0
 19 43  1  0  0  0
 20 21  1  0  0  0
 21 22  1  0  0  0
 21 44  1  0  0  0
 21 45  1  0  0  0
 22 46  1  0  0  0
 22 47  1  0  0  0
M  END
> <s_m_entry_id>
105887

> <s_m_entry_name>
PKC-all_decoys.86

> <s_m_Source_Path>
/home/liwei/Desktop/Machine/Decoys/PKC

> <s_m_Source_File>
PKC-all_decoys.sdf

> <i_m_Source_File_Index>
86

$$$$
ZINC43219690
                    3D
 Structure written by MMmdl.
 42 44  0  0  1  0            999 V2000
   -1.1992    1.7537   -0.3435 C   0  0  0  0  0  0
   -0.5301    0.3902   -0.1584 C   0  0  0  0  0  0
   -1.5585   -0.6467   -0.0429 N   0  0  0  0  0  0
   -2.1448   -1.0719    1.1176 C   0  0  0  0  0  0
   -3.0654   -2.0686    0.7618 C   0  0  0  0  0  0
   -3.8449   -2.7075    1.8212 C   0  0  0  0  0  0
   -3.6528   -2.3184    3.0966 C   0  0  0  0  0  0
   -2.7497   -1.3456    3.4129 N   0  0  0  0  0  0
   -2.0076   -0.7258    2.4769 C   0  0  0  0  0  0
   -1.2116    0.1387    2.8066 O   0  0  0  0  0  0
   -2.5903   -0.9799    4.7556 C   0  0  0  0  0  0
   -1.6822   -0.4924    5.0783 H   0  0  0  0  0  0
   -3.5603   -1.2338    5.6359 C   0  0  0  0  0  0
   -4.7690   -1.6770    5.2050 O   0  5  0  0  0  0
   -3.3330   -1.0442    6.9957 N   0  0  0  0  0  0
   -4.3981   -1.3229    7.9622 C   0  0  0  0  0  0
   -3.8990   -1.0389    9.3555 C   0  0  0  0  0  0
   -4.1519    0.1906    9.9344 C   0  0  0  0  0  0
   -3.6884    0.4418   11.2165 C   0  0  0  0  0  0
   -2.9846   -0.5576   11.8714 C   0  0  0  0  0  0
   -2.7703   -1.7620   11.2290 C   0  0  0  0  0  0
   -3.2308   -1.9679   10.0104 N   0  0  0  0  0  0
   -3.0013   -2.2141   -0.6354 C   0  0  0  0  0  0
   -2.1185   -1.3729   -1.1022 N   0  0  0  0  0  0
   -3.8191   -3.1766   -1.4575 C   0  0  0  0  0  0
   -0.4340    2.5252   -0.4295 H   0  0  0  0  0  0
   -1.8056    1.7409   -1.2491 H   0  0  0  0  0  0
   -1.8346    1.9663    0.5163 H   0  0  0  0  0  0
    0.1053    0.1776   -1.0182 H   0  0  0  0  0  0
    0.0763    0.4030    0.7472 H   0  0  0  0  0  0
   -4.5633   -3.4785    1.5851 H   0  0  0  0  0  0
   -4.2252   -2.7855    3.8843 H   0  0  0  0  0  0
   -2.4694   -0.7274    7.3035 H   0  0  0  0  0  0
   -5.2582   -0.6886    7.7481 H   0  0  0  0  0  0
   -4.6914   -2.3701    7.8878 H   0  0  0  0  0  0
   -4.7033    0.9462    9.3944 H   0  0  0  0  0  0
   -3.8707    1.3933   11.6937 H   0  0  0  0  0  0
   -2.6085   -0.3965   12.8709 H   0  0  0  0  0  0
   -2.2232   -2.5455   11.7323 H   0  0  0  0  0  0
   -4.7477   -2.6950   -1.7636 H   0  0  0  0  0  0
   -3.2536   -3.4707   -2.3418 H   0  0  0  0  0  0
   -4.0473   -4.0604   -0.8617 H   0  0  0  0  0  0
  1  2  1  0  0  0
  1 26  1  0  0  0
  1 27  1  0  0  0
  1 28  1  0  0  0
  2  3  1  0  0  0
  2 29  1  0  0  0
  2 30  1  0  0  0
  3 24  1  0  0  0
  3  4  1  0  0  0
  4  9  1  0  0  0
  4  5  2  0  0  0
  5  6  1  0  0  0
  5 23  1  0  0  0
  6  7  2  0  0  0
  6 31  1  0  0  0
  7  8  1  0  0  0
  7 32  1  0  0  0
  8  9  1  0  0  0
  8 11  1  0  0  0
  9 10  2  0  0  0
 11 12  1  0  0  0
 11 13  2  0  0  0
 13 14  1  0  0  0
 13 15  1  0  0  0
 15 16  1  0  0  0
 15 33  1  0  0  0
 16 17  1  0  0  0
 16 34  1  0  0  0
 16 35  1  0  0  0
 17 22  2  0  0  0
 17 18  1  0  0  0
 18 19  2  0  0  0
 18 36  1  0  0  0
 19 20  1  0  0  0
 19 37  1  0  0  0
 20 21  2  0  0  0
 20 38  1  0  0  0
 21 22  1  0  0  0
 21 39  1  0  0  0
 23 24  2  0  0  0
 23 25  1  0  0  0
 25 40  1  0  0  0
 25 41  1  0  0  0
 25 42  1  0  0  0
M  CHG  1  14  -1
M  END
> <s_m_entry_id>
105888

> <s_m_entry_name>
PKC-all_decoys.87

> <s_m_Source_Path>
/home/liwei/Desktop/Machine/Decoys/PKC

> <s_m_Source_File>
PKC-all_decoys.sdf

> <i_m_Source_File_Index>
87

$$$$
