MODEL 1
REMARK VINA RESULT:      -0.0      0.000      0.000
REMARK  0 active torsions:
REMARK  status: ('A' for Active; 'I' for Inactive)
ROOT
ATOM      1  C1  <1> d           0.439   0.471   1.530  0.00  0.00    -0.000 C 
ATOM      2  C2  <1> d           1.482   1.548   1.111  0.00  0.00    -0.000 C 
ENDROOT
TORSDOF 0
ENDMDL
MODEL 2
REMARK VINA RESULT:      -0.0      1.027      1.227
REMARK  0 active torsions:
REMARK  status: ('A' for Active; 'I' for Inactive)
ROOT
ATOM      1  C1  <1> d           1.439   0.554   0.577  0.00  0.00    -0.000 C 
ATOM      2  C2  <1> d           0.542   1.379   1.545  0.00  0.00    -0.000 C 
ENDROOT
TORSDOF 0
ENDMDL
MODEL 3
REMARK VINA RESULT:      -0.0      1.000      1.045
REMARK  0 active torsions:
REMARK  status: ('A' for Active; 'I' for Inactive)
ROOT
ATOM      1  C1  <1> d           0.456   1.249   0.446  0.00  0.00    -0.000 C 
ATOM      2  C2  <1> d           1.534   1.099   1.558  0.00  0.00    -0.000 C 
ENDROOT
TORSDOF 0
ENDMDL
