REMARK  9 active torsions:
REMARK  status: ('A' for Active; 'I' for Inactive)
REMARK    1  A    between atoms: C2_2  and  O9_25 
REMARK    2  A    between atoms: C6_6  and  C7_8 
REMARK    3  A    between atoms: C7_8  and  O3_10 
REMARK    4  A    between atoms: O3_10  and  C8_11 
REMARK    5  A    between atoms: C8_11  and  C9_13 
REMARK    6  A    between atoms: C10_14  and  C11_15 
REMARK    7  A    between atoms: O9_25  and  C17_26 
REMARK    8  A    between atoms: C17_26  and  C18_27 
REMARK    9  A    between atoms: C19_28  and  C20_29 
ROOT
HETATM    1  C1  UNL     1      -0.197   0.088   0.904  1.00  0.00     0.073 C 
HETATM    2  C2  UNL     1      -1.709   0.012   0.619  1.00  0.00     0.160 C 
HETATM    3  C3  UNL     1      -2.500   1.145   1.313  1.00  0.00     0.210 C 
HETATM    4  C4  UNL     1      -1.914   2.541   1.006  1.00  0.00     0.188 C 
HETATM    5  C5  UNL     1      -0.385   2.606   1.227  1.00  0.00     0.076 C 
HETATM    6  C6  UNL     1       0.395   1.463   0.529  1.00  0.00     0.209 C 
HETATM    7  O1  UNL     1       1.730   1.504   0.994  1.00  0.00    -0.216 OA
HETATM    8  O7  UNL     1      -2.219   2.883  -0.334  1.00  0.00    -0.221 OA
HETATM    9  O8  UNL     1      -2.475   0.945   2.715  1.00  0.00    -0.218 OA
ENDROOT
BRANCH   6  10
HETATM   10  C7  UNL     1       0.453   1.645  -0.969  1.00  0.00     0.306 C 
HETATM   11  O2  UNL     1       0.211   0.730  -1.719  1.00  0.00    -0.261 OA
BRANCH  10  12
HETATM   12  O3  UNL     1       0.793   2.865  -1.373  1.00  0.00    -0.238 OA
BRANCH  12  13
HETATM   13  C8  UNL     1       1.314   2.797  -2.594  1.00  0.00     0.302 C 
HETATM   14  O4  UNL     1       0.656   2.705  -3.604  1.00  0.00    -0.259 OA
BRANCH  13  15
HETATM   15  C9  UNL     1       2.781   2.842  -2.664  1.00  0.00     0.069 C 
HETATM   16  C10 UNL     1       3.410   2.844  -3.852  1.00  0.00     0.006 C 
BRANCH  16  17
HETATM   17  C11 UNL     1       4.902   2.891  -3.871  1.00  0.00     0.002 A 
HETATM   18  C12 UNL     1       5.611   2.293  -4.928  1.00  0.00     0.002 A 
HETATM   19  C13 UNL     1       7.016   2.338  -4.943  1.00  0.00     0.029 A 
HETATM   20  C14 UNL     1       7.717   2.979  -3.906  1.00  0.00     0.156 A 
HETATM   21  C15 UNL     1       7.006   3.578  -2.848  1.00  0.00     0.156 A 
HETATM   22  O6  UNL     1       9.033   3.018  -3.928  1.00  0.00    -0.188 OA
HETATM   23  C16 UNL     1       5.602   3.531  -2.832  1.00  0.00     0.029 A 
HETATM   24  O5  UNL     1       7.654   4.182  -1.871  1.00  0.00    -0.188 OA
ENDBRANCH  16  17
ENDBRANCH  13  15
ENDBRANCH  12  13
ENDBRANCH  10  12
ENDBRANCH   6  10
BRANCH   2  25
HETATM   25  O9  UNL     1      -2.205  -1.256   1.031  1.00  0.00    -0.298 OA
BRANCH  25  26
HETATM   26  C17 UNL     1      -3.420  -1.506   0.553  1.00  0.00     0.296 C 
HETATM   27  O12 UNL     1      -3.959  -0.838  -0.299  1.00  0.00    -0.259 OA
BRANCH  26  28
HETATM   28  C18 UNL     1      -4.104  -2.672   1.127  1.00  0.00     0.068 C 
HETATM   29  C19 UNL     1      -3.529  -3.389   2.106  1.00  0.00     0.008 C 
BRANCH  29  30
HETATM   30  C20 UNL     1      -4.264  -4.566   2.658  1.00  0.00     0.028 A 
HETATM   31  C21 UNL     1      -3.563  -5.719   3.068  1.00  0.00     0.156 A 
HETATM   32  C22 UNL     1      -4.268  -6.820   3.586  1.00  0.00     0.156 A 
HETATM   33  O11 UNL     1      -2.248  -5.770   2.971  1.00  0.00    -0.188 OA
HETATM   34  C23 UNL     1      -5.668  -6.772   3.691  1.00  0.00     0.029 A 
HETATM   35  O10 UNL     1      -3.621  -7.902   3.975  1.00  0.00    -0.188 OA
HETATM   36  C24 UNL     1      -6.367  -5.623   3.283  1.00  0.00     0.002 A 
HETATM   37  C25 UNL     1      -5.666  -4.522   2.766  1.00  0.00     0.002 A 
ENDBRANCH  29  30
ENDBRANCH  26  28
ENDBRANCH  25  26
ENDBRANCH   2  25
TORSDOF 9
