REMARK  16 active torsions:
REMARK  status: ('A' for Active; 'I' for Inactive)
REMARK    1  A    between atoms: C1_1  and  C2_2 
REMARK    2  A    between atoms: C1_1  and  O10_27 
REMARK    3  A    between atoms: C1_1  and  O11_32 
REMARK    4  A    between atoms: C2_2  and  C3_3 
REMARK    5  A    between atoms: C4_4  and  C16_23 
REMARK    6  A    between atoms: C6_7  and  O2_11 
REMARK    7  A    between atoms: C7_8  and  C8_9 
REMARK    8  A    between atoms: O2_11  and  C10_12 
REMARK    9  A    between atoms: C14_16  and  C15_17 
REMARK   10  A    between atoms: C16_23  and  O9_25 
REMARK   11  A    between atoms: O10_27  and  C18_28 
REMARK   12  A    between atoms: C18_28  and  C19_29 
REMARK   13  A    between atoms: C19_29  and  C20_30 
REMARK   14  A    between atoms: O11_32  and  C22_33 
REMARK   15  A    between atoms: C22_33  and  C23_34 
REMARK   16  A    between atoms: C23_34  and  C24_35 
ROOT
HETATM    1  C3  UNL     1       1.535   0.793  -0.115  1.00  0.00     0.044 C 
HETATM    2  C4  UNL     1       1.420   0.979   1.383  1.00  0.00     0.066 C 
HETATM    3  C5  UNL     1       0.674   1.984   1.889  1.00  0.00     0.120 C 
HETATM    4  O1  UNL     1      -0.012   2.879   1.149  1.00  0.00    -0.303 OA
HETATM    5  C6  UNL     1      -0.172   2.621  -0.250  1.00  0.00     0.246 C 
HETATM    6  C7  UNL     1       1.144   2.088  -0.855  1.00  0.00     0.083 C 
ENDROOT
BRANCH   1   7
HETATM    7  C2  UNL     1       0.678  -0.408  -0.541  1.00  0.00     0.067 C 
BRANCH   7   8
HETATM    8  C1  UNL     1       1.287  -1.746  -0.119  1.00  0.00     0.236 C 
BRANCH   8   9
HETATM    9  O10 UNL     1       1.133  -2.656  -1.184  1.00  0.00    -0.331 OA
BRANCH   9  10
HETATM   10  C18 UNL     1       2.320  -3.346  -1.500  1.00  0.00     0.145 C 
BRANCH  10  11
HETATM   11  C19 UNL     1       2.010  -4.346  -2.615  1.00  0.00     0.032 C 
BRANCH  11  12
HETATM   12  C20 UNL     1       3.236  -5.154  -3.039  1.00  0.00     0.003 C 
HETATM   13  C21 UNL     1       2.926  -6.154  -4.154  1.00  0.00     0.000 C 
ENDBRANCH  11  12
ENDBRANCH  10  11
ENDBRANCH   9  10
ENDBRANCH   8   9
BRANCH   8  14
HETATM   14  O11 UNL     1       0.586  -2.211   1.012  1.00  0.00    -0.331 OA
BRANCH  14  15
HETATM   15  C22 UNL     1       1.131  -3.393   1.557  1.00  0.00     0.145 C 
BRANCH  15  16
HETATM   16  C23 UNL     1       0.369  -3.725   2.838  1.00  0.00     0.032 C 
BRANCH  16  17
HETATM   17  C24 UNL     1       0.900  -4.981   3.531  1.00  0.00     0.003 C 
HETATM   18  C25 UNL     1       0.137  -5.313   4.815  1.00  0.00     0.000 C 
ENDBRANCH  16  17
ENDBRANCH  15  16
ENDBRANCH  14  15
ENDBRANCH   8  14
ENDBRANCH   7   8
ENDBRANCH   1   7
BRANCH   2  19
HETATM   19  C16 UNL     1       2.139   0.049   2.268  1.00  0.00     0.294 C 
HETATM   20  O8  UNL     1       3.221  -0.389   1.947  1.00  0.00    -0.259 OA
BRANCH  19  21
HETATM   21  O9  UNL     1       1.523  -0.260   3.406  1.00  0.00    -0.296 OA
HETATM   22  C17 UNL     1       2.344  -1.031   4.274  1.00  0.00     0.185 C 
ENDBRANCH  19  21
ENDBRANCH   2  19
BRANCH   6  23
HETATM   23  C8  UNL     1       1.078   1.879  -2.352  1.00  0.00    -0.021 C 
HETATM   24  C9  UNL     1       2.000   2.475  -3.123  1.00  0.00    -0.005 C 
ENDBRANCH   6  23
BRANCH   5  25
HETATM   25  O2  UNL     1      -0.563   3.822  -0.885  1.00  0.00    -0.303 OA
BRANCH  25  26
HETATM   26  C10 UNL     1      -1.809   4.311  -0.434  1.00  0.00     0.272 C 
HETATM   27  C11 UNL     1      -2.061   5.740  -0.975  1.00  0.00     0.241 C 
HETATM   28  C12 UNL     1      -3.485   6.227  -0.617  1.00  0.00     0.220 C 
HETATM   29  O7  UNL     1      -1.108   6.631  -0.416  1.00  0.00    -0.215 OA
HETATM   30  C13 UNL     1      -4.524   5.158  -1.023  1.00  0.00     0.215 C 
HETATM   31  O6  UNL     1      -3.760   7.445  -1.291  1.00  0.00    -0.218 OA
HETATM   32  C14 UNL     1      -4.143   3.766  -0.475  1.00  0.00     0.184 C 
HETATM   33  O5  UNL     1      -5.799   5.514  -0.519  1.00  0.00    -0.218 OA
HETATM   34  O4  UNL     1      -2.828   3.434  -0.896  1.00  0.00    -0.326 OA
BRANCH  32  35
HETATM   35  C15 UNL     1      -5.063   2.650  -0.984  1.00  0.00     0.214 C 
HETATM   36  O3  UNL     1      -4.737   1.461  -0.301  1.00  0.00    -0.218 OA
ENDBRANCH  32  35
ENDBRANCH  25  26
ENDBRANCH   5  25
TORSDOF 16
