REMARK  3 active torsions:
REMARK  status: ('A' for Active; 'I' for Inactive)
REMARK    1  A    between atoms: C6_6  and  C7_7 
REMARK    2  A    between atoms: C7_7  and  C8_8 
REMARK    3  A    between atoms: C12_13  and  C15_18 
ROOT
HETATM    1  C1  UNL     1      -2.223  -0.773   0.311  1.00  0.00     0.094 A 
HETATM    2  C2  UNL     1      -2.330  -1.887   1.184  1.00  0.00     0.047 A 
HETATM    3  C3  UNL     1      -1.170  -2.520   1.695  1.00  0.00     0.138 A 
HETATM    4  C4  UNL     1       0.107  -2.025   1.324  1.00  0.00     0.089 A 
HETATM    5  C5  UNL     1       0.225  -0.910   0.455  1.00  0.00     0.103 A 
HETATM    6  C6  UNL     1      -0.943  -0.285  -0.049  1.00  0.00     0.028 A 
HETATM    7  O1  UNL     1       1.445  -0.447   0.107  1.00  0.00    -0.305 OA
HETATM    8  C12 UNL     1       2.603  -0.982   0.541  1.00  0.00     0.128 A 
HETATM    9  C13 UNL     1       2.627  -2.053   1.375  1.00  0.00     0.192 A 
HETATM   10  C14 UNL     1       1.355  -2.660   1.834  1.00  0.00     0.227 A 
HETATM   11  O2  UNL     1       1.439  -3.611   2.578  1.00  0.00    -0.284 OA
HETATM   12  O3  UNL     1       3.779  -2.574   1.795  1.00  0.00    -0.185 OA
HETATM   13  O5  UNL     1      -1.281  -3.572   2.520  1.00  0.00    -0.190 OA
HETATM   14  C21 UNL     1      -3.684  -2.361   1.561  1.00  0.00     0.002 C 
HETATM   15  C22 UNL     1      -4.768  -1.836   0.959  1.00  0.00     0.001 C 
HETATM   16  C23 UNL     1      -4.613  -0.828  -0.168  1.00  0.00     0.117 C 
HETATM   17  O6  UNL     1      -3.334  -0.170  -0.168  1.00  0.00    -0.332 OA
HETATM   18  C24 UNL     1      -5.690   0.254  -0.055  1.00  0.00     0.035 C 
HETATM   19  C25 UNL     1      -4.760  -1.566  -1.502  1.00  0.00     0.035 C 
ENDROOT
BRANCH   8  20
HETATM   20  C15 UNL     1       3.891  -0.379   0.084  1.00  0.00     0.025 A 
HETATM   21  C16 UNL     1       4.033   0.059  -1.244  1.00  0.00     0.004 A 
HETATM   22  C17 UNL     1       5.246   0.627  -1.672  1.00  0.00     0.028 A 
HETATM   23  C18 UNL     1       6.320   0.760  -0.775  1.00  0.00     0.131 A 
HETATM   24  C19 UNL     1       6.176   0.322   0.553  1.00  0.00     0.028 A 
HETATM   25  O4  UNL     1       7.457   1.293  -1.178  1.00  0.00    -0.190 OA
HETATM   26  C20 UNL     1       4.965  -0.246   0.984  1.00  0.00     0.004 A 
ENDBRANCH   8  20
BRANCH   6  27
HETATM   27  C7  UNL     1      -0.824   0.875  -0.949  1.00  0.00     0.056 C 
BRANCH  27  28
HETATM   28  C8  UNL     1      -0.799   2.178  -0.195  1.00  0.00    -0.030 C 
HETATM   29  C9  UNL     1      -0.473   3.299  -0.861  1.00  0.00    -0.048 C 
HETATM   30  C10 UNL     1      -0.418   4.596  -0.100  1.00  0.00     0.026 C 
HETATM   31  C11 UNL     1      -0.180   3.199  -2.334  1.00  0.00     0.026 C 
ENDBRANCH  27  28
ENDBRANCH   6  27
TORSDOF 3
