REMARK  11 active torsions:
REMARK  status: ('A' for Active; 'I' for Inactive)
REMARK    1  A    between atoms: C2_2  and  C35_54 
REMARK    2  A    between atoms: C4_4  and  C13_20 
REMARK    3  A    between atoms: C6_6  and  C7_8 
REMARK    4  A    between atoms: C11_12  and  C12_14 
REMARK    5  A    between atoms: C16_23  and  C26_41 
REMARK    6  A    between atoms: C18_25  and  C20_29 
REMARK    7  A    between atoms: C24_33  and  C25_35 
REMARK    8  A    between atoms: C26_41  and  C27_42 
REMARK    9  A    between atoms: C28_43  and  C29_44 
REMARK   10  A    between atoms: C35_54  and  C36_55 
REMARK   11  A    between atoms: C37_56  and  C38_57 
ROOT
HETATM    1  C13 UNL     1      -1.867  -0.818   0.021  1.00  0.00     0.011 C 
HETATM    2  C14 UNL     1      -1.385  -0.184  -1.074  1.00  0.00     0.077 C 
HETATM    3  C15 UNL     1      -2.180  -0.166  -2.318  1.00  0.00     0.203 C 
HETATM    4  C16 UNL     1      -1.693   0.570  -3.504  1.00  0.00     0.102 C 
HETATM    5  C17 UNL     1      -0.442   1.082  -3.553  1.00  0.00     0.152 C 
HETATM    6  C18 UNL     1       0.551   0.908  -2.412  1.00  0.00     0.250 C 
HETATM    7  C19 UNL     1      -0.072   0.506  -1.084  1.00  0.00     0.212 C 
HETATM    8  O8  UNL     1       0.512   0.754  -0.051  1.00  0.00    -0.288 OA
HETATM    9  O9  UNL     1       1.457  -0.111  -2.783  1.00  0.00    -0.209 OA
HETATM   10  O15 UNL     1      -0.059   1.764  -4.635  1.00  0.00    -0.192 OA
HETATM   11  O18 UNL     1      -3.240  -0.750  -2.379  1.00  0.00    -0.286 OA
ENDROOT
BRANCH   1  12
HETATM   12  C4  UNL     1      -1.174  -0.934   1.318  1.00  0.00     0.063 A 
HETATM   13  C3  UNL     1      -1.359   0.117   2.334  1.00  0.00     0.202 A 
HETATM   14  C2  UNL     1      -0.690   0.004   3.641  1.00  0.00     0.102 A 
HETATM   15  O19 UNL     1      -2.063   1.074   2.096  1.00  0.00    -0.286 OA
HETATM   16  C1  UNL     1       0.107  -1.053   3.916  1.00  0.00     0.151 A 
HETATM   17  C6  UNL     1       0.359  -2.148   2.889  1.00  0.00     0.238 A 
HETATM   18  O22 UNL     1       0.689  -1.145   5.115  1.00  0.00    -0.192 OA
HETATM   19  C5  UNL     1      -0.379  -1.996   1.566  1.00  0.00     0.147 A 
HETATM   20  O1  UNL     1       1.744  -2.160   2.607  1.00  0.00    -0.210 OA
HETATM   21  O7  UNL     1      -0.233  -2.941   0.631  1.00  0.00    -0.192 OA
BRANCH  14  22
HETATM   22  C35 UNL     1      -0.897   1.053   4.654  1.00  0.00     0.201 C 
HETATM   23  O21 UNL     1      -1.744   0.922   5.508  1.00  0.00    -0.286 OA
BRANCH  22  24
HETATM   24  C36 UNL     1      -0.065   2.262   4.615  1.00  0.00     0.042 C 
HETATM   25  C37 UNL     1      -0.203   3.221   5.545  1.00  0.00     0.003 C 
BRANCH  25  26
HETATM   26  C38 UNL     1       0.666   4.430   5.463  1.00  0.00     0.000 A 
HETATM   27  C39 UNL     1       1.152   4.865   4.217  1.00  0.00     0.002 A 
HETATM   28  C40 UNL     1       1.973   6.004   4.141  1.00  0.00     0.027 A 
HETATM   29  C41 UNL     1       2.309   6.713   5.307  1.00  0.00     0.131 A 
HETATM   30  C42 UNL     1       1.822   6.277   6.551  1.00  0.00     0.027 A 
HETATM   31  O20 UNL     1       3.078   7.781   5.234  1.00  0.00    -0.190 OA
HETATM   32  C43 UNL     1       1.002   5.137   6.631  1.00  0.00     0.002 A 
ENDBRANCH  25  26
ENDBRANCH  22  24
ENDBRANCH  14  22
BRANCH  17  33
HETATM   33  C7  UNL     1       0.037  -3.514   3.504  1.00  0.00     0.188 C 
HETATM   34  C8  UNL     1       1.045  -4.621   3.102  1.00  0.00     0.215 C 
HETATM   35  C9  UNL     1       0.596  -6.018   3.590  1.00  0.00     0.218 C 
HETATM   36  O6  UNL     1       1.205  -4.650   1.693  1.00  0.00    -0.218 OA
HETATM   37  C10 UNL     1      -0.902  -6.277   3.305  1.00  0.00     0.214 C 
HETATM   38  O5  UNL     1       0.812  -6.090   4.986  1.00  0.00    -0.218 OA
HETATM   39  C11 UNL     1      -1.809  -5.068   3.654  1.00  0.00     0.181 C 
HETATM   40  O4  UNL     1      -1.067  -6.598   1.934  1.00  0.00    -0.218 OA
HETATM   41  O2  UNL     1      -1.287  -3.861   3.098  1.00  0.00    -0.348 OA
BRANCH  39  42
HETATM   42  C12 UNL     1      -2.004  -4.883   5.166  1.00  0.00     0.214 C 
HETATM   43  O3  UNL     1      -2.899  -3.811   5.365  1.00  0.00    -0.218 OA
ENDBRANCH  39  42
ENDBRANCH  17  33
ENDBRANCH   1  12
BRANCH   4  44
HETATM   44  C26 UNL     1      -2.600   0.742  -4.652  1.00  0.00     0.201 C 
HETATM   45  O17 UNL     1      -3.274   1.740  -4.758  1.00  0.00    -0.286 OA
BRANCH  44  46
HETATM   46  C27 UNL     1      -2.672  -0.314  -5.670  1.00  0.00     0.042 C 
HETATM   47  C28 UNL     1      -3.463  -0.174  -6.746  1.00  0.00     0.003 C 
BRANCH  47  48
HETATM   48  C29 UNL     1      -3.504  -1.275  -7.754  1.00  0.00     0.000 A 
HETATM   49  C30 UNL     1      -3.740  -0.982  -9.110  1.00  0.00     0.002 A 
HETATM   50  C31 UNL     1      -3.779  -2.020 -10.057  1.00  0.00     0.027 A 
HETATM   51  C32 UNL     1      -3.582  -3.352  -9.654  1.00  0.00     0.131 A 
HETATM   52  C33 UNL     1      -3.348  -3.643  -8.299  1.00  0.00     0.027 A 
HETATM   53  O16 UNL     1      -3.619  -4.324 -10.543  1.00  0.00    -0.190 OA
HETATM   54  C34 UNL     1      -3.309  -2.607  -7.350  1.00  0.00     0.002 A 
ENDBRANCH  47  48
ENDBRANCH  44  46
ENDBRANCH   4  44
BRANCH   6  55
HETATM   55  C20 UNL     1       1.389   2.186  -2.248  1.00  0.00     0.189 C 
HETATM   56  C21 UNL     1       2.297   2.500  -3.461  1.00  0.00     0.215 C 
HETATM   57  C22 UNL     1       3.070   3.826  -3.244  1.00  0.00     0.218 C 
HETATM   58  O14 UNL     1       3.215   1.439  -3.664  1.00  0.00    -0.218 OA
HETATM   59  C23 UNL     1       3.187   4.168  -1.736  1.00  0.00     0.214 C 
HETATM   60  O13 UNL     1       2.379   4.879  -3.895  1.00  0.00    -0.218 OA
HETATM   61  C24 UNL     1       3.291   2.881  -0.887  1.00  0.00     0.181 C 
HETATM   62  O12 UNL     1       4.336   4.971  -1.525  1.00  0.00    -0.218 OA
HETATM   63  O10 UNL     1       2.121   2.070  -1.025  1.00  0.00    -0.348 OA
BRANCH  61  64
HETATM   64  C25 UNL     1       3.473   3.139   0.613  1.00  0.00     0.214 C 
HETATM   65  O11 UNL     1       3.760   1.910   1.240  1.00  0.00    -0.218 OA
ENDBRANCH  61  64
ENDBRANCH   6  55
TORSDOF 11
