REMARK  0 active torsions:
REMARK  status: ('A' for Active; 'I' for Inactive)
ROOT
HETATM    1  C1  UNL     1       3.412   0.990   0.082  1.00  0.00     0.004 C 
HETATM    2  C2  UNL     1       2.561   0.273  -0.961  1.00  0.00     0.018 C 
HETATM    3  C3  UNL     1       2.779  -1.254  -0.894  1.00  0.00     0.008 C 
HETATM    4  C4  UNL     1       1.578  -1.811  -0.105  1.00  0.00     0.022 C 
HETATM    5  C5  UNL     1       0.562  -0.711  -0.199  1.00  0.00    -0.052 C 
HETATM    6  C6  UNL     1       1.098   0.420  -0.660  1.00  0.00    -0.052 C 
HETATM    7  C7  UNL     1       0.279   1.676  -0.838  1.00  0.00     0.021 C 
HETATM    8  C8  UNL     1      -1.221   1.422  -0.545  1.00  0.00     0.004 C 
HETATM    9  C9  UNL     1      -1.836   0.535  -1.641  1.00  0.00     0.001 C 
HETATM   10  C10 UNL     1      -1.740  -0.904  -1.121  1.00  0.00     0.004 C 
HETATM   11  C11 UNL     1      -0.908  -0.801   0.164  1.00  0.00     0.015 C 
HETATM   12  C12 UNL     1      -1.414   0.553   0.717  1.00  0.00     0.003 C 
HETATM   13  C13 UNL     1      -2.895   0.518   1.111  1.00  0.00     0.000 C 
HETATM   14  C14 UNL     1      -0.588   1.051   1.904  1.00  0.00     0.000 C 
HETATM   15  C15 UNL     1      -1.195  -1.965   1.113  1.00  0.00     0.004 C 
ENDROOT
TORSDOF 0
