REMARK  1 active torsions:
REMARK  status: ('A' for Active; 'I' for Inactive)
REMARK    1  A    between atoms: C9_9  and  C11_11 
ROOT
HETATM    1  C1  UNL     1       3.379  -1.185  -0.127  1.00  0.00     0.026 C 
HETATM    2  C2  UNL     1       3.242   0.322  -0.111  1.00  0.00    -0.035 C 
HETATM    3  C3  UNL     1       2.065   0.953  -0.311  1.00  0.00    -0.048 C 
HETATM    4  C4  UNL     1       0.783   0.184  -0.600  1.00  0.00     0.025 C 
HETATM    5  C5  UNL     1       0.838  -1.265  -0.057  1.00  0.00     0.055 C 
HETATM    6  C6  UNL     1       2.117  -1.926  -0.604  1.00  0.00     0.012 C 
HETATM    7  C7  UNL     1      -0.420  -1.996  -0.486  1.00  0.00     0.150 C 
HETATM    8  C8  UNL     1      -1.730  -1.330  -0.131  1.00  0.00     0.069 C 
HETATM    9  C9  UNL     1      -1.765   0.141  -0.586  1.00  0.00     0.026 C 
HETATM   10  C10 UNL     1      -0.504   0.906  -0.147  1.00  0.00     0.009 C 
HETATM   11  O1  UNL     1      -0.388  -3.047  -1.084  1.00  0.00    -0.296 OA
HETATM   12  C14 UNL     1       0.873  -1.281   1.480  1.00  0.00     0.008 C 
HETATM   13  C15 UNL     1       2.016   2.459  -0.254  1.00  0.00     0.026 C 
ENDROOT
BRANCH   9  14
HETATM   14  C11 UNL     1      -3.017   0.828  -0.100  1.00  0.00    -0.044 C 
HETATM   15  C12 UNL     1      -3.928   1.217  -1.008  1.00  0.00    -0.009 C 
HETATM   16  C13 UNL     1      -3.293   1.100   1.355  1.00  0.00     0.026 C 
ENDBRANCH   9  14
TORSDOF 1
