REMARK  3 active torsions:
REMARK  status: ('A' for Active; 'I' for Inactive)
REMARK    1  A    between atoms: C6_6  and  C7_7 
REMARK    2  A    between atoms: C7_7  and  O1_8 
REMARK    3  A    between atoms: O1_8  and  C8_9 
ROOT
HETATM    1  C8  UNL     1      -0.820  -0.463   0.324  1.00  0.00     0.229 C 
HETATM    2  C9  UNL     1      -1.180   0.623   1.371  1.00  0.00     0.106 C 
HETATM    3  C10 UNL     1      -0.279   0.053   2.510  1.00  0.00     0.064 C 
HETATM    4  C11 UNL     1      -0.660  -1.433   2.428  1.00  0.00     0.148 C 
HETATM    5  O2  UNL     1      -0.867  -1.674   1.059  1.00  0.00    -0.332 OA
HETATM    6  C12 UNL     1       1.230   0.352   2.174  1.00  0.00     0.132 C 
HETATM    7  C13 UNL     1       1.377   0.774   0.682  1.00  0.00     0.066 C 
HETATM    8  C14 UNL     1       0.693   2.145   0.510  1.00  0.00     0.070 C 
HETATM    9  C15 UNL     1      -0.754   2.016   0.934  1.00  0.00     0.155 C 
HETATM   10  O3  UNL     1      -1.506   2.961   0.920  1.00  0.00    -0.296 OA
HETATM   11  C16 UNL     1       2.904   0.846   0.486  1.00  0.00     0.005 C 
HETATM   12  C17 UNL     1       3.443  -0.301   1.355  1.00  0.00     0.003 C 
HETATM   13  C18 UNL     1       2.287  -0.764   2.254  1.00  0.00     0.031 C 
HETATM   14  C19 UNL     1       3.367   0.783  -0.965  1.00  0.00     0.000 C 
HETATM   15  C20 UNL     1       0.600  -0.197  -0.260  1.00  0.00     0.207 C 
HETATM   16  O4  UNL     1       1.305  -1.391  -0.574  1.00  0.00    -0.218 OA
HETATM   17  O5  UNL     1       1.699   1.391   3.031  1.00  0.00    -0.226 OA
HETATM   18  C21 UNL     1      -0.734   0.529   3.898  1.00  0.00     0.006 C 
HETATM   19  C22 UNL     1      -2.676   0.578   1.717  1.00  0.00     0.013 C 
ENDROOT
BRANCH   1  20
HETATM   20  O1  UNL     1      -1.774  -0.500  -0.730  1.00  0.00    -0.274 OA
BRANCH  20  21
HETATM   21  C7  UNL     1      -1.504  -1.447  -1.623  1.00  0.00     0.298 C 
HETATM   22  O6  UNL     1      -1.041  -2.527  -1.340  1.00  0.00    -0.259 OA
BRANCH  21  23
HETATM   23  C6  UNL     1      -1.815  -1.096  -3.041  1.00  0.00     0.063 A 
HETATM   24  C1  UNL     1      -2.354   0.166  -3.352  1.00  0.00     0.005 A 
HETATM   25  C2  UNL     1      -2.647   0.498  -4.686  1.00  0.00     0.000 A 
HETATM   26  C3  UNL     1      -2.401  -0.432  -5.711  1.00  0.00     0.000 A 
HETATM   27  C4  UNL     1      -1.863  -1.691  -5.402  1.00  0.00     0.000 A 
HETATM   28  C5  UNL     1      -1.570  -2.025  -4.068  1.00  0.00     0.005 A 
ENDBRANCH  21  23
ENDBRANCH  20  21
ENDBRANCH   1  20
TORSDOF 3
