REMARK  5 active torsions:
REMARK  status: ('A' for Active; 'I' for Inactive)
REMARK    1  A    between atoms: C2_2  and  O9_28 
REMARK    2  A    between atoms: C6_6  and  O1_7 
REMARK    3  A    between atoms: O1_7  and  C7_8 
REMARK    4  A    between atoms: C8_10  and  C12_17 
REMARK    5  A    between atoms: C14_20  and  C18_24 
ROOT
HETATM    1  C1  UNL     1      -1.246   1.314  -1.014  1.00  0.00     0.049 A 
HETATM    2  C2  UNL     1      -1.135   2.723  -1.062  1.00  0.00     0.096 A 
HETATM    3  C3  UNL     1       0.139   3.334  -1.096  1.00  0.00     0.024 A 
HETATM    4  C4  UNL     1       1.309   2.533  -1.080  1.00  0.00     0.005 A 
HETATM    5  C5  UNL     1       1.205   1.105  -1.035  1.00  0.00     0.048 A 
HETATM    6  C6  UNL     1      -0.088   0.504  -1.002  1.00  0.00     0.101 A 
HETATM    7  C13 UNL     1       2.395   0.318  -1.025  1.00  0.00     0.135 A 
HETATM    8  C14 UNL     1       3.662   0.955  -1.058  1.00  0.00     0.056 A 
HETATM    9  C15 UNL     1       3.758   2.369  -1.101  1.00  0.00    -0.017 A 
HETATM   10  C16 UNL     1       2.582   3.154  -1.111  1.00  0.00    -0.004 A 
HETATM   11  C17 UNL     1       5.070   3.035  -1.135  1.00  0.00     0.031 C 
HETATM   12  O8  UNL     1       2.338  -1.023  -0.984  1.00  0.00    -0.190 OA
ENDROOT
BRANCH   6  13
HETATM   13  O1  UNL     1      -0.244  -0.828  -0.955  1.00  0.00    -0.303 OA
BRANCH  13  14
HETATM   14  C7  UNL     1      -1.379  -1.344  -0.273  1.00  0.00     0.274 C 
HETATM   15  O2  UNL     1      -1.432  -0.773   1.026  1.00  0.00    -0.326 OA
HETATM   16  C8  UNL     1      -2.551  -1.166   1.811  1.00  0.00     0.184 C 
HETATM   17  C9  UNL     1      -2.512  -2.695   2.031  1.00  0.00     0.215 C 
HETATM   18  C10 UNL     1      -2.428  -3.457   0.690  1.00  0.00     0.220 C 
HETATM   19  O5  UNL     1      -3.680  -3.082   2.733  1.00  0.00    -0.218 OA
HETATM   20  C11 UNL     1      -1.277  -2.881  -0.164  1.00  0.00     0.241 C 
HETATM   21  O4  UNL     1      -2.201  -4.836   0.932  1.00  0.00    -0.218 OA
HETATM   22  O3  UNL     1      -1.320  -3.430  -1.469  1.00  0.00    -0.215 OA
BRANCH  16  23
HETATM   23  C12 UNL     1      -2.477  -0.369   3.117  1.00  0.00     0.214 C 
HETATM   24  O6  UNL     1      -3.752  -0.381   3.713  1.00  0.00    -0.218 OA
ENDBRANCH  16  23
ENDBRANCH  13  14
ENDBRANCH   6  13
BRANCH   2  25
HETATM   25  O9  UNL     1      -2.240   3.480  -1.076  1.00  0.00    -0.328 OA
HETATM   26  C20 UNL     1      -3.498   2.822  -1.121  1.00  0.00     0.181 C 
ENDBRANCH   2  25
BRANCH   8  27
HETATM   27  C18 UNL     1       4.893   0.131  -1.049  1.00  0.00     0.175 C 
HETATM   28  O7  UNL     1       5.869   0.221  -1.756  1.00  0.00    -0.291 OA
HETATM   29  C19 UNL     1       4.807  -0.924   0.022  1.00  0.00     0.077 C 
ENDBRANCH   8  27
TORSDOF 5
