REMARK  5 active torsions:
REMARK  status: ('A' for Active; 'I' for Inactive)
REMARK    1  A    between atoms: C1_1  and  C2_2 
REMARK    2  A    between atoms: C2_2  and  C3_3 
REMARK    3  A    between atoms: C3_3  and  C4_4 
REMARK    4  A    between atoms: C4_4  and  C5_5 
REMARK    5  A    between atoms: C5_5  and  C6_6 
ROOT
HETATM    1  C4  UNL     1       0.266  -0.195   0.107  1.00  0.00     0.000 C 
ENDROOT
BRANCH   1   2
HETATM    2  C3  UNL     1       0.666   0.383  -1.250  1.00  0.00     0.003 C 
BRANCH   2   3
HETATM    3  C2  UNL     1       2.162   0.250  -1.531  1.00  0.00     0.036 C 
BRANCH   3   4
HETATM    4  C1  UNL     1       2.561   0.828  -2.891  1.00  0.00     0.182 C 
HETATM    5  O1  UNL     1       3.951   0.658  -3.051  1.00  0.00    -0.221 OA
ENDBRANCH   3   4
ENDBRANCH   2   3
ENDBRANCH   1   2
BRANCH   1   6
HETATM    6  C5  UNL     1      -1.230  -0.061   0.391  1.00  0.00     0.000 C 
BRANCH   6   7
HETATM    7  C6  UNL     1      -1.645  -0.717   1.707  1.00  0.00     0.000 C 
HETATM    8  C7  UNL     1      -1.104   0.025   2.932  1.00  0.00     0.000 C 
HETATM    9  C8  UNL     1      -3.148  -0.975   1.791  1.00  0.00     0.000 C 
ENDBRANCH   6   7
ENDBRANCH   1   6
TORSDOF 5
