REMARK  5 active torsions:
REMARK  status: ('A' for Active; 'I' for Inactive)
REMARK    1  A    between atoms: C1_2  and  C3_4 
REMARK    2  A    between atoms: C3_4  and  C4_5 
REMARK    3  A    between atoms: C4_5  and  C5_6 
REMARK    4  A    between atoms: C5_6  and  C6_7 
REMARK    5  A    between atoms: C6_7  and  C7_8 
ROOT
HETATM    1  C4  UNL     1       0.365   0.217  -0.393  1.00  0.00     0.003 C 
ENDROOT
BRANCH   1   2
HETATM    2  C3  UNL     1       1.053   1.408   0.273  1.00  0.00     0.032 C 
BRANCH   2   3
HETATM    3  C1  UNL     1       2.063   2.016  -0.691  1.00  0.00     0.145 A 
HETATM    4  O1  UNL     1       2.666   3.103  -0.070  1.00  0.00    -0.352 OA
HETATM    5  C2  UNL     1       3.590   2.100  -0.344  1.00  0.00     0.172 A 
ENDBRANCH   2   3
ENDBRANCH   1   2
BRANCH   1   6
HETATM    6  C5  UNL     1      -0.713  -0.412   0.492  1.00  0.00     0.005 C 
BRANCH   6   7
HETATM    7  C6  UNL     1      -1.402  -1.602  -0.174  1.00  0.00     0.026 C 
BRANCH   7   8
HETATM    8  C7  UNL     1      -2.447  -2.229   0.711  1.00  0.00    -0.026 C 
HETATM    9  C8  UNL     1      -3.619  -2.592   0.160  1.00  0.00    -0.005 C 
ENDBRANCH   7   8
ENDBRANCH   6   7
ENDBRANCH   1   6
TORSDOF 5
