REMARK  2 active torsions:
REMARK  status: ('A' for Active; 'I' for Inactive)
REMARK    1  A    between atoms: C8_8  and  C9_10 
REMARK    2  A    between atoms: C12_15  and  C15_20 
ROOT
HETATM    1  C1  UNL     1      -1.846   2.160  -0.246  1.00  0.00     0.094 A 
HETATM    2  C2  UNL     1      -1.168   3.391  -0.406  1.00  0.00     0.051 A 
HETATM    3  C3  UNL     1       0.230   3.486  -0.287  1.00  0.00     0.138 A 
HETATM    4  C4  UNL     1       0.986   2.326   0.000  1.00  0.00     0.085 A 
HETATM    5  C5  UNL     1       0.338   1.056   0.117  1.00  0.00     0.097 A 
HETATM    6  C6  UNL     1      -1.080   1.014   0.008  1.00  0.00     0.025 A 
HETATM    7  C7  UNL     1      -2.018  -0.164   0.119  1.00  0.00     0.063 A 
HETATM    8  C8  UNL     1      -3.414   0.519  -0.025  1.00  0.00     0.154 A 
HETATM    9  O1  UNL     1      -3.151   1.906  -0.301  1.00  0.00    -0.331 OA
HETATM   10  O3  UNL     1       1.101  -0.035   0.336  1.00  0.00    -0.326 OA
HETATM   11  C12 UNL     1       2.488  -0.070  -0.010  1.00  0.00     0.181 C 
HETATM   12  C13 UNL     1       3.203   1.168   0.566  1.00  0.00     0.245 C 
HETATM   13  C14 UNL     1       2.467   2.439   0.193  1.00  0.00     0.210 C 
HETATM   14  O4  UNL     1       3.119   3.455   0.086  1.00  0.00    -0.288 OA
HETATM   15  O5  UNL     1       4.539   1.199   0.090  1.00  0.00    -0.212 OA
HETATM   16  O7  UNL     1       0.818   4.683  -0.439  1.00  0.00    -0.190 OA
ENDROOT
BRANCH  11  17
HETATM   17  C15 UNL     1       3.055  -1.362   0.481  1.00  0.00     0.008 A 
HETATM   18  C16 UNL     1       3.765  -2.197  -0.396  1.00  0.00     0.000 A 
HETATM   19  C17 UNL     1       4.299  -3.412   0.066  1.00  0.00     0.027 A 
HETATM   20  C18 UNL     1       4.123  -3.797   1.408  1.00  0.00     0.131 A 
HETATM   21  C19 UNL     1       3.410  -2.959   2.283  1.00  0.00     0.027 A 
HETATM   22  O6  UNL     1       4.623  -4.936   1.842  1.00  0.00    -0.190 OA
HETATM   23  C20 UNL     1       2.875  -1.742   1.822  1.00  0.00     0.000 A 
ENDBRANCH  11  17
BRANCH   8  24
HETATM   24  C9  UNL     1      -4.254  -0.078  -1.146  1.00  0.00     0.152 C 
HETATM   25  C10 UNL     1      -5.541   0.732  -1.307  1.00  0.00     0.036 C 
HETATM   26  C11 UNL     1      -4.520  -1.555  -0.853  1.00  0.00     0.036 C 
HETATM   27  O2  UNL     1      -3.516   0.006  -2.346  1.00  0.00    -0.224 OA
ENDBRANCH   8  24
TORSDOF 2
