REMARK  2 active torsions:
REMARK  status: ('A' for Active; 'I' for Inactive)
REMARK    1  A    between atoms: C21_21  and  C24_24 
REMARK    2  A    between atoms: C24_24  and  O2_26 
ROOT
HETATM    1  C1  UNL     1      -4.979  -1.906  -0.717  1.00  0.00     0.033 C 
HETATM    2  C2  UNL     1      -5.893  -0.731  -0.344  1.00  0.00     0.152 C 
HETATM    3  C3  UNL     1      -5.293   0.141   0.805  1.00  0.00     0.028 C 
HETATM    4  C4  UNL     1      -3.738  -0.020   0.902  1.00  0.00     0.002 C 
HETATM    5  C5  UNL     1      -3.031  -0.188  -0.469  1.00  0.00     0.001 C 
HETATM    6  C6  UNL     1      -3.584  -1.453  -1.188  1.00  0.00     0.003 C 
HETATM    7  C7  UNL     1      -1.486  -0.344  -0.283  1.00  0.00     0.005 C 
HETATM    8  C8  UNL     1      -0.815   0.726   0.619  1.00  0.00     0.004 C 
HETATM    9  C9  UNL     1      -1.590   0.853   1.951  1.00  0.00     0.000 C 
HETATM   10  C10 UNL     1      -3.086   1.092   1.748  1.00  0.00     0.000 C 
HETATM   11  C11 UNL     1       0.682   0.328   0.887  1.00  0.00     0.015 C 
HETATM   12  C12 UNL     1       1.418  -0.074  -0.395  1.00  0.00    -0.049 C 
HETATM   13  C13 UNL     1       0.758  -0.400  -1.529  1.00  0.00    -0.035 C 
HETATM   14  C14 UNL     1      -0.748  -0.414  -1.637  1.00  0.00     0.025 C 
HETATM   15  C15 UNL     1       2.941  -0.123  -0.313  1.00  0.00     0.021 C 
HETATM   16  C16 UNL     1       3.539   1.199   0.240  1.00  0.00     0.032 C 
HETATM   17  C17 UNL     1       2.953   1.367   1.662  1.00  0.00     0.003 C 
HETATM   18  C18 UNL     1       1.418   1.476   1.635  1.00  0.00     0.004 C 
HETATM   19  C19 UNL     1       5.104   1.148   0.189  1.00  0.00     0.153 C 
HETATM   20  C20 UNL     1       5.662  -0.281   0.133  1.00  0.00     0.043 C 
HETATM   21  C21 UNL     1       5.191  -1.016  -1.143  1.00  0.00     0.089 C 
HETATM   22  C22 UNL     1       3.729  -0.658  -1.537  1.00  0.00     0.013 C 
HETATM   23  C23 UNL     1       3.697   0.330  -2.713  1.00  0.00     0.001 C 
HETATM   24  O3  UNL     1       5.699   1.840   1.271  1.00  0.00    -0.223 OA
HETATM   25  C26 UNL     1       3.084   2.396  -0.619  1.00  0.00     0.003 C 
HETATM   26  C27 UNL     1       0.752  -0.930   1.770  1.00  0.00     0.004 C 
HETATM   27  C28 UNL     1      -0.873   2.088  -0.104  1.00  0.00     0.000 C 
HETATM   28  C29 UNL     1      -3.334   1.055  -1.330  1.00  0.00     0.000 C 
HETATM   29  C30 UNL     1      -5.895  -0.336   2.133  1.00  0.00     0.003 C 
HETATM   30  C31 UNL     1      -5.697   1.621   0.662  1.00  0.00     0.003 C 
HETATM   31  O4  UNL     1      -6.137   0.017  -1.523  1.00  0.00    -0.224 OA
ENDROOT
BRANCH  21  32
HETATM   32  C24 UNL     1       5.391  -2.504  -0.984  1.00  0.00     0.272 C 
HETATM   33  O1  UNL     1       6.201  -3.098  -1.656  1.00  0.00    -0.264 OA
BRANCH  32  34
HETATM   34  O2  UNL     1       4.619  -3.084  -0.070  1.00  0.00    -0.299 OA
HETATM   35  C25 UNL     1       4.846  -4.483   0.021  1.00  0.00     0.184 C 
ENDBRANCH  32  34
ENDBRANCH  21  32
TORSDOF 2
