REMARK  3 active torsions:
REMARK  status: ('A' for Active; 'I' for Inactive)
REMARK    1  A    between atoms: C3_3  and  C20_23 
REMARK    2  A    between atoms: C7_7  and  C12_12 
REMARK    3  A    between atoms: C12_12  and  C13_13 
ROOT
HETATM    1  C1  UNL     1      -3.283  -0.039  -0.025  1.00  0.00     0.033 C 
HETATM    2  C2  UNL     1      -3.328  -1.580  -0.185  1.00  0.00     0.154 C 
HETATM    3  C3  UNL     1      -2.268  -2.317   0.672  1.00  0.00     0.059 C 
HETATM    4  C4  UNL     1      -0.818  -1.764   0.442  1.00  0.00     0.005 C 
HETATM    5  C5  UNL     1      -0.734  -0.320  -0.139  1.00  0.00     0.004 C 
HETATM    6  C6  UNL     1      -1.908   0.512   0.410  1.00  0.00     0.003 C 
HETATM    7  C7  UNL     1       0.637   0.268   0.287  1.00  0.00     0.023 C 
HETATM    8  C8  UNL     1       1.774  -0.715   0.043  1.00  0.00    -0.044 C 
HETATM    9  C9  UNL     1       1.490  -2.010  -0.697  1.00  0.00     0.022 C 
HETATM   10  C10 UNL     1       0.154  -2.693  -0.320  1.00  0.00     0.004 C 
HETATM   11  C11 UNL     1       3.014  -0.445   0.490  1.00  0.00    -0.009 C 
HETATM   12  C18 UNL     1      -0.812  -0.313  -1.678  1.00  0.00     0.000 C 
HETATM   13  C19 UNL     1      -2.660  -2.104   2.143  1.00  0.00     0.005 C 
HETATM   14  O5  UNL     1      -3.180  -1.930  -1.551  1.00  0.00    -0.223 OA
ENDROOT
BRANCH   7  15
HETATM   15  C12 UNL     1       0.930   1.619  -0.377  1.00  0.00     0.030 C 
BRANCH  15  16
HETATM   16  C13 UNL     1       1.760   2.523   0.498  1.00  0.00    -0.022 C 
HETATM   17  C14 UNL     1       2.526   3.506  -0.014  1.00  0.00     0.069 C 
HETATM   18  C15 UNL     1       3.375   4.441   0.803  1.00  0.00     0.296 C 
HETATM   19  C17 UNL     1       2.690   3.875  -1.414  1.00  0.00     0.203 C 
HETATM   20  O1  UNL     1       3.660   5.488  -0.119  1.00  0.00    -0.317 OA
HETATM   21  O3  UNL     1       4.559   3.801   1.227  1.00  0.00    -0.185 OA
HETATM   22  C16 UNL     1       3.651   5.025  -1.465  1.00  0.00     0.214 C 
HETATM   23  O2  UNL     1       2.154   3.361  -2.369  1.00  0.00    -0.289 OA
ENDBRANCH  15  16
ENDBRANCH   7  15
BRANCH   3  24
HETATM   24  C20 UNL     1      -2.342  -3.834   0.436  1.00  0.00     0.185 C 
HETATM   25  O4  UNL     1      -3.664  -4.256   0.690  1.00  0.00    -0.221 OA
ENDBRANCH   3  24
TORSDOF 3
