REMARK  10 active torsions:
REMARK  status: ('A' for Active; 'I' for Inactive)
REMARK    1  A    between atoms: C3_3  and  O7_43 
REMARK    2  A    between atoms: C4_4  and  O3_9 
REMARK    3  A    between atoms: C5_6  and  C6_7 
REMARK    4  A    between atoms: O3_9  and  C7_10 
REMARK    5  A    between atoms: C21_25  and  C24_28 
REMARK    6  A    between atoms: C24_28  and  C25_29 
REMARK    7  A    between atoms: C25_29  and  C26_30 
REMARK    8  A    between atoms: C26_30  and  C27_31 
REMARK    9  A    between atoms: O7_43  and  C37_44 
REMARK   10  A    between atoms: C38_46  and  C42_53 
ROOT
HETATM    1  C7  UNL     1       0.846  -0.697  -0.395  1.00  0.00     0.118 C 
HETATM    2  C8  UNL     1       1.453  -1.951   0.283  1.00  0.00     0.025 C 
HETATM    3  C9  UNL     1       0.879  -2.152   1.736  1.00  0.00     0.002 C 
HETATM    4  C10 UNL     1       0.334  -0.855   2.428  1.00  0.00     0.000 C 
HETATM    5  C11 UNL     1       1.170   0.348   1.939  1.00  0.00     0.003 C 
HETATM    6  C12 UNL     1       1.049   0.600   0.426  1.00  0.00     0.030 C 
HETATM    7  C13 UNL     1      -1.191  -0.586   2.168  1.00  0.00     0.003 C 
HETATM    8  C14 UNL     1      -2.106  -1.826   2.332  1.00  0.00     0.002 C 
HETATM    9  C15 UNL     1      -1.527  -2.994   1.506  1.00  0.00     0.000 C 
HETATM   10  C16 UNL     1      -0.098  -3.334   1.930  1.00  0.00     0.000 C 
HETATM   11  C17 UNL     1      -3.602  -1.561   1.912  1.00  0.00     0.028 C 
HETATM   12  C18 UNL     1      -4.035  -0.064   2.059  1.00  0.00     0.157 C 
HETATM   13  C19 UNL     1      -3.252   0.625   3.199  1.00  0.00     0.180 C 
HETATM   14  C20 UNL     1      -1.725   0.637   2.957  1.00  0.00     0.035 C 
HETATM   15  O4  UNL     1      -3.682   1.965   3.387  1.00  0.00    -0.221 OA
HETATM   16  C21 UNL     1      -3.785   0.607   0.676  1.00  0.00     0.059 C 
HETATM   17  C22 UNL     1      -3.549  -0.531  -0.316  1.00  0.00     0.005 C 
HETATM   18  C23 UNL     1      -4.000  -1.770   0.434  1.00  0.00     0.003 C 
HETATM   19  O6  UNL     1      -5.426  -0.012   2.371  1.00  0.00    -0.223 OA
HETATM   20  C32 UNL     1      -4.531  -2.582   2.602  1.00  0.00     0.003 C 
HETATM   21  C33 UNL     1      -2.133  -2.215   3.824  1.00  0.00     0.000 C 
HETATM   22  C34 UNL     1       0.572  -1.006   3.941  1.00  0.00     0.000 C 
HETATM   23  C35 UNL     1       1.201  -3.182  -0.602  1.00  0.00     0.002 C 
HETATM   24  C36 UNL     1       2.980  -1.779   0.369  1.00  0.00     0.002 C 
ENDROOT
BRANCH   1  25
HETATM   25  O3  UNL     1       1.387  -0.504  -1.690  1.00  0.00    -0.332 OA
BRANCH  25  26
HETATM   26  C4  UNL     1       2.217  -1.566  -2.113  1.00  0.00     0.267 C 
HETATM   27  C3  UNL     1       3.443  -1.002  -2.891  1.00  0.00     0.207 C 
HETATM   28  C2  UNL     1       3.920  -1.979  -3.984  1.00  0.00     0.217 C 
HETATM   29  C1  UNL     1       2.748  -2.281  -4.955  1.00  0.00     0.215 C 
HETATM   30  O13 UNL     1       5.006  -1.430  -4.715  1.00  0.00    -0.218 OA
HETATM   31  C5  UNL     1       1.350  -2.186  -4.274  1.00  0.00     0.184 C 
HETATM   32  O14 UNL     1       2.953  -3.568  -5.518  1.00  0.00    -0.218 OA
HETATM   33  O1  UNL     1       1.467  -2.500  -2.891  1.00  0.00    -0.326 OA
BRANCH  27  34
HETATM   34  O7  UNL     1       4.492  -0.738  -1.973  1.00  0.00    -0.324 OA
BRANCH  34  35
HETATM   35  C37 UNL     1       4.555   0.617  -1.574  1.00  0.00     0.270 C 
HETATM   36  O8  UNL     1       4.848   0.738  -0.178  1.00  0.00    -0.326 OA
HETATM   37  C38 UNL     1       6.227   0.770   0.180  1.00  0.00     0.184 C 
HETATM   38  C39 UNL     1       6.891   2.055  -0.402  1.00  0.00     0.215 C 
HETATM   39  C40 UNL     1       6.209   2.566  -1.705  1.00  0.00     0.220 C 
HETATM   40  O11 UNL     1       8.281   1.816  -0.570  1.00  0.00    -0.218 OA
HETATM   41  C41 UNL     1       5.568   1.391  -2.469  1.00  0.00     0.241 C 
HETATM   42  O10 UNL     1       7.092   3.309  -2.533  1.00  0.00    -0.218 OA
HETATM   43  O9  UNL     1       4.895   1.854  -3.627  1.00  0.00    -0.215 OA
BRANCH  37  44
HETATM   44  C42 UNL     1       6.877  -0.566  -0.225  1.00  0.00     0.214 C 
HETATM   45  O12 UNL     1       6.176  -1.609   0.414  1.00  0.00    -0.218 OA
ENDBRANCH  37  44
ENDBRANCH  34  35
ENDBRANCH  27  34
BRANCH  31  46
HETATM   46  C6  UNL     1       0.270  -3.100  -4.869  1.00  0.00     0.214 C 
HETATM   47  O2  UNL     1      -0.969  -2.752  -4.295  1.00  0.00    -0.218 OA
ENDBRANCH  31  46
ENDBRANCH  25  26
ENDBRANCH   1  25
BRANCH  16  48
HETATM   48  C24 UNL     1      -4.887   1.541   0.160  1.00  0.00     0.130 C 
HETATM   49  O5  UNL     1      -6.067   0.787   0.002  1.00  0.00    -0.226 OA
HETATM   50  C31 UNL     1      -4.481   2.106  -1.201  1.00  0.00     0.033 C 
BRANCH  48  51
HETATM   51  C25 UNL     1      -5.152   2.635   1.195  1.00  0.00     0.035 C 
BRANCH  51  52
HETATM   52  C26 UNL     1      -6.026   3.766   0.648  1.00  0.00     0.028 C 
BRANCH  52  53
HETATM   53  C27 UNL     1      -5.219   4.818  -0.061  1.00  0.00    -0.035 C 
HETATM   54  C28 UNL     1      -4.430   5.623   0.670  1.00  0.00    -0.048 C 
HETATM   55  C29 UNL     1      -3.695   6.736  -0.027  1.00  0.00     0.026 C 
HETATM   56  C30 UNL     1      -4.318   5.369   2.148  1.00  0.00     0.026 C 
ENDBRANCH  52  53
ENDBRANCH  51  52
ENDBRANCH  48  51
ENDBRANCH  16  48
TORSDOF 10
