REMARK  0 active torsions:
REMARK  status: ('A' for Active; 'I' for Inactive)
ROOT
HETATM    1  C1  UNL     1      -5.024  -0.793  -1.623  1.00  0.00     0.033 C 
HETATM    2  C2  UNL     1      -5.797   0.156  -0.697  1.00  0.00     0.152 C 
HETATM    3  C3  UNL     1      -5.154   0.238   0.725  1.00  0.00     0.028 C 
HETATM    4  C4  UNL     1      -3.641  -0.158   0.705  1.00  0.00     0.002 C 
HETATM    5  C5  UNL     1      -2.885   0.281  -0.576  1.00  0.00     0.001 C 
HETATM    6  C6  UNL     1      -3.555  -0.369  -1.824  1.00  0.00     0.003 C 
HETATM    7  C7  UNL     1      -1.387  -0.164  -0.521  1.00  0.00     0.005 C 
HETATM    8  C8  UNL     1      -0.631   0.213   0.781  1.00  0.00     0.004 C 
HETATM    9  C9  UNL     1      -1.459  -0.234   2.012  1.00  0.00     0.000 C 
HETATM   10  C10 UNL     1      -2.899   0.285   1.983  1.00  0.00     0.000 C 
HETATM   11  C11 UNL     1       0.785  -0.469   0.789  1.00  0.00     0.015 C 
HETATM   12  C12 UNL     1       1.527  -0.303  -0.541  1.00  0.00    -0.049 C 
HETATM   13  C13 UNL     1       0.893   0.070  -1.676  1.00  0.00    -0.035 C 
HETATM   14  C14 UNL     1      -0.592   0.334  -1.746  1.00  0.00     0.025 C 
HETATM   15  C15 UNL     1       3.022  -0.613  -0.537  1.00  0.00     0.018 C 
HETATM   16  C16 UNL     1       3.744   0.139   0.604  1.00  0.00     0.004 C 
HETATM   17  C17 UNL     1       3.123  -0.301   1.940  1.00  0.00     0.001 C 
HETATM   18  C18 UNL     1       1.629   0.057   1.990  1.00  0.00     0.004 C 
HETATM   19  C19 UNL     1       5.270  -0.156   0.576  1.00  0.00     0.008 C 
HETATM   20  C20 UNL     1       5.854   0.285  -0.783  1.00  0.00     0.007 C 
HETATM   21  C21 UNL     1       5.283  -0.783  -1.717  1.00  0.00     0.052 C 
HETATM   22  C22 UNL     1       3.777  -0.490  -1.887  1.00  0.00     0.011 C 
HETATM   23  C23 UNL     1       6.035  -0.775  -3.043  1.00  0.00     0.007 C 
HETATM   24  C24 UNL     1       5.525  -2.025  -0.906  1.00  0.00     0.150 C 
HETATM   25  C25 UNL     1       5.643  -1.650   0.545  1.00  0.00     0.065 C 
HETATM   26  O1  UNL     1       5.609  -3.148  -1.346  1.00  0.00    -0.296 OA
HETATM   27  C26 UNL     1       3.605   1.666   0.449  1.00  0.00     0.000 C 
HETATM   28  C27 UNL     1       0.645  -1.992   0.945  1.00  0.00     0.004 C 
HETATM   29  C28 UNL     1      -0.477   1.744   0.836  1.00  0.00     0.000 C 
HETATM   30  C29 UNL     1      -2.973   1.813  -0.695  1.00  0.00     0.000 C 
HETATM   31  C30 UNL     1      -5.365   1.627   1.358  1.00  0.00     0.003 C 
HETATM   32  C31 UNL     1      -5.883  -0.760   1.633  1.00  0.00     0.003 C 
HETATM   33  O2  UNL     1      -5.869   1.420  -1.336  1.00  0.00    -0.224 OA
ENDROOT
TORSDOF 0
