REMARK  5 active torsions:
REMARK  status: ('A' for Active; 'I' for Inactive)
REMARK    1  A    between atoms: C2_2  and  O2_13 
REMARK    2  A    between atoms: C4_4  and  C7_7 
REMARK    3  A    between atoms: C8_8  and  C9_9 
REMARK    4  A    between atoms: C9_9  and  O1_10 
REMARK    5  A    between atoms: O1_10  and  C10_11 
ROOT
HETATM    1  C1  UNL     1      -2.240  -3.237   0.373  1.00  0.00     0.153 A 
HETATM    2  C2  UNL     1      -2.988  -2.045   0.373  1.00  0.00     0.119 A 
HETATM    3  C3  UNL     1      -2.326  -0.803   0.373  1.00  0.00     0.026 A 
HETATM    4  C4  UNL     1      -0.922  -0.750   0.373  1.00  0.00     0.002 A 
HETATM    5  C5  UNL     1      -0.176  -1.942   0.373  1.00  0.00     0.002 A 
HETATM    6  C6  UNL     1      -0.836  -3.182   0.373  1.00  0.00     0.029 A 
HETATM    7  O3  UNL     1      -2.854  -4.404   0.373  1.00  0.00    -0.188 OA
ENDROOT
BRANCH   4   8
HETATM    8  C7  UNL     1      -0.223   0.570   0.373  1.00  0.00    -0.002 C 
HETATM    9  C8  UNL     1       0.982   0.662  -0.211  1.00  0.00     0.006 C 
BRANCH   9  10
HETATM   10  C9  UNL     1       1.684   1.994  -0.207  1.00  0.00     0.169 C 
BRANCH  10  11
HETATM   11  O1  UNL     1       3.041   1.812  -0.537  1.00  0.00    -0.349 OA
BRANCH  11  12
HETATM   12  C10 UNL     1       3.775   3.016  -0.559  1.00  0.00     0.143 C 
HETATM   13  C11 UNL     1       5.223   2.689  -0.926  1.00  0.00     0.035 C 
ENDBRANCH  11  12
ENDBRANCH  10  11
ENDBRANCH   9  10
ENDBRANCH   4   8
BRANCH   2  14
HETATM   14  O2  UNL     1      -4.307  -2.086   0.373  1.00  0.00    -0.326 OA
HETATM   15  C12 UNL     1      -5.012  -0.856   0.373  1.00  0.00     0.181 C 
ENDBRANCH   2  14
TORSDOF 5
