REMARK  1 active torsions:
REMARK  status: ('A' for Active; 'I' for Inactive)
REMARK    1  A    between atoms: C4_5  and  O2_6 
ROOT
HETATM    1  C1  UNL     1      -4.688  -0.248  -0.197  1.00  0.00     0.066 A 
HETATM    2  C2  UNL     1      -4.272  -1.527  -0.766  1.00  0.00     0.298 A 
HETATM    3  O1  UNL     1      -2.930  -1.629  -0.775  1.00  0.00    -0.270 OA
HETATM    4  C3  UNL     1      -2.471  -0.479  -0.240  1.00  0.00     0.143 A 
HETATM    5  C4  UNL     1      -3.578   0.408   0.131  1.00  0.00     0.120 A 
HETATM    6  C6  UNL     1      -1.166  -0.188  -0.074  1.00  0.00     0.096 C 
HETATM    7  O3  UNL     1      -0.731   0.947   0.457  1.00  0.00    -0.336 OA
HETATM    8  C7  UNL     1       0.684   0.836   0.615  1.00  0.00     0.123 C 
HETATM    9  C8  UNL     1       1.156  -0.207  -0.416  1.00  0.00     0.065 C 
HETATM   10  C9  UNL     1      -0.068  -1.129  -0.484  1.00  0.00     0.051 C 
HETATM   11  C10 UNL     1      -0.215  -1.719  -1.883  1.00  0.00     0.007 C 
HETATM   12  C11 UNL     1       2.508  -0.898  -0.152  1.00  0.00     0.222 C 
HETATM   13  N1  UNL     1       3.416  -0.064   0.617  1.00  0.00     0.135 N 
HETATM   14  C12 UNL     1       3.730   1.270   0.103  1.00  0.00     0.250 C 
HETATM   15  C13 UNL     1       2.816   2.309   0.773  1.00  0.00     0.038 C 
HETATM   16  C14 UNL     1       1.326   2.213   0.394  1.00  0.00     0.032 C 
HETATM   17  C15 UNL     1       4.502  -0.916   1.076  1.00  0.00     0.250 C 
HETATM   18  C16 UNL     1       3.984  -2.354   0.980  1.00  0.00     0.037 C 
HETATM   19  C17 UNL     1       2.496  -2.193   0.654  1.00  0.00     0.035 C 
HETATM   20  O4  UNL     1      -5.049  -2.363  -1.166  1.00  0.00    -0.259 OA
HETATM   21  C18 UNL     1      -6.102   0.236  -0.018  1.00  0.00     0.039 C 
ENDROOT
BRANCH   5  22
HETATM   22  O2  UNL     1      -3.496   1.617   0.684  1.00  0.00    -0.326 OA
HETATM   23  C5  UNL     1      -3.926   2.645  -0.197  1.00  0.00     0.181 C 
ENDBRANCH   5  22
TORSDOF 1
