REMARK  1 active torsions:
REMARK  status: ('A' for Active; 'I' for Inactive)
REMARK    1  A    between atoms: C10_10  and  C15_17 
ROOT
HETATM    1  C1  UNL     1       4.426  -1.977   0.785  1.00  0.00     0.022 C 
HETATM    2  C2  UNL     1       4.506  -0.566   1.383  1.00  0.00     0.004 C 
HETATM    3  C3  UNL     1       3.234   0.248   1.100  1.00  0.00     0.001 C 
HETATM    4  C4  UNL     1       1.949  -0.449   1.602  1.00  0.00     0.006 C 
HETATM    5  C5  UNL     1       1.852  -1.883   0.988  1.00  0.00     0.022 C 
HETATM    6  C6  UNL     1       3.141  -2.668   1.180  1.00  0.00    -0.044 C 
HETATM    7  C7  UNL     1       3.162  -3.918   1.680  1.00  0.00    -0.009 C 
HETATM    8  C8  UNL     1       0.584  -2.633   1.475  1.00  0.00     0.028 C 
HETATM    9  C9  UNL     1      -0.596  -1.697   1.457  1.00  0.00    -0.015 A 
HETATM   10  C10 UNL     1      -0.525  -0.365   0.770  1.00  0.00     0.143 A 
HETATM   11  C11 UNL     1       0.707   0.430   1.236  1.00  0.00     0.035 C 
HETATM   12  O1  UNL     1      -1.756   0.277   1.154  1.00  0.00    -0.297 OA
HETATM   13  C12 UNL     1      -2.522  -0.605   1.814  1.00  0.00     0.291 A 
HETATM   14  C13 UNL     1      -1.789  -1.844   2.027  1.00  0.00     0.036 A 
HETATM   15  C14 UNL     1      -2.283  -3.057   2.770  1.00  0.00     0.036 C 
HETATM   16  O2  UNL     1      -3.654  -0.422   2.195  1.00  0.00    -0.260 OA
HETATM   17  C30 UNL     1       2.023  -0.574   3.133  1.00  0.00     0.000 C 
ENDROOT
BRANCH  10  18
HETATM   18  C15 UNL     1      -0.518  -0.529  -0.750  1.00  0.00     0.143 C 
HETATM   19  C16 UNL     1      -1.881  -0.377  -1.356  1.00  0.00    -0.015 C 
HETATM   20  C17 UNL     1      -2.549   0.969  -1.447  1.00  0.00     0.028 C 
HETATM   21  C27 UNL     1      -2.311  -1.559  -1.791  1.00  0.00     0.036 C 
HETATM   22  C18 UNL     1      -1.592   2.068  -0.936  1.00  0.00     0.022 C 
HETATM   23  C19 UNL     1      -2.184   3.442  -1.205  1.00  0.00    -0.044 C 
HETATM   24  C23 UNL     1      -0.131   1.938  -1.486  1.00  0.00     0.006 C 
HETATM   25  C20 UNL     1      -2.051   4.002  -2.602  1.00  0.00     0.022 C 
HETATM   26  C26 UNL     1      -2.797   4.141  -0.232  1.00  0.00    -0.009 C 
HETATM   27  C21 UNL     1      -0.617   3.861  -3.125  1.00  0.00     0.004 C 
HETATM   28  C22 UNL     1      -0.084   2.432  -2.953  1.00  0.00     0.001 C 
HETATM   29  C24 UNL     1       0.426   0.473  -1.418  1.00  0.00     0.035 C 
HETATM   30  C25 UNL     1       0.785   2.838  -0.641  1.00  0.00     0.000 C 
HETATM   31  C28 UNL     1      -1.234  -2.514  -1.582  1.00  0.00     0.291 C 
HETATM   32  C29 UNL     1      -3.654  -1.852  -2.406  1.00  0.00     0.036 C 
HETATM   33  O3  UNL     1      -0.164  -1.893  -1.061  1.00  0.00    -0.297 OA
HETATM   34  O4  UNL     1      -1.313  -3.689  -1.854  1.00  0.00    -0.260 OA
ENDBRANCH  10  18
TORSDOF 1
