REMARK  3 active torsions:
REMARK  status: ('A' for Active; 'I' for Inactive)
REMARK    1  A    between atoms: C4_4  and  O2_12 
REMARK    2  A    between atoms: O2_12  and  C11_13 
REMARK    3  A    between atoms: C15_20  and  C16_22 
ROOT
HETATM    1  C1  UNL     1      -3.179  -4.394  -0.478  1.00  0.00     0.036 C 
HETATM    2  C2  UNL     1      -4.160  -3.912   0.505  1.00  0.00     0.179 C 
HETATM    3  C3  UNL     1      -3.403  -2.736   0.807  1.00  0.00     0.145 C 
HETATM    4  C4  UNL     1      -3.569  -1.736  -0.627  1.00  0.00     0.145 C 
HETATM    5  C5  UNL     1      -3.159  -2.565  -1.975  1.00  0.00     0.032 C 
HETATM    6  C6  UNL     1      -2.224  -3.265  -1.289  1.00  0.00     0.007 C 
HETATM    7  C7  UNL     1      -1.224  -4.167  -1.603  1.00  0.00     0.027 C 
HETATM    8  C8  UNL     1      -0.779  -4.185   0.036  1.00  0.00     0.093 C 
HETATM    9  C9  UNL     1       0.617  -3.499   0.146  1.00  0.00     0.030 C 
HETATM   10  C10 UNL     1      -0.443  -5.657   0.558  1.00  0.00     0.030 C 
HETATM   11  O1  UNL     1      -1.808  -3.250   1.077  1.00  0.00    -0.359 OA
HETATM   12  C17 UNL     1      -3.962  -2.023   2.057  1.00  0.00     0.035 C 
HETATM   13  O8  UNL     1      -5.553  -3.701   0.083  1.00  0.00    -0.221 OA
ENDROOT
BRANCH   4  14
HETATM   14  O2  UNL     1      -2.718  -0.519  -0.614  1.00  0.00    -0.329 OA
BRANCH  14  15
HETATM   15  C11 UNL     1      -3.121   0.712   0.128  1.00  0.00     0.270 C 
HETATM   16  C12 UNL     1      -4.430   1.339  -0.481  1.00  0.00     0.241 C 
HETATM   17  O3  UNL     1      -5.552   0.470  -0.290  1.00  0.00    -0.215 OA
HETATM   18  C13 UNL     1      -4.733   2.664   0.212  1.00  0.00     0.220 C 
HETATM   19  O4  UNL     1      -5.913   3.235  -0.372  1.00  0.00    -0.218 OA
HETATM   20  C14 UNL     1      -3.553   3.604  -0.035  1.00  0.00     0.215 C 
HETATM   21  O5  UNL     1      -3.885   4.864   0.582  1.00  0.00    -0.218 OA
HETATM   22  C15 UNL     1      -2.268   2.938   0.590  1.00  0.00     0.184 C 
HETATM   23  O6  UNL     1      -2.039   1.654  -0.053  1.00  0.00    -0.326 OA
BRANCH  22  24
HETATM   24  C16 UNL     1      -0.945   3.757   0.370  1.00  0.00     0.214 C 
HETATM   25  O7  UNL     1      -0.942   5.066   0.949  1.00  0.00    -0.218 OA
ENDBRANCH  22  24
ENDBRANCH  14  15
ENDBRANCH   4  14
TORSDOF 3
