REMARK  0 active torsions:
REMARK  status: ('A' for Active; 'I' for Inactive)
ROOT
HETATM    1  C1  UNL     1       2.283   1.637  -0.219  1.00  0.00     0.177 C 
HETATM    2  C2  UNL     1       1.428   2.769   0.082  1.00  0.00     0.032 C 
HETATM    3  C3  UNL     1       0.152   2.439  -0.133  1.00  0.00    -0.011 C 
HETATM    4  C4  UNL     1      -0.004   1.014  -0.633  1.00  0.00     0.177 C 
HETATM    5  C5  UNL     1       1.449   0.410  -0.543  1.00  0.00     0.124 C 
HETATM    6  C6  UNL     1       1.744  -0.772   0.430  1.00  0.00     0.136 C 
HETATM    7  C7  UNL     1       1.010  -2.094   0.094  1.00  0.00     0.031 C 
HETATM    8  C8  UNL     1      -0.482  -2.194   0.457  1.00  0.00     0.010 C 
HETATM    9  C9  UNL     1      -1.328  -1.211  -0.350  1.00  0.00     0.058 C 
HETATM   10  C10 UNL     1      -1.121   0.248   0.104  1.00  0.00     0.161 C 
HETATM   11  O1  UNL     1      -2.387   0.914  -0.031  1.00  0.00    -0.298 OA
HETATM   12  C11 UNL     1      -3.363   0.008  -0.019  1.00  0.00     0.292 C 
HETATM   13  C12 UNL     1      -2.811  -1.330  -0.156  1.00  0.00     0.043 C 
HETATM   14  C13 UNL     1      -3.498  -2.485  -0.119  1.00  0.00     0.001 C 
HETATM   15  O2  UNL     1      -4.545   0.242   0.078  1.00  0.00    -0.260 OA
HETATM   16  O3  UNL     1       1.473  -0.401   1.768  1.00  0.00    -0.225 OA
HETATM   17  C14 UNL     1       3.256  -1.045   0.383  1.00  0.00     0.034 C 
HETATM   18  O4  UNL     1      -0.373   1.105  -2.000  1.00  0.00    -0.219 OA
HETATM   19  C15 UNL     1      -1.004   3.383   0.088  1.00  0.00     0.029 C 
HETATM   20  O5  UNL     1       3.492   1.682  -0.211  1.00  0.00    -0.291 OA
ENDROOT
TORSDOF 0
