REMARK  1 active torsions:
REMARK  status: ('A' for Active; 'I' for Inactive)
REMARK    1  A    between atoms: C9_9  and  C10_10 
ROOT
HETATM    1  C1  UNL     1       0.990  -0.573   0.660  1.00  0.00     0.036 C 
HETATM    2  C2  UNL     1       0.795   0.959   0.869  1.00  0.00     0.161 C 
HETATM    3  C3  UNL     1      -0.414   1.424  -0.013  1.00  0.00     0.109 C 
HETATM    4  C4  UNL     1      -1.690   0.659   0.365  1.00  0.00     0.047 C 
HETATM    5  C5  UNL     1      -1.394  -0.725   0.041  1.00  0.00     0.105 C 
HETATM    6  C6  UNL     1      -0.284  -1.369   0.895  1.00  0.00     0.031 C 
HETATM    7  C7  UNL     1      -2.832  -1.366   0.230  1.00  0.00     0.056 C 
HETATM    8  C8  UNL     1      -3.697  -0.340  -0.302  1.00  0.00     0.015 C 
HETATM    9  C9  UNL     1      -2.967   0.907  -0.642  1.00  0.00     0.090 C 
HETATM   10  C11 UNL     1      -5.014  -0.563  -0.302  1.00  0.00     0.005 C 
HETATM   11  C12 UNL     1      -5.391  -1.931   0.284  1.00  0.00     0.021 C 
HETATM   12  C13 UNL     1      -4.537  -3.023  -0.299  1.00  0.00    -0.015 C 
HETATM   13  C14 UNL     1      -3.074  -2.746  -0.440  1.00  0.00     0.173 C 
HETATM   14  O3  UNL     1      -2.317  -3.838   0.104  1.00  0.00    -0.219 OA
HETATM   15  C15 UNL     1      -5.040  -4.224  -0.569  1.00  0.00    -0.007 C 
HETATM   16  C16 UNL     1      -4.857  -1.857   1.748  1.00  0.00     0.004 C 
HETATM   17  C17 UNL     1      -3.305  -1.501   1.722  1.00  0.00     0.005 C 
HETATM   18  O4  UNL     1      -0.910  -0.490  -1.324  1.00  0.00    -0.306 OA
HETATM   19  C18 UNL     1      -0.252   0.791  -1.349  1.00  0.00     0.273 C 
HETATM   20  O5  UNL     1       0.247   1.327  -2.345  1.00  0.00    -0.264 OA
HETATM   21  C19 UNL     1      -0.546   2.965   0.027  1.00  0.00     0.013 C 
HETATM   22  O6  UNL     1       2.038   1.569   0.456  1.00  0.00    -0.223 OA
ENDROOT
BRANCH   9  23
HETATM   23  C10 UNL     1      -3.718   2.181  -0.380  1.00  0.00     0.185 C 
HETATM   24  O1  UNL     1      -4.213   2.372   0.740  1.00  0.00    -0.647 OA
HETATM   25  O2  UNL     1      -3.839   3.152  -1.357  1.00  0.00    -0.647 OA
ENDBRANCH   9  23
TORSDOF 1
