REMARK  10 active torsions:
REMARK  status: ('A' for Active; 'I' for Inactive)
REMARK    1  A    between atoms: C3_3  and  O4_10 
REMARK    2  A    between atoms: C5_6  and  C6_7 
REMARK    3  A    between atoms: O4_10  and  C7_11 
REMARK    4  A    between atoms: C11_15  and  C12_17 
REMARK    5  A    between atoms: C13_22  and  C16_25 
REMARK    6  A    between atoms: C16_25  and  O10_26 
REMARK    7  A    between atoms: O10_26  and  C17_27 
REMARK    8  A    between atoms: C17_27  and  C18_28 
REMARK    9  A    between atoms: C19_29  and  C20_30 
REMARK   10  A    between atoms: C22_32  and  O11_33 
ROOT
HETATM    1  C1  UNL     1       1.189   2.574   1.971  1.00  0.00     0.060 C 
HETATM    2  C2  UNL     1       0.885   1.131   1.518  1.00  0.00     0.100 C 
HETATM    3  C3  UNL     1       2.180   0.358   1.209  1.00  0.00     0.245 C 
HETATM    4  O1  UNL     1       3.033   1.084   0.316  1.00  0.00    -0.304 OA
HETATM    5  C4  UNL     1       3.219   2.399   0.541  1.00  0.00     0.121 C 
HETATM    6  C5  UNL     1       2.426   3.164   1.320  1.00  0.00     0.070 C 
HETATM    7  C13 UNL     1      -0.156   1.311   0.381  1.00  0.00     0.178 C 
HETATM    8  C14 UNL     1      -0.779   2.645   0.684  1.00  0.00     0.002 C 
HETATM    9  C15 UNL     1      -0.041   3.336   1.561  1.00  0.00    -0.024 C 
HETATM   10  O14 UNL     1       0.457   1.379  -0.891  1.00  0.00    -0.219 OA
ENDROOT
BRANCH   7  11
HETATM   11  C16 UNL     1      -1.166   0.168   0.348  1.00  0.00     0.187 C 
BRANCH  11  12
HETATM   12  O10 UNL     1      -2.160   0.445  -0.629  1.00  0.00    -0.295 OA
BRANCH  12  13
HETATM   13  C17 UNL     1      -3.072  -0.519  -0.707  1.00  0.00     0.296 C 
HETATM   14  O13 UNL     1      -3.059  -1.517  -0.025  1.00  0.00    -0.259 OA
BRANCH  13  15
HETATM   15  C18 UNL     1      -4.137  -0.308  -1.695  1.00  0.00     0.068 C 
HETATM   16  C19 UNL     1      -5.111  -1.221  -1.857  1.00  0.00     0.005 C 
BRANCH  16  17
HETATM   17  C20 UNL     1      -6.172  -0.963  -2.875  1.00  0.00     0.002 A 
HETATM   18  C21 UNL     1      -6.141   0.215  -3.643  1.00  0.00     0.026 A 
HETATM   19  C22 UNL     1      -7.139   0.463  -4.604  1.00  0.00     0.119 A 
HETATM   20  C24 UNL     1      -8.172  -0.472  -4.797  1.00  0.00     0.153 A 
HETATM   21  O12 UNL     1      -9.111  -0.250  -5.693  1.00  0.00    -0.188 OA
HETATM   22  C25 UNL     1      -8.203  -1.650  -4.027  1.00  0.00     0.029 A 
HETATM   23  C26 UNL     1      -7.205  -1.896  -3.068  1.00  0.00     0.002 A 
BRANCH  19  24
HETATM   24  O11 UNL     1      -7.102   1.569  -5.318  1.00  0.00    -0.326 OA
HETATM   25  C23 UNL     1      -6.104   2.531  -5.010  1.00  0.00     0.181 C 
ENDBRANCH  19  24
ENDBRANCH  16  17
ENDBRANCH  13  15
ENDBRANCH  12  13
ENDBRANCH  11  12
ENDBRANCH   7  11
BRANCH   3  26
HETATM   26  O4  UNL     1       2.869   0.078   2.414  1.00  0.00    -0.304 OA
BRANCH  26  27
HETATM   27  C7  UNL     1       4.031  -0.703   2.223  1.00  0.00     0.272 C 
HETATM   28  C8  UNL     1       4.867  -0.760   3.527  1.00  0.00     0.241 C 
HETATM   29  C9  UNL     1       6.057  -1.736   3.381  1.00  0.00     0.220 C 
HETATM   30  O9  UNL     1       5.357   0.537   3.828  1.00  0.00    -0.215 OA
HETATM   31  C10 UNL     1       5.561  -3.094   2.836  1.00  0.00     0.215 C 
HETATM   32  O8  UNL     1       6.684  -1.922   4.641  1.00  0.00    -0.218 OA
HETATM   33  C11 UNL     1       4.699  -2.910   1.566  1.00  0.00     0.184 C 
HETATM   34  O7  UNL     1       6.670  -3.916   2.518  1.00  0.00    -0.218 OA
HETATM   35  O5  UNL     1       3.633  -2.014   1.848  1.00  0.00    -0.326 OA
BRANCH  33  36
HETATM   36  C12 UNL     1       4.063  -4.217   1.084  1.00  0.00     0.214 C 
HETATM   37  O6  UNL     1       3.445  -3.973  -0.160  1.00  0.00    -0.218 OA
ENDBRANCH  33  36
ENDBRANCH  26  27
ENDBRANCH   3  26
BRANCH   6  38
HETATM   38  C6  UNL     1       2.740   4.584   1.549  1.00  0.00     0.209 C 
HETATM   39  O2  UNL     1       2.332   5.151   2.537  1.00  0.00    -0.644 OA
HETATM   40  O3  UNL     1       3.480   5.170   0.611  1.00  0.00    -0.644 OA
ENDBRANCH   6  38
TORSDOF 10
