REMARK  0 active torsions:
REMARK  status: ('A' for Active; 'I' for Inactive)
ROOT
HETATM    1  C1  UNL     1       2.984  -1.016   0.004  1.00  0.00    -0.028 C 
HETATM    2  C2  UNL     1       1.732  -1.467  -0.209  1.00  0.00    -0.030 C 
HETATM    3  C3  UNL     1       0.547  -0.568  -0.133  1.00  0.00    -0.025 C 
HETATM    4  C4  UNL     1       0.789   0.949  -0.078  1.00  0.00     0.052 C 
HETATM    5  C5  UNL     1       2.025   1.188   0.828  1.00  0.00     0.160 C 
HETATM    6  C6  UNL     1       3.272   0.434   0.322  1.00  0.00     0.059 C 
HETATM    7  O1  UNL     1       2.338   2.566   0.908  1.00  0.00    -0.223 OA
HETATM    8  C7  UNL     1      -0.441   1.762   0.455  1.00  0.00     0.071 C 
HETATM    9  C8  UNL     1      -1.750   1.283  -0.180  1.00  0.00     0.246 C 
HETATM   10  C9  UNL     1      -1.863  -0.189   0.057  1.00  0.00     0.032 C 
HETATM   11  C10 UNL     1      -0.709  -1.076  -0.100  1.00  0.00    -0.004 C 
HETATM   12  C11 UNL     1      -3.102  -0.465   0.463  1.00  0.00     0.042 C 
HETATM   13  C12 UNL     1      -3.783   0.805   0.668  1.00  0.00     0.294 C 
HETATM   14  O2  UNL     1      -2.938   1.822   0.430  1.00  0.00    -0.271 OA
HETATM   15  O3  UNL     1      -4.938   0.904   1.014  1.00  0.00    -0.259 OA
HETATM   16  C13 UNL     1      -3.684  -1.834   0.705  1.00  0.00     0.036 C 
HETATM   17  O4  UNL     1      -1.781   1.572  -1.566  1.00  0.00    -0.190 OA
HETATM   18  C14 UNL     1       1.113   1.397  -1.514  1.00  0.00     0.007 C 
HETATM   19  C15 UNL     1       1.553  -2.932  -0.523  1.00  0.00     0.030 C 
ENDROOT
TORSDOF 0
