REMARK  4 active torsions:
REMARK  status: ('A' for Active; 'I' for Inactive)
REMARK    1  A    between atoms: C7_8  and  C21_29 
REMARK    2  A    between atoms: C8_9  and  O3_12 
REMARK    3  A    between atoms: O3_12  and  C10_13 
REMARK    4  A    between atoms: C14_17  and  C16_20 
ROOT
HETATM    1  C1  UNL     1      -6.182   1.629   0.266  1.00  0.00     0.135 A 
HETATM    2  C2  UNL     1      -6.027   0.324   0.797  1.00  0.00     0.055 A 
HETATM    3  C3  UNL     1      -4.733  -0.215   0.990  1.00  0.00     0.138 A 
HETATM    4  C4  UNL     1      -3.594   0.559   0.650  1.00  0.00     0.089 A 
HETATM    5  C5  UNL     1      -3.748   1.865   0.121  1.00  0.00     0.107 A 
HETATM    6  C6  UNL     1      -5.043   2.399  -0.070  1.00  0.00     0.052 A 
HETATM    7  O1  UNL     1      -2.660   2.602  -0.199  1.00  0.00    -0.305 OA
HETATM    8  C7  UNL     1      -1.393   2.170  -0.047  1.00  0.00     0.125 A 
HETATM    9  C8  UNL     1      -1.113   0.938   0.449  1.00  0.00     0.158 A 
HETATM   10  C9  UNL     1      -2.215   0.027   0.840  1.00  0.00     0.224 A 
HETATM   11  O2  UNL     1      -1.906  -1.059   1.273  1.00  0.00    -0.284 OA
HETATM   12  O11 UNL     1      -4.604  -1.451   1.494  1.00  0.00    -0.190 OA
HETATM   13  O12 UNL     1      -7.410   2.135   0.084  1.00  0.00    -0.190 OA
ENDROOT
BRANCH   9  14
HETATM   14  O3  UNL     1       0.146   0.522   0.596  1.00  0.00    -0.303 OA
BRANCH  14  15
HETATM   15  C10 UNL     1       0.467  -0.555  -0.277  1.00  0.00     0.220 C 
HETATM   16  C11 UNL     1       2.002  -0.539  -0.605  1.00  0.00     0.201 C 
HETATM   17  C12 UNL     1       2.518  -1.990  -0.844  1.00  0.00     0.184 C 
HETATM   18  C19 UNL     1       2.822   0.170   0.486  1.00  0.00     0.041 C 
HETATM   19  O8  UNL     1       2.221   0.260  -1.760  1.00  0.00    -0.218 OA
HETATM   20  C13 UNL     1       2.260  -2.855   0.449  1.00  0.00     0.180 C 
HETATM   21  C18 UNL     1       1.816  -2.605  -2.068  1.00  0.00     0.038 C 
HETATM   22  O7  UNL     1       3.897  -1.984  -1.201  1.00  0.00    -0.221 OA
HETATM   23  C14 UNL     1       0.965  -2.402   1.234  1.00  0.00     0.154 C 
HETATM   24  O6  UNL     1       3.354  -2.764   1.355  1.00  0.00    -0.221 OA
HETATM   25  C17 UNL     1       2.234  -4.352   0.090  1.00  0.00     0.038 C 
HETATM   26  O4  UNL     1       0.059  -1.789   0.322  1.00  0.00    -0.332 OA
HETATM   27  C15 UNL     1       0.191  -3.594   1.811  1.00  0.00     0.035 C 
HETATM   28  C20 UNL     1      -0.451  -0.430  -1.504  1.00  0.00     0.065 C 
BRANCH  23  29
HETATM   29  C16 UNL     1       1.199  -1.408   2.389  1.00  0.00     0.212 C 
HETATM   30  O5  UNL     1       0.021  -1.344   3.160  1.00  0.00    -0.218 OA
ENDBRANCH  23  29
ENDBRANCH  14  15
ENDBRANCH   9  14
BRANCH   8  31
HETATM   31  C21 UNL     1      -0.268   3.076  -0.434  1.00  0.00     0.027 A 
HETATM   32  C22 UNL     1      -0.039   4.264   0.283  1.00  0.00     0.004 A 
HETATM   33  C23 UNL     1       1.018   5.113  -0.084  1.00  0.00     0.030 A 
HETATM   34  C24 UNL     1       1.850   4.781  -1.168  1.00  0.00     0.156 A 
HETATM   35  C25 UNL     1       1.621   3.594  -1.887  1.00  0.00     0.156 A 
HETATM   36  O10 UNL     1       2.838   5.584  -1.506  1.00  0.00    -0.188 OA
HETATM   37  C26 UNL     1       0.564   2.744  -1.520  1.00  0.00     0.032 A 
HETATM   38  O9  UNL     1       2.396   3.275  -2.904  1.00  0.00    -0.188 OA
ENDBRANCH   8  31
TORSDOF 4
