REMARK  8 active torsions:
REMARK  status: ('A' for Active; 'I' for Inactive)
REMARK    1  A    between atoms: C1_1  and  C2_2 
REMARK    2  A    between atoms: C2_2  and  C9_9 
REMARK    3  A    between atoms: C3_3  and  C4_4 
REMARK    4  A    between atoms: C4_4  and  C5_5 
REMARK    5  A    between atoms: C5_5  and  C6_6 
REMARK    6  A    between atoms: C6_6  and  C7_7 
REMARK    7  A    between atoms: C9_9  and  C10_10 
REMARK    8  A    between atoms: C10_10  and  C11_11 
ROOT
HETATM    1  C2  UNL     1      -1.340  -1.059   0.094  1.00  0.00     0.016 C 
HETATM    2  C3  UNL     1      -0.213  -1.508  -0.483  1.00  0.00    -0.027 C 
ENDROOT
BRANCH   1   3
HETATM    3  C1  UNL     1      -2.156   0.018  -0.481  1.00  0.00     0.230 C 
HETATM    4  O1  UNL     1      -3.301   0.174  -0.125  1.00  0.00    -0.283 OA
ENDBRANCH   1   3
BRANCH   1   5
HETATM    5  C9  UNL     1      -1.785  -1.686   1.389  1.00  0.00     0.029 C 
BRANCH   5   6
HETATM    6  C10 UNL     1      -1.246  -0.941   2.611  1.00  0.00     0.005 C 
BRANCH   6   7
HETATM    7  C11 UNL     1      -1.703  -1.568   3.930  1.00  0.00     0.000 C 
HETATM    8  C12 UNL     1      -1.162  -0.826   5.154  1.00  0.00     0.000 C 
ENDBRANCH   6   7
ENDBRANCH   5   6
ENDBRANCH   1   5
BRANCH   2   9
HETATM    9  C4  UNL     1       0.232  -0.881  -1.776  1.00  0.00     0.026 C 
BRANCH   9  10
HETATM   10  C5  UNL     1       1.094   0.361  -1.555  1.00  0.00     0.005 C 
BRANCH  10  11
HETATM   11  C6  UNL     1       1.545   1.008  -2.867  1.00  0.00     0.000 C 
BRANCH  11  12
HETATM   12  C7  UNL     1       2.404   2.252  -2.647  1.00  0.00     0.000 C 
HETATM   13  C8  UNL     1       2.856   2.897  -3.957  1.00  0.00     0.000 C 
ENDBRANCH  11  12
ENDBRANCH  10  11
ENDBRANCH   9  10
ENDBRANCH   2   9
TORSDOF 8
