REMARK  2 active torsions:
REMARK  status: ('A' for Active; 'I' for Inactive)
REMARK    1  A    between atoms: C1_1  and  O4_15 
REMARK    2  A    between atoms: C2_2  and  O3_13 
ROOT
HETATM    1  C1  UNL     1       1.254  -0.603  -0.209  1.00  0.00     0.118 A 
HETATM    2  C2  UNL     1       1.348   0.768   0.124  1.00  0.00     0.141 A 
HETATM    3  C3  UNL     1       0.176   1.556   0.228  1.00  0.00     0.151 A 
HETATM    4  C4  UNL     1      -1.100   0.976   0.000  1.00  0.00     0.013 A 
HETATM    5  C5  UNL     1      -1.186  -0.406  -0.329  1.00  0.00     0.001 A 
HETATM    6  C6  UNL     1      -0.011  -1.190  -0.436  1.00  0.00     0.026 A 
HETATM    7  C7  UNL     1      -2.513  -1.035  -0.562  1.00  0.00     0.003 A 
HETATM    8  C8  UNL     1      -3.651  -0.326  -0.450  1.00  0.00     0.038 A 
HETATM    9  C9  UNL     1      -3.644   1.104  -0.096  1.00  0.00     0.177 A 
HETATM   10  C10 UNL     1      -2.323   1.822   0.108  1.00  0.00     0.098 A 
HETATM   11  O1  UNL     1      -4.690   1.698   0.032  1.00  0.00    -0.291 OA
HETATM   12  O2  UNL     1       0.279   2.856   0.542  1.00  0.00    -0.188 OA
ENDROOT
BRANCH   1  13
HETATM   13  O4  UNL     1       2.363  -1.349  -0.309  1.00  0.00    -0.326 OA
HETATM   14  C12 UNL     1       2.212  -2.732  -0.595  1.00  0.00     0.181 C 
ENDBRANCH   1  13
BRANCH   2  15
HETATM   15  O3  UNL     1       2.549   1.323   0.342  1.00  0.00    -0.324 OA
HETATM   16  C11 UNL     1       3.515   0.564   1.055  1.00  0.00     0.182 C 
ENDBRANCH   2  15
TORSDOF 2
