REMARK  3 active torsions:
REMARK  status: ('A' for Active; 'I' for Inactive)
REMARK    1  A    between atoms: C3_3  and  O3_12 
REMARK    2  A    between atoms: O3_12  and  C10_13 
REMARK    3  A    between atoms: C10_13  and  C11_14 
ROOT
HETATM    1  C1  UNL     1      -0.942   1.840   2.115  1.00  0.00     0.027 A 
HETATM    2  C2  UNL     1      -0.809   0.998   1.049  1.00  0.00     0.124 A 
HETATM    3  C3  UNL     1       0.430   0.520   0.559  1.00  0.00     0.140 A 
HETATM    4  C4  UNL     1       1.586   0.975   1.258  1.00  0.00     0.127 A 
HETATM    5  C5  UNL     1       1.465   1.859   2.379  1.00  0.00     0.025 A 
HETATM    6  C6  UNL     1       0.191   2.305   2.820  1.00  0.00     0.004 A 
HETATM    7  C7  UNL     1       2.703   2.303   3.070  1.00  0.00     0.007 A 
HETATM    8  C8  UNL     1       3.892   1.858   2.623  1.00  0.00     0.069 A 
HETATM    9  C9  UNL     1       3.955   0.945   1.459  1.00  0.00     0.300 A 
HETATM   10  O1  UNL     1       2.810   0.565   0.855  1.00  0.00    -0.271 OA
HETATM   11  O2  UNL     1       5.039   0.565   1.082  1.00  0.00    -0.259 OA
HETATM   12  O4  UNL     1      -2.057   0.690   0.533  1.00  0.00    -0.303 OA
HETATM   13  C15 UNL     1      -2.957   1.412   1.369  1.00  0.00     0.123 A 
HETATM   14  C16 UNL     1      -2.242   2.127   2.356  1.00  0.00     0.029 A 
ENDROOT
BRANCH   3  15
HETATM   15  O3  UNL     1       0.650  -0.305  -0.475  1.00  0.00    -0.322 OA
BRANCH  15  16
HETATM   16  C10 UNL     1      -0.475  -0.781  -1.199  1.00  0.00     0.175 C 
BRANCH  16  17
HETATM   17  C11 UNL     1      -0.010  -1.684  -2.311  1.00  0.00    -0.002 C 
HETATM   18  C12 UNL     1      -0.924  -2.422  -2.961  1.00  0.00    -0.045 C 
HETATM   19  C13 UNL     1      -2.371  -2.281  -2.570  1.00  0.00     0.026 C 
HETATM   20  C14 UNL     1      -0.455  -3.350  -4.051  1.00  0.00     0.026 C 
ENDBRANCH  16  17
ENDBRANCH  15  16
ENDBRANCH   3  15
TORSDOF 3
