REMARK  7 active torsions:
REMARK  status: ('A' for Active; 'I' for Inactive)
REMARK    1  A    between atoms: C3_3  and  C32_34 
REMARK    2  A    between atoms: C15_15  and  C18_18 
REMARK    3  A    between atoms: C18_18  and  C20_20 
REMARK    4  A    between atoms: C20_20  and  C21_21 
REMARK    5  A    between atoms: C21_21  and  C22_22 
REMARK    6  A    between atoms: C22_22  and  C23_23 
REMARK    7  A    between atoms: C23_23  and  O1_26 
ROOT
HETATM    1  C1  UNL     1       5.467   1.051   2.076  1.00  0.00     0.033 C 
HETATM    2  C2  UNL     1       6.291  -0.166   1.603  1.00  0.00     0.154 C 
HETATM    3  C3  UNL     1       5.426  -1.437   1.504  1.00  0.00     0.059 C 
HETATM    4  C4  UNL     1       4.215  -1.252   0.523  1.00  0.00     0.005 C 
HETATM    5  C5  UNL     1       3.611   0.209   0.463  1.00  0.00     0.000 C 
HETATM    6  C6  UNL     1       3.951   0.943   1.789  1.00  0.00     0.003 C 
HETATM    7  C7  UNL     1       2.065   0.238   0.092  1.00  0.00     0.000 C 
HETATM    8  C8  UNL     1       1.193  -0.859   0.809  1.00  0.00     0.000 C 
HETATM    9  C9  UNL     1       2.004  -1.859   1.631  1.00  0.00     0.000 C 
HETATM   10  C10 UNL     1       3.164  -2.355   0.771  1.00  0.00     0.000 C 
HETATM   11  C11 UNL     1      -0.039  -0.307   1.551  1.00  0.00     0.000 C 
HETATM   12  C12 UNL     1      -0.848   0.541   0.541  1.00  0.00     0.000 C 
HETATM   13  C13 UNL     1      -0.060   1.789   0.101  1.00  0.00     0.000 C 
HETATM   14  C14 UNL     1       1.459   1.658   0.330  1.00  0.00     0.000 C 
HETATM   15  C15 UNL     1      -2.123   0.805   1.355  1.00  0.00     0.000 C 
HETATM   16  C16 UNL     1      -2.412  -0.555   2.010  1.00  0.00     0.000 C 
HETATM   17  C17 UNL     1      -1.092  -1.336   1.980  1.00  0.00     0.000 C 
HETATM   18  C27 UNL     1      -1.262  -0.275  -0.697  1.00  0.00     0.000 C 
HETATM   19  C28 UNL     1       0.348   0.441   2.836  1.00  0.00     0.000 C 
HETATM   20  C29 UNL     1       1.938  -0.031  -1.424  1.00  0.00     0.000 C 
HETATM   21  C30 UNL     1       4.348   1.010  -0.633  1.00  0.00     0.000 C 
HETATM   22  C31 UNL     1       6.283  -2.627   1.043  1.00  0.00     0.005 C 
HETATM   23  O4  UNL     1       6.904   0.113   0.357  1.00  0.00    -0.223 OA
ENDROOT
BRANCH  15  24
HETATM   24  C18 UNL     1      -3.309   1.328   0.545  1.00  0.00     0.000 C 
HETATM   25  C19 UNL     1      -4.123   2.299   1.400  1.00  0.00     0.000 C 
BRANCH  24  26
HETATM   26  C20 UNL     1      -4.139   0.150   0.037  1.00  0.00     0.003 C 
BRANCH  26  27
HETATM   27  C21 UNL     1      -5.084   0.539  -1.100  1.00  0.00     0.035 C 
BRANCH  27  28
HETATM   28  C22 UNL     1      -4.408   0.494  -2.471  1.00  0.00     0.177 C 
HETATM   29  O2  UNL     1      -3.693   1.697  -2.651  1.00  0.00    -0.221 OA
BRANCH  28  30
HETATM   30  C23 UNL     1      -5.408   0.358  -3.619  1.00  0.00     0.121 C 
HETATM   31  C24 UNL     1      -4.766   0.568  -4.990  1.00  0.00     0.032 C 
HETATM   32  C25 UNL     1      -6.223  -0.935  -3.539  1.00  0.00     0.032 C 
BRANCH  30  33
HETATM   33  O1  UNL     1      -6.275   1.440  -3.365  1.00  0.00    -0.354 OA
HETATM   34  C26 UNL     1      -7.313   1.555  -4.313  1.00  0.00     0.174 C 
ENDBRANCH  30  33
ENDBRANCH  28  30
ENDBRANCH  27  28
ENDBRANCH  26  27
ENDBRANCH  24  26
ENDBRANCH  15  24
BRANCH   3  35
HETATM   35  C32 UNL     1       4.949  -1.768   2.930  1.00  0.00     0.185 C 
HETATM   36  O3  UNL     1       4.774  -3.162   3.023  1.00  0.00    -0.221 OA
ENDBRANCH   3  35
TORSDOF 7
