REMARK  7 active torsions:
REMARK  status: ('A' for Active; 'I' for Inactive)
REMARK    1  A    between atoms: C1_1  and  C16_24 
REMARK    2  A    between atoms: C5_5  and  O2_7 
REMARK    3  A    between atoms: O2_7  and  C6_8 
REMARK    4  A    between atoms: C6_8  and  C7_9 
REMARK    5  A    between atoms: C7_9  and  C8_10 
REMARK    6  A    between atoms: C7_9  and  C14_19 
REMARK    7  A    between atoms: C9_11  and  C10_12 
ROOT
HETATM    1  C6  UNL     1      -0.156   0.193   0.287  1.00  0.00     0.149 C 
ENDROOT
BRANCH   1   2
HETATM    2  O2  UNL     1      -0.027   0.022  -1.105  1.00  0.00    -0.329 OA
BRANCH   2   3
HETATM    3  C5  UNL     1      -0.939  -0.918  -1.639  1.00  0.00     0.270 C 
HETATM    4  C4  UNL     1      -0.898  -0.894  -3.189  1.00  0.00     0.241 C 
HETATM    5  C3  UNL     1      -1.777  -2.019  -3.783  1.00  0.00     0.220 C 
HETATM    6  O6  UNL     1      -1.361   0.363  -3.654  1.00  0.00    -0.215 OA
HETATM    7  C2  UNL     1      -1.418  -3.367  -3.123  1.00  0.00     0.215 C 
HETATM    8  O7  UNL     1      -1.572  -2.100  -5.186  1.00  0.00    -0.218 OA
HETATM    9  C1  UNL     1      -1.443  -3.264  -1.582  1.00  0.00     0.184 C 
HETATM   10  O8  UNL     1      -2.344  -4.361  -3.525  1.00  0.00    -0.218 OA
HETATM   11  O1  UNL     1      -0.584  -2.211  -1.166  1.00  0.00    -0.326 OA
BRANCH   9  12
HETATM   12  C16 UNL     1      -0.951  -4.541  -0.892  1.00  0.00     0.214 C 
HETATM   13  O9  UNL     1      -1.164  -4.402   0.494  1.00  0.00    -0.218 OA
ENDBRANCH   9  12
ENDBRANCH   2   3
ENDBRANCH   1   2
BRANCH   1  14
HETATM   14  C7  UNL     1       0.836   1.268   0.731  1.00  0.00     0.052 C 
BRANCH  14  15
HETATM   15  C8  UNL     1       0.844   1.475   2.252  1.00  0.00     0.021 C 
HETATM   16  C9  UNL     1       1.717   2.674   2.652  1.00  0.00     0.120 C 
HETATM   17  C11 UNL     1       1.000   4.008   2.537  1.00  0.00     0.274 C 
HETATM   18  O4  UNL     1      -0.340   4.113   2.611  1.00  0.00    -0.302 OA
HETATM   19  O5  UNL     1       1.684   4.996   2.391  1.00  0.00    -0.264 OA
HETATM   20  C12 UNL     1      -1.147   2.986   2.252  1.00  0.00     0.152 C 
HETATM   21  C13 UNL     1      -0.574   1.672   2.793  1.00  0.00     0.034 C 
BRANCH  16  22
HETATM   22  C10 UNL     1       2.231   2.524   4.088  1.00  0.00     0.192 C 
HETATM   23  O3  UNL     1       3.252   3.473   4.293  1.00  0.00    -0.220 OA
ENDBRANCH  16  22
ENDBRANCH  14  15
BRANCH  14  24
HETATM   24  C14 UNL     1       2.217   1.041   0.176  1.00  0.00    -0.024 C 
HETATM   25  C15 UNL     1       2.727   1.953  -0.666  1.00  0.00    -0.005 C 
ENDBRANCH  14  24
ENDBRANCH   1  14
TORSDOF 7
