REMARK  1 active torsions:
REMARK  status: ('A' for Active; 'I' for Inactive)
REMARK    1  A    between atoms: C1_1  and  C13_13 
ROOT
HETATM    1  C1  UNL     1      -0.994  -0.730  -0.445  1.00  0.00     0.004 C 
HETATM    2  C2  UNL     1      -1.936   0.277  -1.142  1.00  0.00     0.004 C 
HETATM    3  C3  UNL     1      -1.826   1.701  -0.576  1.00  0.00     0.022 C 
HETATM    4  C4  UNL     1      -0.404   2.211  -0.680  1.00  0.00    -0.044 C 
HETATM    5  C5  UNL     1       0.713   1.182  -0.652  1.00  0.00     0.022 C 
HETATM    6  C6  UNL     1       2.043   1.711  -0.086  1.00  0.00     0.009 C 
HETATM    7  C7  UNL     1       3.139   0.641  -0.180  1.00  0.00     0.022 C 
HETATM    8  C8  UNL     1       2.686  -0.734   0.262  1.00  0.00    -0.048 C 
HETATM    9  C9  UNL     1       1.383  -1.053   0.399  1.00  0.00    -0.034 C 
HETATM   10  C10 UNL     1       0.264  -0.055   0.158  1.00  0.00     0.025 C 
HETATM   11  C11 UNL     1       3.748  -1.762   0.547  1.00  0.00     0.026 C 
HETATM   12  C12 UNL     1      -0.162   3.531  -0.797  1.00  0.00    -0.009 C 
ENDROOT
BRANCH   1  13
HETATM   13  C13 UNL     1      -1.744  -1.537   0.621  1.00  0.00     0.000 C 
HETATM   14  C14 UNL     1      -2.539  -0.650   1.582  1.00  0.00     0.000 C 
HETATM   15  C15 UNL     1      -2.588  -2.664   0.026  1.00  0.00     0.000 C 
ENDBRANCH   1  13
TORSDOF 1
