REMARK  1 active torsions:
REMARK  status: ('A' for Active; 'I' for Inactive)
REMARK    1  A    between atoms: C5_5  and  C7_7 
ROOT
HETATM    1  C1  UNL     1      -1.565   0.568  -0.740  1.00  0.00     0.171 C 
HETATM    2  C2  UNL     1      -1.770  -0.828  -0.188  1.00  0.00    -0.018 C 
HETATM    3  C3  UNL     1      -0.709  -1.644  -0.059  1.00  0.00    -0.032 C 
HETATM    4  C4  UNL     1       0.662  -1.232  -0.547  1.00  0.00     0.030 C 
HETATM    5  C5  UNL     1       0.949   0.293  -0.568  1.00  0.00     0.025 C 
HETATM    6  C6  UNL     1      -0.266   1.150  -0.160  1.00  0.00     0.042 C 
HETATM    7  C10 UNL     1      -3.145  -1.289   0.232  1.00  0.00     0.029 C 
HETATM    8  O1  UNL     1      -2.637   1.432  -0.422  1.00  0.00    -0.219 OA
ENDROOT
BRANCH   5   9
HETATM    9  C7  UNL     1       2.176   0.650   0.256  1.00  0.00    -0.044 C 
HETATM   10  C8  UNL     1       3.219   1.223  -0.365  1.00  0.00    -0.009 C 
HETATM   11  C9  UNL     1       2.273   0.393   1.734  1.00  0.00     0.026 C 
ENDBRANCH   5   9
TORSDOF 1
