REMARK  4 active torsions:
REMARK  status: ('A' for Active; 'I' for Inactive)
REMARK    1  A    between atoms: C15_16  and  C18_19 
REMARK    2  A    between atoms: C18_19  and  C19_21 
REMARK    3  A    between atoms: C19_21  and  C20_22 
REMARK    4  A    between atoms: C20_22  and  C21_23 
ROOT
HETATM    1  C1  UNL     1       5.436   0.537   1.078  1.00  0.00     0.033 C 
HETATM    2  C2  UNL     1       5.901  -0.623   0.170  1.00  0.00     0.152 C 
HETATM    3  C3  UNL     1       5.067  -1.906   0.381  1.00  0.00     0.028 C 
HETATM    4  C4  UNL     1       3.549  -1.647   0.100  1.00  0.00     0.002 C 
HETATM    5  C5  UNL     1       3.033  -0.217   0.496  1.00  0.00     0.000 C 
HETATM    6  C6  UNL     1       3.977   0.402   1.555  1.00  0.00     0.003 C 
HETATM    7  C7  UNL     1       1.566  -0.264   1.045  1.00  0.00     0.003 C 
HETATM    8  C8  UNL     1       0.654  -1.230   0.225  1.00  0.00     0.000 C 
HETATM    9  C9  UNL     1       1.213  -2.678   0.209  1.00  0.00     0.000 C 
HETATM   10  C10 UNL     1       2.668  -2.772   0.680  1.00  0.00     0.000 C 
HETATM   11  C11 UNL     1      -0.752  -1.230   0.887  1.00  0.00     0.002 C 
HETATM   12  C12 UNL     1      -1.367   0.178   0.889  1.00  0.00     0.033 C 
HETATM   13  C13 UNL     1      -0.510   1.105   1.762  1.00  0.00     0.152 C 
HETATM   14  C14 UNL     1       0.920   1.143   1.191  1.00  0.00     0.033 C 
HETATM   15  O1  UNL     1      -1.049   2.412   1.742  1.00  0.00    -0.224 OA
HETATM   16  C15 UNL     1      -2.814  -0.064   1.328  1.00  0.00     0.031 C 
HETATM   17  C16 UNL     1      -3.166  -1.414   0.684  1.00  0.00     0.003 C 
HETATM   18  C17 UNL     1      -1.855  -1.982   0.133  1.00  0.00     0.000 C 
HETATM   19  C26 UNL     1      -0.719  -1.801   2.315  1.00  0.00     0.000 C 
HETATM   20  C27 UNL     1       0.522  -0.727  -1.225  1.00  0.00     0.000 C 
HETATM   21  C28 UNL     1       3.070   0.693  -0.744  1.00  0.00     0.000 C 
HETATM   22  C29 UNL     1       5.576  -3.029  -0.535  1.00  0.00     0.003 C 
HETATM   23  C30 UNL     1       5.291  -2.383   1.826  1.00  0.00     0.003 C 
HETATM   24  O3  UNL     1       5.840  -0.221  -1.187  1.00  0.00    -0.224 OA
ENDROOT
BRANCH  16  25
HETATM   25  C18 UNL     1      -3.758   1.045   0.871  1.00  0.00     0.127 C 
HETATM   26  O2  UNL     1      -3.578   2.154   1.723  1.00  0.00    -0.226 OA
HETATM   27  C25 UNL     1      -5.205   0.566   0.990  1.00  0.00     0.033 C 
BRANCH  25  28
HETATM   28  C19 UNL     1      -3.393   1.469  -0.553  1.00  0.00     0.035 C 
BRANCH  28  29
HETATM   29  C20 UNL     1      -4.527   2.215  -1.256  1.00  0.00     0.028 C 
BRANCH  29  30
HETATM   30  C21 UNL     1      -4.123   2.729  -2.611  1.00  0.00    -0.035 C 
HETATM   31  C22 UNL     1      -5.088   3.025  -3.498  1.00  0.00    -0.048 C 
HETATM   32  C23 UNL     1      -6.524   2.900  -3.064  1.00  0.00     0.026 C 
HETATM   33  C24 UNL     1      -4.684   3.469  -4.879  1.00  0.00     0.026 C 
ENDBRANCH  29  30
ENDBRANCH  28  29
ENDBRANCH  25  28
ENDBRANCH  16  25
TORSDOF 4
