REMARK  3 active torsions:
REMARK  status: ('A' for Active; 'I' for Inactive)
REMARK    1  A    between atoms: C12_13  and  C13_15 
REMARK    2  A    between atoms: C17_19  and  C19_21 
REMARK    3  A    between atoms: C19_21  and  C20_22 
ROOT
HETATM    1  C1  UNL     1      -5.783   3.193  -1.326  1.00  0.00     0.099 C 
HETATM    2  O1  UNL     1      -4.963   4.361  -1.463  1.00  0.00    -0.336 OA
HETATM    3  C2  UNL     1      -3.613   4.285  -1.416  1.00  0.00     0.092 A 
HETATM    4  C3  UNL     1      -2.945   3.107  -0.973  1.00  0.00     0.023 A 
HETATM    5  C4  UNL     1      -3.736   1.928  -0.537  1.00  0.00     0.033 C 
HETATM    6  C5  UNL     1      -5.197   2.291  -0.227  1.00  0.00     0.033 C 
HETATM    7  C6  UNL     1      -1.527   3.063  -0.955  1.00  0.00     0.095 A 
HETATM    8  C7  UNL     1      -0.781   4.213  -1.330  1.00  0.00     0.057 A 
HETATM    9  C8  UNL     1      -1.447   5.379  -1.775  1.00  0.00     0.007 A 
HETATM   10  C9  UNL     1      -2.859   5.412  -1.814  1.00  0.00     0.024 A 
HETATM   11  C10 UNL     1       0.707   4.188  -1.240  1.00  0.00     0.178 C 
HETATM   12  C11 UNL     1       1.313   2.943  -0.625  1.00  0.00     0.104 C 
HETATM   13  C12 UNL     1       0.465   1.693  -0.928  1.00  0.00     0.151 C 
HETATM   14  O2  UNL     1      -0.906   1.922  -0.580  1.00  0.00    -0.329 OA
HETATM   15  O4  UNL     1       1.467   5.057  -1.602  1.00  0.00    -0.291 OA
HETATM   16  C29 UNL     1      -7.193   3.656  -0.957  1.00  0.00     0.030 C 
HETATM   17  C30 UNL     1      -5.822   2.469  -2.678  1.00  0.00     0.030 C 
ENDROOT
BRANCH  13  18
HETATM   18  C13 UNL     1       0.947   0.500  -0.219  1.00  0.00     0.005 A 
HETATM   19  C14 UNL     1       0.822   0.414   1.188  1.00  0.00    -0.004 A 
HETATM   20  C15 UNL     1       1.285  -0.734   1.877  1.00  0.00    -0.000 A 
HETATM   21  C16 UNL     1       1.873  -1.811   1.148  1.00  0.00     0.086 A 
HETATM   22  C26 UNL     1       1.160  -0.814   3.352  1.00  0.00     0.031 C 
HETATM   23  C17 UNL     1       2.004  -1.713  -0.260  1.00  0.00     0.004 A 
HETATM   24  O3  UNL     1       2.318  -2.924   1.772  1.00  0.00    -0.336 OA
HETATM   25  C18 UNL     1       1.541  -0.561  -0.941  1.00  0.00    -0.004 A 
HETATM   26  C24 UNL     1       1.994  -3.197   3.143  1.00  0.00     0.099 C 
HETATM   27  C25 UNL     1       2.082  -1.889   3.953  1.00  0.00     0.033 C 
HETATM   28  C27 UNL     1       0.582  -3.791   3.197  1.00  0.00     0.030 C 
HETATM   29  C28 UNL     1       3.000  -4.227   3.662  1.00  0.00     0.030 C 
BRANCH  23  30
HETATM   30  C19 UNL     1       2.621  -2.809  -1.025  1.00  0.00     0.054 C 
BRANCH  30  31
HETATM   31  C20 UNL     1       4.121  -2.811  -0.904  1.00  0.00    -0.030 C 
HETATM   32  C21 UNL     1       4.799  -3.875  -1.365  1.00  0.00    -0.048 C 
HETATM   33  C22 UNL     1       6.299  -3.885  -1.225  1.00  0.00     0.026 C 
HETATM   34  C23 UNL     1       4.027  -5.000  -1.998  1.00  0.00     0.026 C 
ENDBRANCH  30  31
ENDBRANCH  23  30
ENDBRANCH  13  18
TORSDOF 3
