REMARK  3 active torsions:
REMARK  status: ('A' for Active; 'I' for Inactive)
REMARK    1  A    between atoms: C3_3  and  C19_22 
REMARK    2  A    between atoms: C7_7  and  C12_12 
REMARK    3  A    between atoms: C13_13  and  C14_14 
ROOT
HETATM    1  C1  UNL     1      -2.658  -0.684  -0.137  1.00  0.00     0.033 C 
HETATM    2  C2  UNL     1      -2.322  -2.158  -0.480  1.00  0.00     0.154 C 
HETATM    3  C3  UNL     1      -1.154  -2.731   0.361  1.00  0.00     0.059 C 
HETATM    4  C4  UNL     1       0.125  -1.826   0.305  1.00  0.00     0.006 C 
HETATM    5  C5  UNL     1      -0.117  -0.342  -0.088  1.00  0.00     0.009 C 
HETATM    6  C6  UNL     1      -1.481   0.109   0.465  1.00  0.00     0.003 C 
HETATM    7  C7  UNL     1       1.053   0.486   0.510  1.00  0.00     0.066 C 
HETATM    8  C8  UNL     1       2.402  -0.162   0.232  1.00  0.00    -0.038 C 
HETATM    9  C9  UNL     1       2.467  -1.369  -0.687  1.00  0.00     0.022 C 
HETATM   10  C10 UNL     1       1.324  -2.395  -0.488  1.00  0.00     0.004 C 
HETATM   11  C11 UNL     1       3.523   0.316   0.805  1.00  0.00    -0.009 C 
HETATM   12  C18 UNL     1      -0.131  -0.148  -1.619  1.00  0.00     0.001 C 
HETATM   13  C20 UNL     1      -1.651  -2.809   1.813  1.00  0.00     0.005 C 
HETATM   14  O5  UNL     1      -2.035  -2.279  -1.863  1.00  0.00    -0.223 OA
ENDROOT
BRANCH   7  15
HETATM   15  C12 UNL     1       1.062   1.922   0.043  1.00  0.00     0.112 C 
HETATM   16  C13 UNL     1       0.387   2.834   0.760  1.00  0.00     0.028 C 
HETATM   17  O3  UNL     1       1.726   2.283  -1.053  1.00  0.00    -0.195 OA
BRANCH  16  18
HETATM   18  C14 UNL     1       0.365   4.244   0.348  1.00  0.00     0.063 A 
HETATM   19  C15 UNL     1       1.111   5.221   0.867  1.00  0.00     0.012 A 
HETATM   20  C16 UNL     1       0.769   6.504   0.154  1.00  0.00     0.179 A 
HETATM   21  O1  UNL     1      -0.234   6.135  -0.807  1.00  0.00    -0.294 OA
HETATM   22  C17 UNL     1      -0.471   4.822  -0.695  1.00  0.00     0.296 A 
HETATM   23  O2  UNL     1      -1.262   4.186  -1.352  1.00  0.00    -0.259 OA
ENDBRANCH  16  18
ENDBRANCH   7  15
BRANCH   3  24
HETATM   24  C19 UNL     1      -0.850  -4.180  -0.055  1.00  0.00     0.185 C 
HETATM   25  O4  UNL     1      -2.041  -4.926   0.035  1.00  0.00    -0.221 OA
ENDBRANCH   3  24
TORSDOF 3
