REMARK  4 active torsions:
REMARK  status: ('A' for Active; 'I' for Inactive)
REMARK    1  A    between atoms: P1_1  and  N1_3 
REMARK    2  A    between atoms: P1_1  and  N2_11 
REMARK    3  A    between atoms: P1_1  and  N3_14 
REMARK    4  A    between atoms: N1_3  and  C1_4 
ROOT
HETATM    1  P1  UNL     1      -0.260  -1.479  -0.234  1.00  0.00     0.334 P 
HETATM    2  O1  UNL     1       0.643  -1.490  -1.383  1.00  0.00    -0.260 OA
ENDROOT
BRANCH   1   3
HETATM    3  N1  UNL     1      -1.119  -0.106  -0.236  1.00  0.00    -0.198 NA
BRANCH   3   4
HETATM    4  C1  UNL     1      -0.478   1.105  -0.236  1.00  0.00     0.085 A 
HETATM    5  C2  UNL     1      -1.225   2.299  -0.236  1.00  0.00     0.019 A 
HETATM    6  C3  UNL     1      -0.564   3.541  -0.236  1.00  0.00    -0.003 A 
HETATM    7  C4  UNL     1       0.840   3.592  -0.236  1.00  0.00    -0.022 A 
HETATM    8  C5  UNL     1       1.586   2.400  -0.236  1.00  0.00    -0.003 A 
HETATM    9  C7  UNL     1       1.535   4.906  -0.236  1.00  0.00     0.031 C 
HETATM   10  C6  UNL     1       0.930   1.158  -0.236  1.00  0.00     0.019 A 
ENDBRANCH   3   4
ENDBRANCH   1   3
BRANCH   1  11
HETATM   11  N2  UNL     1      -1.269  -2.742  -0.326  1.00  0.00    -0.199 NA
HETATM   12  C8  UNL     1      -0.830  -3.955  -0.814  1.00  0.00     0.099 A 
HETATM   13  C9  UNL     1      -1.957  -3.004  -1.492  1.00  0.00     0.099 A 
ENDBRANCH   1  11
BRANCH   1  14
HETATM   14  N3  UNL     1       0.606  -1.574   1.135  1.00  0.00    -0.199 NA
HETATM   15  C10 UNL     1       1.178  -2.768   1.518  1.00  0.00     0.099 A 
HETATM   16  C11 UNL     1       0.008  -1.973   2.311  1.00  0.00     0.099 A 
ENDBRANCH   1  14
TORSDOF 4
