REMARK  2 active torsions:
REMARK  status: ('A' for Active; 'I' for Inactive)
REMARK    1  A    between atoms: C5_5  and  C7_7 
REMARK    2  A    between atoms: C9_10  and  C12_13 
ROOT
HETATM    1  C1  UNL     1      -3.729  -0.580   0.963  1.00  0.00     0.026 C 
HETATM    2  C2  UNL     1      -2.963  -1.611   0.127  1.00  0.00     0.005 C 
HETATM    3  C3  UNL     1      -1.842  -0.941  -0.686  1.00  0.00     0.004 C 
HETATM    4  C4  UNL     1      -0.834  -0.291   0.297  1.00  0.00     0.022 C 
HETATM    5  C5  UNL     1      -1.518   0.553   1.379  1.00  0.00     0.015 C 
HETATM    6  C6  UNL     1      -2.826   0.398   1.678  1.00  0.00    -0.027 C 
HETATM    7  C8  UNL     1       0.213   0.504  -0.521  1.00  0.00     0.007 C 
HETATM    8  C9  UNL     1       1.568   0.205   0.109  1.00  0.00     0.028 C 
HETATM    9  C10 UNL     1       1.424  -1.293   0.318  1.00  0.00     0.003 C 
HETATM   10  C11 UNL     1       0.041  -1.391   0.949  1.00  0.00     0.004 C 
HETATM   11  C15 UNL     1      -2.420   0.096  -1.660  1.00  0.00     0.000 C 
ENDROOT
BRANCH   5  12
HETATM   12  C7  UNL     1      -0.725   1.553   2.115  1.00  0.00     0.230 C 
HETATM   13  O1  UNL     1      -0.074   2.379   1.518  1.00  0.00    -0.283 OA
ENDBRANCH   5  12
BRANCH   8  14
HETATM   14  C12 UNL     1       2.733   0.549  -0.812  1.00  0.00     0.127 C 
HETATM   15  C13 UNL     1       2.701   2.043  -1.139  1.00  0.00     0.033 C 
HETATM   16  C14 UNL     1       4.045   0.117  -0.156  1.00  0.00     0.033 C 
HETATM   17  O2  UNL     1       2.584  -0.170  -2.016  1.00  0.00    -0.226 OA
ENDBRANCH   8  14
TORSDOF 2
