REMARK  0 active torsions:
REMARK  status: ('A' for Active; 'I' for Inactive)
ROOT
HETATM    1  C1  UNL     1       4.164  -0.020   1.086  1.00  0.00     0.004 C 
HETATM    2  C2  UNL     1       2.878  -0.854   1.052  1.00  0.00     0.061 C 
HETATM    3  C3  UNL     1       1.870  -0.360  -0.081  1.00  0.00     0.297 C 
HETATM    4  C4  UNL     1       1.444   1.143   0.219  1.00  0.00     0.104 C 
HETATM    5  C5  UNL     1       2.738   1.996   0.198  1.00  0.00     0.021 C 
HETATM    6  C6  UNL     1       3.756   1.446   1.284  1.00  0.00     0.001 C 
HETATM    7  C7  UNL     1       3.287   1.971  -1.287  1.00  0.00     0.096 C 
HETATM    8  C8  UNL     1       3.299   0.575  -1.912  1.00  0.00     0.273 C 
HETATM    9  O1  UNL     1       2.550  -0.474  -1.343  1.00  0.00    -0.276 OA
HETATM   10  O2  UNL     1       3.896   0.393  -2.978  1.00  0.00    -0.264 OA
HETATM   11  C9  UNL     1       0.830   1.180   1.674  1.00  0.00     0.013 C 
HETATM   12  C10 UNL     1      -0.389   0.230   1.790  1.00  0.00     0.036 C 
HETATM   13  C11 UNL     1       0.086  -1.226   1.396  1.00  0.00     0.253 C 
HETATM   14  N1  UNL     1       0.724  -1.310   0.007  1.00  0.00     0.159 N 
HETATM   15  C12 UNL     1      -0.260  -1.327  -1.131  1.00  0.00     0.254 C 
HETATM   16  C13 UNL     1      -1.211  -0.146  -1.325  1.00  0.00     0.043 C 
HETATM   17  C14 UNL     1      -0.528   1.148  -1.765  1.00  0.00     0.067 C 
HETATM   18  C15 UNL     1       0.450   1.824  -0.798  1.00  0.00     0.154 C 
HETATM   19  O3  UNL     1       0.558   3.053  -0.933  1.00  0.00    -0.296 OA
HETATM   20  C16 UNL     1       5.070  -0.484   2.239  1.00  0.00     0.000 C 
ENDROOT
TORSDOF 0
