REMARK  5 active torsions:
REMARK  status: ('A' for Active; 'I' for Inactive)
REMARK    1  A    between atoms: C4_4  and  C19_24 
REMARK    2  A    between atoms: C6_6  and  O4_18 
REMARK    3  A    between atoms: C10_10  and  C11_11 
REMARK    4  A    between atoms: O4_18  and  C15_19 
REMARK    5  A    between atoms: C15_19  and  C16_20 
ROOT
HETATM    1  C1  UNL     1      -2.658  -2.889  -0.674  1.00  0.00     0.029 C 
HETATM    2  C2  UNL     1      -3.410  -1.543  -0.582  1.00  0.00     0.030 C 
HETATM    3  C3  UNL     1      -2.988  -0.504  -1.608  1.00  0.00    -0.032 C 
HETATM    4  C4  UNL     1      -2.027   0.438  -1.445  1.00  0.00    -0.013 C 
HETATM    5  C5  UNL     1      -1.162   0.600  -0.203  1.00  0.00     0.055 C 
HETATM    6  C6  UNL     1       0.350   0.830  -0.465  1.00  0.00     0.135 C 
HETATM    7  C7  UNL     1       1.006  -0.180  -1.430  1.00  0.00     0.088 C 
HETATM    8  C8  UNL     1       0.984  -1.648  -0.967  1.00  0.00     0.152 C 
HETATM    9  C9  UNL     1      -0.354  -2.262  -1.285  1.00  0.00    -0.002 C 
HETATM   10  C10 UNL     1      -1.209  -2.676  -0.330  1.00  0.00    -0.013 C 
HETATM   11  O2  UNL     1       2.080  -2.313  -1.609  1.00  0.00    -0.296 OA
HETATM   12  C12 UNL     1       3.018  -1.397  -1.863  1.00  0.00     0.292 C 
HETATM   13  C13 UNL     1       2.477  -0.053  -1.690  1.00  0.00     0.046 C 
HETATM   14  C14 UNL     1       3.164   1.102  -1.748  1.00  0.00     0.001 C 
HETATM   15  O3  UNL     1       4.154  -1.625  -2.203  1.00  0.00    -0.259 OA
ENDROOT
BRANCH   6  16
HETATM   16  O4  UNL     1       1.035   0.809   0.779  1.00  0.00    -0.304 OA
BRANCH  16  17
HETATM   17  C15 UNL     1       0.797   1.897   1.508  1.00  0.00     0.271 C 
HETATM   18  O5  UNL     1       0.187   2.859   1.100  1.00  0.00    -0.264 OA
BRANCH  17  19
HETATM   19  C16 UNL     1       1.344   1.863   2.908  1.00  0.00     0.086 C 
HETATM   20  C17 UNL     1       0.748   2.957   3.795  1.00  0.00     0.010 C 
HETATM   21  C18 UNL     1       2.873   1.846   2.937  1.00  0.00     0.010 C 
ENDBRANCH  17  19
ENDBRANCH  16  17
ENDBRANCH   6  16
BRANCH   4  22
HETATM   22  C19 UNL     1      -1.779   1.410  -2.570  1.00  0.00     0.204 C 
HETATM   23  O6  UNL     1      -2.164   2.705  -2.166  1.00  0.00    -0.216 OA
ENDBRANCH   4  22
BRANCH  10  24
HETATM   24  C11 UNL     1      -0.785  -2.885   1.103  1.00  0.00     0.204 C 
HETATM   25  O1  UNL     1       0.117  -3.965   1.176  1.00  0.00    -0.216 OA
ENDBRANCH  10  24
TORSDOF 5
