REMARK  5 active torsions:
REMARK  status: ('A' for Active; 'I' for Inactive)
REMARK    1  A    between atoms: C5_5  and  C7_7 
REMARK    2  A    between atoms: C8_8  and  C9_9 
REMARK    3  A    between atoms: C10_10  and  C11_11 
REMARK    4  A    between atoms: C11_11  and  O1_12 
REMARK    5  A    between atoms: O1_12  and  C12_13 
ROOT
HETATM    1  C9  UNL     1       1.077   0.387  -0.338  1.00  0.00     0.047 C 
HETATM    2  C10 UNL     1      -0.167   0.492   0.178  1.00  0.00     0.015 C 
ENDROOT
BRANCH   1   3
HETATM    3  C8  UNL     1       1.787  -0.866  -0.345  1.00  0.00    -0.059 C 
HETATM    4  C7  UNL     1       2.372  -1.902  -0.347  1.00  0.00    -0.059 C 
BRANCH   4   5
HETATM    5  C5  UNL     1       3.079  -3.158  -0.353  1.00  0.00     0.042 A 
HETATM    6  C4  UNL     1       4.484  -3.172  -0.355  1.00  0.00     0.010 A 
HETATM    7  C3  UNL     1       5.171  -4.399  -0.359  1.00  0.00     0.028 A 
HETATM    8  C2  UNL     1       4.453  -5.610  -0.359  1.00  0.00     0.131 A 
HETATM    9  C1  UNL     1       3.046  -5.591  -0.359  1.00  0.00     0.028 A 
HETATM   10  O3  UNL     1       5.098  -6.758  -0.359  1.00  0.00    -0.190 OA
HETATM   11  C6  UNL     1       2.357  -4.365  -0.355  1.00  0.00     0.010 A 
ENDBRANCH   4   5
ENDBRANCH   1   3
BRANCH   2  12
HETATM   12  C11 UNL     1      -0.896   1.809   0.172  1.00  0.00     0.176 C 
BRANCH  12  13
HETATM   13  O1  UNL     1      -2.287   1.582   0.342  1.00  0.00    -0.326 OA
BRANCH  13  14
HETATM   14  C12 UNL     1      -3.088   2.628   0.361  1.00  0.00     0.095 A 
HETATM   15  C13 UNL     1      -4.473   2.455   0.527  1.00  0.00     0.026 A 
HETATM   16  C14 UNL     1      -5.327   3.572   0.547  1.00  0.00     0.029 A 
HETATM   17  C15 UNL     1      -4.800   4.867   0.403  1.00  0.00     0.131 A 
HETATM   18  C16 UNL     1      -3.415   5.040   0.237  1.00  0.00     0.029 A 
HETATM   19  O2  UNL     1      -5.601   5.914   0.422  1.00  0.00    -0.190 OA
HETATM   20  C17 UNL     1      -2.561   3.924   0.216  1.00  0.00     0.026 A 
ENDBRANCH  13  14
ENDBRANCH  12  13
ENDBRANCH   2  12
TORSDOF 5
