REMARK  12 active torsions:
REMARK  status: ('A' for Active; 'I' for Inactive)
REMARK    1  A    between atoms: C10_12  and  C13_15 
REMARK    2  A    between atoms: C13_15  and  C14_16 
REMARK    3  A    between atoms: C14_16  and  C15_17 
REMARK    4  A    between atoms: C15_17  and  C16_18 
REMARK    5  A    between atoms: C16_18  and  C17_19 
REMARK    6  A    between atoms: C17_19  and  C18_20 
REMARK    7  A    between atoms: C18_20  and  C19_21 
REMARK    8  A    between atoms: C19_21  and  C20_22 
REMARK    9  A    between atoms: C20_22  and  C21_23 
REMARK   10  A    between atoms: C21_23  and  C22_24 
REMARK   11  A    between atoms: C22_24  and  C23_25 
REMARK   12  A    between atoms: C23_25  and  C24_26 
ROOT
HETATM    1  C13 UNL     1      -1.361   3.367   1.934  1.00  0.00     0.028 C 
ENDROOT
BRANCH   1   2
HETATM    2  C10 UNL     1      -1.162   3.033   3.418  1.00  0.00     0.099 C 
HETATM    3  O2  UNL     1       0.111   2.391   3.570  1.00  0.00    -0.336 OA
HETATM    4  C2  UNL     1       1.262   3.100   3.631  1.00  0.00     0.085 A 
HETATM    5  C1  UNL     1       1.260   4.516   3.799  1.00  0.00    -0.002 A 
HETATM    6  C3  UNL     1       2.492   2.402   3.527  1.00  0.00    -0.002 A 
HETATM    7  C6  UNL     1       2.494   5.219   3.850  1.00  0.00     0.001 A 
HETATM    8  C12 UNL     1      -0.031   5.240   3.922  1.00  0.00     0.030 C 
HETATM    9  C5  UNL     1       3.719   4.516   3.744  1.00  0.00     0.122 A 
HETATM   10  C7  UNL     1       2.514   6.686   4.012  1.00  0.00     0.033 C 
HETATM   11  C4  UNL     1       3.719   3.109   3.584  1.00  0.00     0.001 A 
HETATM   12  O1  UNL     1       4.881   5.184   3.797  1.00  0.00    -0.191 OA
HETATM   13  C8  UNL     1       5.000   2.387   3.473  1.00  0.00     0.033 C 
HETATM   14  C11 UNL     1      -1.193   4.303   4.285  1.00  0.00     0.033 C 
HETATM   15  C9  UNL     1       2.486   0.938   3.363  1.00  0.00     0.033 C 
HETATM   16  C29 UNL     1      -2.238   2.041   3.863  1.00  0.00     0.030 C 
ENDBRANCH   1   2
BRANCH   1  17
HETATM   17  C14 UNL     1      -1.311   2.129   1.037  1.00  0.00     0.002 C 
BRANCH  17  18
HETATM   18  C15 UNL     1      -1.365   2.475  -0.451  1.00  0.00     0.000 C 
BRANCH  18  19
HETATM   19  C16 UNL     1      -1.057   1.275  -1.348  1.00  0.00     0.000 C 
HETATM   20  C28 UNL     1      -0.795   1.676  -2.799  1.00  0.00     0.000 C 
BRANCH  19  21
HETATM   21  C17 UNL     1      -2.094   0.160  -1.221  1.00  0.00     0.000 C 
BRANCH  21  22
HETATM   22  C18 UNL     1      -1.754  -1.063  -2.072  1.00  0.00     0.000 C 
BRANCH  22  23
HETATM   23  C19 UNL     1      -2.656  -2.260  -1.776  1.00  0.00     0.000 C 
BRANCH  23  24
HETATM   24  C20 UNL     1      -2.482  -3.395  -2.783  1.00  0.00     0.000 C 
HETATM   25  C27 UNL     1      -3.594  -4.441  -2.692  1.00  0.00     0.000 C 
BRANCH  24  26
HETATM   26  C21 UNL     1      -1.086  -4.014  -2.740  1.00  0.00     0.000 C 
BRANCH  26  27
HETATM   27  C22 UNL     1      -0.893  -5.111  -3.785  1.00  0.00     0.000 C 
BRANCH  27  28
HETATM   28  C23 UNL     1       0.561  -5.574  -3.895  1.00  0.00     0.000 C 
BRANCH  28  29
HETATM   29  C24 UNL     1       0.783  -6.551  -5.051  1.00  0.00     0.000 C 
HETATM   30  C25 UNL     1       2.266  -6.815  -5.322  1.00  0.00     0.000 C 
HETATM   31  C26 UNL     1      -0.027  -7.838  -4.901  1.00  0.00     0.000 C 
ENDBRANCH  28  29
ENDBRANCH  27  28
ENDBRANCH  26  27
ENDBRANCH  24  26
ENDBRANCH  23  24
ENDBRANCH  22  23
ENDBRANCH  21  22
ENDBRANCH  19  21
ENDBRANCH  18  19
ENDBRANCH  17  18
ENDBRANCH   1  17
TORSDOF 12
