REMARK  2 active torsions:
REMARK  status: ('A' for Active; 'I' for Inactive)
REMARK    1  A    between atoms: C7_8  and  O3_12 
REMARK    2  A    between atoms: O3_12  and  C10_13 
ROOT
HETATM    1  C1  UNL     1      -2.274  -2.390   1.666  1.00  0.00     0.135 A 
HETATM    2  C2  UNL     1      -1.566  -3.616   1.659  1.00  0.00     0.055 A 
HETATM    3  C3  UNL     1      -0.228  -3.662   1.202  1.00  0.00     0.138 A 
HETATM    4  C4  UNL     1       0.400  -2.473   0.751  1.00  0.00     0.087 A 
HETATM    5  C5  UNL     1      -0.308  -1.242   0.758  1.00  0.00     0.109 A 
HETATM    6  C6  UNL     1      -1.646  -1.205   1.216  1.00  0.00     0.052 A 
HETATM    7  O1  UNL     1       0.291  -0.107   0.331  1.00  0.00    -0.285 OA
HETATM    8  C7  UNL     1       1.562  -0.052  -0.122  1.00  0.00     0.207 A 
HETATM    9  C8  UNL     1       2.326  -1.166  -0.173  1.00  0.00     0.093 A 
HETATM   10  C9  UNL     1       1.806  -2.479   0.262  1.00  0.00     0.204 A 
HETATM   11  O2  UNL     1       2.555  -3.426   0.183  1.00  0.00    -0.286 OA
HETATM   12  O5  UNL     1       0.428  -4.832   1.202  1.00  0.00    -0.190 OA
HETATM   13  O6  UNL     1      -3.542  -2.352   2.099  1.00  0.00    -0.190 OA
ENDROOT
BRANCH   8  14
HETATM   14  O3  UNL     1       2.106   1.091  -0.531  1.00  0.00    -0.285 OA
BRANCH  14  15
HETATM   15  C10 UNL     1       1.316   2.089  -0.875  1.00  0.00     0.102 A 
HETATM   16  C11 UNL     1       1.668   3.412  -0.557  1.00  0.00     0.027 A 
HETATM   17  C12 UNL     1       0.825   4.475  -0.923  1.00  0.00     0.029 A 
HETATM   18  C13 UNL     1      -0.375   4.221  -1.610  1.00  0.00     0.131 A 
HETATM   19  C14 UNL     1      -0.727   2.898  -1.928  1.00  0.00     0.029 A 
HETATM   20  O4  UNL     1      -1.165   5.218  -1.953  1.00  0.00    -0.190 OA
HETATM   21  C15 UNL     1       0.116   1.835  -1.561  1.00  0.00     0.027 A 
ENDBRANCH  14  15
ENDBRANCH   8  14
TORSDOF 2
