REMARK  10 active torsions:
REMARK  status: ('A' for Active; 'I' for Inactive)
REMARK    1  A    between atoms: C4_4  and  C7_7 
REMARK    2  A    between atoms: C7_7  and  C8_8 
REMARK    3  A    between atoms: C10_11  and  C47_64 
REMARK    4  A    between atoms: C12_14  and  C44_60 
REMARK    5  A    between atoms: C14_17  and  C40_55 
REMARK    6  A    between atoms: C23_29  and  C36_48 
REMARK    7  A    between atoms: C25_32  and  C32_43 
REMARK    8  A    between atoms: C32_43  and  C33_44 
REMARK    9  A    between atoms: C40_55  and  C42_57 
REMARK   10  A    between atoms: C47_64  and  C48_65 
ROOT
HETATM    1  C8  UNL     1       3.949  -0.793   1.146  1.00  0.00     0.191 C 
HETATM    2  C9  UNL     1       3.174  -1.682   2.111  1.00  0.00     0.275 C 
HETATM    3  N1  UNL     1       2.297  -2.643   1.658  1.00  0.00    -0.228 NA
HETATM    4  C10 UNL     1       2.029  -2.918   0.221  1.00  0.00     0.191 C 
HETATM    5  C11 UNL     1       1.025  -1.945  -0.373  1.00  0.00     0.275 C 
HETATM    6  N2  UNL     1      -0.262  -1.897   0.115  1.00  0.00    -0.229 NA
HETATM    7  C12 UNL     1      -1.271  -0.941  -0.410  1.00  0.00     0.186 C 
HETATM    8  C13 UNL     1      -2.334  -0.647   0.643  1.00  0.00     0.274 C 
HETATM    9  N3  UNL     1      -3.680  -0.688   0.332  1.00  0.00    -0.229 NA
HETATM   10  C14 UNL     1      -4.760  -0.416   1.322  1.00  0.00     0.184 C 
HETATM   11  C15 UNL     1      -6.141  -0.219   0.709  1.00  0.00     0.256 C 
HETATM   12  N4  UNL     1      -6.359   0.812  -0.252  1.00  0.00    -0.312 N 
HETATM   13  C16 UNL     1      -5.367   1.748  -0.791  1.00  0.00     0.165 C 
HETATM   14  C17 UNL     1      -6.096   2.391  -1.979  1.00  0.00     0.034 C 
HETATM   15  C18 UNL     1      -7.578   2.346  -1.580  1.00  0.00     0.027 C 
HETATM   16  C19 UNL     1      -7.680   1.023  -0.822  1.00  0.00     0.105 C 
HETATM   17  C20 UNL     1      -4.912   2.799   0.207  1.00  0.00     0.272 C 
HETATM   18  N5  UNL     1      -3.566   2.959   0.445  1.00  0.00    -0.229 NA
HETATM   19  C21 UNL     1      -3.033   3.961   1.406  1.00  0.00     0.186 C 
HETATM   20  C22 UNL     1      -1.523   3.861   1.527  1.00  0.00     0.274 C 
HETATM   21  N6  UNL     1      -0.957   2.803   2.207  1.00  0.00    -0.229 NA
HETATM   22  C23 UNL     1       0.510   2.645   2.338  1.00  0.00     0.186 C 
HETATM   23  C24 UNL     1       1.074   1.943   1.119  1.00  0.00     0.274 C 
HETATM   24  N7  UNL     1       1.576   2.689   0.078  1.00  0.00    -0.229 NA
HETATM   25  C25 UNL     1       2.135   2.072  -1.148  1.00  0.00     0.184 C 
HETATM   26  C26 UNL     1       3.254   2.928  -1.719  1.00  0.00     0.256 C 
HETATM   27  N8  UNL     1       4.594   2.578  -1.395  1.00  0.00    -0.312 N 
HETATM   28  C27 UNL     1       5.004   1.449  -0.564  1.00  0.00     0.165 C 
HETATM   29  C28 UNL     1       4.631   1.629   0.902  1.00  0.00     0.272 C 
HETATM   30  N9  UNL     1       4.150   0.586   1.666  1.00  0.00    -0.228 NA
HETATM   31  O1  UNL     1       4.754   2.715   1.422  1.00  0.00    -0.269 OA
HETATM   32  C29 UNL     1       6.526   1.395  -0.758  1.00  0.00     0.034 C 
HETATM   33  C30 UNL     1       6.914   2.846  -1.076  1.00  0.00     0.027 C 
HETATM   34  C31 UNL     1       5.723   3.352  -1.885  1.00  0.00     0.105 C 
HETATM   35  O2  UNL     1       3.024   3.879  -2.430  1.00  0.00    -0.270 OA
HETATM   36  O3  UNL     1       1.082   0.734   1.066  1.00  0.00    -0.268 OA
HETATM   37  O4  UNL     1      -0.824   4.711   1.025  1.00  0.00    -0.268 OA
HETATM   38  C39 UNL     1      -3.719   3.846   2.775  1.00  0.00     0.037 C 
HETATM   39  O5  UNL     1      -5.725   3.488   0.781  1.00  0.00    -0.269 OA
HETATM   40  O6  UNL     1      -7.057  -0.938   1.041  1.00  0.00    -0.270 OA
HETATM   41  O7  UNL     1      -1.982  -0.373   1.768  1.00  0.00    -0.268 OA
HETATM   42  O8  UNL     1       1.361  -1.211  -1.273  1.00  0.00    -0.268 OA
HETATM   43  O10 UNL     1       3.322  -1.553   3.305  1.00  0.00    -0.268 OA
ENDROOT
BRANCH   1  44
HETATM   44  C7  UNL     1       5.301  -1.440   0.826  1.00  0.00     0.060 C 
BRANCH  44  45
HETATM   45  C4  UNL     1       5.139  -2.820   0.303  1.00  0.00    -0.020 A 
HETATM   46  C3  UNL     1       4.965  -3.895   1.195  1.00  0.00    -0.002 A 
HETATM   47  C2  UNL     1       4.811  -5.199   0.699  1.00  0.00     0.027 A 
HETATM   48  C1  UNL     1       4.828  -5.440  -0.686  1.00  0.00     0.131 A 
HETATM   49  C6  UNL     1       5.000  -4.363  -1.576  1.00  0.00     0.027 A 
HETATM   50  O11 UNL     1       4.684  -6.664  -1.150  1.00  0.00    -0.190 OA
HETATM   51  C5  UNL     1       5.154  -3.055  -1.082  1.00  0.00    -0.002 A 
ENDBRANCH  44  45
ENDBRANCH   1  44
BRANCH   4  52
HETATM   52  C47 UNL     1       1.570  -4.369   0.035  1.00  0.00     0.060 C 
BRANCH  52  53
HETATM   53  C48 UNL     1       1.277  -4.672  -1.391  1.00  0.00    -0.020 A 
HETATM   54  C49 UNL     1       0.363  -5.690  -1.721  1.00  0.00    -0.002 A 
HETATM   55  C50 UNL     1       0.088  -5.975  -3.068  1.00  0.00     0.027 A 
HETATM   56  C51 UNL     1       0.725  -5.248  -4.090  1.00  0.00     0.131 A 
HETATM   57  C52 UNL     1       1.639  -4.233  -3.758  1.00  0.00     0.027 A 
HETATM   58  O9  UNL     1       0.465  -5.516  -5.356  1.00  0.00    -0.190 OA
HETATM   59  C53 UNL     1       1.914  -3.943  -2.410  1.00  0.00    -0.002 A 
ENDBRANCH  52  53
ENDBRANCH   4  52
BRANCH   7  60
HETATM   60  C44 UNL     1      -1.793  -1.461  -1.758  1.00  0.00     0.032 C 
HETATM   61  C45 UNL     1      -2.268  -0.336  -2.680  1.00  0.00     0.003 C 
HETATM   62  C46 UNL     1      -0.811  -2.410  -2.445  1.00  0.00     0.003 C 
ENDBRANCH   7  60
BRANCH  25  63
HETATM   63  C32 UNL     1       1.016   1.887  -2.176  1.00  0.00     0.032 C 
HETATM   64  C35 UNL     1      -0.377   2.053  -1.566  1.00  0.00     0.003 C 
BRANCH  63  65
HETATM   65  C33 UNL     1       1.158   0.594  -2.979  1.00  0.00     0.002 C 
HETATM   66  C34 UNL     1       1.188   0.836  -4.488  1.00  0.00     0.000 C 
ENDBRANCH  63  65
ENDBRANCH  25  63
BRANCH  10  67
HETATM   67  C40 UNL     1      -4.426   0.709   2.307  1.00  0.00     0.032 C 
HETATM   68  C41 UNL     1      -3.561   0.234   3.475  1.00  0.00     0.003 C 
BRANCH  67  69
HETATM   69  C42 UNL     1      -5.664   1.478   2.766  1.00  0.00     0.002 C 
HETATM   70  C43 UNL     1      -6.123   1.076   4.166  1.00  0.00     0.000 C 
ENDBRANCH  67  69
ENDBRANCH  10  67
BRANCH  22  71
HETATM   71  C36 UNL     1       0.846   1.879   3.621  1.00  0.00     0.032 C 
HETATM   72  C37 UNL     1       2.307   2.045   4.041  1.00  0.00     0.003 C 
HETATM   73  C38 UNL     1      -0.131   2.178   4.760  1.00  0.00     0.003 C 
ENDBRANCH  22  71
TORSDOF 10
