REMARK  4 active torsions:
REMARK  status: ('A' for Active; 'I' for Inactive)
REMARK    1  A    between atoms: C12_13  and  O7_26 
REMARK    2  A    between atoms: C14_15  and  C17_20 
REMARK    3  A    between atoms: C17_20  and  O5_22 
REMARK    4  A    between atoms: O7_26  and  C20_27 
ROOT
HETATM    1  C1  UNL     1      -4.391  -1.619   0.057  1.00  0.00     0.165 C 
HETATM    2  C2  UNL     1      -5.031  -0.299   0.010  1.00  0.00     0.216 C 
HETATM    3  C3  UNL     1      -4.168   0.893   0.002  1.00  0.00     0.012 C 
HETATM    4  C4  UNL     1      -2.846   0.773  -0.262  1.00  0.00    -0.039 C 
HETATM    5  C5  UNL     1      -2.248  -0.553  -0.729  1.00  0.00     0.038 C 
HETATM    6  C6  UNL     1      -3.082  -1.734  -0.240  1.00  0.00     0.008 C 
HETATM    7  C7  UNL     1      -0.754  -0.615  -0.262  1.00  0.00     0.045 C 
HETATM    8  C8  UNL     1       0.117   0.506  -0.932  1.00  0.00     0.062 C 
HETATM    9  C9  UNL     1      -0.574   1.904  -0.857  1.00  0.00     0.131 C 
HETATM   10  C10 UNL     1      -1.908   1.949  -0.080  1.00  0.00     0.052 C 
HETATM   11  O1  UNL     1       0.256   2.924  -0.270  1.00  0.00    -0.302 OA
HETATM   12  C11 UNL     1       0.908   2.623   0.873  1.00  0.00     0.300 C 
HETATM   13  C12 UNL     1       1.428   1.215   1.076  1.00  0.00     0.213 C 
HETATM   14  C13 UNL     1       1.531   0.623  -0.326  1.00  0.00     0.079 C 
HETATM   15  C14 UNL     1       2.127  -0.730  -0.723  1.00  0.00     0.203 C 
HETATM   16  C15 UNL     1       1.449  -1.943  -0.035  1.00  0.00     0.216 C 
HETATM   17  C16 UNL     1      -0.078  -2.016  -0.293  1.00  0.00     0.186 C 
HETATM   18  O2  UNL     1      -0.313  -2.670  -1.527  1.00  0.00    -0.221 OA
HETATM   19  O3  UNL     1       1.668  -1.871   1.361  1.00  0.00    -0.218 OA
HETATM   20  O6  UNL     1       1.775  -0.742  -2.094  1.00  0.00    -0.347 OA
HETATM   21  C19 UNL     1       0.652   0.098  -2.330  1.00  0.00     0.145 C 
HETATM   22  O9  UNL     1       1.113   3.453   1.727  1.00  0.00    -0.262 OA
HETATM   23  C22 UNL     1      -2.385  -0.574  -2.254  1.00  0.00     0.009 C 
HETATM   24  C23 UNL     1      -4.783   2.232   0.320  1.00  0.00     0.034 C 
HETATM   25  O10 UNL     1      -6.236  -0.199  -0.002  1.00  0.00    -0.285 OA
HETATM   26  O11 UNL     1      -5.096  -2.695   0.398  1.00  0.00    -0.187 OA
ENDROOT
BRANCH  13  27
HETATM   27  O7  UNL     1       2.721   1.258   1.666  1.00  0.00    -0.294 OA
BRANCH  27  28
HETATM   28  C20 UNL     1       2.670   1.477   2.979  1.00  0.00     0.273 C 
HETATM   29  O8  UNL     1       1.641   1.602   3.600  1.00  0.00    -0.264 OA
HETATM   30  C21 UNL     1       4.006   1.563   3.664  1.00  0.00     0.106 C 
ENDBRANCH  27  28
ENDBRANCH  13  27
BRANCH  15  31
HETATM   31  C17 UNL     1       3.633  -0.777  -0.615  1.00  0.00     0.299 C 
HETATM   32  O4  UNL     1       4.268   0.217  -0.348  1.00  0.00    -0.262 OA
BRANCH  31  33
HETATM   33  O5  UNL     1       4.180  -1.969  -0.834  1.00  0.00    -0.297 OA
HETATM   34  C18 UNL     1       5.596  -1.943  -0.729  1.00  0.00     0.185 C 
ENDBRANCH  31  33
ENDBRANCH  15  31
TORSDOF 4
