REMARK  5 active torsions:
REMARK  status: ('A' for Active; 'I' for Inactive)
REMARK    1  A    between atoms: C1_1  and  C2_2 
REMARK    2  A    between atoms: C2_2  and  C3_3 
REMARK    3  A    between atoms: C3_3  and  C5_5 
REMARK    4  A    between atoms: C5_5  and  C6_6 
REMARK    5  A    between atoms: C6_6  and  C7_7 
ROOT
HETATM    1  C5  UNL     1      -0.838   0.564   0.139  1.00  0.00     0.005 C 
ENDROOT
BRANCH   1   2
HETATM    2  C3  UNL     1      -0.166   1.909   0.416  1.00  0.00     0.008 C 
HETATM    3  C4  UNL     1       0.304   2.047   1.864  1.00  0.00     0.001 C 
BRANCH   2   4
HETATM    4  C2  UNL     1      -1.011   3.097  -0.046  1.00  0.00     0.072 C 
BRANCH   4   5
HETATM    5  C1  UNL     1      -0.236   4.387  -0.046  1.00  0.00     0.207 C 
HETATM    6  O1  UNL     1       0.972   4.387  -0.046  1.00  0.00    -0.288 OA
ENDBRANCH   4   5
ENDBRANCH   2   4
ENDBRANCH   1   2
BRANCH   1   7
HETATM    7  C6  UNL     1       0.117  -0.618   0.307  1.00  0.00     0.025 C 
BRANCH   7   8
HETATM    8  C7  UNL     1      -0.507  -1.924  -0.106  1.00  0.00    -0.035 C 
HETATM    9  C8  UNL     1       0.268  -2.845  -0.703  1.00  0.00    -0.048 C 
HETATM   10  C9  UNL     1       1.734  -2.684  -1.001  1.00  0.00     0.026 C 
HETATM   11  C10 UNL     1      -0.357  -4.150  -1.116  1.00  0.00     0.026 C 
ENDBRANCH   7   8
ENDBRANCH   1   7
TORSDOF 5
