REMARK  3 active torsions:
REMARK  status: ('A' for Active; 'I' for Inactive)
REMARK    1  A    between atoms: C4_4  and  O3_9 
REMARK    2  A    between atoms: C5_6  and  C6_7 
REMARK    3  A    between atoms: O3_9  and  C7_10 
ROOT
HETATM    1  O3  UNL     1       0.258  -0.726   0.732  1.00  0.00    -0.332 OA
ENDROOT
BRANCH   1   2
HETATM    2  C4  UNL     1      -1.125  -0.760   1.031  1.00  0.00     0.270 C 
HETATM    3  C3  UNL     1      -1.359  -1.342   2.449  1.00  0.00     0.241 C 
HETATM    4  C2  UNL     1      -2.850  -1.246   2.848  1.00  0.00     0.220 C 
HETATM    5  O5  UNL     1      -0.951  -2.701   2.477  1.00  0.00    -0.215 OA
HETATM    6  C1  UNL     1      -3.359   0.193   2.619  1.00  0.00     0.215 C 
HETATM    7  O6  UNL     1      -3.008  -1.601   4.211  1.00  0.00    -0.218 OA
HETATM    8  C5  UNL     1      -3.031   0.688   1.193  1.00  0.00     0.184 C 
HETATM    9  O7  UNL     1      -4.764   0.240   2.805  1.00  0.00    -0.218 OA
HETATM   10  O1  UNL     1      -1.633   0.567   0.963  1.00  0.00    -0.326 OA
BRANCH   8  11
HETATM   11  C6  UNL     1      -3.391   2.162   0.978  1.00  0.00     0.214 C 
HETATM   12  O2  UNL     1      -3.211   2.465  -0.387  1.00  0.00    -0.218 OA
ENDBRANCH   8  11
ENDBRANCH   1   2
BRANCH   1  13
HETATM   13  C7  UNL     1       0.527  -0.428  -0.623  1.00  0.00     0.118 C 
HETATM   14  C8  UNL     1       0.518   1.084  -0.883  1.00  0.00     0.032 C 
HETATM   15  C9  UNL     1       1.920   1.309  -1.471  1.00  0.00     0.033 C 
HETATM   16  C10 UNL     1       2.912   1.238  -0.295  1.00  0.00     0.152 C 
HETATM   17  C13 UNL     1       2.174   0.037  -2.297  1.00  0.00     0.005 C 
HETATM   18  C11 UNL     1       3.025  -0.273  -0.070  1.00  0.00     0.035 C 
HETATM   19  O4  UNL     1       4.164   1.797  -0.652  1.00  0.00    -0.224 OA
HETATM   20  C12 UNL     1       1.961  -0.824  -1.041  1.00  0.00     0.028 C 
HETATM   21  C16 UNL     1       2.109  -2.326  -1.272  1.00  0.00     0.003 C 
HETATM   22  C14 UNL     1       3.578  -0.057  -2.897  1.00  0.00     0.000 C 
HETATM   23  C15 UNL     1       1.143  -0.180  -3.410  1.00  0.00     0.000 C 
ENDBRANCH   1  13
TORSDOF 3
