REMARK  4 active torsions:
REMARK  status: ('A' for Active; 'I' for Inactive)
REMARK    1  A    between atoms: C1_1  and  C2_2 
REMARK    2  A    between atoms: C2_2  and  C7_7 
REMARK    3  A    between atoms: C3_3  and  C4_4 
REMARK    4  A    between atoms: C4_4  and  C5_5 
ROOT
HETATM    1  C2  UNL     1      -1.312   0.887  -0.527  1.00  0.00     0.016 C 
HETATM    2  C3  UNL     1      -0.183   0.412  -1.076  1.00  0.00    -0.027 C 
ENDROOT
BRANCH   1   3
HETATM    3  C1  UNL     1      -2.101   1.967  -1.131  1.00  0.00     0.230 C 
HETATM    4  O1  UNL     1      -3.090   2.387  -0.574  1.00  0.00    -0.283 OA
ENDBRANCH   1   3
BRANCH   1   5
HETATM    5  C7  UNL     1      -1.791   0.285   0.768  1.00  0.00     0.029 C 
HETATM    6  C8  UNL     1      -1.250   1.025   1.990  1.00  0.00     0.005 C 
ENDBRANCH   1   5
BRANCH   2   7
HETATM    7  C4  UNL     1       0.547  -0.699  -0.371  1.00  0.00     0.026 C 
BRANCH   7   8
HETATM    8  C5  UNL     1       1.979  -0.873  -0.881  1.00  0.00     0.005 C 
HETATM    9  C6  UNL     1       2.729  -1.994  -0.162  1.00  0.00     0.000 C 
ENDBRANCH   7   8
ENDBRANCH   2   7
TORSDOF 4
