REMARK  1 active torsions:
REMARK  status: ('A' for Active; 'I' for Inactive)
REMARK    1  A    between atoms: C9_9  and  C10_10 
ROOT
HETATM    1  C1  UNL     1      -2.117   1.799   0.201  1.00  0.00     0.028 C 
HETATM    2  C2  UNL     1      -3.594   1.361   0.119  1.00  0.00     0.003 C 
HETATM    3  C3  UNL     1      -3.814  -0.109   0.541  1.00  0.00     0.010 C 
HETATM    4  C4  UNL     1      -2.709  -1.020  -0.031  1.00  0.00     0.081 C 
HETATM    5  C5  UNL     1      -1.381  -0.557   0.594  1.00  0.00     0.045 C 
HETATM    6  C6  UNL     1      -1.180   0.676  -0.293  1.00  0.00     0.102 C 
HETATM    7  C7  UNL     1       0.311   1.004  -0.168  1.00  0.00     0.029 C 
HETATM    8  C8  UNL     1       0.994  -0.350   0.184  1.00  0.00     0.019 C 
HETATM    9  C9  UNL     1      -0.131  -1.395   0.293  1.00  0.00     0.091 C 
HETATM   10  C11 UNL     1       2.074  -0.725  -0.859  1.00  0.00     0.038 C 
HETATM   11  C12 UNL     1       3.053   0.447  -0.670  1.00  0.00     0.170 C 
HETATM   12  C13 UNL     1       2.465   1.734  -1.332  1.00  0.00     0.183 C 
HETATM   13  C14 UNL     1       0.914   1.693  -1.402  1.00  0.00     0.038 C 
HETATM   14  O3  UNL     1       2.940   1.930  -2.654  1.00  0.00    -0.221 OA
HETATM   15  O4  UNL     1       4.336   0.090  -1.160  1.00  0.00    -0.219 OA
HETATM   16  C15 UNL     1       3.076   0.564   0.834  1.00  0.00    -0.015 C 
HETATM   17  C16 UNL     1       1.889  -0.137   1.422  1.00  0.00     0.025 C 
HETATM   18  C17 UNL     1       4.010   1.209   1.557  1.00  0.00    -0.007 C 
HETATM   19  O5  UNL     1      -1.539   0.264  -1.615  1.00  0.00    -0.307 OA
HETATM   20  C18 UNL     1      -2.453  -0.693  -1.479  1.00  0.00     0.271 C 
HETATM   21  O6  UNL     1      -3.018  -1.250  -2.391  1.00  0.00    -0.264 OA
HETATM   22  C19 UNL     1      -2.973  -2.500   0.236  1.00  0.00     0.010 C 
ENDROOT
BRANCH   9  23
HETATM   23  C10 UNL     1       0.098  -2.496   1.301  1.00  0.00     0.185 C 
HETATM   24  O1  UNL     1      -0.580  -2.576   2.299  1.00  0.00    -0.647 OA
HETATM   25  O2  UNL     1       1.080  -3.340   1.002  1.00  0.00    -0.647 OA
ENDBRANCH   9  23
TORSDOF 1
