REMARK  13 active torsions:
REMARK  status: ('A' for Active; 'I' for Inactive)
REMARK    1  A    between atoms: C4_5  and  C5_6 
REMARK    2  A    between atoms: C5_6  and  C6_7 
REMARK    3  A    between atoms: C6_7  and  C7_8 
REMARK    4  A    between atoms: C7_8  and  C8_9 
REMARK    5  A    between atoms: C8_9  and  C9_10 
REMARK    6  A    between atoms: C9_10  and  C10_11 
REMARK    7  A    between atoms: C10_11  and  C11_12 
REMARK    8  A    between atoms: C11_12  and  C12_13 
REMARK    9  A    between atoms: C12_13  and  C13_14 
REMARK   10  A    between atoms: C13_14  and  C14_15 
REMARK   11  A    between atoms: C14_15  and  C15_16 
REMARK   12  A    between atoms: C15_16  and  C16_17 
REMARK   13  A    between atoms: C16_17  and  C17_18 
ROOT
HETATM    1  C9  UNL     1       0.828   0.844   0.541  1.00  0.00     0.000 C 
ENDROOT
BRANCH   1   2
HETATM    2  C8  UNL     1       0.414   1.561   1.824  1.00  0.00     0.000 C 
BRANCH   2   3
HETATM    3  C7  UNL     1       1.391   2.666   2.225  1.00  0.00     0.000 C 
BRANCH   3   4
HETATM    4  C6  UNL     1       0.977   3.383   3.510  1.00  0.00     0.003 C 
BRANCH   4   5
HETATM    5  C5  UNL     1       1.953   4.490   3.910  1.00  0.00     0.030 C 
BRANCH   5   6
HETATM    6  C4  UNL     1       1.480   5.143   5.209  1.00  0.00     0.125 C 
HETATM    7  O1  UNL     1       0.225   5.778   4.982  1.00  0.00    -0.304 OA
HETATM    8  C1  UNL     1       0.465   7.057   4.711  1.00  0.00     0.272 C 
HETATM    9  C2  UNL     1       1.910   7.430   4.859  1.00  0.00     0.098 C 
HETATM   10  O3  UNL     1      -0.375   7.862   4.387  1.00  0.00    -0.264 OA
HETATM   11  C3  UNL     1       2.461   6.240   5.639  1.00  0.00     0.041 C 
ENDBRANCH   5   6
ENDBRANCH   4   5
ENDBRANCH   3   4
ENDBRANCH   2   3
ENDBRANCH   1   2
BRANCH   1  12
HETATM   12  C10 UNL     1      -0.149  -0.262   0.141  1.00  0.00     0.008 C 
BRANCH  12  13
HETATM   13  C11 UNL     1       0.266  -0.978  -1.147  1.00  0.00     0.065 C 
BRANCH  13  14
HETATM   14  C12 UNL     1      -0.695  -2.072  -1.529  1.00  0.00     0.151 C 
HETATM   15  O2  UNL     1      -1.684  -2.293  -0.867  1.00  0.00    -0.296 OA
BRANCH  14  16
HETATM   16  C13 UNL     1      -0.391  -2.883  -2.760  1.00  0.00     0.065 C 
BRANCH  16  17
HETATM   17  C14 UNL     1      -1.465  -3.932  -3.049  1.00  0.00     0.008 C 
BRANCH  17  18
HETATM   18  C15 UNL     1      -1.168  -4.752  -4.305  1.00  0.00     0.000 C 
BRANCH  18  19
HETATM   19  C16 UNL     1      -2.240  -5.803  -4.592  1.00  0.00     0.000 C 
BRANCH  19  20
HETATM   20  C17 UNL     1      -1.942  -6.623  -5.848  1.00  0.00     0.000 C 
HETATM   21  C18 UNL     1      -3.016  -7.672  -6.135  1.00  0.00     0.000 C 
ENDBRANCH  19  20
ENDBRANCH  18  19
ENDBRANCH  17  18
ENDBRANCH  16  17
ENDBRANCH  14  16
ENDBRANCH  13  14
ENDBRANCH  12  13
ENDBRANCH   1  12
TORSDOF 13
