REMARK  3 active torsions:
REMARK  status: ('A' for Active; 'I' for Inactive)
REMARK    1  A    between atoms: C2_2  and  C4_4 
REMARK    2  A    between atoms: C6_6  and  C13_13 
REMARK    3  A    between atoms: C9_9  and  C11_11 
ROOT
HETATM    1  C4  UNL     1       1.289   0.338  -0.172  1.00  0.00     0.022 C 
HETATM    2  C5  UNL     1       0.010   1.008   0.371  1.00  0.00     0.007 C 
HETATM    3  C6  UNL     1      -1.271   0.269  -0.057  1.00  0.00     0.028 C 
HETATM    4  C7  UNL     1      -1.201  -1.219   0.324  1.00  0.00     0.003 C 
HETATM    5  C8  UNL     1       0.074  -1.895  -0.209  1.00  0.00     0.004 C 
HETATM    6  C9  UNL     1       1.363  -1.160   0.225  1.00  0.00     0.022 C 
HETATM    7  C10 UNL     1       2.586  -1.834  -0.412  1.00  0.00     0.005 C 
ENDROOT
BRANCH   3   8
HETATM    8  C13 UNL     1      -2.519   0.934   0.531  1.00  0.00     0.127 C 
HETATM    9  C14 UNL     1      -2.717   0.609   2.012  1.00  0.00     0.033 C 
HETATM   10  C15 UNL     1      -2.580   2.434   0.242  1.00  0.00     0.033 C 
HETATM   11  O1  UNL     1      -3.545   0.301  -0.199  1.00  0.00    -0.226 OA
ENDBRANCH   3   8
BRANCH   1  12
HETATM   12  C2  UNL     1       1.385   0.537  -1.668  1.00  0.00    -0.044 C 
HETATM   13  C1  UNL     1       0.680  -0.350  -2.658  1.00  0.00     0.026 C 
HETATM   14  C3  UNL     1       2.135   1.549  -2.133  1.00  0.00    -0.009 C 
ENDBRANCH   1  12
BRANCH   6  15
HETATM   15  C11 UNL     1       1.537  -1.289   1.721  1.00  0.00    -0.026 C 
HETATM   16  C12 UNL     1       2.629  -0.750   2.287  1.00  0.00    -0.005 C 
ENDBRANCH   6  15
TORSDOF 3
