REMARK  0 active torsions:
REMARK  status: ('A' for Active; 'I' for Inactive)
ROOT
HETATM    1  C1  UNL     1       3.676   0.313   0.404  1.00  0.00     0.028 A 
HETATM    2  C2  UNL     1       3.607  -1.090   0.533  1.00  0.00     0.002 A 
HETATM    3  C3  UNL     1       2.359  -1.742   0.461  1.00  0.00     0.003 A 
HETATM    4  C4  UNL     1       1.162  -1.002   0.258  1.00  0.00     0.044 A 
HETATM    5  C5  UNL     1       1.227   0.418   0.129  1.00  0.00     0.068 A 
HETATM    6  C6  UNL     1       2.496   1.065   0.205  1.00  0.00     0.134 A 
HETATM    7  O1  UNL     1       2.606   2.397   0.088  1.00  0.00    -0.190 OA
HETATM    8  C7  UNL     1      -0.008   1.242  -0.086  1.00  0.00     0.200 A 
HETATM    9  C8  UNL     1      -1.309   0.496  -0.170  1.00  0.00     0.068 A 
HETATM   10  C9  UNL     1      -1.363  -0.922  -0.041  1.00  0.00     0.044 A 
HETATM   11  C10 UNL     1      -0.135  -1.744   0.185  1.00  0.00     0.196 A 
HETATM   12  O2  UNL     1      -0.186  -2.949   0.305  1.00  0.00    -0.287 OA
HETATM   13  C11 UNL     1      -2.617  -1.586  -0.129  1.00  0.00     0.003 A 
HETATM   14  C12 UNL     1      -3.807  -0.857  -0.344  1.00  0.00     0.002 A 
HETATM   15  C13 UNL     1      -3.756   0.545  -0.471  1.00  0.00     0.028 A 
HETATM   16  C14 UNL     1      -2.518   1.223  -0.385  1.00  0.00     0.134 A 
HETATM   17  O3  UNL     1      -2.516   2.557  -0.510  1.00  0.00    -0.190 OA
HETATM   18  O4  UNL     1       0.041   2.447  -0.184  1.00  0.00    -0.286 OA
ENDROOT
TORSDOF 0
