REMARK  2 active torsions:
REMARK  status: ('A' for Active; 'I' for Inactive)
REMARK    1  A    between atoms: C8_9  and  C10_12 
REMARK    2  A    between atoms: C10_12  and  C11_13 
ROOT
HETATM    1  C1  UNL     1       3.537  -3.297   0.078  1.00  0.00     0.133 A 
HETATM    2  C2  UNL     1       3.863  -1.932  -0.088  1.00  0.00     0.027 A 
HETATM    3  C3  UNL     1       2.842  -0.982  -0.313  1.00  0.00     0.002 A 
HETATM    4  C4  UNL     1       1.484  -1.391  -0.377  1.00  0.00     0.033 A 
HETATM    5  C5  UNL     1       1.158  -2.770  -0.215  1.00  0.00     0.095 A 
HETATM    6  C6  UNL     1       2.187  -3.713   0.018  1.00  0.00     0.051 A 
HETATM    7  O1  UNL     1      -0.119  -3.209  -0.262  1.00  0.00    -0.328 OA
HETATM    8  C7  UNL     1      -1.180  -2.358  -0.715  1.00  0.00     0.182 C 
HETATM    9  C8  UNL     1      -0.996  -0.916  -0.197  1.00  0.00     0.190 C 
HETATM   10  C9  UNL     1       0.408  -0.389  -0.607  1.00  0.00     0.207 C 
HETATM   11  O2  UNL     1       0.398  -0.047  -1.982  1.00  0.00    -0.216 OA
HETATM   12  O5  UNL     1      -1.080  -0.943   1.217  1.00  0.00    -0.220 OA
HETATM   13  O6  UNL     1       4.508  -4.197   0.293  1.00  0.00    -0.190 OA
ENDROOT
BRANCH   9  14
HETATM   14  C10 UNL     1      -2.141   0.002  -0.650  1.00  0.00     0.062 C 
BRANCH  14  15
HETATM   15  C11 UNL     1      -1.965   1.387  -0.143  1.00  0.00    -0.017 A 
HETATM   16  C12 UNL     1      -1.375   2.367  -0.961  1.00  0.00    -0.002 A 
HETATM   17  C13 UNL     1      -1.211   3.676  -0.477  1.00  0.00     0.029 A 
HETATM   18  C14 UNL     1      -1.635   4.012   0.820  1.00  0.00     0.156 A 
HETATM   19  C15 UNL     1      -2.227   3.029   1.639  1.00  0.00     0.156 A 
HETATM   20  O4  UNL     1      -1.479   5.242   1.268  1.00  0.00    -0.188 OA
HETATM   21  C16 UNL     1      -2.391   1.721   1.154  1.00  0.00     0.025 A 
HETATM   22  O3  UNL     1      -2.627   3.336   2.857  1.00  0.00    -0.188 OA
ENDBRANCH  14  15
ENDBRANCH   9  14
TORSDOF 2
