REMARK  5 active torsions:
REMARK  status: ('A' for Active; 'I' for Inactive)
REMARK    1  A    between atoms: N1_1  and  C1_2 
REMARK       I    between atoms: N1_1  and  C9_11 
REMARK    2  A    between atoms: C1_2  and  C2_3 
REMARK    3  A    between atoms: C2_3  and  C3_4 
REMARK    4  A    between atoms: C9_11  and  C10_12 
REMARK    5  A    between atoms: C11_13  and  C12_14 
ROOT
HETATM    1  N1  UNL     1       0.178   0.459  -0.459  1.00  0.00    -0.234 NA
HETATM    2  C9  UNL     1      -0.121  -0.156   0.725  1.00  0.00     0.275 C 
HETATM    3  O4  UNL     1       0.176   0.363   1.774  1.00  0.00    -0.266 OA
ENDROOT
BRANCH   2   4
HETATM    4  C10 UNL     1      -0.805  -1.455   0.705  1.00  0.00     0.062 C 
HETATM    5  C11 UNL     1      -1.113  -2.082   1.852  1.00  0.00     0.005 C 
BRANCH   5   6
HETATM    6  C12 UNL     1      -1.811  -3.402   1.781  1.00  0.00     0.002 A 
HETATM    7  C13 UNL     1      -2.666  -3.692   0.703  1.00  0.00     0.002 A 
HETATM    8  C14 UNL     1      -3.319  -4.934   0.641  1.00  0.00     0.029 A 
HETATM    9  C15 UNL     1      -3.121  -5.891   1.653  1.00  0.00     0.156 A 
HETATM   10  C16 UNL     1      -2.266  -5.602   2.731  1.00  0.00     0.156 A 
HETATM   11  O3  UNL     1      -3.738  -7.053   1.586  1.00  0.00    -0.188 OA
HETATM   12  C17 UNL     1      -1.611  -4.358   2.793  1.00  0.00     0.029 A 
HETATM   13  O2  UNL     1      -2.074  -6.492   3.684  1.00  0.00    -0.188 OA
ENDBRANCH   5   6
ENDBRANCH   2   4
BRANCH   1  14
HETATM   14  C1  UNL     1       0.863   1.758  -0.443  1.00  0.00     0.134 C 
BRANCH  14  15
HETATM   15  C2  UNL     1       1.107   2.268  -1.865  1.00  0.00     0.053 C 
BRANCH  15  16
HETATM   16  C3  UNL     1       1.803   3.580  -1.865  1.00  0.00    -0.020 A 
HETATM   17  C4  UNL     1       1.057   4.772  -1.865  1.00  0.00    -0.002 A 
HETATM   18  C5  UNL     1       1.717   6.014  -1.865  1.00  0.00     0.027 A 
HETATM   19  C6  UNL     1       3.121   6.068  -1.865  1.00  0.00     0.131 A 
HETATM   20  O1  UNL     1       3.738   7.232  -1.865  1.00  0.00    -0.190 OA
HETATM   21  C7  UNL     1       3.865   4.875  -1.865  1.00  0.00     0.027 A 
HETATM   22  C8  UNL     1       3.207   3.633  -1.865  1.00  0.00    -0.002 A 
ENDBRANCH  15  16
ENDBRANCH  14  15
ENDBRANCH   1  14
TORSDOF 5
