REMARK  5 active torsions:
REMARK  status: ('A' for Active; 'I' for Inactive)
REMARK    1  A    between atoms: C1_1  and  C12_14 
REMARK    2  A    between atoms: C5_5  and  C7_7 
REMARK    3  A    between atoms: C7_7  and  C8_8 
REMARK    4  A    between atoms: C12_14  and  C13_15 
REMARK    5  A    between atoms: C14_16  and  C15_17 
ROOT
HETATM    1  C1  UNL     1      -1.059  -1.498  -1.313  1.00  0.00     0.064 A 
HETATM    2  C2  UNL     1      -2.274  -2.133  -1.643  1.00  0.00     0.136 A 
HETATM    3  C3  UNL     1      -3.199  -2.433  -0.627  1.00  0.00     0.054 A 
HETATM    4  C4  UNL     1      -2.924  -2.105   0.711  1.00  0.00     0.129 A 
HETATM    5  C5  UNL     1      -1.709  -1.471   1.037  1.00  0.00     0.008 A 
HETATM    6  C6  UNL     1      -0.781  -1.170   0.027  1.00  0.00     0.003 A 
HETATM    7  O1  UNL     1      -3.801  -2.392   1.652  1.00  0.00    -0.190 OA
HETATM    8  O2  UNL     1      -2.549  -2.447  -2.893  1.00  0.00    -0.190 OA
ENDROOT
BRANCH   1   9
HETATM    9  C12 UNL     1      -0.063  -1.172  -2.377  1.00  0.00     0.198 C 
HETATM   10  O4  UNL     1       0.209  -1.973  -3.240  1.00  0.00    -0.286 OA
BRANCH   9  11
HETATM   11  C13 UNL     1       0.586   0.145  -2.354  1.00  0.00     0.042 C 
HETATM   12  C14 UNL     1      -0.041   1.207  -1.821  1.00  0.00     0.003 C 
BRANCH  12  13
HETATM   13  C15 UNL     1       0.658   2.526  -1.821  1.00  0.00     0.000 A 
HETATM   14  C16 UNL     1      -0.088   3.719  -1.821  1.00  0.00     0.002 A 
HETATM   15  C17 UNL     1       0.572   4.959  -1.821  1.00  0.00     0.027 A 
HETATM   16  C18 UNL     1       1.977   5.016  -1.821  1.00  0.00     0.131 A 
HETATM   17  C19 UNL     1       2.721   3.823  -1.821  1.00  0.00     0.027 A 
HETATM   18  O3  UNL     1       2.594   6.180  -1.821  1.00  0.00    -0.190 OA
HETATM   19  C20 UNL     1       2.062   2.578  -1.821  1.00  0.00     0.002 A 
ENDBRANCH  12  13
ENDBRANCH   9  11
ENDBRANCH   1   9
BRANCH   5  20
HETATM   20  C7  UNL     1      -1.400  -1.117   2.449  1.00  0.00     0.054 C 
BRANCH  20  21
HETATM   21  C8  UNL     1       0.066  -0.853   2.660  1.00  0.00    -0.030 C 
HETATM   22  C9  UNL     1       0.881  -1.900   2.869  1.00  0.00    -0.048 C 
HETATM   23  C10 UNL     1       0.285  -3.283   2.881  1.00  0.00     0.026 C 
HETATM   24  C11 UNL     1       2.348  -1.639   3.084  1.00  0.00     0.026 C 
ENDBRANCH  20  21
ENDBRANCH   5  20
TORSDOF 5
