REMARK  11 active torsions:
REMARK  status: ('A' for Active; 'I' for Inactive)
REMARK    1  A    between atoms: C2_2  and  O11_36 
REMARK    2  A    between atoms: C3_3  and  O5_24 
REMARK    3  A    between atoms: C4_4  and  C10_11 
REMARK    4  A    between atoms: C6_6  and  C7_7 
REMARK    5  A    between atoms: C8_8  and  C9_9 
REMARK    6  A    between atoms: C10_11  and  C11_12 
REMARK    7  A    between atoms: C10_11  and  C19_22 
REMARK    8  A    between atoms: C11_12  and  C12_13 
REMARK    9  A    between atoms: C16_17  and  O2_19 
REMARK   10  A    between atoms: O5_24  and  C20_25 
REMARK   11  A    between atoms: C21_27  and  C25_34 
ROOT
HETATM    1  C1  UNL     1       0.434  -1.193   2.229  1.00  0.00     0.026 A 
HETATM    2  C2  UNL     1      -0.449  -0.668   1.268  1.00  0.00     0.116 A 
HETATM    3  C3  UNL     1       0.004   0.303   0.354  1.00  0.00     0.115 A 
HETATM    4  C4  UNL     1       1.340   0.744   0.404  1.00  0.00     0.005 A 
HETATM    5  C5  UNL     1       2.221   0.215   1.365  1.00  0.00    -0.002 A 
HETATM    6  C6  UNL     1       1.768  -0.754   2.279  1.00  0.00     0.002 A 
ENDROOT
BRANCH   4   7
HETATM    7  C10 UNL     1       1.830   1.768  -0.557  1.00  0.00     0.062 C 
BRANCH   7   8
HETATM    8  C11 UNL     1       2.734   1.152  -1.623  1.00  0.00     0.034 C 
BRANCH   8   9
HETATM    9  C12 UNL     1       2.080   0.000  -2.299  1.00  0.00    -0.020 A 
HETATM   10  C13 UNL     1       1.168   0.223  -3.344  1.00  0.00    -0.002 A 
HETATM   11  C14 UNL     1       0.551  -0.869  -3.980  1.00  0.00     0.029 A 
HETATM   12  C15 UNL     1       0.842  -2.182  -3.572  1.00  0.00     0.153 A 
HETATM   13  C16 UNL     1       1.756  -2.404  -2.525  1.00  0.00     0.119 A 
HETATM   14  O3  UNL     1       0.260  -3.201  -4.174  1.00  0.00    -0.188 OA
HETATM   15  C17 UNL     1       2.371  -1.312  -1.891  1.00  0.00     0.022 A 
BRANCH  13  16
HETATM   16  O2  UNL     1       2.033  -3.633  -2.137  1.00  0.00    -0.326 OA
HETATM   17  C18 UNL     1       3.041  -3.810  -1.150  1.00  0.00     0.181 C 
ENDBRANCH  13  16
ENDBRANCH   8   9
ENDBRANCH   7   8
BRANCH   7  18
HETATM   18  C19 UNL     1       2.484   2.947   0.164  1.00  0.00     0.187 C 
HETATM   19  O4  UNL     1       1.531   3.522   1.027  1.00  0.00    -0.220 OA
ENDBRANCH   7  18
ENDBRANCH   4   7
BRANCH   3  20
HETATM   20  O5  UNL     1      -0.824   0.795  -0.547  1.00  0.00    -0.302 OA
BRANCH  20  21
HETATM   21  C20 UNL     1      -2.088   1.268  -0.100  1.00  0.00     0.274 C 
HETATM   22  O6  UNL     1      -3.102   0.385  -0.562  1.00  0.00    -0.326 OA
HETATM   23  C21 UNL     1      -4.422   0.715  -0.146  1.00  0.00     0.184 C 
HETATM   24  C22 UNL     1      -4.799   2.110  -0.693  1.00  0.00     0.215 C 
HETATM   25  C23 UNL     1      -3.762   3.178  -0.281  1.00  0.00     0.220 C 
HETATM   26  O9  UNL     1      -6.076   2.463  -0.193  1.00  0.00    -0.218 OA
HETATM   27  C24 UNL     1      -2.344   2.690  -0.646  1.00  0.00     0.241 C 
HETATM   28  O8  UNL     1      -4.037   4.401  -0.949  1.00  0.00    -0.218 OA
HETATM   29  O7  UNL     1      -1.373   3.567  -0.105  1.00  0.00    -0.215 OA
BRANCH  23  30
HETATM   30  C25 UNL     1      -5.342  -0.394  -0.664  1.00  0.00     0.214 C 
HETATM   31  O10 UNL     1      -5.055  -1.570   0.061  1.00  0.00    -0.218 OA
ENDBRANCH  23  30
ENDBRANCH  20  21
ENDBRANCH   3  20
BRANCH   2  32
HETATM   32  O11 UNL     1      -1.699  -1.086   1.227  1.00  0.00    -0.326 OA
HETATM   33  C26 UNL     1      -2.121  -2.019   2.209  1.00  0.00     0.181 C 
ENDBRANCH   2  32
BRANCH   6  34
HETATM   34  C7  UNL     1       2.703  -1.312   3.299  1.00  0.00    -0.002 C 
HETATM   35  C8  UNL     1       4.026  -1.215   3.086  1.00  0.00     0.009 C 
BRANCH  35  36
HETATM   36  C9  UNL     1       4.963  -1.781   4.117  1.00  0.00     0.209 C 
HETATM   37  O1  UNL     1       6.248  -1.926   3.555  1.00  0.00    -0.215 OA
ENDBRANCH  35  36
ENDBRANCH   6  34
TORSDOF 11
