REMARK  6 active torsions:
REMARK  status: ('A' for Active; 'I' for Inactive)
REMARK    1  A    between atoms: C1_1  and  C2_2 
REMARK    2  A    between atoms: C1_1  and  O2_7 
REMARK    3  A    between atoms: O2_7  and  C6_8 
REMARK    4  A    between atoms: C6_8  and  C7_9 
REMARK    5  A    between atoms: C7_9  and  C8_10 
REMARK    6  A    between atoms: C9_11  and  C10_12 
ROOT
HETATM    1  O2  UNL     1       0.500   0.877  -0.082  1.00  0.00    -0.298 OA
ENDROOT
BRANCH   1   2
HETATM    2  C1  UNL     1       1.068   2.033  -0.416  1.00  0.00     0.291 C 
HETATM    3  O1  UNL     1       0.449   3.027  -0.713  1.00  0.00    -0.260 OA
BRANCH   2   4
HETATM    4  C2  UNL     1       2.535   2.047  -0.407  1.00  0.00     0.037 C 
HETATM    5  C3  UNL     1       3.301   3.240  -0.914  1.00  0.00     0.036 C 
HETATM    6  C4  UNL     1       3.227   0.992   0.058  1.00  0.00    -0.025 C 
HETATM    7  C5  UNL     1       4.731   1.059   0.045  1.00  0.00     0.030 C 
ENDBRANCH   2   4
ENDBRANCH   1   2
BRANCH   1   8
HETATM    8  C6  UNL     1      -0.918   0.945  -0.115  1.00  0.00     0.157 C 
BRANCH   8   9
HETATM    9  C7  UNL     1      -1.502  -0.414   0.277  1.00  0.00     0.059 C 
BRANCH   9  10
HETATM   10  C8  UNL     1      -3.008  -0.414   0.277  1.00  0.00    -0.028 C 
HETATM   11  C9  UNL     1      -3.648  -1.594   0.277  1.00  0.00    -0.031 C 
BRANCH  11  12
HETATM   12  C10 UNL     1      -2.828  -2.856   0.277  1.00  0.00     0.026 C 
HETATM   13  C11 UNL     1      -3.652  -4.088   0.654  1.00  0.00     0.005 C 
ENDBRANCH  11  12
ENDBRANCH   9  10
ENDBRANCH   8   9
ENDBRANCH   1   8
TORSDOF 6
