REMARK  4 active torsions:
REMARK  status: ('A' for Active; 'I' for Inactive)
REMARK    1  A    between atoms: C1_1  and  C2_2 
REMARK    2  A    between atoms: C1_1  and  O3_12 
REMARK    3  A    between atoms: C3_3  and  C4_4 
REMARK    4  A    between atoms: O3_12  and  C10_13 
ROOT
HETATM    1  C1  UNL     1       0.604   0.729  -0.241  1.00  0.00     0.300 C 
HETATM    2  O2  UNL     1       1.688   0.885   0.267  1.00  0.00    -0.259 OA
ENDROOT
BRANCH   1   3
HETATM    3  C2  UNL     1      -0.045  -0.588  -0.215  1.00  0.00     0.069 C 
HETATM    4  C3  UNL     1       0.557  -1.637   0.371  1.00  0.00     0.005 C 
BRANCH   4   5
HETATM    5  C4  UNL     1      -0.143  -2.957   0.371  1.00  0.00     0.000 A 
HETATM    6  C5  UNL     1      -1.549  -3.010   0.371  1.00  0.00     0.002 A 
HETATM    7  C6  UNL     1      -2.205  -4.252   0.371  1.00  0.00     0.027 A 
HETATM    8  C7  UNL     1      -1.463  -5.445   0.371  1.00  0.00     0.131 A 
HETATM    9  C8  UNL     1      -0.057  -5.391   0.371  1.00  0.00     0.027 A 
HETATM   10  O1  UNL     1      -2.078  -6.609   0.371  1.00  0.00    -0.190 OA
HETATM   11  C9  UNL     1       0.604  -4.149   0.371  1.00  0.00     0.002 A 
ENDBRANCH   4   5
ENDBRANCH   1   3
BRANCH   1  12
HETATM   12  O3  UNL     1      -0.078   1.695  -0.846  1.00  0.00    -0.273 OA
BRANCH  12  13
HETATM   13  C10 UNL     1       0.246   2.951  -0.608  1.00  0.00     0.103 A 
HETATM   14  C11 UNL     1       0.631   3.350   0.683  1.00  0.00     0.027 A 
HETATM   15  C12 UNL     1       0.977   4.688   0.937  1.00  0.00     0.029 A 
HETATM   16  C13 UNL     1       0.939   5.635  -0.100  1.00  0.00     0.131 A 
HETATM   17  C14 UNL     1       0.555   5.238  -1.391  1.00  0.00     0.029 A 
HETATM   18  O4  UNL     1       1.264   6.891   0.138  1.00  0.00    -0.190 OA
HETATM   19  C15 UNL     1       0.209   3.900  -1.645  1.00  0.00     0.027 A 
ENDBRANCH  12  13
ENDBRANCH   1  12
TORSDOF 4
