REMARK  2 active torsions:
REMARK  status: ('A' for Active; 'I' for Inactive)
REMARK    1  A    between atoms: C1_1  and  C11_15 
REMARK    2  A    between atoms: C12_17  and  C16_24 
ROOT
HETATM    1  C1  UNL     1      -0.182  -0.955   0.215  1.00  0.00     0.056 A 
HETATM    2  C2  UNL     1       1.119  -1.478   0.418  1.00  0.00     0.105 A 
HETATM    3  C3  UNL     1       1.275  -2.793   0.936  1.00  0.00     0.087 A 
HETATM    4  C4  UNL     1       0.137  -3.578   1.252  1.00  0.00     0.138 A 
HETATM    5  C5  UNL     1      -1.158  -3.047   1.047  1.00  0.00     0.055 A 
HETATM    6  C6  UNL     1      -1.318  -1.740   0.529  1.00  0.00     0.133 A 
HETATM    7  O1  UNL     1      -2.553  -1.250   0.340  1.00  0.00    -0.190 OA
HETATM    8  O2  UNL     1       0.268  -4.820   1.742  1.00  0.00    -0.190 OA
HETATM    9  C7  UNL     1       2.656  -3.318   1.139  1.00  0.00     0.201 A 
HETATM   10  C8  UNL     1       3.744  -2.391   0.769  1.00  0.00     0.062 A 
HETATM   11  C9  UNL     1       3.475  -1.158   0.285  1.00  0.00     0.081 A 
HETATM   12  O3  UNL     1       2.205  -0.730   0.119  1.00  0.00    -0.311 OA
HETATM   13  C10 UNL     1       4.629  -0.260  -0.070  1.00  0.00     0.058 C 
HETATM   14  O4  UNL     1       2.977  -4.404   1.564  1.00  0.00    -0.286 OA
ENDROOT
BRANCH   1  15
HETATM   15  C11 UNL     1      -0.352   0.406  -0.324  1.00  0.00     0.174 C 
HETATM   16  O5  UNL     1      -1.162   1.139   0.586  1.00  0.00    -0.347 OA
HETATM   17  C12 UNL     1      -1.346   2.512   0.266  1.00  0.00     0.181 C 
HETATM   18  C13 UNL     1      -2.059   2.631  -1.098  1.00  0.00     0.214 C 
HETATM   19  C14 UNL     1      -1.291   1.869  -2.199  1.00  0.00     0.218 C 
HETATM   20  O8  UNL     1      -2.158   4.002  -1.441  1.00  0.00    -0.218 OA
HETATM   21  C15 UNL     1      -1.004   0.424  -1.732  1.00  0.00     0.216 C 
HETATM   22  O7  UNL     1      -2.059   1.848  -3.393  1.00  0.00    -0.218 OA
HETATM   23  O6  UNL     1      -0.135  -0.203  -2.664  1.00  0.00    -0.218 OA
BRANCH  17  24
HETATM   24  C16 UNL     1      -2.152   3.133   1.414  1.00  0.00     0.214 C 
HETATM   25  O9  UNL     1      -1.348   3.127   2.570  1.00  0.00    -0.218 OA
ENDBRANCH  17  24
ENDBRANCH   1  15
TORSDOF 2
