REMARK  0 active torsions:
REMARK  status: ('A' for Active; 'I' for Inactive)
ROOT
HETATM    1  O1  UNL     1      -1.158   1.518   0.475  1.00  0.00    -0.273 OA
HETATM    2  C1  UNL     1      -2.386   1.031   0.209  1.00  0.00     0.300 A 
HETATM    3  O2  UNL     1      -3.390   1.686   0.377  1.00  0.00    -0.259 OA
HETATM    4  C2  UNL     1      -2.523  -0.350  -0.309  1.00  0.00     0.069 A 
HETATM    5  C3  UNL     1      -1.427  -1.107  -0.512  1.00  0.00     0.007 A 
HETATM    6  C4  UNL     1      -0.093  -0.531  -0.205  1.00  0.00     0.023 A 
HETATM    7  C5  UNL     1       1.086  -1.289  -0.398  1.00  0.00     0.002 A 
HETATM    8  C6  UNL     1       2.342  -0.711  -0.096  1.00  0.00     0.000 A 
HETATM    9  C7  UNL     1       2.416   0.613   0.400  1.00  0.00     0.002 A 
HETATM   10  C8  UNL     1       1.233   1.367   0.594  1.00  0.00     0.025 A 
HETATM   11  C9  UNL     1      -0.027   0.799   0.291  1.00  0.00     0.103 A 
ENDROOT
TORSDOF 0
