REMARK  4 active torsions:
REMARK  status: ('A' for Active; 'I' for Inactive)
REMARK    1  A    between atoms: C1_1  and  C2_2 
REMARK    2  A    between atoms: C1_1  and  C9_11 
REMARK    3  A    between atoms: C6_6  and  O1_8 
REMARK    4  A    between atoms: C9_11  and  C10_12 
ROOT
HETATM    1  C2  UNL     1      -0.658   0.809   0.634  1.00  0.00    -0.018 A 
HETATM    2  C3  UNL     1      -2.062   0.758   0.627  1.00  0.00     0.023 A 
HETATM    3  C4  UNL     1      -2.811   1.947   0.627  1.00  0.00     0.133 A 
HETATM    4  C5  UNL     1      -2.148   3.188   0.634  1.00  0.00     0.051 A 
HETATM    5  C6  UNL     1      -0.744   3.244   0.640  1.00  0.00     0.096 A 
HETATM    6  C7  UNL     1       0.000   2.051   0.640  1.00  0.00     0.020 A 
HETATM    7  O2  UNL     1      -4.129   1.900   0.621  1.00  0.00    -0.190 OA
ENDROOT
BRANCH   1   8
HETATM    8  C1  UNL     1       0.133  -0.451   0.634  1.00  0.00     0.031 C 
BRANCH   8   9
HETATM    9  C9  UNL     1       0.436  -0.926  -0.787  1.00  0.00     0.031 C 
BRANCH   9  10
HETATM   10  C10 UNL     1       1.227  -2.184  -0.787  1.00  0.00    -0.020 A 
HETATM   11  C11 UNL     1       0.568  -3.428  -0.787  1.00  0.00     0.023 A 
HETATM   12  C12 UNL     1       1.313  -4.621  -0.787  1.00  0.00     0.131 A 
HETATM   13  C13 UNL     1       2.717  -4.566  -0.787  1.00  0.00     0.027 A 
HETATM   14  O3  UNL     1       0.697  -5.785  -0.787  1.00  0.00    -0.190 OA
HETATM   15  C14 UNL     1       3.375  -3.324  -0.787  1.00  0.00     0.002 A 
HETATM   16  C15 UNL     1       2.631  -2.133  -0.787  1.00  0.00    -0.004 A 
ENDBRANCH   9  10
ENDBRANCH   8   9
ENDBRANCH   1   8
BRANCH   5  17
HETATM   17  O1  UNL     1      -0.127   4.408   0.646  1.00  0.00    -0.328 OA
HETATM   18  C8  UNL     1      -0.922   5.584   0.570  1.00  0.00     0.181 C 
ENDBRANCH   5  17
TORSDOF 4
