REMARK  0 active torsions:
REMARK  status: ('A' for Active; 'I' for Inactive)
ROOT
HETATM    1  C1  UNL     1      -1.213   0.603  -0.672  1.00  0.00     0.031 C 
HETATM    2  C2  UNL     1      -0.371  -0.494  -0.006  1.00  0.00     0.030 C 
HETATM    3  C3  UNL     1       1.061  -0.588  -0.553  1.00  0.00     0.002 A 
HETATM    4  C4  UNL     1       2.029   0.554  -0.377  1.00  0.00     0.000 A 
HETATM    5  C5  UNL     1       1.602   1.842   0.328  1.00  0.00     0.003 C 
HETATM    6  C6  UNL     1       0.484   2.566  -0.441  1.00  0.00     0.030 C 
HETATM    7  C7  UNL     1      -0.945   2.041  -0.160  1.00  0.00     0.127 C 
HETATM    8  C8  UNL     1      -1.291   2.152   1.332  1.00  0.00     0.033 C 
HETATM    9  O1  UNL     1      -1.836   2.908  -0.836  1.00  0.00    -0.226 OA
HETATM   10  C9  UNL     1       2.252  -0.746   0.381  1.00  0.00     0.000 A 
HETATM   11  C10 UNL     1       3.393  -1.641  -0.090  1.00  0.00     0.000 C 
HETATM   12  C11 UNL     1       2.021  -0.785   1.891  1.00  0.00     0.000 C 
HETATM   13  C12 UNL     1      -1.186  -1.762  -0.315  1.00  0.00     0.127 C 
HETATM   14  C13 UNL     1      -2.592  -1.319   0.070  1.00  0.00     0.031 C 
HETATM   15  C14 UNL     1      -2.662   0.121  -0.440  1.00  0.00     0.005 C 
HETATM   16  O2  UNL     1      -0.768  -2.842   0.498  1.00  0.00    -0.226 OA
HETATM   17  C15 UNL     1      -1.154  -2.217  -1.777  1.00  0.00     0.033 C 
ENDROOT
TORSDOF 0
