REMARK  6 active torsions:
REMARK  status: ('A' for Active; 'I' for Inactive)
REMARK    1  A    between atoms: C3_3  and  C12_14 
REMARK    2  A    between atoms: C4_4  and  O1_8 
REMARK    3  A    between atoms: O1_8  and  C8_9 
REMARK    4  A    between atoms: C8_9  and  C9_11 
REMARK    5  A    between atoms: C12_14  and  C13_15 
REMARK    6  A    between atoms: C12_14  and  O4_18 
ROOT
HETATM    1  C1  UNL     1       1.203  -3.139   0.440  1.00  0.00    -0.004 A 
HETATM    2  C2  UNL     1       1.859  -1.897   0.440  1.00  0.00    -0.000 A 
HETATM    3  C3  UNL     1       1.113  -0.705   0.440  1.00  0.00     0.027 A 
HETATM    4  C4  UNL     1      -0.295  -0.754   0.440  1.00  0.00     0.101 A 
HETATM    5  C5  UNL     1      -0.947  -1.998   0.440  1.00  0.00     0.020 A 
HETATM    6  C6  UNL     1      -0.203  -3.191   0.440  1.00  0.00    -0.020 A 
HETATM    7  C7  UNL     1      -0.898  -4.504   0.440  1.00  0.00     0.031 C 
ENDROOT
BRANCH   3   8
HETATM    8  C12 UNL     1       1.820   0.604   0.440  1.00  0.00     0.144 C 
HETATM    9  C14 UNL     1       1.649   1.336   1.772  1.00  0.00     0.037 C 
BRANCH   8  10
HETATM   10  C13 UNL     1       3.318   0.436   0.195  1.00  0.00     0.213 C 
HETATM   11  O3  UNL     1       3.893   1.717   0.067  1.00  0.00    -0.218 OA
ENDBRANCH   8  10
BRANCH   8  12
HETATM   12  O4  UNL     1       1.295   1.420  -0.582  1.00  0.00    -0.350 OA
HETATM   13  C15 UNL     1       1.498   0.893  -1.873  1.00  0.00     0.175 C 
ENDBRANCH   8  12
ENDBRANCH   3   8
BRANCH   4  14
HETATM   14  O1  UNL     1      -1.002   0.357   0.440  1.00  0.00    -0.277 OA
BRANCH  14  15
HETATM   15  C8  UNL     1      -2.047   0.457  -0.379  1.00  0.00     0.276 C 
HETATM   16  O2  UNL     1      -2.328  -0.369  -1.213  1.00  0.00    -0.264 OA
BRANCH  15  17
HETATM   17  C9  UNL     1      -2.883   1.697  -0.203  1.00  0.00     0.087 C 
HETATM   18  C10 UNL     1      -2.033   2.963  -0.094  1.00  0.00     0.010 C 
HETATM   19  C11 UNL     1      -3.982   1.813  -1.258  1.00  0.00     0.010 C 
ENDBRANCH  15  17
ENDBRANCH  14  15
ENDBRANCH   4  14
TORSDOF 6
