REMARK  20 active torsions:
REMARK  status: ('A' for Active; 'I' for Inactive)
REMARK    1  A    between atoms: C1_1  and  C2_2 
REMARK    2  A    between atoms: C1_1  and  C7_7 
REMARK    3  A    between atoms: C2_2  and  C3_3 
REMARK    4  A    between atoms: C8_8  and  C9_9 
REMARK    5  A    between atoms: C9_9  and  C10_10 
REMARK    6  A    between atoms: C10_10  and  C11_11 
REMARK    7  A    between atoms: C12_12  and  C13_13 
REMARK    8  A    between atoms: C13_13  and  C14_14 
REMARK    9  A    between atoms: C14_14  and  C15_15 
REMARK   10  A    between atoms: C16_16  and  C17_17 
REMARK   11  A    between atoms: C18_18  and  C19_19 
REMARK   12  A    between atoms: C20_20  and  C21_21 
REMARK   13  A    between atoms: C21_21  and  C22_22 
REMARK   14  A    between atoms: C22_22  and  C23_23 
REMARK   15  A    between atoms: C24_24  and  C26_26 
REMARK   16  A    between atoms: C26_26  and  C27_27 
REMARK   17  A    between atoms: C27_27  and  C28_28 
REMARK   18  A    between atoms: C29_29  and  C31_31 
REMARK   19  A    between atoms: C31_31  and  C32_32 
REMARK   20  A    between atoms: C32_32  and  C33_33 
ROOT
HETATM    1  C17 UNL     1       0.980  -0.342  -0.781  1.00  0.00    -0.001 C 
HETATM    2  C18 UNL     1      -0.363  -0.342  -0.781  1.00  0.00    -0.001 C 
ENDROOT
BRANCH   1   3
HETATM    3  C16 UNL     1       1.728   0.920  -0.781  1.00  0.00    -0.008 C 
HETATM    4  C15 UNL     1       2.992   0.967  -1.232  1.00  0.00    -0.044 C 
HETATM    5  C38 UNL     1       3.623  -0.303  -1.736  1.00  0.00     0.026 C 
BRANCH   4   6
HETATM    6  C14 UNL     1       3.854   2.201  -1.279  1.00  0.00     0.026 C 
BRANCH   6   7
HETATM    7  C13 UNL     1       3.229   3.377  -0.527  1.00  0.00     0.029 C 
BRANCH   7   8
HETATM    8  C12 UNL     1       4.148   4.566  -0.455  1.00  0.00    -0.034 C 
HETATM    9  C11 UNL     1       3.625   5.762  -0.139  1.00  0.00    -0.048 C 
HETATM   10  C39 UNL     1       2.146   5.852   0.129  1.00  0.00     0.026 C 
BRANCH   9  11
HETATM   11  C10 UNL     1       4.402   7.047  -0.023  1.00  0.00     0.026 C 
BRANCH  11  12
HETATM   12  C9  UNL     1       5.830   6.914  -0.555  1.00  0.00     0.029 C 
BRANCH  12  13
HETATM   13  C8  UNL     1       6.563   8.229  -0.566  1.00  0.00    -0.034 C 
HETATM   14  C7  UNL     1       7.900   8.217  -0.676  1.00  0.00    -0.048 C 
HETATM   15  C40 UNL     1       8.600   6.889  -0.779  1.00  0.00     0.026 C 
BRANCH  14  16
HETATM   16  C1  UNL     1       8.781   9.438  -0.705  1.00  0.00     0.026 C 
BRANCH  16  17
HETATM   17  C2  UNL     1       8.022  10.713  -0.344  1.00  0.00     0.029 C 
BRANCH  17  18
HETATM   18  C3  UNL     1       8.928  11.910  -0.236  1.00  0.00    -0.034 C 
HETATM   19  C4  UNL     1       8.385  13.135  -0.336  1.00  0.00    -0.048 C 
HETATM   20  C5  UNL     1       9.154  14.430  -0.324  1.00  0.00     0.026 C 
HETATM   21  C6  UNL     1       6.891  13.250  -0.471  1.00  0.00     0.026 C 
ENDBRANCH  17  18
ENDBRANCH  16  17
ENDBRANCH  14  16
ENDBRANCH  12  13
ENDBRANCH  11  12
ENDBRANCH   9  11
ENDBRANCH   7   8
ENDBRANCH   6   7
ENDBRANCH   4   6
ENDBRANCH   1   3
BRANCH   2  22
HETATM   22  C19 UNL     1      -1.111  -1.606  -0.781  1.00  0.00    -0.008 C 
HETATM   23  C20 UNL     1      -2.445  -1.609  -0.930  1.00  0.00    -0.044 C 
HETATM   24  C37 UNL     1      -3.154  -0.293  -1.096  1.00  0.00     0.026 C 
BRANCH  23  25
HETATM   25  C21 UNL     1      -3.164  -2.932  -0.924  1.00  0.00     0.026 C 
BRANCH  25  26
HETATM   26  C22 UNL     1      -4.201  -3.027   0.197  1.00  0.00     0.029 C 
BRANCH  26  27
HETATM   27  C23 UNL     1      -4.871  -4.373   0.246  1.00  0.00    -0.034 C 
HETATM   28  C24 UNL     1      -5.526  -4.723   1.365  1.00  0.00    -0.048 C 
HETATM   29  C25 UNL     1      -5.557  -3.750   2.514  1.00  0.00     0.026 C 
BRANCH  28  30
HETATM   30  C26 UNL     1      -6.197  -6.070   1.416  1.00  0.00     0.026 C 
BRANCH  30  31
HETATM   31  C27 UNL     1      -5.496  -7.104   0.533  1.00  0.00     0.029 C 
BRANCH  31  32
HETATM   32  C28 UNL     1      -5.983  -8.504   0.793  1.00  0.00    -0.034 C 
HETATM   33  C29 UNL     1      -5.729  -9.451  -0.125  1.00  0.00    -0.048 C 
HETATM   34  C30 UNL     1      -4.967  -9.063  -1.365  1.00  0.00     0.026 C 
BRANCH  33  35
HETATM   35  C31 UNL     1      -6.215 -10.852   0.133  1.00  0.00     0.026 C 
BRANCH  35  36
HETATM   36  C32 UNL     1      -7.479 -10.879   0.994  1.00  0.00     0.029 C 
BRANCH  36  37
HETATM   37  C33 UNL     1      -8.125 -12.239   1.021  1.00  0.00    -0.034 C 
HETATM   38  C34 UNL     1      -8.971 -12.528   2.023  1.00  0.00    -0.048 C 
HETATM   39  C35 UNL     1      -9.563 -13.908   2.090  1.00  0.00     0.026 C 
HETATM   40  C36 UNL     1      -9.285 -11.451   3.029  1.00  0.00     0.026 C 
ENDBRANCH  36  37
ENDBRANCH  35  36
ENDBRANCH  33  35
ENDBRANCH  31  32
ENDBRANCH  30  31
ENDBRANCH  28  30
ENDBRANCH  26  27
ENDBRANCH  25  26
ENDBRANCH  23  25
ENDBRANCH   2  22
TORSDOF 20
