REMARK  6 active torsions:
REMARK  status: ('A' for Active; 'I' for Inactive)
REMARK    1  A    between atoms: C3_3  and  C4_4 
REMARK    2  A    between atoms: C4_4  and  C5_5 
REMARK    3  A    between atoms: C5_5  and  C6_6 
REMARK    4  A    between atoms: C7_7  and  C8_8 
REMARK    5  A    between atoms: C8_8  and  O1_9 
REMARK    6  A    between atoms: O1_9  and  C9_10 
ROOT
HETATM    1  C6  UNL     1      -2.234  -0.232  -0.879  1.00  0.00    -0.045 C 
HETATM    2  C7  UNL     1      -1.684  -1.418  -1.190  1.00  0.00    -0.002 C 
HETATM    3  C12 UNL     1      -3.324   0.307  -1.766  1.00  0.00     0.026 C 
ENDROOT
BRANCH   1   4
HETATM    4  C5  UNL     1      -1.733   0.494   0.340  1.00  0.00     0.026 C 
BRANCH   4   5
HETATM    5  C4  UNL     1      -0.668   1.537   0.000  1.00  0.00     0.030 C 
BRANCH   5   6
HETATM    6  C3  UNL     1      -0.180   2.277   1.217  1.00  0.00    -0.034 C 
HETATM    7  C2  UNL     1       0.978   2.955   1.133  1.00  0.00    -0.048 C 
HETATM    8  C1  UNL     1       1.488   3.656   2.363  1.00  0.00     0.026 C 
HETATM    9  C13 UNL     1       1.703   2.977  -0.186  1.00  0.00     0.026 C 
ENDBRANCH   5   6
ENDBRANCH   4   5
ENDBRANCH   1   4
BRANCH   2  10
HETATM   10  C8  UNL     1      -0.594  -1.957  -0.303  1.00  0.00     0.174 C 
BRANCH  10  11
HETATM   11  O1  UNL     1      -0.068  -3.148  -0.871  1.00  0.00    -0.330 OA
BRANCH  11  12
HETATM   12  C9  UNL     1       1.094  -3.500  -0.326  1.00  0.00     0.072 C 
HETATM   13  C10 UNL     1       1.297  -3.356   0.994  1.00  0.00     0.021 C 
HETATM   14  C11 UNL     1       2.207  -4.066  -1.166  1.00  0.00     0.058 C 
ENDBRANCH  11  12
ENDBRANCH  10  11
ENDBRANCH   2  10
TORSDOF 6
