REMARK  1 active torsions:
REMARK  status: ('A' for Active; 'I' for Inactive)
REMARK    1  A    between atoms: C2_2  and  O3_18 
ROOT
HETATM    1  C1  UNL     1       0.817  -1.082   0.277  1.00  0.00     0.003 C 
HETATM    2  C2  UNL     1       2.041  -0.207   0.314  1.00  0.00     0.138 C 
HETATM    3  C3  UNL     1       2.000   0.853  -0.832  1.00  0.00     0.039 C 
HETATM    4  C4  UNL     1       0.576   1.232  -1.346  1.00  0.00     0.072 C 
HETATM    5  C5  UNL     1      -0.408   1.650  -0.270  1.00  0.00     0.174 C 
HETATM    6  C6  UNL     1      -1.684   0.934   0.113  1.00  0.00     0.052 A 
HETATM    7  C7  UNL     1      -2.228  -0.242  -0.436  1.00  0.00     0.085 A 
HETATM    8  C8  UNL     1      -1.828  -1.209  -1.551  1.00  0.00     0.078 C 
HETATM    9  C9  UNL     1      -0.836  -2.256  -1.072  1.00  0.00    -0.016 C 
HETATM   10  C10 UNL     1       0.529  -1.799  -0.822  1.00  0.00    -0.006 C 
HETATM   11  C11 UNL     1      -1.201  -3.541  -0.908  1.00  0.00    -0.004 C 
HETATM   12  O1  UNL     1      -3.387  -0.498   0.254  1.00  0.00    -0.309 OA
HETATM   13  C12 UNL     1      -3.519   0.514   1.180  1.00  0.00     0.118 A 
HETATM   14  C13 UNL     1      -2.473   1.445   1.137  1.00  0.00     0.007 A 
HETATM   15  C14 UNL     1      -2.295   2.676   2.004  1.00  0.00     0.033 C 
HETATM   16  O2  UNL     1      -0.123   2.660   0.330  1.00  0.00    -0.291 OA
HETATM   17  C15 UNL     1       2.854   0.389  -2.018  1.00  0.00     0.003 C 
ENDROOT
BRANCH   2  18
HETATM   18  O3  UNL     1       2.094   0.455   1.562  1.00  0.00    -0.350 OA
HETATM   19  C16 UNL     1       2.459  -0.393   2.627  1.00  0.00     0.175 C 
ENDBRANCH   2  18
TORSDOF 1
