REMARK  1 active torsions:
REMARK  status: ('A' for Active; 'I' for Inactive)
REMARK    1  A    between atoms: C7_7  and  C20_21 
ROOT
HETATM    1  C1  UNL     1       0.996   1.019   0.400  1.00  0.00     0.101 C 
HETATM    2  C2  UNL     1       1.988   1.641   1.371  1.00  0.00    -0.023 C 
HETATM    3  C3  UNL     1       3.127   0.949   1.434  1.00  0.00    -0.015 C 
HETATM    4  C4  UNL     1       3.082  -0.225   0.504  1.00  0.00     0.202 C 
HETATM    5  C5  UNL     1       1.967   0.160  -0.523  1.00  0.00     0.199 C 
HETATM    6  C6  UNL     1       1.547  -1.151  -1.275  1.00  0.00     0.204 C 
HETATM    7  C7  UNL     1       0.971  -2.289  -0.436  1.00  0.00     0.017 C 
HETATM    8  C8  UNL     1      -0.115  -2.145   0.352  1.00  0.00    -0.023 C 
HETATM    9  C9  UNL     1      -0.805  -0.811   0.441  1.00  0.00     0.079 C 
HETATM   10  C10 UNL     1       0.078   0.129   1.215  1.00  0.00     0.160 C 
HETATM   11  O1  UNL     1       0.037   0.156   2.426  1.00  0.00    -0.295 OA
HETATM   12  C11 UNL     1      -2.234  -0.787   0.951  1.00  0.00     0.011 A 
HETATM   13  C12 UNL     1      -2.953   0.549   0.938  1.00  0.00     0.001 A 
HETATM   14  C13 UNL     1      -2.381   1.879   0.395  1.00  0.00     0.000 C 
HETATM   15  C14 UNL     1      -1.311   2.035  -0.736  1.00  0.00     0.001 C 
HETATM   16  C15 UNL     1       0.156   2.180  -0.232  1.00  0.00     0.014 C 
HETATM   17  C16 UNL     1      -1.652   3.285  -1.559  1.00  0.00     0.000 C 
HETATM   18  C17 UNL     1      -3.436  -0.576   0.033  1.00  0.00     0.001 A 
HETATM   19  C18 UNL     1      -4.731  -1.274   0.426  1.00  0.00     0.000 C 
HETATM   20  C19 UNL     1      -3.238  -0.469  -1.475  1.00  0.00     0.000 C 
HETATM   21  O3  UNL     1       0.676  -0.877  -2.361  1.00  0.00    -0.216 OA
HETATM   22  O4  UNL     1       2.541   1.037  -1.494  1.00  0.00    -0.219 OA
HETATM   23  O5  UNL     1       4.344  -0.498  -0.080  1.00  0.00    -0.216 OA
HETATM   24  C21 UNL     1       4.303   1.299   2.313  1.00  0.00     0.029 C 
ENDROOT
BRANCH   7  25
HETATM   25  C20 UNL     1       1.660  -3.631  -0.502  1.00  0.00     0.207 C 
HETATM   26  O2  UNL     1       2.773  -3.629   0.363  1.00  0.00    -0.216 OA
ENDBRANCH   7  25
TORSDOF 1
