REMARK  2 active torsions:
REMARK  status: ('A' for Active; 'I' for Inactive)
REMARK    1  A    between atoms: C3_3  and  C30_32 
REMARK    2  A    between atoms: C16_16  and  C25_25 
ROOT
HETATM    1  C1  UNL     1       4.986   0.871  -1.541  1.00  0.00     0.033 C 
HETATM    2  C2  UNL     1       5.496   1.059  -0.104  1.00  0.00     0.154 C 
HETATM    3  C3  UNL     1       4.928  -0.020   0.850  1.00  0.00     0.059 C 
HETATM    4  C4  UNL     1       3.367   0.004   0.803  1.00  0.00     0.005 C 
HETATM    5  C5  UNL     1       2.766  -0.094  -0.635  1.00  0.00     0.001 C 
HETATM    6  C6  UNL     1       3.457   0.924  -1.580  1.00  0.00     0.003 C 
HETATM    7  C7  UNL     1       1.215   0.205  -0.656  1.00  0.00     0.005 C 
HETATM    8  C8  UNL     1       0.500   0.148   0.719  1.00  0.00     0.004 C 
HETATM    9  C9  UNL     1       1.246   1.002   1.787  1.00  0.00     0.000 C 
HETATM   10  C10 UNL     1       2.748   1.205   1.535  1.00  0.00     0.000 C 
HETATM   11  C11 UNL     1      -0.982   0.658   0.570  1.00  0.00     0.015 C 
HETATM   12  C12 UNL     1      -1.723   0.074  -0.637  1.00  0.00    -0.049 C 
HETATM   13  C13 UNL     1      -1.049  -0.516  -1.649  1.00  0.00    -0.035 C 
HETATM   14  C14 UNL     1       0.449  -0.674  -1.672  1.00  0.00     0.025 C 
HETATM   15  C15 UNL     1      -3.246   0.228  -0.672  1.00  0.00     0.028 C 
HETATM   16  C16 UNL     1      -3.930  -0.113   0.680  1.00  0.00     0.082 C 
HETATM   17  C17 UNL     1      -3.256   0.697   1.803  1.00  0.00     0.011 C 
HETATM   18  C18 UNL     1      -1.754   0.402   1.892  1.00  0.00     0.004 C 
HETATM   19  C19 UNL     1      -5.434   0.254   0.625  1.00  0.00     0.011 C 
HETATM   20  C20 UNL     1      -6.162  -0.375  -0.572  1.00  0.00     0.001 C 
HETATM   21  C21 UNL     1      -5.480  -0.016  -1.902  1.00  0.00     0.000 C 
HETATM   22  C22 UNL     1      -3.988  -0.410  -1.883  1.00  0.00     0.004 C 
HETATM   23  C23 UNL     1      -3.842  -1.940  -1.938  1.00  0.00     0.000 C 
HETATM   24  C24 UNL     1      -5.662   1.473  -2.233  1.00  0.00     0.000 C 
HETATM   25  C26 UNL     1      -1.002   2.170   0.283  1.00  0.00     0.004 C 
HETATM   26  C27 UNL     1       0.510  -1.322   1.178  1.00  0.00     0.000 C 
HETATM   27  C28 UNL     1       3.067  -1.508  -1.170  1.00  0.00     0.000 C 
HETATM   28  C29 UNL     1       5.442  -1.414   0.451  1.00  0.00     0.005 C 
HETATM   29  O4  UNL     1       6.914   1.027  -0.113  1.00  0.00    -0.223 OA
ENDROOT
BRANCH   3  30
HETATM   30  C30 UNL     1       5.424   0.225   2.283  1.00  0.00     0.185 C 
HETATM   31  O3  UNL     1       4.764  -0.682   3.139  1.00  0.00    -0.221 OA
ENDBRANCH   3  30
BRANCH  16  32
HETATM   32  C25 UNL     1      -3.805  -1.588   1.000  1.00  0.00     0.184 C 
HETATM   33  O1  UNL     1      -2.795  -2.197   0.736  1.00  0.00    -0.647 OA
HETATM   34  O2  UNL     1      -4.871  -2.135   1.576  1.00  0.00    -0.647 OA
ENDBRANCH  16  32
TORSDOF 2
