REMARK  6 active torsions:
REMARK  status: ('A' for Active; 'I' for Inactive)
REMARK    1  A    between atoms: C2_2  and  O3_25 
REMARK    2  A    between atoms: C15_16  and  O2_22 
REMARK    3  A    between atoms: C16_17  and  O1_19 
REMARK    4  A    between atoms: O1_19  and  C18_20 
REMARK    5  A    between atoms: O2_22  and  C20_23 
REMARK    6  A    between atoms: O3_25  and  C22_26 
ROOT
HETATM    1  C1  UNL     1      -2.450  -2.924  -4.405  1.00  0.00     0.153 A 
HETATM    2  C2  UNL     1      -1.388  -1.992  -4.412  1.00  0.00     0.119 A 
HETATM    3  C3  UNL     1      -0.950  -1.407  -3.203  1.00  0.00     0.027 A 
HETATM    4  C4  UNL     1      -1.574  -1.742  -1.966  1.00  0.00     0.014 A 
HETATM    5  C5  UNL     1      -2.656  -2.675  -1.971  1.00  0.00    -0.017 A 
HETATM    6  C6  UNL     1      -3.082  -3.263  -3.188  1.00  0.00     0.025 A 
HETATM    7  C7  UNL     1      -3.345  -3.019  -0.701  1.00  0.00     0.051 C 
HETATM    8  C8  UNL     1      -2.399  -2.984   0.514  1.00  0.00     0.111 C 
HETATM    9  N1  UNL     1      -1.557  -1.761   0.547  1.00  0.00    -0.326 N 
HETATM   10  C9  UNL     1      -1.132  -1.153  -0.675  1.00  0.00     0.060 A 
HETATM   11  C10 UNL     1      -0.299   0.001  -0.623  1.00  0.00     0.017 A 
HETATM   12  C11 UNL     1       0.101   0.542   0.624  1.00  0.00     0.005 A 
HETATM   13  C12 UNL     1      -0.339  -0.063   1.839  1.00  0.00     0.019 A 
HETATM   14  C13 UNL     1      -1.168  -1.209   1.794  1.00  0.00     0.076 A 
HETATM   15  C14 UNL     1       0.057   0.485   3.086  1.00  0.00     0.028 A 
HETATM   16  C15 UNL     1       0.892   1.627   3.121  1.00  0.00     0.116 A 
HETATM   17  C16 UNL     1       1.331   2.226   1.916  1.00  0.00     0.116 A 
HETATM   18  C17 UNL     1       0.938   1.687   0.669  1.00  0.00     0.026 A 
HETATM   19  O4  UNL     1      -2.861  -3.486  -5.550  1.00  0.00    -0.188 OA
ENDROOT
BRANCH   2  20
HETATM   20  O3  UNL     1      -0.792  -1.662  -5.566  1.00  0.00    -0.329 OA
BRANCH  20  21
HETATM   21  C22 UNL     1       0.204  -0.650  -5.537  1.00  0.00     0.149 C 
HETATM   22  C23 UNL     1       0.690  -0.372  -6.960  1.00  0.00     0.035 C 
ENDBRANCH  20  21
ENDBRANCH   2  20
BRANCH  17  23
HETATM   23  O1  UNL     1       2.122   3.308   1.951  1.00  0.00    -0.329 OA
BRANCH  23  24
HETATM   24  C18 UNL     1       3.124   3.369   2.956  1.00  0.00     0.149 C 
HETATM   25  C19 UNL     1       4.288   4.229   2.464  1.00  0.00     0.035 C 
ENDBRANCH  23  24
ENDBRANCH  17  23
BRANCH  16  26
HETATM   26  O2  UNL     1       1.267   2.141   4.301  1.00  0.00    -0.329 OA
BRANCH  26  27
HETATM   27  C20 UNL     1       0.803   1.505   5.483  1.00  0.00     0.149 C 
HETATM   28  C21 UNL     1       1.343   2.246   6.707  1.00  0.00     0.035 C 
ENDBRANCH  26  27
ENDBRANCH  16  26
TORSDOF 6
