REMARK  0 active torsions:
REMARK  status: ('A' for Active; 'I' for Inactive)
ROOT
HETATM    1  C1  UNL     1       3.539   0.395   1.570  1.00  0.00     0.070 C 
HETATM    2  C2  UNL     1       3.944   0.508   0.105  1.00  0.00     0.012 C 
HETATM    3  C3  UNL     1       3.215  -0.533  -0.758  1.00  0.00     0.019 C 
HETATM    4  C4  UNL     1       1.731  -0.455  -0.570  1.00  0.00    -0.020 A 
HETATM    5  C5  UNL     1       1.141   0.088   0.621  1.00  0.00     0.034 A 
HETATM    6  C6  UNL     1       2.043   0.449   1.779  1.00  0.00     0.173 C 
HETATM    7  O1  UNL     1       1.729   0.775   2.898  1.00  0.00    -0.291 OA
HETATM    8  C7  UNL     1      -0.295   0.252   0.685  1.00  0.00     0.046 A 
HETATM    9  C8  UNL     1      -1.100  -0.277  -0.373  1.00  0.00     0.025 A 
HETATM   10  C9  UNL     1      -0.504  -0.881  -1.498  1.00  0.00     0.002 A 
HETATM   11  C10 UNL     1       0.895  -0.955  -1.600  1.00  0.00    -0.004 A 
HETATM   12  C11 UNL     1      -2.590  -0.207  -0.322  1.00  0.00     0.093 A 
HETATM   13  C12 UNL     1      -3.195   0.367   0.724  1.00  0.00     0.044 A 
HETATM   14  C13 UNL     1      -2.465   0.949   1.855  1.00  0.00     0.232 A 
HETATM   15  C14 UNL     1      -0.986   0.973   1.822  1.00  0.00     0.234 A 
HETATM   16  O2  UNL     1      -0.494   1.598   2.732  1.00  0.00    -0.283 OA
HETATM   17  O3  UNL     1      -3.076   1.404   2.795  1.00  0.00    -0.283 OA
HETATM   18  C15 UNL     1      -4.686   0.336   0.590  1.00  0.00     0.058 C 
HETATM   19  C16 UNL     1      -4.805  -0.514  -0.678  1.00  0.00     0.153 C 
HETATM   20  O4  UNL     1      -3.484  -0.650  -1.211  1.00  0.00    -0.331 OA
HETATM   21  C17 UNL     1      -5.279   1.729   0.394  1.00  0.00     0.007 C 
HETATM   22  C18 UNL     1       3.617  -0.258  -2.217  1.00  0.00     0.004 C 
HETATM   23  C19 UNL     1       3.686  -1.945  -0.389  1.00  0.00     0.004 C 
ENDROOT
TORSDOF 0
