REMARK  3 active torsions:
REMARK  status: ('A' for Active; 'I' for Inactive)
REMARK    1  A    between atoms: C1_1  and  O5_26 
REMARK    2  A    between atoms: O5_26  and  C22_27 
REMARK    3  A    between atoms: C24_29  and  O8_35 
ROOT
HETATM    1  C1  UNL     1       2.141  -0.301   0.410  1.00  0.00     0.122 C 
HETATM    2  C2  UNL     1       1.715  -1.555   1.184  1.00  0.00     0.051 C 
HETATM    3  C3  UNL     1       0.522  -2.295   0.607  1.00  0.00    -0.047 C 
HETATM    4  C4  UNL     1       0.109  -2.150  -0.861  1.00  0.00     0.015 C 
HETATM    5  C5  UNL     1       0.713  -0.891  -1.537  1.00  0.00     0.006 C 
HETATM    6  C6  UNL     1       2.139  -0.557  -1.098  1.00  0.00     0.030 C 
HETATM    7  C7  UNL     1      -1.447  -2.078  -0.940  1.00  0.00     0.013 C 
HETATM    8  C8  UNL     1      -2.170  -3.236  -0.186  1.00  0.00     0.091 C 
HETATM    9  C9  UNL     1      -1.295  -3.963   0.855  1.00  0.00     0.035 C 
HETATM   10  C10 UNL     1      -0.180  -3.119   1.414  1.00  0.00    -0.034 C 
HETATM   11  C11 UNL     1      -3.449  -2.725   0.439  1.00  0.00     0.272 C 
HETATM   12  O1  UNL     1      -4.611  -3.186  -0.049  1.00  0.00    -0.301 OA
HETATM   13  C12 UNL     1      -5.764  -2.330  -0.111  1.00  0.00     0.162 C 
HETATM   14  C13 UNL     1      -5.594  -1.147  -1.088  1.00  0.00     0.102 C 
HETATM   15  C14 UNL     1      -4.244  -0.867  -1.688  1.00  0.00    -0.013 C 
HETATM   16  C15 UNL     1      -3.506  -1.854  -2.567  1.00  0.00     0.024 C 
HETATM   17  C16 UNL     1      -1.973  -1.898  -2.391  1.00  0.00     0.005 C 
HETATM   18  C17 UNL     1      -3.814   0.350  -1.332  1.00  0.00     0.111 C 
HETATM   19  O2  UNL     1      -4.670   0.988  -0.529  1.00  0.00    -0.309 OA
HETATM   20  C18 UNL     1      -5.750   0.103  -0.209  1.00  0.00     0.198 C 
HETATM   21  O3  UNL     1      -5.631  -0.371   1.115  1.00  0.00    -0.331 OA
HETATM   22  C19 UNL     1      -6.148  -1.676   1.221  1.00  0.00     0.175 C 
HETATM   23  C20 UNL     1      -7.092   0.812  -0.367  1.00  0.00     0.062 C 
HETATM   24  O4  UNL     1      -3.361  -1.920   1.340  1.00  0.00    -0.264 OA
HETATM   25  C21 UNL     1       0.627  -3.397  -1.596  1.00  0.00     0.004 C 
ENDROOT
BRANCH   1  26
HETATM   26  O5  UNL     1       3.434   0.092   0.820  1.00  0.00    -0.331 OA
BRANCH  26  27
HETATM   27  C22 UNL     1       3.709   1.457   0.568  1.00  0.00     0.270 C 
HETATM   28  C23 UNL     1       5.231   1.734   0.691  1.00  0.00     0.238 C 
HETATM   29  C24 UNL     1       5.529   3.246   0.574  1.00  0.00     0.183 C 
HETATM   30  O9  UNL     1       5.918   1.039  -0.338  1.00  0.00    -0.215 OA
HETATM   31  C25 UNL     1       4.617   4.039   1.537  1.00  0.00     0.209 C 
HETATM   32  C26 UNL     1       3.133   3.647   1.355  1.00  0.00     0.151 C 
HETATM   33  O7  UNL     1       4.752   5.428   1.291  1.00  0.00    -0.218 OA
HETATM   34  O6  UNL     1       2.996   2.240   1.514  1.00  0.00    -0.329 OA
HETATM   35  C27 UNL     1       2.213   4.299   2.393  1.00  0.00     0.035 C 
BRANCH  29  36
HETATM   36  O8  UNL     1       6.891   3.492   0.889  1.00  0.00    -0.349 OA
HETATM   37  C28 UNL     1       7.340   4.756   0.453  1.00  0.00     0.174 C 
ENDBRANCH  29  36
ENDBRANCH  26  27
ENDBRANCH   1  26
TORSDOF 3
