REMARK  8 active torsions:
REMARK  status: ('A' for Active; 'I' for Inactive)
REMARK    1  A    between atoms: C1_1  and  C2_2 
REMARK    2  A    between atoms: C1_1  and  C14_17 
REMARK    3  A    between atoms: C2_2  and  C3_3 
REMARK    4  A    between atoms: C3_3  and  C4_4 
REMARK    5  A    between atoms: C4_4  and  C5_5 
REMARK    6  A    between atoms: C5_5  and  C6_6 
REMARK    7  A    between atoms: C6_6  and  C7_7 
REMARK    8  A    between atoms: C7_7  and  C8_8 
ROOT
HETATM    1  C4  UNL     1      -0.272   3.199   0.570  1.00  0.00     0.097 C 
ENDROOT
BRANCH   1   2
HETATM    2  C3  UNL     1      -0.537   2.560  -0.766  1.00  0.00     0.153 C 
HETATM    3  O3  UNL     1      -0.178   3.090  -1.791  1.00  0.00    -0.296 OA
BRANCH   2   4
HETATM    4  C2  UNL     1      -1.264   1.242  -0.787  1.00  0.00     0.069 C 
BRANCH   4   5
HETATM    5  C1  UNL     1      -1.514   0.738  -2.209  1.00  0.00     0.034 C 
BRANCH   5   6
HETATM    6  C14 UNL     1      -2.211  -0.576  -2.209  1.00  0.00    -0.022 A 
HETATM    7  C15 UNL     1      -3.615  -0.627  -2.209  1.00  0.00    -0.004 A 
HETATM    8  C16 UNL     1      -4.274  -1.869  -2.209  1.00  0.00    -0.000 A 
HETATM    9  C17 UNL     1      -3.527  -3.061  -2.209  1.00  0.00    -0.000 A 
HETATM   10  C18 UNL     1      -2.123  -3.010  -2.209  1.00  0.00    -0.000 A 
HETATM   11  C19 UNL     1      -1.465  -1.768  -2.209  1.00  0.00    -0.004 A 
ENDBRANCH   5   6
ENDBRANCH   4   5
ENDBRANCH   2   4
ENDBRANCH   1   2
BRANCH   1  12
HETATM   12  C5  UNL     1       0.719   2.396   1.414  1.00  0.00     0.160 C 
HETATM   13  O2  UNL     1       0.818   3.010   2.680  1.00  0.00    -0.223 OA
BRANCH  12  14
HETATM   14  C6  UNL     1       2.115   2.346   0.797  1.00  0.00     0.038 C 
BRANCH  14  15
HETATM   15  C7  UNL     1       3.057   1.398   1.543  1.00  0.00     0.029 C 
BRANCH  15  16
HETATM   16  C8  UNL     1       2.566  -0.002   1.506  1.00  0.00    -0.022 A 
HETATM   17  C9  UNL     1       2.031  -0.592   2.664  1.00  0.00    -0.002 A 
HETATM   18  C10 UNL     1       1.568  -1.918   2.629  1.00  0.00     0.027 A 
HETATM   19  C11 UNL     1       1.637  -2.660   1.435  1.00  0.00     0.131 A 
HETATM   20  C12 UNL     1       2.174  -2.069   0.277  1.00  0.00     0.027 A 
HETATM   21  O1  UNL     1       1.203  -3.904   1.402  1.00  0.00    -0.190 OA
HETATM   22  C13 UNL     1       2.637  -0.742   0.312  1.00  0.00    -0.002 A 
ENDBRANCH  15  16
ENDBRANCH  14  15
ENDBRANCH  12  14
ENDBRANCH   1  12
TORSDOF 8
