REMARK  1 active torsions:
REMARK  status: ('A' for Active; 'I' for Inactive)
REMARK    1  A    between atoms: C3_3  and  C20_22 
ROOT
HETATM    1  C1  UNL     1       2.560   2.328   0.486  1.00  0.00     0.152 C 
HETATM    2  C2  UNL     1       3.336   1.125   1.024  1.00  0.00     0.035 C 
HETATM    3  C3  UNL     1       3.166  -0.115   0.113  1.00  0.00     0.033 C 
HETATM    4  C4  UNL     1       1.791  -0.101  -0.635  1.00  0.00     0.003 C 
HETATM    5  C5  UNL     1       0.648   0.590   0.162  1.00  0.00     0.006 C 
HETATM    6  C6  UNL     1       1.041   2.063   0.488  1.00  0.00     0.033 C 
HETATM    7  C7  UNL     1      -0.694   0.596  -0.641  1.00  0.00     0.021 C 
HETATM    8  C8  UNL     1      -1.022  -0.736  -1.301  1.00  0.00    -0.049 C 
HETATM    9  C9  UNL     1       0.115  -1.486  -1.963  1.00  0.00     0.022 C 
HETATM   10  C10 UNL     1       1.375  -1.512  -1.103  1.00  0.00     0.004 C 
HETATM   11  C11 UNL     1      -2.272  -1.248  -1.336  1.00  0.00    -0.030 C 
HETATM   12  C12 UNL     1      -3.477  -0.506  -0.793  1.00  0.00     0.074 C 
HETATM   13  C13 UNL     1      -3.207   0.975  -0.494  1.00  0.00     0.122 C 
HETATM   14  C14 UNL     1      -1.858   1.156   0.213  1.00  0.00     0.034 C 
HETATM   15  O1  UNL     1      -4.266   1.319   0.375  1.00  0.00    -0.354 OA
HETATM   16  C15 UNL     1      -4.522   0.270   1.281  1.00  0.00     0.175 C 
HETATM   17  C16 UNL     1      -4.084  -1.010   0.545  1.00  0.00     0.187 C 
HETATM   18  O2  UNL     1      -3.135  -1.709   1.332  1.00  0.00    -0.220 OA
HETATM   19  C17 UNL     1      -4.590  -0.562  -1.844  1.00  0.00     0.009 C 
HETATM   20  C18 UNL     1       0.461  -0.189   1.479  1.00  0.00     0.000 C 
HETATM   21  C19 UNL     1       4.289  -0.133  -0.932  1.00  0.00     0.003 C 
HETATM   22  O4  UNL     1       2.842   3.469   1.275  1.00  0.00    -0.224 OA
ENDROOT
BRANCH   3  23
HETATM   23  C20 UNL     1       3.332  -1.367   0.988  1.00  0.00     0.182 C 
HETATM   24  O3  UNL     1       4.482  -1.201   1.783  1.00  0.00    -0.221 OA
ENDBRANCH   3  23
TORSDOF 1
