REMARK  3 active torsions:
REMARK  status: ('A' for Active; 'I' for Inactive)
REMARK    1  A    between atoms: C6_6  and  O1_7 
REMARK    2  A    between atoms: C10_11  and  C11_13 
REMARK    3  A    between atoms: C12_17  and  C14_19 
ROOT
HETATM    1  C1  UNL     1       0.557   0.174  -0.732  1.00  0.00     0.025 A 
HETATM    2  C2  UNL     1       0.654  -0.896   0.168  1.00  0.00     0.094 A 
HETATM    3  C3  UNL     1      -0.537  -1.561   0.553  1.00  0.00     0.049 A 
HETATM    4  C4  UNL     1      -1.793  -1.172   0.049  1.00  0.00     0.107 A 
HETATM    5  C5  UNL     1      -1.869  -0.092  -0.861  1.00  0.00     0.084 A 
HETATM    6  C6  UNL     1      -0.691   0.598  -1.263  1.00  0.00     0.097 A 
HETATM    7  C8  UNL     1      -3.215   0.297  -1.381  1.00  0.00     0.201 A 
HETATM    8  C9  UNL     1      -4.346  -0.510  -0.879  1.00  0.00     0.065 A 
HETATM    9  C10 UNL     1      -4.145  -1.522  -0.006  1.00  0.00     0.114 A 
HETATM   10  O2  UNL     1      -2.908  -1.832   0.436  1.00  0.00    -0.308 OA
HETATM   11  O4  UNL     1      -3.480   1.188  -2.154  1.00  0.00    -0.286 OA
HETATM   12  O5  UNL     1       1.910  -1.137   0.543  1.00  0.00    -0.331 OA
HETATM   13  C12 UNL     1       2.820  -0.236  -0.109  1.00  0.00     0.154 A 
HETATM   14  C13 UNL     1       1.943   0.713  -0.982  1.00  0.00     0.063 A 
ENDROOT
BRANCH  13  15
HETATM   15  C14 UNL     1       3.629   0.523   0.938  1.00  0.00     0.152 C 
HETATM   16  O6  UNL     1       4.399   1.508   0.285  1.00  0.00    -0.224 OA
HETATM   17  C15 UNL     1       2.676   1.227   1.906  1.00  0.00     0.036 C 
HETATM   18  C16 UNL     1       4.582  -0.441   1.645  1.00  0.00     0.036 C 
ENDBRANCH  13  15
BRANCH   6  19
HETATM   19  O1  UNL     1      -0.873   1.607  -2.127  1.00  0.00    -0.328 OA
HETATM   20  C7  UNL     1       0.088   2.654  -2.139  1.00  0.00     0.181 C 
ENDBRANCH   6  19
BRANCH   9  21
HETATM   21  C11 UNL     1      -5.338  -2.309   0.467  1.00  0.00     0.233 C 
HETATM   22  O3  UNL     1      -5.898  -1.676   1.596  1.00  0.00    -0.213 OA
ENDBRANCH   9  21
TORSDOF 3
