REMARK  3 active torsions:
REMARK  status: ('A' for Active; 'I' for Inactive)
REMARK    1  A    between atoms: C10_11  and  C17_21 
REMARK    2  A    between atoms: C11_13  and  C12_14 
REMARK    3  A    between atoms: C15_17  and  C16_19 
ROOT
HETATM    1  C1  UNL     1       4.848  -0.998  -0.248  1.00  0.00     0.002 A 
HETATM    2  C2  UNL     1       4.490  -1.793  -1.371  1.00  0.00     0.000 A 
HETATM    3  C3  UNL     1       3.139  -1.875  -1.793  1.00  0.00     0.002 A 
HETATM    4  C4  UNL     1       2.170  -1.143  -1.065  1.00  0.00     0.019 A 
HETATM    5  C5  UNL     1       2.512  -0.363   0.035  1.00  0.00     0.081 A 
HETATM    6  C6  UNL     1       3.856  -0.273   0.465  1.00  0.00     0.019 A 
HETATM    7  N1  UNL     1       1.342   0.236   0.543  1.00  0.00    -0.244 NA
HETATM    8  C7  UNL     1       0.299  -0.215  -0.293  1.00  0.00     0.101 A 
HETATM    9  C8  UNL     1       0.840  -1.053  -1.260  1.00  0.00     0.022 A 
HETATM   10  C9  UNL     1       0.024  -1.660  -2.246  1.00  0.00     0.027 A 
HETATM   11  C10 UNL     1      -1.377  -1.393  -2.225  1.00  0.00     0.146 A 
HETATM   12  N2  UNL     1      -1.887  -0.549  -1.240  1.00  0.00    -0.236 NA
HETATM   13  C11 UNL     1      -1.094   0.051  -0.272  1.00  0.00     0.122 A 
ENDROOT
BRANCH  13  14
HETATM   14  C12 UNL     1      -1.767   0.926   0.715  1.00  0.00     0.119 A 
HETATM   15  C13 UNL     1      -2.945   1.598   0.414  1.00  0.00     0.028 A 
HETATM   16  C14 UNL     1      -3.201   2.277   1.607  1.00  0.00     0.025 A 
HETATM   17  C15 UNL     1      -2.158   1.947   2.500  1.00  0.00     0.111 A 
HETATM   18  O1  UNL     1      -1.240   1.092   1.949  1.00  0.00    -0.307 OA
BRANCH  17  19
HETATM   19  C16 UNL     1      -2.016   2.453   3.918  1.00  0.00     0.233 C 
HETATM   20  O2  UNL     1      -1.002   3.430   3.971  1.00  0.00    -0.213 OA
ENDBRANCH  17  19
ENDBRANCH  13  14
BRANCH  11  21
HETATM   21  C17 UNL     1      -2.168  -2.059  -3.281  1.00  0.00     0.229 C 
HETATM   22  O3  UNL     1      -1.787  -2.799  -4.158  1.00  0.00    -0.643 OA
HETATM   23  O4  UNL     1      -3.437  -1.701  -3.111  1.00  0.00    -0.643 OA
ENDBRANCH  11  21
TORSDOF 3
