REMARK  7 active torsions:
REMARK  status: ('A' for Active; 'I' for Inactive)
REMARK    1  A    between atoms: C15_17  and  C18_21 
REMARK    2  A    between atoms: C18_21  and  C19_22 
REMARK    3  A    between atoms: C19_22  and  C20_23 
REMARK    4  A    between atoms: C20_23  and  C21_24 
REMARK    5  A    between atoms: C21_24  and  C22_25 
REMARK    6  A    between atoms: C22_25  and  C24_27 
REMARK    7  A    between atoms: C24_27  and  O5_29 
ROOT
HETATM    1  C1  UNL     1       6.109  -0.547  -1.203  1.00  0.00     0.065 C 
HETATM    2  C2  UNL     1       6.809   0.680  -0.682  1.00  0.00     0.150 C 
HETATM    3  C3  UNL     1       6.115   1.416   0.445  1.00  0.00     0.052 C 
HETATM    4  C4  UNL     1       4.615   1.654   0.105  1.00  0.00     0.013 C 
HETATM    5  C5  UNL     1       3.848   0.383  -0.363  1.00  0.00     0.022 C 
HETATM    6  C6  UNL     1       4.641  -0.256  -1.533  1.00  0.00     0.012 C 
HETATM    7  C7  UNL     1       2.402   0.771  -0.725  1.00  0.00     0.007 C 
HETATM    8  C8  UNL     1       1.723   1.582   0.131  1.00  0.00    -0.010 C 
HETATM    9  C9  UNL     1       2.383   2.146   1.375  1.00  0.00     0.171 C 
HETATM   10  C10 UNL     1       3.895   2.430   1.234  1.00  0.00     0.038 C 
HETATM   11  O1  UNL     1       2.162   1.258   2.453  1.00  0.00    -0.219 OA
HETATM   12  C11 UNL     1       0.272   1.937  -0.176  1.00  0.00     0.069 C 
HETATM   13  C12 UNL     1      -0.439   0.713  -0.791  1.00  0.00     0.017 C 
HETATM   14  C13 UNL     1       0.225   0.437  -2.137  1.00  0.00     0.070 C 
HETATM   15  C14 UNL     1       1.727   0.283  -1.979  1.00  0.00     0.169 C 
HETATM   16  O2  UNL     1       2.334  -0.236  -2.883  1.00  0.00    -0.292 OA
HETATM   17  C15 UNL     1      -1.920   1.139  -0.770  1.00  0.00     0.009 C 
HETATM   18  C16 UNL     1      -2.043   1.717   0.650  1.00  0.00     0.065 C 
HETATM   19  C17 UNL     1      -0.668   2.242   0.971  1.00  0.00     0.153 C 
HETATM   20  O3  UNL     1      -0.391   2.816   1.996  1.00  0.00    -0.296 OA
HETATM   21  C27 UNL     1      -0.301  -0.525   0.117  1.00  0.00     0.001 C 
HETATM   22  C28 UNL     1       0.268   3.158  -1.102  1.00  0.00     0.011 C 
HETATM   23  C29 UNL     1       3.756  -0.656   0.766  1.00  0.00     0.004 C 
HETATM   24  C30 UNL     1       6.281   0.566   1.711  1.00  0.00     0.007 C 
HETATM   25  C31 UNL     1       6.811   2.764   0.680  1.00  0.00     0.007 C 
HETATM   26  O7  UNL     1       7.867   1.045  -1.145  1.00  0.00    -0.296 OA
ENDROOT
BRANCH  17  27
HETATM   27  C18 UNL     1      -2.908   0.008  -1.047  1.00  0.00     0.008 C 
HETATM   28  C26 UNL     1      -4.061   0.535  -1.902  1.00  0.00     0.001 C 
BRANCH  27  29
HETATM   29  C19 UNL     1      -3.381  -0.592   0.277  1.00  0.00     0.065 C 
BRANCH  29  30
HETATM   30  C20 UNL     1      -4.242  -1.811   0.082  1.00  0.00     0.151 C 
HETATM   31  O6  UNL     1      -4.359  -2.320  -1.008  1.00  0.00    -0.296 OA
BRANCH  30  32
HETATM   32  C21 UNL     1      -4.953  -2.375   1.281  1.00  0.00     0.074 C 
BRANCH  32  33
HETATM   33  C22 UNL     1      -5.852  -3.561   0.924  1.00  0.00     0.094 C 
HETATM   34  C23 UNL     1      -6.326  -4.334   2.154  1.00  0.00     0.011 C 
BRANCH  33  35
HETATM   35  C24 UNL     1      -6.986  -3.166   0.019  1.00  0.00     0.272 C 
HETATM   36  O4  UNL     1      -7.215  -2.004  -0.223  1.00  0.00    -0.264 OA
BRANCH  35  37
HETATM   37  O5  UNL     1      -7.693  -4.178  -0.475  1.00  0.00    -0.299 OA
HETATM   38  C25 UNL     1      -8.756  -3.738  -1.309  1.00  0.00     0.184 C 
ENDBRANCH  35  37
ENDBRANCH  33  35
ENDBRANCH  32  33
ENDBRANCH  30  32
ENDBRANCH  29  30
ENDBRANCH  27  29
ENDBRANCH  17  27
TORSDOF 7
