REMARK  4 active torsions:
REMARK  status: ('A' for Active; 'I' for Inactive)
REMARK    1  A    between atoms: C1_1  and  O6_12 
REMARK    2  A    between atoms: C5_8  and  C6_10 
REMARK    3  A    between atoms: O6_12  and  C7_13 
REMARK    4  A    between atoms: C10_16  and  C12_19 
ROOT
HETATM    1  C7  UNL     1      -1.043   0.252  -0.209  1.00  0.00     0.247 C 
HETATM    2  C8  UNL     1      -2.150  -0.799  -0.410  1.00  0.00     0.117 C 
HETATM    3  C9  UNL     1      -1.594  -2.219  -0.186  1.00  0.00     0.157 C 
HETATM    4  C10 UNL     1      -0.559  -2.283   0.928  1.00  0.00     0.072 C 
HETATM    5  C11 UNL     1      -0.061  -1.146   1.459  1.00  0.00     0.120 C 
HETATM    6  O7  UNL     1      -0.383   0.094   1.053  1.00  0.00    -0.304 OA
HETATM    7  C13 UNL     1      -2.883  -2.990   0.115  1.00  0.00     0.038 C 
HETATM    8  C14 UNL     1      -3.563  -2.092   1.139  1.00  0.00     0.034 C 
HETATM    9  C15 UNL     1      -3.346  -0.678   0.578  1.00  0.00     0.134 C 
HETATM   10  O9  UNL     1      -4.506  -0.275  -0.129  1.00  0.00    -0.226 OA
HETATM   11  C16 UNL     1      -3.180   0.309   1.734  1.00  0.00     0.033 C 
HETATM   12  O10 UNL     1      -1.023  -2.725  -1.381  1.00  0.00    -0.221 OA
ENDROOT
BRANCH   1  13
HETATM   13  O6  UNL     1      -0.100   0.186  -1.262  1.00  0.00    -0.304 OA
BRANCH  13  14
HETATM   14  C1  UNL     1       0.988   1.072  -1.092  1.00  0.00     0.272 C 
HETATM   15  C2  UNL     1       1.564   1.590  -2.449  1.00  0.00     0.241 C 
HETATM   16  O1  UNL     1       1.516   0.598  -3.467  1.00  0.00    -0.215 OA
HETATM   17  C3  UNL     1       3.037   2.074  -2.322  1.00  0.00     0.220 C 
HETATM   18  O2  UNL     1       3.254   3.164  -3.203  1.00  0.00    -0.218 OA
HETATM   19  C4  UNL     1       3.340   2.479  -0.863  1.00  0.00     0.215 C 
HETATM   20  O3  UNL     1       4.697   2.863  -0.725  1.00  0.00    -0.218 OA
HETATM   21  C5  UNL     1       3.039   1.328   0.139  1.00  0.00     0.184 C 
HETATM   22  O4  UNL     1       2.020   0.453  -0.340  1.00  0.00    -0.326 OA
BRANCH  21  23
HETATM   23  C6  UNL     1       2.602   1.854   1.510  1.00  0.00     0.214 C 
HETATM   24  O5  UNL     1       2.549   0.766   2.404  1.00  0.00    -0.218 OA
ENDBRANCH  21  23
ENDBRANCH  13  14
ENDBRANCH   1  13
BRANCH   4  25
HETATM   25  C12 UNL     1      -0.117  -3.598   1.424  1.00  0.00     0.234 C 
HETATM   26  O8  UNL     1      -0.443  -4.609   0.850  1.00  0.00    -0.283 OA
ENDBRANCH   4  25
TORSDOF 4
