REMARK  4 active torsions:
REMARK  status: ('A' for Active; 'I' for Inactive)
REMARK    1  A    between atoms: C2_2  and  O10_31 
REMARK    2  A    between atoms: C6_6  and  O1_7 
REMARK    3  A    between atoms: O1_7  and  C7_8 
REMARK    4  A    between atoms: C8_10  and  C12_17 
ROOT
HETATM    1  C1  UNL     1       1.752   0.980   1.070  1.00  0.00     0.049 A 
HETATM    2  C2  UNL     1       1.803   2.385   0.941  1.00  0.00     0.096 A 
HETATM    3  C3  UNL     1       0.611   3.113   0.742  1.00  0.00     0.028 A 
HETATM    4  C4  UNL     1      -0.645   2.451   0.670  1.00  0.00     0.046 A 
HETATM    5  C5  UNL     1      -0.697   1.031   0.799  1.00  0.00     0.065 A 
HETATM    6  C6  UNL     1       0.514   0.307   1.002  1.00  0.00     0.102 A 
HETATM    7  C13 UNL     1      -2.000   0.287   0.728  1.00  0.00     0.200 A 
HETATM    8  C14 UNL     1      -3.234   1.109   0.500  1.00  0.00     0.067 A 
HETATM    9  C15 UNL     1      -3.170   2.529   0.371  1.00  0.00     0.044 A 
HETATM   10  C16 UNL     1      -1.875   3.273   0.455  1.00  0.00     0.196 A 
HETATM   11  O7  UNL     1      -1.826   4.479   0.353  1.00  0.00    -0.287 OA
HETATM   12  C17 UNL     1      -4.365   3.268   0.158  1.00  0.00    -0.001 A 
HETATM   13  C18 UNL     1      -5.613   2.613   0.068  1.00  0.00    -0.020 A 
HETATM   14  C19 UNL     1      -5.678   1.209   0.193  1.00  0.00     0.023 A 
HETATM   15  C20 UNL     1      -4.500   0.461   0.408  1.00  0.00     0.134 A 
HETATM   16  O8  UNL     1      -4.607  -0.871   0.523  1.00  0.00    -0.190 OA
HETATM   17  C21 UNL     1      -6.840   3.393  -0.156  1.00  0.00     0.031 C 
HETATM   18  O9  UNL     1      -2.051  -0.918   0.848  1.00  0.00    -0.286 OA
ENDROOT
BRANCH   6  19
HETATM   19  O1  UNL     1       0.510  -1.029   1.133  1.00  0.00    -0.303 OA
BRANCH  19  20
HETATM   20  C7  UNL     1       1.629  -1.750   0.635  1.00  0.00     0.274 C 
HETATM   21  O2  UNL     1       1.883  -1.338  -0.701  1.00  0.00    -0.326 OA
HETATM   22  C8  UNL     1       3.012  -1.947  -1.313  1.00  0.00     0.184 C 
HETATM   23  C9  UNL     1       2.795  -3.477  -1.385  1.00  0.00     0.215 C 
HETATM   24  C10 UNL     1       2.481  -4.068   0.008  1.00  0.00     0.220 C 
HETATM   25  O5  UNL     1       3.965  -4.078  -1.910  1.00  0.00    -0.218 OA
HETATM   26  C11 UNL     1       1.338  -3.266   0.666  1.00  0.00     0.241 C 
HETATM   27  O4  UNL     1       2.100  -5.430  -0.121  1.00  0.00    -0.218 OA
HETATM   28  O3  UNL     1       1.180  -3.668   2.016  1.00  0.00    -0.215 OA
BRANCH  22  29
HETATM   29  C12 UNL     1       3.170  -1.301  -2.691  1.00  0.00     0.214 C 
HETATM   30  O6  UNL     1       3.529   0.051  -2.506  1.00  0.00    -0.218 OA
ENDBRANCH  22  29
ENDBRANCH  19  20
ENDBRANCH   6  19
BRANCH   2  31
HETATM   31  O10 UNL     1       2.979   3.023   1.006  1.00  0.00    -0.328 OA
HETATM   32  C22 UNL     1       4.145   2.250   1.250  1.00  0.00     0.181 C 
ENDBRANCH   2  31
TORSDOF 4
