REMARK  0 active torsions:
REMARK  status: ('A' for Active; 'I' for Inactive)
ROOT
HETATM    1  C1  UNL     1      -0.699  -3.129   0.748  1.00  0.00     0.006 C 
HETATM    2  C2  UNL     1      -2.231  -3.031   0.721  1.00  0.00     0.024 C 
HETATM    3  C3  UNL     1      -2.703  -1.852  -0.135  1.00  0.00     0.097 C 
HETATM    4  N1  UNL     1      -2.229  -0.574   0.416  1.00  0.00    -0.370 N 
HETATM    5  C4  UNL     1      -0.924  -0.596   1.135  1.00  0.00     0.080 C 
HETATM    6  C5  UNL     1       0.000  -1.750   0.697  1.00  0.00     0.043 C 
HETATM    7  C6  UNL     1       0.617  -1.453  -0.678  1.00  0.00     0.106 C 
HETATM    8  N2  UNL     1       1.406  -0.193  -0.644  1.00  0.00    -0.320 N 
HETATM    9  C7  UNL     1       0.691   1.037  -0.164  1.00  0.00     0.086 C 
HETATM   10  C8  UNL     1      -0.180   0.768   1.104  1.00  0.00     0.041 C 
HETATM   11  C9  UNL     1      -1.201   1.889   1.354  1.00  0.00     0.006 C 
HETATM   12  C10 UNL     1      -2.287   1.924   0.264  1.00  0.00     0.024 C 
HETATM   13  C11 UNL     1      -2.498   0.574  -0.457  1.00  0.00     0.097 C 
HETATM   14  C12 UNL     1       1.637   2.234   0.074  1.00  0.00     0.025 C 
HETATM   15  C13 UNL     1       2.680   2.371  -1.027  1.00  0.00     0.045 C 
HETATM   16  C14 UNL     1       3.541   1.103  -1.056  1.00  0.00     0.230 C 
HETATM   17  C15 UNL     1       2.728  -0.180  -1.064  1.00  0.00     0.264 C 
HETATM   18  O1  UNL     1       3.250  -1.203  -1.447  1.00  0.00    -0.270 OA
HETATM   19  O2  UNL     1       4.389   1.168  -2.187  1.00  0.00    -0.213 OA
ENDROOT
TORSDOF 0
