REMARK  3 active torsions:
REMARK  status: ('A' for Active; 'I' for Inactive)
REMARK    1  A    between atoms: C4_4  and  C7_8 
REMARK    2  A    between atoms: C7_8  and  C8_9 
REMARK    3  A    between atoms: C9_10  and  C10_11 
ROOT
HETATM    1  C7  UNL     1       0.418  -2.211   0.363  1.00  0.00     0.200 C 
HETATM    2  O3  UNL     1       1.019  -3.184   0.752  1.00  0.00    -0.286 OA
ENDROOT
BRANCH   1   3
HETATM    3  C4  UNL     1      -0.990  -2.322  -0.127  1.00  0.00     0.090 A 
HETATM    4  C3  UNL     1      -2.008  -2.760   0.746  1.00  0.00     0.136 A 
HETATM    5  C2  UNL     1      -3.330  -2.864   0.279  1.00  0.00     0.028 A 
HETATM    6  O4  UNL     1      -1.733  -3.074   1.996  1.00  0.00    -0.190 OA
HETATM    7  C1  UNL     1      -3.641  -2.533  -1.051  1.00  0.00     0.004 A 
HETATM    8  C6  UNL     1      -2.627  -2.098  -1.918  1.00  0.00     0.028 A 
HETATM    9  C5  UNL     1      -1.301  -1.990  -1.463  1.00  0.00     0.136 A 
HETATM   10  O1  UNL     1      -0.359  -1.580  -2.289  1.00  0.00    -0.190 OA
ENDBRANCH   1   3
BRANCH   1  11
HETATM   11  C8  UNL     1       1.061  -0.891   0.363  1.00  0.00     0.042 C 
HETATM   12  C9  UNL     1       0.320   0.230   0.363  1.00  0.00     0.003 C 
BRANCH  12  13
HETATM   13  C10 UNL     1       1.019   1.549   0.363  1.00  0.00     0.000 A 
HETATM   14  C11 UNL     1       0.275   2.742   0.363  1.00  0.00     0.002 A 
HETATM   15  C12 UNL     1       0.934   3.982   0.363  1.00  0.00     0.027 A 
HETATM   16  C13 UNL     1       2.340   4.039   0.363  1.00  0.00     0.131 A 
HETATM   17  C14 UNL     1       3.082   2.844   0.363  1.00  0.00     0.027 A 
HETATM   18  O2  UNL     1       2.955   5.203   0.363  1.00  0.00    -0.190 OA
HETATM   19  C15 UNL     1       2.426   1.601   0.363  1.00  0.00     0.002 A 
ENDBRANCH  12  13
ENDBRANCH   1  11
TORSDOF 3
