REMARK  11 active torsions:
REMARK  status: ('A' for Active; 'I' for Inactive)
REMARK    1  A    between atoms: C5_6  and  C6_7 
REMARK    2  A    between atoms: C6_7  and  O2_8 
REMARK    3  A    between atoms: O2_8  and  C7_9 
REMARK    4  A    between atoms: C8_11  and  C12_18 
REMARK    5  A    between atoms: C12_18  and  O7_19 
REMARK    6  A    between atoms: O7_19  and  C13_20 
REMARK    7  A    between atoms: C13_20  and  C14_22 
REMARK    8  A    between atoms: C15_23  and  C16_24 
REMARK    9  A    between atoms: C18_26  and  O11_33 
REMARK   10  A    between atoms: C20_28  and  O9_30 
REMARK   11  A    between atoms: C24_36  and  C27_39 
ROOT
HETATM    1  C7  UNL     1       3.467   0.522   2.631  1.00  0.00     0.270 C 
HETATM    2  O3  UNL     1       3.363  -0.293   1.463  1.00  0.00    -0.326 OA
HETATM    3  C8  UNL     1       3.815   0.301   0.248  1.00  0.00     0.181 C 
HETATM    4  C9  UNL     1       5.307   0.693   0.375  1.00  0.00     0.215 C 
HETATM    5  C10 UNL     1       5.563   1.588   1.609  1.00  0.00     0.220 C 
HETATM    6  C11 UNL     1       4.949   0.916   2.857  1.00  0.00     0.241 C 
HETATM    7  O4  UNL     1       5.068   1.758   3.994  1.00  0.00    -0.215 OA
HETATM    8  O5  UNL     1       6.957   1.764   1.791  1.00  0.00    -0.218 OA
HETATM    9  O6  UNL     1       5.697   1.377  -0.803  1.00  0.00    -0.218 OA
ENDROOT
BRANCH   3  10
HETATM   10  C12 UNL     1       3.565  -0.727  -0.861  1.00  0.00     0.184 C 
BRANCH  10  11
HETATM   11  O7  UNL     1       2.174  -1.006  -0.942  1.00  0.00    -0.296 OA
BRANCH  11  12
HETATM   12  C13 UNL     1       1.891  -1.893  -1.893  1.00  0.00     0.296 C 
HETATM   13  O8  UNL     1       2.723  -2.410  -2.600  1.00  0.00    -0.259 OA
BRANCH  12  14
HETATM   14  C14 UNL     1       0.471  -2.227  -2.049  1.00  0.00     0.068 C 
HETATM   15  C15 UNL     1       0.072  -3.104  -2.985  1.00  0.00     0.006 C 
BRANCH  15  16
HETATM   16  C16 UNL     1      -1.385  -3.412  -3.106  1.00  0.00     0.004 A 
HETATM   17  C17 UNL     1      -2.244  -3.189  -2.016  1.00  0.00     0.026 A 
HETATM   18  C18 UNL     1      -3.615  -3.479  -2.127  1.00  0.00     0.121 A 
HETATM   19  C19 UNL     1      -4.129  -3.992  -3.332  1.00  0.00     0.175 A 
HETATM   20  C20 UNL     1      -3.268  -4.217  -4.424  1.00  0.00     0.121 A 
HETATM   21  O10 UNL     1      -5.414  -4.266  -3.440  1.00  0.00    -0.186 OA
HETATM   22  C21 UNL     1      -1.898  -3.926  -4.309  1.00  0.00     0.026 A 
BRANCH  18  23
HETATM   23  O11 UNL     1      -4.416  -3.268  -1.102  1.00  0.00    -0.326 OA
HETATM   24  C23 UNL     1      -3.832  -2.889   0.135  1.00  0.00     0.181 C 
ENDBRANCH  18  23
BRANCH  20  25
HETATM   25  O9  UNL     1      -3.744  -4.699  -5.555  1.00  0.00    -0.326 OA
HETATM   26  C22 UNL     1      -2.836  -4.906  -6.627  1.00  0.00     0.181 C 
ENDBRANCH  20  25
ENDBRANCH  15  16
ENDBRANCH  12  14
ENDBRANCH  11  12
ENDBRANCH  10  11
ENDBRANCH   3  10
BRANCH   1  27
HETATM   27  O2  UNL     1       2.619   1.656   2.543  1.00  0.00    -0.329 OA
BRANCH  27  28
HETATM   28  C6  UNL     1       1.250   1.324   2.488  1.00  0.00     0.155 C 
BRANCH  28  29
HETATM   29  C5  UNL     1       0.441   2.629   2.484  1.00  0.00     0.117 C 
HETATM   30  C1  UNL     1      -1.033   2.328   2.803  1.00  0.00     0.022 C 
HETATM   31  C2  UNL     1      -1.924   3.590   2.660  1.00  0.00     0.052 C 
HETATM   32  C26 UNL     1      -1.660   1.293   1.842  1.00  0.00     0.026 C 
HETATM   33  C3  UNL     1      -1.162   4.781   2.053  1.00  0.00     0.156 C 
HETATM   34  C24 UNL     1      -3.084   3.145   1.812  1.00  0.00    -0.014 C 
HETATM   35  O1  UNL     1      -0.353   4.383   0.943  1.00  0.00    -0.301 OA
HETATM   36  C4  UNL     1       0.523   3.395   1.180  1.00  0.00     0.274 C 
HETATM   37  O12 UNL     1       1.367   3.094   0.367  1.00  0.00    -0.264 OA
HETATM   38  C25 UNL     1      -2.949   1.893   1.371  1.00  0.00    -0.032 C 
BRANCH  34  39
HETATM   39  C27 UNL     1      -4.264   4.031   1.516  1.00  0.00     0.204 C 
HETATM   40  O13 UNL     1      -5.432   3.455   2.055  1.00  0.00    -0.216 OA
ENDBRANCH  34  39
ENDBRANCH  28  29
ENDBRANCH  27  28
ENDBRANCH   1  27
TORSDOF 11
