REMARK  5 active torsions:
REMARK  status: ('A' for Active; 'I' for Inactive)
REMARK    1  A    between atoms: C4_4  and  C7_7 
REMARK    2  A    between atoms: C7_7  and  C8_8 
REMARK    3  A    between atoms: C8_8  and  C9_9 
REMARK    4  A    between atoms: C9_9  and  C10_10 
REMARK    5  A    between atoms: C11_11  and  C12_12 
ROOT
HETATM    1  C7  UNL     1       0.504  -0.391  -1.047  1.00  0.00    -0.044 C 
HETATM    2  C14 UNL     1       1.203   0.148  -2.061  1.00  0.00    -0.009 C 
ENDROOT
BRANCH   1   3
HETATM    3  C4  UNL     1      -0.699  -1.238  -1.375  1.00  0.00     0.023 C 
HETATM    4  C3  UNL     1      -0.551  -2.664  -0.812  1.00  0.00     0.029 C 
HETATM    5  C2  UNL     1      -1.820  -3.484  -0.877  1.00  0.00    -0.034 C 
HETATM    6  C1  UNL     1      -3.035  -2.928  -1.070  1.00  0.00    -0.048 C 
HETATM    7  C6  UNL     1      -3.217  -1.437  -1.277  1.00  0.00     0.022 C 
HETATM    8  C15 UNL     1      -4.270  -3.791  -1.092  1.00  0.00     0.026 C 
HETATM    9  C5  UNL     1      -1.998  -0.603  -0.855  1.00  0.00     0.009 C 
ENDBRANCH   1   3
BRANCH   1  10
HETATM   10  C8  UNL     1       0.959  -0.121   0.363  1.00  0.00     0.027 C 
BRANCH  10  11
HETATM   11  C9  UNL     1       1.801   1.150   0.471  1.00  0.00     0.030 C 
BRANCH  11  12
HETATM   12  C10 UNL     1       2.037   1.565   1.899  1.00  0.00    -0.032 C 
HETATM   13  C11 UNL     1       2.524   2.793   2.137  1.00  0.00    -0.015 C 
HETATM   14  C13 UNL     1       2.760   3.207   3.567  1.00  0.00     0.029 C 
BRANCH  13  15
HETATM   15  C12 UNL     1       2.811   3.692   0.965  1.00  0.00     0.204 C 
HETATM   16  O1  UNL     1       1.621   4.330   0.561  1.00  0.00    -0.216 OA
ENDBRANCH  13  15
ENDBRANCH  11  12
ENDBRANCH  10  11
ENDBRANCH   1  10
TORSDOF 5
