REMARK  1 active torsions:
REMARK  status: ('A' for Active; 'I' for Inactive)
REMARK    1  A    between atoms: C1_1  and  C14_15 
ROOT
HETATM    1  C1  UNL     1      -0.016   1.047  -0.121  1.00  0.00     0.136 A 
HETATM    2  C2  UNL     1      -1.268   0.269   0.149  1.00  0.00     0.015 A 
HETATM    3  C3  UNL     1      -2.533   0.910   0.104  1.00  0.00    -0.002 A 
HETATM    4  C4  UNL     1      -3.719   0.174   0.340  1.00  0.00    -0.000 A 
HETATM    5  C5  UNL     1      -3.647  -1.209   0.623  1.00  0.00     0.002 A 
HETATM    6  C6  UNL     1      -2.393  -1.856   0.680  1.00  0.00     0.024 A 
HETATM    7  C7  UNL     1      -1.203  -1.123   0.451  1.00  0.00     0.097 A 
HETATM    8  O1  UNL     1      -0.014  -1.754   0.530  1.00  0.00    -0.308 OA
HETATM    9  C8  UNL     1       1.178  -1.135   0.391  1.00  0.00     0.097 A 
HETATM   10  C9  UNL     1       2.367  -1.879   0.559  1.00  0.00     0.024 A 
HETATM   11  C10 UNL     1       3.625  -1.246   0.438  1.00  0.00     0.002 A 
HETATM   12  C11 UNL     1       3.695   0.135   0.149  1.00  0.00    -0.000 A 
HETATM   13  C12 UNL     1       2.508   0.885  -0.025  1.00  0.00    -0.002 A 
HETATM   14  C13 UNL     1       1.238   0.256   0.084  1.00  0.00     0.015 A 
ENDROOT
BRANCH   1  15
HETATM   15  C14 UNL     1      -0.049   1.646  -1.508  1.00  0.00     0.193 C 
HETATM   16  O2  UNL     1      -0.436   1.004  -2.455  1.00  0.00    -0.647 OA
HETATM   17  O3  UNL     1       0.373   2.906  -1.590  1.00  0.00    -0.647 OA
ENDBRANCH   1  15
TORSDOF 1
