REMARK  5 active torsions:
REMARK  status: ('A' for Active; 'I' for Inactive)
REMARK    1  A    between atoms: C15_15  and  C18_18 
REMARK    2  A    between atoms: C18_18  and  C19_19 
REMARK    3  A    between atoms: C19_19  and  C20_20 
REMARK    4  A    between atoms: C20_20  and  C21_21 
REMARK    5  A    between atoms: C21_21  and  C22_22 
ROOT
HETATM    1  C1  UNL     1       5.105  -1.266   0.295  1.00  0.00     0.065 C 
HETATM    2  C2  UNL     1       4.986  -1.295  -1.213  1.00  0.00     0.150 C 
HETATM    3  C3  UNL     1       5.484  -0.072  -1.959  1.00  0.00     0.052 C 
HETATM    4  C4  UNL     1       4.811   1.242  -1.418  1.00  0.00     0.015 C 
HETATM    5  C5  UNL     1       4.301   1.145   0.063  1.00  0.00     0.019 C 
HETATM    6  C6  UNL     1       5.219   0.170   0.838  1.00  0.00     0.012 C 
HETATM    7  C7  UNL     1       2.850   0.662   0.150  1.00  0.00    -0.031 C 
HETATM    8  C8  UNL     1       2.055   0.465  -1.092  1.00  0.00    -0.031 C 
HETATM    9  C9  UNL     1       2.453   0.977  -2.271  1.00  0.00    -0.031 C 
HETATM   10  C10 UNL     1       3.703   1.815  -2.328  1.00  0.00     0.026 C 
HETATM   11  C11 UNL     1       0.767  -0.326  -0.967  1.00  0.00     0.019 C 
HETATM   12  C12 UNL     1       0.008   0.162   0.281  1.00  0.00     0.007 C 
HETATM   13  C13 UNL     1       0.881  -0.129   1.510  1.00  0.00     0.026 C 
HETATM   14  C14 UNL     1       2.293   0.406   1.359  1.00  0.00    -0.031 C 
HETATM   15  C15 UNL     1      -1.305  -0.625   0.176  1.00  0.00     0.001 C 
HETATM   16  C16 UNL     1      -1.621  -0.570  -1.326  1.00  0.00     0.000 C 
HETATM   17  C17 UNL     1      -0.322  -0.164  -2.035  1.00  0.00     0.004 C 
HETATM   18  C26 UNL     1      -0.299   1.668   0.193  1.00  0.00     0.001 C 
HETATM   19  C27 UNL     1       1.119  -1.818  -0.918  1.00  0.00     0.004 C 
HETATM   20  C28 UNL     1       4.363   2.533   0.713  1.00  0.00     0.004 C 
HETATM   21  C29 UNL     1       5.273  -0.264  -3.469  1.00  0.00     0.007 C 
HETATM   22  C30 UNL     1       7.002  -0.017  -1.736  1.00  0.00     0.007 C 
HETATM   23  O3  UNL     1       4.504  -2.250  -1.777  1.00  0.00    -0.296 OA
ENDROOT
BRANCH  15  24
HETATM   24  C18 UNL     1      -2.438  -0.084   1.045  1.00  0.00     0.000 C 
HETATM   25  C25 UNL     1      -2.016  -0.125   2.514  1.00  0.00     0.000 C 
BRANCH  24  26
HETATM   26  C19 UNL     1      -3.713  -0.881   0.775  1.00  0.00     0.003 C 
BRANCH  26  27
HETATM   27  C20 UNL     1      -4.971  -0.174   1.279  1.00  0.00     0.035 C 
BRANCH  27  28
HETATM   28  C21 UNL     1      -6.244  -0.980   1.029  1.00  0.00     0.180 C 
HETATM   29  O2  UNL     1      -6.543  -0.918  -0.346  1.00  0.00    -0.221 OA
BRANCH  28  30
HETATM   30  C22 UNL     1      -7.446  -0.443   1.807  1.00  0.00     0.155 C 
HETATM   31  C23 UNL     1      -7.606   1.072   1.670  1.00  0.00     0.036 C 
HETATM   32  C24 UNL     1      -8.737  -1.203   1.496  1.00  0.00     0.036 C 
HETATM   33  O1  UNL     1      -7.072  -0.730   3.135  1.00  0.00    -0.223 OA
ENDBRANCH  28  30
ENDBRANCH  27  28
ENDBRANCH  26  27
ENDBRANCH  24  26
ENDBRANCH  15  24
TORSDOF 5
