REMARK  7 active torsions:
REMARK  status: ('A' for Active; 'I' for Inactive)
REMARK    1  A    between atoms: C4_4  and  O2_7 
REMARK    2  A    between atoms: O2_7  and  C6_8 
REMARK    3  A    between atoms: C15_17  and  O3_18 
REMARK    4  A    between atoms: O3_18  and  C16_19 
REMARK    5  A    between atoms: C17_21  and  C21_28 
REMARK    6  A    between atoms: C26_34  and  C29_38 
REMARK    7  A    between atoms: C30_40  and  C33_43 
ROOT
HETATM    1  C6  UNL     1       3.455  -0.117  -0.715  1.00  0.00     0.118 C 
HETATM    2  C7  UNL     1       2.242   0.488  -1.457  1.00  0.00     0.027 C 
HETATM    3  C8  UNL     1       1.330   1.346  -0.514  1.00  0.00     0.030 C 
HETATM    4  C9  UNL     1       1.016   0.625   0.830  1.00  0.00     0.002 A 
HETATM    5  C10 UNL     1       2.186  -0.152   1.471  1.00  0.00     0.003 C 
HETATM    6  C11 UNL     1       3.006  -0.971   0.477  1.00  0.00     0.030 C 
HETATM    7  C12 UNL     1      -0.440   0.324   1.211  1.00  0.00     0.000 A 
HETATM    8  C13 UNL     1      -1.621   0.807   0.346  1.00  0.00     0.003 C 
HETATM    9  C14 UNL     1      -1.227   2.039  -0.500  1.00  0.00     0.030 C 
HETATM   10  C15 UNL     1       0.084   1.883  -1.295  1.00  0.00     0.118 C 
HETATM   11  C22 UNL     1      -2.295  -0.367  -0.426  1.00  0.00     0.003 C 
HETATM   12  C23 UNL     1      -2.576  -1.621   0.469  1.00  0.00     0.005 C 
HETATM   13  C24 UNL     1      -2.186  -1.373   1.940  1.00  0.00     0.000 C 
HETATM   14  C25 UNL     1      -0.713  -0.955   2.016  1.00  0.00     0.000 C 
HETATM   15  C26 UNL     1      -4.088  -1.894   0.303  1.00  0.00     0.055 C 
HETATM   16  C27 UNL     1      -4.725  -0.535   0.016  1.00  0.00     0.154 C 
HETATM   17  C28 UNL     1      -3.692   0.057  -0.934  1.00  0.00     0.033 C 
HETATM   18  O9  UNL     1      -4.861   0.260   1.178  1.00  0.00    -0.223 OA
HETATM   19  C37 UNL     1      -1.873  -2.896  -0.016  1.00  0.00     0.000 C 
HETATM   20  C38 UNL     1      -1.498  -0.762  -1.672  1.00  0.00     0.000 C 
HETATM   21  C39 UNL     1       0.326   1.426   1.918  1.00  0.00     0.000 A 
HETATM   22  C40 UNL     1       2.738   1.344  -2.633  1.00  0.00     0.003 C 
HETATM   23  C41 UNL     1       1.451  -0.680  -2.061  1.00  0.00     0.003 C 
ENDROOT
BRANCH  10  24
HETATM   24  O3  UNL     1       0.394   3.139  -1.869  1.00  0.00    -0.332 OA
BRANCH  24  25
HETATM   25  C16 UNL     1      -0.752   3.885  -2.232  1.00  0.00     0.270 C 
HETATM   26  O4  UNL     1      -1.445   3.293  -3.332  1.00  0.00    -0.326 OA
HETATM   27  C17 UNL     1      -0.713   3.162  -4.553  1.00  0.00     0.184 C 
HETATM   28  C18 UNL     1       0.273   4.344  -4.773  1.00  0.00     0.215 C 
HETATM   29  C19 UNL     1      -0.182   5.645  -4.076  1.00  0.00     0.220 C 
HETATM   30  O7  UNL     1       0.486   4.553  -6.160  1.00  0.00    -0.218 OA
HETATM   31  C20 UNL     1      -0.363   5.361  -2.557  1.00  0.00     0.241 C 
HETATM   32  O6  UNL     1      -1.389   6.094  -4.688  1.00  0.00    -0.218 OA
HETATM   33  O5  UNL     1      -1.305   6.240  -1.959  1.00  0.00    -0.215 OA
BRANCH  27  34
HETATM   34  C21 UNL     1      -0.004   1.803  -4.559  1.00  0.00     0.214 C 
HETATM   35  O8  UNL     1      -0.986   0.793  -4.498  1.00  0.00    -0.218 OA
ENDBRANCH  27  34
ENDBRANCH  24  25
ENDBRANCH  10  24
BRANCH   1  36
HETATM   36  O2  UNL     1       4.324   0.904  -0.260  1.00  0.00    -0.332 OA
BRANCH  36  37
HETATM   37  C4  UNL     1       5.582   0.416   0.164  1.00  0.00     0.270 C 
HETATM   38  C3  UNL     1       6.727   1.383  -0.252  1.00  0.00     0.241 C 
HETATM   39  C2  UNL     1       8.078   0.856   0.281  1.00  0.00     0.220 C 
HETATM   40  O12 UNL     1       6.473   2.692   0.248  1.00  0.00    -0.215 OA
HETATM   41  C1  UNL     1       7.979   0.557   1.795  1.00  0.00     0.215 C 
HETATM   42  O13 UNL     1       9.129   1.772   0.008  1.00  0.00    -0.218 OA
HETATM   43  C5  UNL     1       6.773  -0.361   2.092  1.00  0.00     0.181 C 
HETATM   44  O14 UNL     1       9.154  -0.088   2.248  1.00  0.00    -0.218 OA
HETATM   45  O1  UNL     1       5.582   0.215   1.574  1.00  0.00    -0.326 OA
ENDBRANCH  36  37
ENDBRANCH   1  36
BRANCH  15  46
HETATM   46  C29 UNL     1      -4.752  -2.658   1.451  1.00  0.00     0.095 C 
HETATM   47  O10 UNL     1      -3.830  -3.562   2.006  1.00  0.00    -0.359 OA
HETATM   48  C30 UNL     1      -4.248  -3.967   3.289  1.00  0.00     0.143 C 
HETATM   49  C31 UNL     1      -5.041  -2.766   3.824  1.00  0.00     0.035 C 
HETATM   50  C32 UNL     1      -5.104  -1.781   2.650  1.00  0.00     0.030 C 
HETATM   51  C36 UNL     1      -5.961  -3.426   0.922  1.00  0.00     0.030 C 
BRANCH  48  52
HETATM   52  C33 UNL     1      -3.016  -4.320   4.113  1.00  0.00     0.152 C 
HETATM   53  C34 UNL     1      -2.012  -5.064   3.231  1.00  0.00     0.035 C 
HETATM   54  O11 UNL     1      -2.422  -3.121   4.559  1.00  0.00    -0.224 OA
HETATM   55  C35 UNL     1      -3.436  -5.131   5.340  1.00  0.00     0.035 C 
ENDBRANCH  48  52
ENDBRANCH  15  46
TORSDOF 7
