REMARK  2 active torsions:
REMARK  status: ('A' for Active; 'I' for Inactive)
REMARK    1  A    between atoms: C3_3  and  O2_17 
REMARK    2  A    between atoms: C7_8  and  C10_11 
ROOT
HETATM    1  C1  UNL     1      -3.227   1.238   0.096  1.00  0.00     0.196 A 
HETATM    2  C2  UNL     1      -3.518  -0.211   0.072  1.00  0.00     0.040 A 
HETATM    3  C3  UNL     1      -2.516  -1.111  -0.031  1.00  0.00     0.095 A 
HETATM    4  C4  UNL     1      -1.111  -0.641  -0.123  1.00  0.00     0.045 A 
HETATM    5  C5  UNL     1      -0.807   0.816  -0.098  1.00  0.00     0.105 A 
HETATM    6  C6  UNL     1      -1.826   1.693   0.008  1.00  0.00     0.067 A 
HETATM    7  O1  UNL     1       0.455   1.299  -0.176  1.00  0.00    -0.307 OA
HETATM    8  C7  UNL     1       1.467   0.404  -0.281  1.00  0.00     0.100 A 
HETATM    9  C8  UNL     1       1.281  -0.936  -0.313  1.00  0.00     0.025 A 
HETATM   10  C9  UNL     1      -0.074  -1.488  -0.229  1.00  0.00     0.006 A 
HETATM   11  C17 UNL     1      -4.947  -0.680   0.168  1.00  0.00     0.036 C 
HETATM   12  O3  UNL     1      -4.121   2.049   0.184  1.00  0.00    -0.287 OA
ENDROOT
BRANCH   8  13
HETATM   13  C10 UNL     1       2.869   0.910  -0.371  1.00  0.00     0.023 A 
HETATM   14  C11 UNL     1       3.211   2.143   0.215  1.00  0.00     0.002 A 
HETATM   15  C12 UNL     1       4.531   2.619   0.133  1.00  0.00     0.000 A 
HETATM   16  C13 UNL     1       5.510   1.865  -0.537  1.00  0.00     0.000 A 
HETATM   17  C14 UNL     1       5.170   0.635  -1.123  1.00  0.00     0.000 A 
HETATM   18  C15 UNL     1       3.850   0.156  -1.039  1.00  0.00     0.002 A 
ENDBRANCH   8  13
BRANCH   3  19
HETATM   19  O2  UNL     1      -2.787  -2.416  -0.053  1.00  0.00    -0.328 OA
HETATM   20  C16 UNL     1      -2.744  -2.998   1.242  1.00  0.00     0.181 C 
ENDBRANCH   3  19
TORSDOF 2
