REMARK  6 active torsions:
REMARK  status: ('A' for Active; 'I' for Inactive)
REMARK    1  A    between atoms: C1_1  and  C2_2 
REMARK    2  A    between atoms: C1_1  and  C14_17 
REMARK    3  A    between atoms: C2_2  and  C3_3 
REMARK    4  A    between atoms: C3_3  and  C4_4 
REMARK    5  A    between atoms: C5_5  and  C6_6 
REMARK    6  A    between atoms: C7_7  and  C8_8 
ROOT
HETATM    1  C3  UNL     1       2.016  -0.402  -1.263  1.00  0.00     0.178 C 
HETATM    2  O3  UNL     1       2.674   0.109  -2.138  1.00  0.00    -0.291 OA
ENDROOT
BRANCH   1   3
HETATM    3  C2  UNL     1       1.492  -1.805  -1.408  1.00  0.00     0.107 C 
BRANCH   3   4
HETATM    4  C1  UNL     1       0.607  -1.973  -2.644  1.00  0.00     0.182 C 
HETATM    5  O5  UNL     1       1.424  -1.875  -3.789  1.00  0.00    -0.218 OA
BRANCH   4   6
HETATM    6  C14 UNL     1      -0.088  -3.287  -2.644  1.00  0.00     0.008 A 
HETATM    7  C15 UNL     1      -1.494  -3.338  -2.644  1.00  0.00     0.000 A 
HETATM    8  C16 UNL     1      -2.150  -4.580  -2.644  1.00  0.00     0.027 A 
HETATM    9  C17 UNL     1      -1.406  -5.775  -2.644  1.00  0.00     0.131 A 
HETATM   10  C18 UNL     1      -0.002  -5.719  -2.644  1.00  0.00     0.027 A 
HETATM   11  O4  UNL     1      -2.023  -6.940  -2.644  1.00  0.00    -0.190 OA
HETATM   12  C19 UNL     1       0.658  -4.479  -2.644  1.00  0.00     0.000 A 
ENDBRANCH   4   6
ENDBRANCH   3   4
ENDBRANCH   1   3
BRANCH   1  13
HETATM   13  C4  UNL     1       1.713   0.340  -0.033  1.00  0.00     0.065 C 
HETATM   14  C5  UNL     1       0.953   1.447  -0.070  1.00  0.00     0.134 C 
HETATM   15  O2  UNL     1       0.467   1.891  -1.226  1.00  0.00    -0.190 OA
BRANCH  14  16
HETATM   16  C6  UNL     1       0.670   2.162   1.178  1.00  0.00     0.028 C 
HETATM   17  C7  UNL     1      -0.084   3.274   1.174  1.00  0.00     0.002 C 
BRANCH  17  18
HETATM   18  C8  UNL     1      -0.346   3.967   2.471  1.00  0.00     0.000 A 
HETATM   19  C9  UNL     1      -0.549   5.358   2.498  1.00  0.00     0.002 A 
HETATM   20  C10 UNL     1      -0.795   6.010   3.719  1.00  0.00     0.027 A 
HETATM   21  C11 UNL     1      -0.840   5.276   4.916  1.00  0.00     0.131 A 
HETATM   22  C12 UNL     1      -0.637   3.883   4.887  1.00  0.00     0.027 A 
HETATM   23  O1  UNL     1      -1.070   5.887   6.061  1.00  0.00    -0.190 OA
HETATM   24  C13 UNL     1      -0.391   3.231   3.668  1.00  0.00     0.002 A 
ENDBRANCH  17  18
ENDBRANCH  14  16
ENDBRANCH   1  13
TORSDOF 6
