REMARK  1 active torsions:
REMARK  status: ('A' for Active; 'I' for Inactive)
REMARK    1  A    between atoms: C1_1  and  C13_13 
ROOT
HETATM    1  C1  UNL     1      -1.461   0.461  -0.238  1.00  0.00    -0.045 C 
HETATM    2  C2  UNL     1      -1.602  -1.045  -0.135  1.00  0.00     0.022 C 
HETATM    3  C3  UNL     1      -0.258  -1.793  -0.215  1.00  0.00     0.008 C 
HETATM    4  C4  UNL     1       0.836  -1.121   0.645  1.00  0.00     0.019 C 
HETATM    5  C5  UNL     1       0.986   0.303   0.108  1.00  0.00    -0.031 C 
HETATM    6  C6  UNL     1      -0.262   1.066  -0.123  1.00  0.00    -0.013 C 
HETATM    7  C7  UNL     1       2.199   0.838  -0.174  1.00  0.00    -0.048 C 
HETATM    8  C8  UNL     1       3.467   0.025  -0.060  1.00  0.00     0.022 C 
HETATM    9  C9  UNL     1       3.190  -1.453  -0.346  1.00  0.00     0.004 C 
HETATM   10  C10 UNL     1       2.137  -1.967   0.635  1.00  0.00     0.004 C 
HETATM   11  C11 UNL     1       2.348   2.266  -0.639  1.00  0.00     0.026 C 
HETATM   12  C12 UNL     1       0.344  -1.025   2.098  1.00  0.00     0.004 C 
ENDROOT
BRANCH   1  13
HETATM   13  C13 UNL     1      -2.707   1.273  -0.480  1.00  0.00     0.018 C 
HETATM   14  C14 UNL     1      -3.707   1.166   0.672  1.00  0.00     0.004 C 
HETATM   15  C15 UNL     1      -3.342   0.979  -1.840  1.00  0.00     0.004 C 
ENDBRANCH   1  13
TORSDOF 1
