REMARK  8 active torsions:
REMARK  status: ('A' for Active; 'I' for Inactive)
REMARK    1  A    between atoms: C4_4  and  C7_7 
REMARK    2  A    between atoms: C7_7  and  C8_8 
REMARK    3  A    between atoms: C8_8  and  O1_9 
REMARK    4  A    between atoms: O1_9  and  C9_10 
REMARK    5  A    between atoms: C15_17  and  C18_21 
REMARK    6  A    between atoms: C21_24  and  O4_27 
REMARK    7  A    between atoms: O4_27  and  C24_28 
REMARK    8  A    between atoms: C28_35  and  C29_37 
ROOT
HETATM    1  C9  UNL     1      -4.166  -1.430   0.363  1.00  0.00     0.098 A 
HETATM    2  C10 UNL     1      -4.012  -2.738   0.881  1.00  0.00     0.052 A 
HETATM    3  C11 UNL     1      -2.721  -3.275   1.088  1.00  0.00     0.138 A 
HETATM    4  C12 UNL     1      -1.578  -2.494   0.775  1.00  0.00     0.087 A 
HETATM    5  C13 UNL     1      -1.731  -1.180   0.256  1.00  0.00     0.107 A 
HETATM    6  C14 UNL     1      -3.027  -0.652   0.053  1.00  0.00     0.049 A 
HETATM    7  O2  UNL     1      -0.645  -0.432  -0.041  1.00  0.00    -0.307 OA
HETATM    8  C15 UNL     1       0.625  -0.863   0.125  1.00  0.00     0.103 A 
HETATM    9  C16 UNL     1       0.891  -2.098   0.609  1.00  0.00     0.067 A 
HETATM   10  C17 UNL     1      -0.201  -3.023   0.979  1.00  0.00     0.202 A 
HETATM   11  O3  UNL     1       0.115  -4.109   1.404  1.00  0.00    -0.286 OA
HETATM   12  O10 UNL     1      -2.592  -4.518   1.580  1.00  0.00    -0.190 OA
ENDROOT
BRANCH   8  13
HETATM   13  C18 UNL     1       1.766   0.033  -0.230  1.00  0.00     0.023 A 
HETATM   14  C19 UNL     1       1.627   1.430  -0.119  1.00  0.00     0.004 A 
HETATM   15  C20 UNL     1       2.701   2.272  -0.455  1.00  0.00     0.024 A 
HETATM   16  C21 UNL     1       3.918   1.725  -0.898  1.00  0.00     0.097 A 
HETATM   17  C22 UNL     1       4.055   0.328  -1.008  1.00  0.00     0.024 A 
HETATM   18  C23 UNL     1       2.982  -0.516  -0.674  1.00  0.00     0.004 A 
BRANCH  16  19
HETATM   19  O4  UNL     1       4.924   2.514  -1.211  1.00  0.00    -0.304 OA
BRANCH  19  20
HETATM   20  C24 UNL     1       5.119   3.690  -0.432  1.00  0.00     0.274 C 
HETATM   21  C25 UNL     1       4.957   4.957  -1.297  1.00  0.00     0.241 C 
HETATM   22  O5  UNL     1       3.691   4.922  -1.934  1.00  0.00    -0.215 OA
HETATM   23  C26 UNL     1       6.084   5.070  -2.346  1.00  0.00     0.220 C 
HETATM   24  O6  UNL     1       6.012   6.330  -2.996  1.00  0.00    -0.218 OA
HETATM   25  C27 UNL     1       7.453   4.920  -1.647  1.00  0.00     0.215 C 
HETATM   26  O7  UNL     1       8.483   4.830  -2.615  1.00  0.00    -0.218 OA
HETATM   27  C28 UNL     1       7.502   3.656  -0.754  1.00  0.00     0.184 C 
HETATM   28  O8  UNL     1       6.412   3.674   0.162  1.00  0.00    -0.326 OA
BRANCH  27  29
HETATM   29  C29 UNL     1       8.781   3.570   0.082  1.00  0.00     0.214 C 
HETATM   30  O9  UNL     1       8.809   2.314   0.721  1.00  0.00    -0.218 OA
ENDBRANCH  27  29
ENDBRANCH  19  20
ENDBRANCH  16  19
ENDBRANCH   8  13
BRANCH   1  31
HETATM   31  O1  UNL     1      -5.393  -0.928   0.168  1.00  0.00    -0.330 OA
BRANCH  31  32
HETATM   32  C8  UNL     1      -6.490  -1.594   0.775  1.00  0.00     0.153 C 
BRANCH  32  33
HETATM   33  C7  UNL     1      -6.961  -2.731  -0.133  1.00  0.00     0.059 C 
BRANCH  33  34
HETATM   34  C4  UNL     1      -7.848  -3.678   0.594  1.00  0.00    -0.019 A 
HETATM   35  C3  UNL     1      -7.383  -4.961   0.928  1.00  0.00    -0.002 A 
HETATM   36  C2  UNL     1      -8.223  -5.856   1.613  1.00  0.00     0.027 A 
HETATM   37  C1  UNL     1      -9.529  -5.471   1.967  1.00  0.00     0.131 A 
HETATM   38  C6  UNL     1      -9.990  -4.188   1.631  1.00  0.00     0.027 A 
HETATM   39  O11 UNL     1     -10.315  -6.311   2.609  1.00  0.00    -0.190 OA
HETATM   40  C5  UNL     1      -9.153  -3.291   0.945  1.00  0.00    -0.002 A 
ENDBRANCH  33  34
ENDBRANCH  32  33
ENDBRANCH  31  32
ENDBRANCH   1  31
TORSDOF 8
