REMARK  6 active torsions:
REMARK  status: ('A' for Active; 'I' for Inactive)
REMARK    1  A    between atoms: C4_4  and  C7_8 
REMARK    2  A    between atoms: C8_9  and  C15_22 
REMARK    3  A    between atoms: C13_16  and  C14_18 
REMARK    4  A    between atoms: C15_22  and  C16_23 
REMARK    5  A    between atoms: C16_23  and  C17_24 
REMARK    6  A    between atoms: C17_24  and  C18_26 
ROOT
HETATM    1  C7  UNL     1       1.188  -1.084   1.537  1.00  0.00     0.165 C 
HETATM    2  C8  UNL     1       1.184  -0.160   0.287  1.00  0.00     0.150 C 
HETATM    3  O2  UNL     1      -0.002   0.627   0.252  1.00  0.00    -0.329 OA
HETATM    4  C9  UNL     1      -1.207  -0.125   0.310  1.00  0.00     0.267 C 
HETATM    5  C10 UNL     1      -1.217  -1.021   1.574  1.00  0.00     0.205 C 
HETATM    6  O3  UNL     1      -0.033  -1.816   1.611  1.00  0.00    -0.344 OA
HETATM    7  C11 UNL     1      -2.459  -1.947   1.561  1.00  0.00     0.217 C 
HETATM    8  C12 UNL     1      -3.668  -1.258   0.869  1.00  0.00     0.215 C 
HETATM    9  C13 UNL     1      -3.547   0.289   0.871  1.00  0.00     0.184 C 
HETATM   10  O4  UNL     1      -2.324   0.766   0.301  1.00  0.00    -0.326 OA
HETATM   11  O6  UNL     1      -3.768  -1.709  -0.471  1.00  0.00    -0.218 OA
HETATM   12  O7  UNL     1      -2.803  -2.266   2.896  1.00  0.00    -0.218 OA
ENDROOT
BRANCH   2  13
HETATM   13  C15 UNL     1       1.299  -0.945  -1.027  1.00  0.00     0.041 C 
BRANCH  13  14
HETATM   14  C16 UNL     1       1.277  -0.039  -2.258  1.00  0.00     0.072 C 
BRANCH  14  15
HETATM   15  C17 UNL     1       1.520  -0.799  -3.535  1.00  0.00     0.173 C 
HETATM   16  O8  UNL     1       1.664  -2.000  -3.526  1.00  0.00    -0.291 OA
BRANCH  15  17
HETATM   17  C18 UNL     1       1.578  -0.027  -4.811  1.00  0.00     0.035 A 
HETATM   18  C19 UNL     1       1.813  -0.695  -6.028  1.00  0.00     0.005 A 
HETATM   19  C20 UNL     1       1.867   0.033  -7.229  1.00  0.00     0.028 A 
HETATM   20  C21 UNL     1       1.688   1.428  -7.221  1.00  0.00     0.131 A 
HETATM   21  C22 UNL     1       1.455   2.092  -6.004  1.00  0.00     0.028 A 
HETATM   22  O9  UNL     1       1.740   2.107  -8.348  1.00  0.00    -0.190 OA
HETATM   23  C23 UNL     1       1.399   1.367  -4.801  1.00  0.00     0.005 A 
ENDBRANCH  15  17
ENDBRANCH  14  15
ENDBRANCH  13  14
ENDBRANCH   2  13
BRANCH   1  24
HETATM   24  C4  UNL     1       1.443  -0.353   2.807  1.00  0.00     0.009 A 
HETATM   25  C3  UNL     1       1.502   1.051   2.814  1.00  0.00     0.000 A 
HETATM   26  C2  UNL     1       1.744   1.736   4.016  1.00  0.00     0.029 A 
HETATM   27  C1  UNL     1       1.930   1.023   5.215  1.00  0.00     0.156 A 
HETATM   28  C6  UNL     1       1.871  -0.383   5.207  1.00  0.00     0.156 A 
HETATM   29  O10 UNL     1       2.156   1.674   6.338  1.00  0.00    -0.188 OA
HETATM   30  C5  UNL     1       1.629  -1.068   4.004  1.00  0.00     0.028 A 
HETATM   31  O1  UNL     1       2.045  -1.059   6.326  1.00  0.00    -0.188 OA
ENDBRANCH   1  24
BRANCH   9  32
HETATM   32  C14 UNL     1      -3.637   0.865   2.289  1.00  0.00     0.214 C 
HETATM   33  O5  UNL     1      -4.168   2.168   2.203  1.00  0.00    -0.218 OA
ENDBRANCH   9  32
TORSDOF 6
