REMARK  6 active torsions:
REMARK  status: ('A' for Active; 'I' for Inactive)
REMARK    1  A    between atoms: C1_1  and  O3_20 
REMARK    2  A    between atoms: C3_3  and  O2_17 
REMARK    3  A    between atoms: C5_5  and  C7_7 
REMARK    4  A    between atoms: C7_7  and  C8_8 
REMARK    5  A    between atoms: C8_8  and  C9_9 
REMARK    6  A    between atoms: C14_14  and  O1_15 
ROOT
HETATM    1  C1  UNL     1      -0.969   2.971  -0.031  1.00  0.00     0.092 A 
HETATM    2  C2  UNL     1      -2.258   2.951  -0.602  1.00  0.00     0.023 A 
HETATM    3  C3  UNL     1      -2.762   1.764  -1.168  1.00  0.00     0.092 A 
HETATM    4  C4  UNL     1      -1.975   0.598  -1.160  1.00  0.00     0.020 A 
HETATM    5  C5  UNL     1      -0.690   0.615  -0.592  1.00  0.00    -0.018 A 
HETATM    6  C6  UNL     1      -0.190   1.803  -0.027  1.00  0.00     0.020 A 
HETATM    7  C17 UNL     1      -3.088   4.188  -0.607  1.00  0.00     0.035 C 
ENDROOT
BRANCH   5   8
HETATM    8  C7  UNL     1       0.139  -0.617  -0.586  1.00  0.00     0.031 C 
BRANCH   8   9
HETATM    9  C8  UNL     1       0.256  -1.211   0.818  1.00  0.00     0.033 C 
BRANCH   9  10
HETATM   10  C9  UNL     1       1.055  -2.465   0.818  1.00  0.00     0.001 A 
HETATM   11  C10 UNL     1       0.398  -3.709   0.818  1.00  0.00    -0.002 A 
HETATM   12  C11 UNL     1       1.145  -4.899   0.818  1.00  0.00    -0.000 A 
HETATM   13  C12 UNL     1       2.547  -4.848   0.818  1.00  0.00     0.002 A 
HETATM   14  C13 UNL     1       3.205  -3.606   0.818  1.00  0.00     0.024 A 
HETATM   15  C14 UNL     1       2.463  -2.412   0.818  1.00  0.00     0.090 A 
BRANCH  15  16
HETATM   16  O1  UNL     1       3.090  -1.252   0.818  1.00  0.00    -0.328 OA
HETATM   17  C15 UNL     1       4.508  -1.262   0.891  1.00  0.00     0.181 C 
ENDBRANCH  15  16
ENDBRANCH   9  10
ENDBRANCH   8   9
ENDBRANCH   5   8
BRANCH   3  18
HETATM   18  O2  UNL     1      -3.965   1.736  -1.705  1.00  0.00    -0.328 OA
HETATM   19  C16 UNL     1      -4.420   0.512  -2.260  1.00  0.00     0.181 C 
ENDBRANCH   3  18
BRANCH   1  20
HETATM   20  O3  UNL     1      -0.490   4.078   0.500  1.00  0.00    -0.328 OA
HETATM   21  C18 UNL     1       0.812   4.039   1.061  1.00  0.00     0.181 C 
ENDBRANCH   1  20
TORSDOF 6
