REMARK  8 active torsions:
REMARK  status: ('A' for Active; 'I' for Inactive)
REMARK    1  A    between atoms: C2_2  and  C3_3 
REMARK    2  A    between atoms: C3_3  and  N1_4 
REMARK       I    between atoms: N1_4  and  C4_5 
REMARK    3  A    between atoms: C4_5  and  C5_6 
REMARK    4  A    between atoms: C6_7  and  C7_8 
REMARK    5  A    between atoms: C8_9  and  C9_10 
REMARK    6  A    between atoms: C9_10  and  C10_11 
REMARK    7  A    between atoms: C10_11  and  C11_12 
REMARK    8  A    between atoms: C12_13  and  C13_14 
ROOT
HETATM    1  C5  UNL     1       1.236   0.891   1.242  1.00  0.00     0.062 C 
HETATM    2  C6  UNL     1       0.553  -0.265   1.250  1.00  0.00     0.005 C 
ENDROOT
BRANCH   2   3
HETATM    3  C7  UNL     1      -0.916  -0.265   1.250  1.00  0.00    -0.004 C 
HETATM    4  C8  UNL     1      -1.600  -1.420   1.258  1.00  0.00    -0.026 C 
BRANCH   4   5
HETATM    5  C9  UNL     1      -3.106  -1.363   1.258  1.00  0.00     0.031 C 
BRANCH   5   6
HETATM    6  C10 UNL     1      -3.719  -2.193   0.131  1.00  0.00     0.031 C 
BRANCH   6   7
HETATM    7  C11 UNL     1      -5.223  -2.144   0.135  1.00  0.00    -0.026 C 
HETATM    8  C12 UNL     1      -5.885  -2.621  -0.934  1.00  0.00    -0.005 C 
BRANCH   8   9
HETATM    9  C13 UNL     1      -5.153  -3.176  -2.078  1.00  0.00    -0.005 C 
HETATM   10  C14 UNL     1      -5.694  -3.164  -3.307  1.00  0.00    -0.026 C 
HETATM   11  C15 UNL     1      -4.901  -3.748  -4.447  1.00  0.00     0.031 C 
ENDBRANCH   8   9
ENDBRANCH   6   7
ENDBRANCH   5   6
ENDBRANCH   4   5
ENDBRANCH   2   3
BRANCH   1  12
HETATM   12  C4  UNL     1       2.705   0.887   1.242  1.00  0.00     0.275 C 
HETATM   13  N1  UNL     1       3.375   2.076   1.242  1.00  0.00    -0.234 NA
HETATM   14  O1  UNL     1       3.314  -0.156   1.242  1.00  0.00    -0.266 OA
BRANCH  13  15
HETATM   15  C3  UNL     1       4.846   2.076   1.242  1.00  0.00     0.129 C 
BRANCH  15  16
HETATM   16  C2  UNL     1       5.393   3.498   1.107  1.00  0.00     0.025 C 
HETATM   17  C1  UNL     1       6.898   3.576   1.361  1.00  0.00     0.002 C 
HETATM   18  C16 UNL     1       4.980   4.168  -0.203  1.00  0.00     0.002 C 
ENDBRANCH  15  16
ENDBRANCH  13  15
ENDBRANCH   1  12
TORSDOF 8
