REMARK  4 active torsions:
REMARK  status: ('A' for Active; 'I' for Inactive)
REMARK    1  A    between atoms: C5_5  and  C7_7 
REMARK    2  A    between atoms: C14_16  and  C17_20 
REMARK    3  A    between atoms: C15_17  and  O3_18 
REMARK    4  A    between atoms: C17_20  and  C18_21 
ROOT
HETATM    1  C7  UNL     1      -2.373  -1.412   0.125  1.00  0.00     0.066 A 
HETATM    2  C8  UNL     1      -1.434  -0.465   0.318  1.00  0.00     0.009 A 
HETATM    3  C9  UNL     1      -0.008  -0.871   0.449  1.00  0.00     0.045 A 
HETATM    4  C10 UNL     1       0.309  -2.252   0.361  1.00  0.00     0.107 A 
HETATM    5  O1  UNL     1      -0.666  -3.166   0.166  1.00  0.00    -0.273 OA
HETATM    6  C11 UNL     1      -1.971  -2.842   0.045  1.00  0.00     0.300 A 
HETATM    7  O2  UNL     1      -2.818  -3.688  -0.127  1.00  0.00    -0.259 OA
HETATM    8  C12 UNL     1       1.654  -2.668   0.481  1.00  0.00     0.052 A 
HETATM    9  C13 UNL     1       2.680  -1.713   0.686  1.00  0.00     0.131 A 
HETATM   10  C14 UNL     1       2.359  -0.334   0.774  1.00  0.00     0.030 A 
HETATM   11  C15 UNL     1       1.012   0.090   0.656  1.00  0.00     0.094 A 
HETATM   12  O4  UNL     1       3.951  -2.121   0.797  1.00  0.00    -0.190 OA
ENDROOT
BRANCH   1  13
HETATM   13  C5  UNL     1      -3.809  -1.016  -0.008  1.00  0.00     0.030 A 
HETATM   14  C4  UNL     1      -4.195  -0.047  -0.955  1.00  0.00     0.131 A 
HETATM   15  C3  UNL     1      -5.551   0.314  -1.068  1.00  0.00     0.027 A 
HETATM   16  O5  UNL     1      -3.303   0.525  -1.738  1.00  0.00    -0.190 OA
HETATM   17  C2  UNL     1      -6.516  -0.285  -0.242  1.00  0.00     0.002 A 
HETATM   18  C1  UNL     1      -6.127  -1.252   0.701  1.00  0.00     0.000 A 
HETATM   19  C6  UNL     1      -4.776  -1.617   0.818  1.00  0.00     0.002 A 
ENDBRANCH   1  13
BRANCH  11  20
HETATM   20  O3  UNL     1       0.709   1.395   0.738  1.00  0.00    -0.328 OA
HETATM   21  C16 UNL     1       0.318   1.910   2.002  1.00  0.00     0.181 C 
ENDBRANCH  11  20
BRANCH  10  22
HETATM   22  C17 UNL     1       3.428   0.656   0.990  1.00  0.00     0.056 C 
BRANCH  22  23
HETATM   23  C18 UNL     1       3.225   1.896   0.160  1.00  0.00    -0.030 C 
HETATM   24  C19 UNL     1       3.621   1.881  -1.123  1.00  0.00    -0.048 C 
HETATM   25  C20 UNL     1       3.514   3.039  -2.078  1.00  0.00     0.026 C 
HETATM   26  C21 UNL     1       4.225   0.617  -1.674  1.00  0.00     0.026 C 
ENDBRANCH  22  23
ENDBRANCH  10  22
TORSDOF 4
