REMARK  3 active torsions:
REMARK  status: ('A' for Active; 'I' for Inactive)
REMARK    1  A    between atoms: C1_1  and  O6_15 
REMARK    2  A    between atoms: O6_15  and  C10_16 
REMARK    3  A    between atoms: C14_23  and  C15_25 
ROOT
HETATM    1  C1  UNL     1       0.690   0.949   0.412  1.00  0.00     0.101 A 
HETATM    2  C2  UNL     1       0.846  -0.354   0.941  1.00  0.00     0.052 A 
HETATM    3  C3  UNL     1       2.139  -0.893   1.137  1.00  0.00     0.138 A 
HETATM    4  C4  UNL     1       3.280  -0.117   0.797  1.00  0.00     0.089 A 
HETATM    5  C5  UNL     1       3.123   1.189   0.268  1.00  0.00     0.109 A 
HETATM    6  C6  UNL     1       1.826   1.721   0.076  1.00  0.00     0.049 A 
HETATM    7  O1  UNL     1       4.209   1.926  -0.055  1.00  0.00    -0.282 OA
HETATM    8  C7  UNL     1       5.483   1.500   0.096  1.00  0.00     0.262 A 
HETATM    9  C8  UNL     1       5.754   0.270   0.592  1.00  0.00     0.219 A 
HETATM   10  C9  UNL     1       4.657  -0.646   0.984  1.00  0.00     0.229 A 
HETATM   11  O2  UNL     1       4.971  -1.732   1.418  1.00  0.00    -0.284 OA
HETATM   12  O3  UNL     1       7.020  -0.129   0.730  1.00  0.00    -0.182 OA
HETATM   13  O4  UNL     1       6.510   2.277  -0.238  1.00  0.00    -0.161 OA
HETATM   14  O5  UNL     1       2.270  -2.129   1.639  1.00  0.00    -0.190 OA
ENDROOT
BRANCH   1  15
HETATM   15  O6  UNL     1      -0.539   1.455   0.230  1.00  0.00    -0.303 OA
BRANCH  15  16
HETATM   16  C10 UNL     1      -1.609   0.545  -0.002  1.00  0.00     0.274 C 
HETATM   17  C11 UNL     1      -1.328  -0.357  -1.238  1.00  0.00     0.241 C 
HETATM   18  O7  UNL     1      -0.617   0.367  -2.231  1.00  0.00    -0.215 OA
HETATM   19  C12 UNL     1      -2.627  -0.928  -1.871  1.00  0.00     0.220 C 
HETATM   20  O8  UNL     1      -2.377  -2.232  -2.367  1.00  0.00    -0.218 OA
HETATM   21  C13 UNL     1      -3.760  -0.945  -0.822  1.00  0.00     0.215 C 
HETATM   22  O9  UNL     1      -4.969  -1.408  -1.397  1.00  0.00    -0.218 OA
HETATM   23  C14 UNL     1      -4.004   0.459  -0.199  1.00  0.00     0.184 C 
HETATM   24  O10 UNL     1      -2.820   1.258  -0.201  1.00  0.00    -0.326 OA
BRANCH  23  25
HETATM   25  C15 UNL     1      -4.510   0.373   1.246  1.00  0.00     0.214 C 
HETATM   26  O11 UNL     1      -5.836  -0.102   1.221  1.00  0.00    -0.218 OA
ENDBRANCH  23  25
ENDBRANCH  15  16
ENDBRANCH   1  15
TORSDOF 3
