REMARK  1 active torsions:
REMARK  status: ('A' for Active; 'I' for Inactive)
REMARK    1  A    between atoms: C4_4  and  C9_10 
ROOT
HETATM    1  C1  UNL     1      -1.143  -1.273   0.863  1.00  0.00     0.033 C 
HETATM    2  C2  UNL     1      -1.065   0.272   0.687  1.00  0.00     0.063 C 
HETATM    3  C3  UNL     1      -0.029   0.906  -0.279  1.00  0.00     0.182 C 
HETATM    4  C4  UNL     1       1.480   0.693   0.016  1.00  0.00     0.155 C 
HETATM    5  C5  UNL     1       2.010  -0.730  -0.250  1.00  0.00     0.036 C 
HETATM    6  C6  UNL     1       1.367  -1.869   0.562  1.00  0.00     0.033 C 
HETATM    7  C7  UNL     1      -0.100  -2.228   0.232  1.00  0.00     0.127 C 
HETATM    8  C8  UNL     1      -0.408  -3.631   0.775  1.00  0.00     0.033 C 
HETATM    9  O1  UNL     1      -0.272  -2.322  -1.168  1.00  0.00    -0.226 OA
HETATM   10  O2  UNL     1       1.728   1.010   1.373  1.00  0.00    -0.223 OA
HETATM   11  O3  UNL     1      -0.305   0.561  -1.623  1.00  0.00    -0.221 OA
HETATM   12  C12 UNL     1      -2.526   0.713   0.392  1.00  0.00     0.129 C 
HETATM   13  C13 UNL     1      -3.113  -0.500  -0.322  1.00  0.00     0.031 C 
HETATM   14  C14 UNL     1      -2.592  -1.660   0.510  1.00  0.00     0.005 C 
HETATM   15  C15 UNL     1      -2.734   1.977  -0.438  1.00  0.00     0.033 C 
HETATM   16  O4  UNL     1      -3.225   0.924   1.609  1.00  0.00    -0.226 OA
ENDROOT
BRANCH   4  17
HETATM   17  C9  UNL     1       2.326   1.699  -0.776  1.00  0.00     0.031 C 
HETATM   18  C10 UNL     1       1.898   3.149  -0.537  1.00  0.00     0.003 C 
HETATM   19  C11 UNL     1       3.828   1.488  -0.582  1.00  0.00     0.003 C 
ENDBRANCH   4  17
TORSDOF 1
