REMARK  1 active torsions:
REMARK  status: ('A' for Active; 'I' for Inactive)
REMARK    1  A    between atoms: C5_5  and  C6_6 
ROOT
HETATM    1  C1  UNL     1       3.481  -0.996  -0.348  1.00  0.00     0.026 C 
HETATM    2  C2  UNL     1       2.055  -0.557  -0.129  1.00  0.00    -0.044 C 
HETATM    3  C3  UNL     1       1.737   0.746  -0.010  1.00  0.00    -0.009 C 
HETATM    4  C4  UNL     1       0.336   1.176   0.158  1.00  0.00    -0.005 C 
HETATM    5  C5  UNL     1      -0.691   0.328  -0.063  1.00  0.00    -0.026 C 
HETATM    6  C9  UNL     1      -0.392  -1.080  -0.541  1.00  0.00     0.030 C 
HETATM    7  C10 UNL     1       0.967  -1.605  -0.039  1.00  0.00     0.026 C 
ENDROOT
BRANCH   5   8
HETATM    8  C6  UNL     1      -2.088   0.740   0.146  1.00  0.00    -0.026 C 
HETATM    9  C7  UNL     1      -2.435   1.814   1.143  1.00  0.00     0.030 C 
HETATM   10  C8  UNL     1      -3.082   0.168  -0.551  1.00  0.00    -0.005 C 
ENDBRANCH   5   8
TORSDOF 1
