REMARK  5 active torsions:
REMARK  status: ('A' for Active; 'I' for Inactive)
REMARK    1  A    between atoms: C7_8  and  O5_16 
REMARK    2  A    between atoms: C9_11  and  C10_12 
REMARK    3  A    between atoms: C10_12  and  O4_14 
REMARK    4  A    between atoms: O5_16  and  C12_17 
REMARK    5  A    between atoms: C16_21  and  C17_23 
ROOT
HETATM    1  C1  UNL     1      -3.311   1.268  -0.189  1.00  0.00     0.001 C 
HETATM    2  C2  UNL     1      -2.834  -0.090   0.320  1.00  0.00     0.015 C 
HETATM    3  C3  UNL     1      -3.949  -0.824   1.064  1.00  0.00     0.068 C 
HETATM    4  C4  UNL     1      -3.223  -1.732   2.012  1.00  0.00     0.182 C 
HETATM    5  O1  UNL     1      -3.748  -2.631   2.629  1.00  0.00    -0.293 OA
HETATM    6  C5  UNL     1      -1.764  -1.365   2.080  1.00  0.00     0.207 C 
HETATM    7  C6  UNL     1      -1.719   0.010   1.381  1.00  0.00     0.096 C 
HETATM    8  C7  UNL     1      -0.299   0.242   0.846  1.00  0.00     0.245 C 
HETATM    9  O2  UNL     1       0.102  -0.812  -0.035  1.00  0.00    -0.304 OA
HETATM   10  C8  UNL     1      -0.076  -2.072   0.396  1.00  0.00     0.123 C 
HETATM   11  C9  UNL     1      -0.908  -2.422   1.398  1.00  0.00     0.099 C 
HETATM   12  O11 UNL     1      -1.355  -1.219   3.428  1.00  0.00    -0.213 OA
ENDROOT
BRANCH   8  13
HETATM   13  O5  UNL     1      -0.225   1.479   0.170  1.00  0.00    -0.304 OA
BRANCH  13  14
HETATM   14  C12 UNL     1       1.094   1.840  -0.189  1.00  0.00     0.272 C 
HETATM   15  C13 UNL     1       1.164   3.344  -0.557  1.00  0.00     0.241 C 
HETATM   16  C14 UNL     1       2.563   3.719  -1.100  1.00  0.00     0.220 C 
HETATM   17  O10 UNL     1       0.885   4.123   0.596  1.00  0.00    -0.215 OA
HETATM   18  C15 UNL     1       2.977   2.731  -2.213  1.00  0.00     0.215 C 
HETATM   19  O9  UNL     1       2.539   5.041  -1.615  1.00  0.00    -0.218 OA
HETATM   20  C16 UNL     1       2.818   1.264  -1.752  1.00  0.00     0.184 C 
HETATM   21  O8  UNL     1       4.328   2.951  -2.572  1.00  0.00    -0.218 OA
HETATM   22  O6  UNL     1       1.486   1.051  -1.305  1.00  0.00    -0.326 OA
BRANCH  20  23
HETATM   23  C17 UNL     1       3.072   0.254  -2.875  1.00  0.00     0.214 C 
HETATM   24  O7  UNL     1       3.068  -1.039  -2.315  1.00  0.00    -0.218 OA
ENDBRANCH  20  23
ENDBRANCH  13  14
ENDBRANCH   8  13
BRANCH  11  25
HETATM   25  C10 UNL     1      -1.006  -3.828   1.834  1.00  0.00     0.297 C 
HETATM   26  O3  UNL     1      -1.301  -4.096   2.977  1.00  0.00    -0.259 OA
BRANCH  25  27
HETATM   27  O4  UNL     1      -0.752  -4.740   0.902  1.00  0.00    -0.296 OA
HETATM   28  C11 UNL     1      -0.857  -6.066   1.398  1.00  0.00     0.185 C 
ENDBRANCH  25  27
ENDBRANCH  11  25
TORSDOF 5
