REMARK  8 active torsions:
REMARK  status: ('A' for Active; 'I' for Inactive)
REMARK    1  A    between atoms: C4_4  and  O5_20 
REMARK    2  A    between atoms: C5_5  and  C7_7 
REMARK    3  A    between atoms: C7_7  and  O1_8 
REMARK    4  A    between atoms: O1_8  and  C8_9 
REMARK    5  A    between atoms: C8_9  and  C9_10 
REMARK    6  A    between atoms: C10_11  and  O3_17 
REMARK    7  A    between atoms: O5_20  and  C16_21 
REMARK    8  A    between atoms: C17_23  and  C21_30 
ROOT
HETATM    1  C1  UNL     1       1.627  -2.477   3.668  1.00  0.00     0.131 A 
HETATM    2  C2  UNL     1       0.227  -2.387   3.735  1.00  0.00     0.029 A 
HETATM    3  C3  UNL     1      -0.463  -1.492   2.899  1.00  0.00     0.026 A 
HETATM    4  C4  UNL     1       0.242  -0.684   1.990  1.00  0.00     0.095 A 
HETATM    5  C5  UNL     1       1.647  -0.772   1.924  1.00  0.00     0.032 A 
HETATM    6  C6  UNL     1       2.336  -1.668   2.762  1.00  0.00     0.028 A 
HETATM    7  O11 UNL     1       2.275  -3.315   4.451  1.00  0.00    -0.190 OA
ENDROOT
BRANCH   5   8
HETATM    8  C7  UNL     1       2.408   0.078   0.969  1.00  0.00     0.181 C 
BRANCH   8   9
HETATM    9  O1  UNL     1       2.246  -0.428  -0.348  1.00  0.00    -0.293 OA
BRANCH   9  10
HETATM   10  C8  UNL     1       2.932   0.273  -1.246  1.00  0.00     0.300 C 
HETATM   11  O4  UNL     1       3.615   1.232  -0.975  1.00  0.00    -0.259 OA
BRANCH  10  12
HETATM   12  C9  UNL     1       2.807  -0.207  -2.658  1.00  0.00     0.111 A 
HETATM   13  C10 UNL     1       3.502   0.455  -3.691  1.00  0.00     0.101 A 
HETATM   14  C11 UNL     1       3.381   0.002  -5.016  1.00  0.00     0.025 A 
HETATM   15  C12 UNL     1       2.572  -1.108  -5.313  1.00  0.00     0.004 A 
HETATM   16  C13 UNL     1       1.881  -1.766  -4.283  1.00  0.00     0.028 A 
HETATM   17  C14 UNL     1       1.994  -1.320  -2.955  1.00  0.00     0.138 A 
HETATM   18  O2  UNL     1       1.340  -1.949  -1.998  1.00  0.00    -0.190 OA
BRANCH  13  19
HETATM   19  O3  UNL     1       4.266   1.498  -3.428  1.00  0.00    -0.328 OA
HETATM   20  C15 UNL     1       5.086   2.004  -4.471  1.00  0.00     0.181 C 
ENDBRANCH  13  19
ENDBRANCH  10  12
ENDBRANCH   9  10
ENDBRANCH   8   9
ENDBRANCH   5   8
BRANCH   4  21
HETATM   21  O5  UNL     1      -0.414   0.152   1.211  1.00  0.00    -0.304 OA
BRANCH  21  22
HETATM   22  C16 UNL     1      -1.678   0.625   1.658  1.00  0.00     0.274 C 
HETATM   23  O6  UNL     1      -2.691  -0.258   1.195  1.00  0.00    -0.326 OA
HETATM   24  C17 UNL     1      -4.012   0.072   1.611  1.00  0.00     0.184 C 
HETATM   25  C18 UNL     1      -4.389   1.469   1.065  1.00  0.00     0.215 C 
HETATM   26  C19 UNL     1      -3.352   2.535   1.477  1.00  0.00     0.220 C 
HETATM   27  O9  UNL     1      -5.666   1.820   1.565  1.00  0.00    -0.218 OA
HETATM   28  C20 UNL     1      -1.934   2.047   1.111  1.00  0.00     0.241 C 
HETATM   29  O8  UNL     1      -3.627   3.758   0.809  1.00  0.00    -0.218 OA
HETATM   30  O7  UNL     1      -0.963   2.924   1.652  1.00  0.00    -0.215 OA
BRANCH  24  31
HETATM   31  C21 UNL     1      -4.932  -1.037   1.094  1.00  0.00     0.214 C 
HETATM   32  O10 UNL     1      -4.596  -2.229   1.770  1.00  0.00    -0.218 OA
ENDBRANCH  24  31
ENDBRANCH  21  22
ENDBRANCH   4  21
TORSDOF 8
