REMARK  0 active torsions:
REMARK  status: ('A' for Active; 'I' for Inactive)
ROOT
HETATM    1  C1  UNL     1      -3.645   2.029  -0.142  1.00  0.00     0.133 A 
HETATM    2  C2  UNL     1      -2.531   2.662  -0.740  1.00  0.00     0.027 A 
HETATM    3  C3  UNL     1      -1.371   1.912  -1.043  1.00  0.00     0.000 A 
HETATM    4  C4  UNL     1      -1.311   0.525  -0.740  1.00  0.00     0.006 A 
HETATM    5  C5  UNL     1      -2.434  -0.104  -0.131  1.00  0.00     0.093 A 
HETATM    6  C6  UNL     1      -3.596   0.650   0.156  1.00  0.00     0.051 A 
HETATM    7  O1  UNL     1      -2.430  -1.418   0.172  1.00  0.00    -0.328 OA
HETATM    8  C7  UNL     1      -1.197  -2.137   0.260  1.00  0.00     0.180 C 
HETATM    9  C8  UNL     1      -0.270  -1.815  -0.930  1.00  0.00     0.166 C 
HETATM   10  C9  UNL     1      -0.094  -0.268  -1.084  1.00  0.00     0.077 C 
HETATM   11  C10 UNL     1       1.123   0.004  -0.215  1.00  0.00    -0.018 A 
HETATM   12  C11 UNL     1       1.824  -1.192   0.037  1.00  0.00    -0.021 A 
HETATM   13  C12 UNL     1       1.148  -2.371  -0.613  1.00  0.00     0.060 C 
HETATM   14  C13 UNL     1       3.004  -1.158   0.826  1.00  0.00     0.025 A 
HETATM   15  C14 UNL     1       3.492   0.049   1.365  1.00  0.00     0.156 A 
HETATM   16  C15 UNL     1       2.795   1.248   1.117  1.00  0.00     0.156 A 
HETATM   17  C16 UNL     1       1.625   1.219   0.332  1.00  0.00     0.025 A 
HETATM   18  O2  UNL     1       3.240   2.408   1.621  1.00  0.00    -0.188 OA
HETATM   19  O3  UNL     1       4.607   0.053   2.110  1.00  0.00    -0.188 OA
HETATM   20  O4  UNL     1      -0.791  -2.397  -2.111  1.00  0.00    -0.222 OA
HETATM   21  O5  UNL     1      -4.746   2.740   0.137  1.00  0.00    -0.190 OA
ENDROOT
TORSDOF 0
