REMARK  7 active torsions:
REMARK  status: ('A' for Active; 'I' for Inactive)
REMARK    1  A    between atoms: C4_4  and  C8_10 
REMARK    2  A    between atoms: C8_10  and  C9_11 
REMARK    3  A    between atoms: C9_11  and  C10_12 
REMARK    4  A    between atoms: C10_12  and  O5_24 
REMARK    5  A    between atoms: C11_13  and  O4_22 
REMARK    6  A    between atoms: C14_16  and  C16_18 
REMARK    7  A    between atoms: C16_18  and  C17_19 
ROOT
HETATM    1  C10 UNL     1       1.027   0.150  -0.248  1.00  0.00     0.150 A 
HETATM    2  C11 UNL     1       0.901  -0.109  -1.745  1.00  0.00     0.103 A 
HETATM    3  C12 UNL     1       1.152   0.864  -2.644  1.00  0.00     0.064 A 
HETATM    4  C13 UNL     1       1.565   2.214  -2.239  1.00  0.00     0.194 A 
HETATM    5  C14 UNL     1       1.737   2.502  -0.807  1.00  0.00     0.020 A 
HETATM    6  C15 UNL     1       1.493   1.551   0.116  1.00  0.00     0.006 A 
HETATM    7  O3  UNL     1       1.759   3.068  -3.073  1.00  0.00    -0.287 OA
ENDROOT
BRANCH   1   8
HETATM    8  C9  UNL     1      -0.303  -0.145   0.448  1.00  0.00     0.039 C 
HETATM    9  C21 UNL     1      -0.436   0.569   1.793  1.00  0.00     0.004 C 
BRANCH   8  10
HETATM   10  C8  UNL     1      -0.601  -1.642   0.542  1.00  0.00     0.029 C 
BRANCH  10  11
HETATM   11  C4  UNL     1      -2.036  -1.898   0.740  1.00  0.00    -0.020 A 
HETATM   12  C3  UNL     1      -2.946  -1.707  -0.319  1.00  0.00    -0.002 A 
HETATM   13  C2  UNL     1      -4.318  -1.958  -0.105  1.00  0.00     0.026 A 
HETATM   14  C1  UNL     1      -4.799  -2.397   1.156  1.00  0.00     0.119 A 
HETATM   15  C6  UNL     1      -3.897  -2.586   2.207  1.00  0.00     0.119 A 
HETATM   16  O2  UNL     1      -6.029  -2.689   1.580  1.00  0.00    -0.300 OA
HETATM   17  C5  UNL     1      -2.516  -2.336   1.994  1.00  0.00     0.022 A 
HETATM   18  O1  UNL     1      -4.565  -2.996   3.286  1.00  0.00    -0.300 OA
HETATM   19  C7  UNL     1      -5.971  -3.088   2.967  1.00  0.00     0.304 A 
ENDBRANCH  10  11
ENDBRANCH   8  10
ENDBRANCH   1   8
BRANCH   1  20
HETATM   20  O5  UNL     1       1.966  -0.764   0.278  1.00  0.00    -0.346 OA
HETATM   21  C20 UNL     1       3.288  -0.502  -0.134  1.00  0.00     0.175 C 
ENDBRANCH   1  20
BRANCH   2  22
HETATM   22  O4  UNL     1       0.536  -1.311  -2.187  1.00  0.00    -0.330 OA
HETATM   23  C19 UNL     1       1.570  -1.957  -2.915  1.00  0.00     0.181 C 
ENDBRANCH   2  22
BRANCH   5  24
HETATM   24  C16 UNL     1       2.191   3.869  -0.364  1.00  0.00     0.055 C 
BRANCH  24  25
HETATM   25  C17 UNL     1       3.694   3.952  -0.364  1.00  0.00    -0.021 C 
HETATM   26  C18 UNL     1       4.269   5.165  -0.364  1.00  0.00    -0.005 C 
ENDBRANCH  24  25
ENDBRANCH   5  24
TORSDOF 7
