REMARK  7 active torsions:
REMARK  status: ('A' for Active; 'I' for Inactive)
REMARK    1  A    between atoms: O1_1  and  C1_2 
REMARK    2  A    between atoms: O1_1  and  C16_22 
REMARK    3  A    between atoms: C1_2  and  C2_3 
REMARK    4  A    between atoms: C1_2  and  C6_9 
REMARK    5  A    between atoms: C2_3  and  C3_5 
REMARK    6  A    between atoms: C7_10  and  O4_11 
REMARK    7  A    between atoms: C16_22  and  C17_24 
ROOT
HETATM    1  C1  UNL     1       0.225  -0.633  -0.824  1.00  0.00     0.181 C 
ENDROOT
BRANCH   1   2
HETATM    2  O1  UNL     1       1.023  -0.574   0.350  1.00  0.00    -0.294 OA
BRANCH   2   3
HETATM    3  C16 UNL     1       0.469  -1.223   1.371  1.00  0.00     0.292 C 
HETATM    4  O7  UNL     1      -0.574  -1.828   1.297  1.00  0.00    -0.260 OA
BRANCH   3   5
HETATM    5  C17 UNL     1       1.209  -1.166   2.637  1.00  0.00     0.037 C 
HETATM    6  C18 UNL     1       0.680  -1.848   3.871  1.00  0.00     0.036 C 
HETATM    7  C19 UNL     1       2.375  -0.506   2.721  1.00  0.00    -0.025 C 
HETATM    8  C20 UNL     1       3.092  -0.479   4.043  1.00  0.00     0.030 C 
ENDBRANCH   3   5
ENDBRANCH   2   3
ENDBRANCH   1   2
BRANCH   1   9
HETATM    9  C2  UNL     1       1.033  -0.117  -2.016  1.00  0.00     0.212 C 
HETATM   10  O2  UNL     1       0.160   0.021  -3.113  1.00  0.00    -0.218 OA
BRANCH   9  11
HETATM   11  C3  UNL     1       2.162  -1.066  -2.418  1.00  0.00     0.158 C 
HETATM   12  O3  UNL     1       1.443  -2.236  -2.736  1.00  0.00    -0.223 OA
HETATM   13  C4  UNL     1       2.902  -0.605  -3.674  1.00  0.00     0.036 C 
HETATM   14  C5  UNL     1       3.107  -1.385  -1.260  1.00  0.00     0.036 C 
ENDBRANCH   9  11
ENDBRANCH   1   9
BRANCH   1  15
HETATM   15  C6  UNL     1      -1.004   0.152  -0.623  1.00  0.00     0.030 A 
HETATM   16  C7  UNL     1      -0.932   1.480  -0.127  1.00  0.00     0.095 A 
HETATM   17  C9  UNL     1      -2.115   2.232   0.067  1.00  0.00     0.049 A 
HETATM   18  C10 UNL     1      -3.375   1.664  -0.236  1.00  0.00     0.105 A 
HETATM   19  O5  UNL     1      -4.506   2.381  -0.053  1.00  0.00    -0.273 OA
HETATM   20  C14 UNL     1      -3.441   0.334  -0.730  1.00  0.00     0.023 A 
HETATM   21  C11 UNL     1      -5.736   1.893  -0.320  1.00  0.00     0.300 A 
HETATM   22  O6  UNL     1      -6.740   2.543  -0.152  1.00  0.00    -0.259 OA
HETATM   23  C12 UNL     1      -5.871   0.512  -0.838  1.00  0.00     0.069 A 
HETATM   24  C13 UNL     1      -4.774  -0.244  -1.039  1.00  0.00     0.007 A 
HETATM   25  C15 UNL     1      -2.260  -0.422  -0.926  1.00  0.00     0.002 A 
BRANCH  16  26
HETATM   26  O4  UNL     1       0.256   2.031   0.164  1.00  0.00    -0.328 OA
HETATM   27  C8  UNL     1       0.273   3.381   0.606  1.00  0.00     0.181 C 
ENDBRANCH  16  26
ENDBRANCH   1  15
TORSDOF 7
