REMARK  2 active torsions:
REMARK  status: ('A' for Active; 'I' for Inactive)
REMARK    1  A    between atoms: C1_1  and  O5_29 
REMARK    2  A    between atoms: C2_2  and  O4_27 
ROOT
HETATM    1  C1  UNL     1      -1.795   0.125  -2.680  1.00  0.00     0.116 C 
HETATM    2  C2  UNL     1      -1.859   1.539  -2.699  1.00  0.00     0.118 C 
HETATM    3  C3  UNL     1      -1.473   2.271  -1.557  1.00  0.00     0.043 C 
HETATM    4  C4  UNL     1      -1.072   1.539  -0.418  1.00  0.00     0.061 C 
HETATM    5  C5  UNL     1      -1.176   0.129  -0.262  1.00  0.00     0.003 C 
HETATM    6  C6  UNL     1      -1.439  -0.557  -1.486  1.00  0.00     0.024 C 
HETATM    7  C7  UNL     1      -1.031  -0.338   1.234  1.00  0.00     0.088 C 
HETATM    8  C8  UNL     1      -0.176   0.900   1.713  1.00  0.00     0.100 C 
HETATM    9  N1  UNL     1      -0.361   1.994   0.777  1.00  0.00    -0.301 N 
HETATM   10  C9  UNL     1       0.453   3.164   0.730  1.00  0.00     0.240 C 
HETATM   11  C10 UNL     1       1.758   2.963   1.523  1.00  0.00     0.118 C 
HETATM   12  C11 UNL     1       2.336   1.607   0.996  1.00  0.00     0.133 C 
HETATM   13  C12 UNL     1       1.297   0.517   1.336  1.00  0.00     0.054 C 
HETATM   14  C13 UNL     1       1.842  -0.713   2.080  1.00  0.00     0.031 C 
HETATM   15  C14 UNL     1       0.840  -1.289   3.008  1.00  0.00     0.061 C 
HETATM   16  C15 UNL     1      -0.353  -1.514   2.101  1.00  0.00     0.185 C 
HETATM   17  N2  UNL     1      -0.205  -2.772   1.305  1.00  0.00     0.080 N 
HETATM   18  C16 UNL     1      -1.727  -2.608   0.937  1.00  0.00     0.292 C 
HETATM   19  C17 UNL     1      -2.320  -1.195   1.348  1.00  0.00     0.056 C 
HETATM   20  C18 UNL     1       1.145  -2.652   0.476  1.00  0.00     0.314 C 
HETATM   21  C19 UNL     1       2.186  -1.596   0.924  1.00  0.00    -0.001 C 
HETATM   22  C20 UNL     1       3.338  -1.256   0.293  1.00  0.00     0.020 C 
HETATM   23  C21 UNL     1       4.178   0.021   0.603  1.00  0.00     0.116 C 
HETATM   24  O1  UNL     1       3.647   1.156   1.359  1.00  0.00    -0.331 OA
HETATM   25  O2  UNL     1      -0.076  -3.893   2.174  1.00  0.00    -0.057 OA
HETATM   26  O3  UNL     1       0.201   4.143   0.066  1.00  0.00    -0.272 OA
ENDROOT
BRANCH   1  27
HETATM   27  O5  UNL     1      -2.080  -0.574  -3.785  1.00  0.00    -0.326 OA
HETATM   28  C23 UNL     1      -2.031  -1.992  -3.709  1.00  0.00     0.181 C 
ENDBRANCH   1  27
BRANCH   2  29
HETATM   29  O4  UNL     1      -2.256   2.184  -3.805  1.00  0.00    -0.326 OA
HETATM   30  C22 UNL     1      -2.369   3.598  -3.748  1.00  0.00     0.181 C 
ENDBRANCH   2  29
TORSDOF 2
