REMARK  14 active torsions:
REMARK  status: ('A' for Active; 'I' for Inactive)
REMARK    1  A    between atoms: C3_3  and  C14_21 
REMARK    2  A    between atoms: C5_5  and  O7_19 
REMARK    3  A    between atoms: C6_6  and  O1_7 
REMARK    4  A    between atoms: O1_7  and  C7_8 
REMARK    5  A    between atoms: C11_15  and  C12_17 
REMARK    6  A    between atoms: C14_21  and  O8_22 
REMARK    7  A    between atoms: O8_22  and  C15_23 
REMARK    8  A    between atoms: C15_23  and  C16_24 
REMARK    9  A    between atoms: C16_24  and  C17_25 
REMARK   10  A    between atoms: C18_26  and  C29_46 
REMARK   11  A    between atoms: C19_27  and  O12_34 
REMARK   12  A    between atoms: C21_30  and  C22_31 
REMARK   13  A    between atoms: O12_34  and  C23_35 
REMARK   14  A    between atoms: C27_42  and  C28_44 
ROOT
HETATM    1  C15 UNL     1      -1.100   3.041  -1.910  1.00  0.00     0.152 C 
ENDROOT
BRANCH   1   2
HETATM    2  O8  UNL     1       0.018   3.022  -1.033  1.00  0.00    -0.298 OA
BRANCH   2   3
HETATM    3  C14 UNL     1      -0.318   3.299   0.223  1.00  0.00     0.296 C 
HETATM    4  O18 UNL     1      -1.436   3.604   0.568  1.00  0.00    -0.259 OA
BRANCH   3   5
HETATM    5  C3  UNL     1       0.797   3.213   1.213  1.00  0.00     0.065 A 
HETATM    6  C2  UNL     1       0.553   3.480   2.572  1.00  0.00     0.007 A 
HETATM    7  C1  UNL     1       1.604   3.398   3.502  1.00  0.00     0.026 A 
HETATM    8  C6  UNL     1       2.899   3.051   3.078  1.00  0.00     0.119 A 
HETATM    9  C5  UNL     1       3.143   2.785   1.719  1.00  0.00     0.117 A 
HETATM   10  C4  UNL     1       2.092   2.867   0.789  1.00  0.00     0.032 A 
BRANCH   8  11
HETATM   11  O1  UNL     1       3.879   2.977   3.957  1.00  0.00    -0.302 OA
BRANCH  11  12
HETATM   12  C7  UNL     1       4.479   1.707   4.182  1.00  0.00     0.274 C 
HETATM   13  C8  UNL     1       3.490   0.766   4.916  1.00  0.00     0.241 C 
HETATM   14  O2  UNL     1       3.014   1.393   6.096  1.00  0.00    -0.215 OA
HETATM   15  C9  UNL     1       4.160  -0.570   5.299  1.00  0.00     0.220 C 
HETATM   16  O3  UNL     1       4.358  -1.316   4.108  1.00  0.00    -0.218 OA
HETATM   17  C10 UNL     1       5.512  -0.293   6.002  1.00  0.00     0.215 C 
HETATM   18  O4  UNL     1       6.209  -1.502   6.250  1.00  0.00    -0.218 OA
HETATM   19  C11 UNL     1       6.402   0.676   5.190  1.00  0.00     0.184 C 
HETATM   20  O5  UNL     1       5.678   1.873   4.930  1.00  0.00    -0.326 OA
BRANCH  19  21
HETATM   21  C12 UNL     1       7.678   1.082   5.934  1.00  0.00     0.214 C 
HETATM   22  O6  UNL     1       8.481   1.838   5.057  1.00  0.00    -0.218 OA
ENDBRANCH  19  21
ENDBRANCH  11  12
ENDBRANCH   8  11
BRANCH   9  23
HETATM   23  O7  UNL     1       4.354   2.459   1.313  1.00  0.00    -0.326 OA
HETATM   24  C13 UNL     1       4.580   2.338  -0.084  1.00  0.00     0.181 C 
ENDBRANCH   9  23
ENDBRANCH   3   5
ENDBRANCH   2   3
ENDBRANCH   1   2
BRANCH   1  25
HETATM   25  C16 UNL     1      -1.941   1.785  -1.689  1.00  0.00     0.038 C 
BRANCH  25  26
HETATM   26  C17 UNL     1      -3.355   1.912  -2.273  1.00  0.00     0.042 C 
HETATM   27  C18 UNL     1      -4.232   0.682  -1.963  1.00  0.00     0.083 C 
HETATM   28  C19 UNL     1      -3.807  -0.473  -2.893  1.00  0.00     0.246 C 
HETATM   29  O9  UNL     1      -3.951  -0.094  -4.266  1.00  0.00    -0.303 OA
HETATM   30  C20 UNL     1      -3.561   1.143  -4.629  1.00  0.00     0.121 C 
HETATM   31  C21 UNL     1      -3.258   2.139  -3.768  1.00  0.00     0.067 C 
BRANCH  27  32
HETATM   32  C29 UNL     1      -4.186   0.320  -0.496  1.00  0.00    -0.021 C 
HETATM   33  C30 UNL     1      -5.305   0.459   0.234  1.00  0.00    -0.005 C 
ENDBRANCH  27  32
BRANCH  28  34
HETATM   34  O12 UNL     1      -4.602  -1.619  -2.658  1.00  0.00    -0.303 OA
BRANCH  34  35
HETATM   35  C23 UNL     1      -4.176  -2.750  -3.389  1.00  0.00     0.272 C 
HETATM   36  C24 UNL     1      -5.268  -3.861  -3.334  1.00  0.00     0.241 C 
HETATM   37  O13 UNL     1      -6.191  -3.611  -4.383  1.00  0.00    -0.215 OA
HETATM   38  C25 UNL     1      -4.652  -5.287  -3.422  1.00  0.00     0.220 C 
HETATM   39  O14 UNL     1      -5.553  -6.268  -3.914  1.00  0.00    -0.218 OA
HETATM   40  C26 UNL     1      -3.318  -5.285  -4.201  1.00  0.00     0.215 C 
HETATM   41  O15 UNL     1      -3.557  -4.979  -5.566  1.00  0.00    -0.218 OA
HETATM   42  C27 UNL     1      -2.313  -4.248  -3.613  1.00  0.00     0.184 C 
HETATM   43  O16 UNL     1      -2.965  -3.244  -2.838  1.00  0.00    -0.326 OA
BRANCH  42  44
HETATM   44  C28 UNL     1      -1.289  -4.904  -2.682  1.00  0.00     0.214 C 
HETATM   45  O17 UNL     1      -0.271  -3.967  -2.416  1.00  0.00    -0.218 OA
ENDBRANCH  42  44
ENDBRANCH  34  35
ENDBRANCH  28  34
BRANCH  31  46
HETATM   46  C22 UNL     1      -2.836   3.463  -4.258  1.00  0.00     0.209 C 
HETATM   47  O10 UNL     1      -3.289   4.469  -3.766  1.00  0.00    -0.644 OA
HETATM   48  O11 UNL     1      -1.949   3.457  -5.248  1.00  0.00    -0.644 OA
ENDBRANCH  31  46
ENDBRANCH  25  26
ENDBRANCH   1  25
TORSDOF 14
