REMARK  3 active torsions:
REMARK  status: ('A' for Active; 'I' for Inactive)
REMARK    1  A    between atoms: C8_9  and  C10_12 
REMARK    2  A    between atoms: C12_14  and  O5_21 
REMARK    3  A    between atoms: C14_16  and  O3_18 
ROOT
HETATM    1  C1  UNL     1       3.623   2.881  -0.092  1.00  0.00     0.052 A 
HETATM    2  C2  UNL     1       4.912   2.301  -0.119  1.00  0.00     0.135 A 
HETATM    3  C3  UNL     1       5.057   0.892  -0.119  1.00  0.00     0.055 A 
HETATM    4  C4  UNL     1       3.914   0.060  -0.094  1.00  0.00     0.138 A 
HETATM    5  C5  UNL     1       2.619   0.642  -0.066  1.00  0.00     0.087 A 
HETATM    6  C6  UNL     1       2.473   2.057  -0.062  1.00  0.00     0.107 A 
HETATM    7  O1  UNL     1       1.244   2.617  -0.033  1.00  0.00    -0.305 OA
HETATM    8  C7  UNL     1       0.106   1.894  -0.004  1.00  0.00     0.126 A 
HETATM    9  C8  UNL     1       0.106   0.541  -0.008  1.00  0.00     0.064 A 
HETATM   10  C9  UNL     1       1.393  -0.203  -0.041  1.00  0.00     0.201 A 
HETATM   11  O2  UNL     1       1.348  -1.414  -0.043  1.00  0.00    -0.286 OA
HETATM   12  O6  UNL     1       4.070  -1.272  -0.094  1.00  0.00    -0.190 OA
HETATM   13  O7  UNL     1       6.000   3.084  -0.146  1.00  0.00    -0.190 OA
ENDROOT
BRANCH   9  14
HETATM   14  C10 UNL     1      -1.197  -0.197   0.023  1.00  0.00     0.009 A 
HETATM   15  C11 UNL     1      -1.316  -1.383   0.768  1.00  0.00     0.027 A 
HETATM   16  C12 UNL     1      -2.539  -2.078   0.799  1.00  0.00     0.121 A 
HETATM   17  C13 UNL     1      -3.645  -1.582   0.082  1.00  0.00     0.175 A 
HETATM   18  C14 UNL     1      -3.527  -0.395  -0.662  1.00  0.00     0.121 A 
HETATM   19  O4  UNL     1      -4.793  -2.233   0.109  1.00  0.00    -0.186 OA
HETATM   20  C15 UNL     1      -2.303   0.297  -0.689  1.00  0.00     0.027 A 
BRANCH  16  21
HETATM   21  O5  UNL     1      -2.645  -3.190   1.498  1.00  0.00    -0.326 OA
HETATM   22  C17 UNL     1      -1.475  -3.703   2.115  1.00  0.00     0.181 C 
ENDBRANCH  16  21
BRANCH  18  23
HETATM   23  O3  UNL     1      -4.561   0.072  -1.334  1.00  0.00    -0.326 OA
HETATM   24  C16 UNL     1      -4.389   1.275  -2.070  1.00  0.00     0.181 C 
ENDBRANCH  18  23
ENDBRANCH   9  14
TORSDOF 3
