REMARK  2 active torsions:
REMARK  status: ('A' for Active; 'I' for Inactive)
REMARK    1  A    between atoms: C12_14  and  C13_15 
REMARK    2  A    between atoms: C13_15  and  O3_16 
ROOT
HETATM    1  C1  UNL     1      -3.410   1.266  -1.256  1.00  0.00     0.037 C 
HETATM    2  C2  UNL     1      -3.641  -0.256  -1.219  1.00  0.00     0.034 C 
HETATM    3  C3  UNL     1      -2.307  -0.959  -1.242  1.00  0.00     0.040 A 
HETATM    4  C4  UNL     1      -1.572  -1.240  -0.168  1.00  0.00     0.009 A 
HETATM    5  C5  UNL     1      -0.244  -1.766  -0.648  1.00  0.00     0.171 A 
HETATM    6  C6  UNL     1       0.893  -0.838  -0.229  1.00  0.00     0.045 C 
HETATM    7  C7  UNL     1       1.055   0.486  -0.900  1.00  0.00     0.174 C 
HETATM    8  C8  UNL     1      -0.121   1.404  -1.199  1.00  0.00     0.099 C 
HETATM    9  C9  UNL     1      -1.008   1.768   0.008  1.00  0.00     0.125 A 
HETATM   10  C10 UNL     1      -2.588   1.709  -0.033  1.00  0.00     0.141 A 
HETATM   11  O1  UNL     1      -1.836   2.840  -0.336  1.00  0.00    -0.356 OA
HETATM   12  C11 UNL     1      -0.332   2.111   1.330  1.00  0.00     0.033 C 
HETATM   13  O2  UNL     1       2.162   0.854  -1.215  1.00  0.00    -0.291 OA
HETATM   14  C12 UNL     1       1.752  -1.230   0.748  1.00  0.00     0.043 C 
HETATM   15  C15 UNL     1       1.611  -2.570   1.424  1.00  0.00     0.036 C 
HETATM   16  O5  UNL     1      -0.373  -1.828  -2.082  1.00  0.00    -0.292 OA
HETATM   17  C16 UNL     1      -1.590  -1.391  -2.428  1.00  0.00     0.292 A 
HETATM   18  O6  UNL     1      -2.043  -1.344  -3.547  1.00  0.00    -0.259 OA
ENDROOT
BRANCH  14  19
HETATM   19  C13 UNL     1       2.867  -0.389   1.213  1.00  0.00     0.292 C 
HETATM   20  O4  UNL     1       2.674   0.760   1.535  1.00  0.00    -0.260 OA
BRANCH  19  21
HETATM   21  O3  UNL     1       4.061  -0.977   1.248  1.00  0.00    -0.296 OA
HETATM   22  C14 UNL     1       5.082  -0.102   1.701  1.00  0.00     0.185 C 
ENDBRANCH  19  21
ENDBRANCH  14  19
TORSDOF 2
