REMARK  0 active torsions:
REMARK  status: ('A' for Active; 'I' for Inactive)
ROOT
HETATM    1  C1  UNL     1       2.422   1.190   0.162  1.00  0.00     0.134 A 
HETATM    2  C2  UNL     1       3.601   0.438   0.363  1.00  0.00     0.028 A 
HETATM    3  C3  UNL     1       3.533  -0.965   0.490  1.00  0.00     0.002 A 
HETATM    4  C4  UNL     1       2.283  -1.617   0.420  1.00  0.00     0.003 A 
HETATM    5  C5  UNL     1       1.088  -0.877   0.217  1.00  0.00     0.044 A 
HETATM    6  C6  UNL     1      -0.209  -1.619   0.145  1.00  0.00     0.196 A 
HETATM    7  O1  UNL     1      -0.262  -2.824   0.264  1.00  0.00    -0.287 OA
HETATM    8  C7  UNL     1      -1.438  -0.797  -0.082  1.00  0.00     0.042 A 
HETATM    9  C8  UNL     1      -2.696  -1.453  -0.172  1.00  0.00     0.003 A 
HETATM   10  C9  UNL     1      -3.879  -0.715  -0.387  1.00  0.00     0.000 A 
HETATM   11  C10 UNL     1      -3.821   0.690  -0.514  1.00  0.00     0.000 A 
HETATM   12  C11 UNL     1      -2.578   1.354  -0.424  1.00  0.00     0.003 A 
HETATM   13  C12 UNL     1      -1.377   0.621  -0.211  1.00  0.00     0.042 A 
HETATM   14  C13 UNL     1      -0.082   1.367  -0.127  1.00  0.00     0.198 A 
HETATM   15  O2  UNL     1      -0.043   2.574  -0.228  1.00  0.00    -0.286 OA
HETATM   16  C14 UNL     1       1.152   0.543   0.088  1.00  0.00     0.067 A 
HETATM   17  O3  UNL     1       2.529   2.522   0.045  1.00  0.00    -0.190 OA
ENDROOT
TORSDOF 0
