REMARK  5 active torsions:
REMARK  status: ('A' for Active; 'I' for Inactive)
REMARK    1  A    between atoms: C5_5  and  C8_8 
REMARK    2  A    between atoms: C8_8  and  C9_9 
REMARK    3  A    between atoms: C9_9  and  C10_10 
REMARK    4  A    between atoms: C13_13  and  O2_18 
REMARK    5  A    between atoms: C15_15  and  O1_16 
ROOT
HETATM    1  C8  UNL     1      -0.287  -0.658   0.689  1.00  0.00     0.031 C 
ENDROOT
BRANCH   1   2
HETATM    2  C5  UNL     1      -0.930  -2.002   0.697  1.00  0.00    -0.026 A 
HETATM    3  C4  UNL     1      -2.334  -2.113   0.656  1.00  0.00    -0.001 A 
HETATM    4  C3  UNL     1      -2.942  -3.383   0.664  1.00  0.00     0.129 A 
HETATM    5  C18 UNL     1      -3.182  -0.889   0.605  1.00  0.00     0.033 C 
HETATM    6  C2  UNL     1      -2.143  -4.537   0.711  1.00  0.00     0.054 A 
HETATM    7  O3  UNL     1      -4.256  -3.498   0.625  1.00  0.00    -0.190 OA
HETATM    8  C1  UNL     1      -0.742  -4.436   0.752  1.00  0.00     0.129 A 
HETATM    9  C6  UNL     1      -0.135  -3.166   0.744  1.00  0.00    -0.001 A 
HETATM   10  O4  UNL     1      -0.008  -5.530   0.797  1.00  0.00    -0.190 OA
HETATM   11  C7  UNL     1       1.349  -3.057   0.789  1.00  0.00     0.033 C 
ENDBRANCH   1   2
BRANCH   1  12
HETATM   12  C9  UNL     1       0.152  -0.252  -0.717  1.00  0.00     0.033 C 
BRANCH  12  13
HETATM   13  C10 UNL     1       0.838   1.066  -0.717  1.00  0.00     0.001 A 
HETATM   14  C11 UNL     1       2.242   1.119  -0.717  1.00  0.00    -0.000 A 
HETATM   15  C12 UNL     1       2.900   2.361  -0.717  1.00  0.00     0.024 A 
HETATM   16  C13 UNL     1       2.158   3.555  -0.717  1.00  0.00     0.096 A 
HETATM   17  C14 UNL     1       0.752   3.498  -0.717  1.00  0.00     0.048 A 
HETATM   18  C15 UNL     1       0.088   2.260  -0.717  1.00  0.00     0.092 A 
BRANCH  16  19
HETATM   19  O2  UNL     1       2.775   4.719  -0.717  1.00  0.00    -0.328 OA
HETATM   20  C17 UNL     1       4.193   4.721  -0.654  1.00  0.00     0.181 C 
ENDBRANCH  16  19
BRANCH  18  21
HETATM   21  O1  UNL     1      -1.229   2.223  -0.717  1.00  0.00    -0.328 OA
HETATM   22  C16 UNL     1      -1.932   3.457  -0.717  1.00  0.00     0.181 C 
ENDBRANCH  18  21
ENDBRANCH  12  13
ENDBRANCH   1  12
TORSDOF 5
