REMARK  7 active torsions:
REMARK  status: ('A' for Active; 'I' for Inactive)
REMARK    1  A    between atoms: C1_1  and  O13_33 
REMARK    2  A    between atoms: C2_2  and  O3_12 
REMARK    3  A    between atoms: O3_12  and  C10_13 
REMARK    4  A    between atoms: C14_17  and  C15_19 
REMARK    5  A    between atoms: C15_19  and  O5_20 
REMARK    6  A    between atoms: O5_20  and  C16_21 
REMARK    7  A    between atoms: C18_23  and  C20_27 
ROOT
HETATM    1  C10 UNL     1       2.408   0.951  -1.568  1.00  0.00     0.274 C 
HETATM    2  C11 UNL     1       3.793   1.625  -1.484  1.00  0.00     0.241 C 
HETATM    3  C12 UNL     1       4.592   1.113  -0.268  1.00  0.00     0.220 C 
HETATM    4  C13 UNL     1       3.723   1.215   1.006  1.00  0.00     0.215 C 
HETATM    5  C14 UNL     1       2.338   0.559   0.795  1.00  0.00     0.180 C 
HETATM    6  O4  UNL     1       1.711   1.133  -0.344  1.00  0.00    -0.326 OA
HETATM    7  O10 UNL     1       4.373   0.566   2.084  1.00  0.00    -0.218 OA
HETATM    8  O11 UNL     1       5.772   1.885  -0.107  1.00  0.00    -0.218 OA
HETATM    9  O12 UNL     1       4.502   1.350  -2.680  1.00  0.00    -0.215 OA
ENDROOT
BRANCH   1  10
HETATM   10  O3  UNL     1       1.646   1.527  -2.619  1.00  0.00    -0.302 OA
BRANCH  10  11
HETATM   11  C2  UNL     1       0.457   0.982  -2.908  1.00  0.00     0.121 A 
HETATM   12  C1  UNL     1       0.383  -0.344  -3.404  1.00  0.00     0.117 A 
HETATM   13  C6  UNL     1      -0.873  -0.918  -3.707  1.00  0.00     0.028 A 
HETATM   14  C5  UNL     1      -2.053  -0.162  -3.514  1.00  0.00     0.025 A 
HETATM   15  C4  UNL     1      -1.986   1.168  -3.018  1.00  0.00     0.105 A 
HETATM   16  C7  UNL     1      -3.387  -0.740  -3.820  1.00  0.00     0.007 A 
HETATM   17  C3  UNL     1      -0.727   1.736  -2.715  1.00  0.00     0.051 A 
HETATM   18  O1  UNL     1      -3.117   1.887  -2.834  1.00  0.00    -0.273 OA
HETATM   19  C9  UNL     1      -4.348   1.398  -3.102  1.00  0.00     0.300 A 
HETATM   20  C8  UNL     1      -4.483   0.018  -3.619  1.00  0.00     0.069 A 
HETATM   21  O2  UNL     1      -5.350   2.051  -2.934  1.00  0.00    -0.259 OA
BRANCH  12  22
HETATM   22  O13 UNL     1       1.504  -1.057  -3.586  1.00  0.00    -0.326 OA
HETATM   23  C21 UNL     1       1.375  -2.395  -4.043  1.00  0.00     0.181 C 
ENDBRANCH  12  22
ENDBRANCH  10  11
ENDBRANCH   1  10
BRANCH   5  24
HETATM   24  C15 UNL     1       1.389   0.775   1.979  1.00  0.00     0.177 C 
BRANCH  24  25
HETATM   25  O5  UNL     1       0.244  -0.023   1.777  1.00  0.00    -0.326 OA
BRANCH  25  26
HETATM   26  C16 UNL     1      -0.721   0.121   2.799  1.00  0.00     0.270 C 
HETATM   27  C17 UNL     1      -1.982  -0.695   2.508  1.00  0.00     0.241 C 
HETATM   28  C18 UNL     1      -2.578  -0.893   3.932  1.00  0.00     0.217 C 
HETATM   29  O9  UNL     1      -2.834  -0.022   1.596  1.00  0.00    -0.215 OA
HETATM   30  C19 UNL     1      -1.385  -0.623   4.871  1.00  0.00     0.181 C 
HETATM   31  O7  UNL     1      -3.621   0.019   4.238  1.00  0.00    -0.218 OA
HETATM   32  O6  UNL     1      -0.287  -0.447   4.006  1.00  0.00    -0.326 OA
BRANCH  28  33
HETATM   33  C20 UNL     1      -3.137  -2.303   4.106  1.00  0.00     0.218 C 
HETATM   34  O8  UNL     1      -3.533  -2.459   5.449  1.00  0.00    -0.218 OA
ENDBRANCH  28  33
ENDBRANCH  25  26
ENDBRANCH  24  25
ENDBRANCH   5  24
TORSDOF 7
