REMARK  12 active torsions:
REMARK  status: ('A' for Active; 'I' for Inactive)
REMARK    1  A    between atoms: C3_3  and  O8_28 
REMARK    2  A    between atoms: C4_4  and  O7_26 
REMARK    3  A    between atoms: C6_6  and  C7_7 
REMARK    4  A    between atoms: C7_7  and  C8_8 
REMARK    5  A    between atoms: C8_8  and  O1_9 
REMARK    6  A    between atoms: C8_8  and  C19_23 
REMARK    7  A    between atoms: O1_9  and  C9_10 
REMARK    8  A    between atoms: C10_11  and  O4_21 
REMARK    9  A    between atoms: C12_13  and  C15_16 
REMARK   10  A    between atoms: C16_17  and  C17_18 
REMARK   11  A    between atoms: O8_28  and  C21_29 
REMARK   12  A    between atoms: C25_36  and  C26_38 
ROOT
HETATM    1  C1  UNL     1       1.307   0.955   0.537  1.00  0.00     0.000 A 
HETATM    2  C2  UNL     1       0.492   1.959  -0.014  1.00  0.00     0.026 A 
HETATM    3  C3  UNL     1       1.010   2.844  -0.975  1.00  0.00     0.119 A 
HETATM    4  C4  UNL     1       2.352   2.723  -1.387  1.00  0.00     0.116 A 
HETATM    5  C5  UNL     1       3.164   1.719  -0.836  1.00  0.00     0.025 A 
HETATM    6  C6  UNL     1       2.645   0.834   0.125  1.00  0.00     0.012 A 
ENDROOT
BRANCH   6   7
HETATM    7  C7  UNL     1       3.508  -0.227   0.705  1.00  0.00     0.205 C 
HETATM    8  O6  UNL     1       3.635  -0.023   2.096  1.00  0.00    -0.216 OA
BRANCH   7   9
HETATM    9  C8  UNL     1       2.920  -1.619   0.478  1.00  0.00     0.189 C 
BRANCH   9  10
HETATM   10  O1  UNL     1       1.883  -1.855   1.420  1.00  0.00    -0.326 OA
BRANCH  10  11
HETATM   11  C9  UNL     1       1.242  -3.006   1.359  1.00  0.00     0.116 A 
HETATM   12  C10 UNL     1       0.434  -3.309   0.246  1.00  0.00     0.116 A 
HETATM   13  C11 UNL     1      -0.248  -4.537   0.189  1.00  0.00     0.026 A 
HETATM   14  C12 UNL     1      -0.125  -5.463   1.240  1.00  0.00     0.002 A 
HETATM   15  C13 UNL     1       0.682  -5.160   2.350  1.00  0.00     0.002 A 
HETATM   16  C14 UNL     1       1.363  -3.934   2.408  1.00  0.00     0.026 A 
BRANCH  12  17
HETATM   17  O4  UNL     1       0.313  -2.443  -0.742  1.00  0.00    -0.326 OA
HETATM   18  C18 UNL     1      -0.543  -2.781  -1.822  1.00  0.00     0.181 C 
ENDBRANCH  12  17
BRANCH  14  19
HETATM   19  C15 UNL     1      -0.849  -6.768   1.176  1.00  0.00     0.006 C 
HETATM   20  C16 UNL     1      -1.084  -7.432   2.318  1.00  0.00     0.070 C 
BRANCH  20  21
HETATM   21  C17 UNL     1      -1.795  -8.717   2.307  1.00  0.00     0.211 C 
HETATM   22  O2  UNL     1      -2.728  -8.908   3.049  1.00  0.00    -0.644 OA
HETATM   23  O3  UNL     1      -1.340  -9.619   1.439  1.00  0.00    -0.644 OA
ENDBRANCH  20  21
ENDBRANCH  14  19
ENDBRANCH  10  11
ENDBRANCH   9  10
BRANCH   9  24
HETATM   24  C19 UNL     1       3.969  -2.729   0.586  1.00  0.00     0.215 C 
HETATM   25  O5  UNL     1       4.395  -2.805   1.926  1.00  0.00    -0.218 OA
ENDBRANCH   9  24
ENDBRANCH   7   9
ENDBRANCH   6   7
BRANCH   4  26
HETATM   26  O7  UNL     1       2.846   3.549  -2.287  1.00  0.00    -0.326 OA
HETATM   27  C20 UNL     1       2.033   3.885  -3.403  1.00  0.00     0.181 C 
ENDBRANCH   4  26
BRANCH   3  28
HETATM   28  O8  UNL     1       0.240   3.783  -1.486  1.00  0.00    -0.302 OA
BRANCH  28  29
HETATM   29  C21 UNL     1      -0.867   4.229  -0.719  1.00  0.00     0.274 C 
HETATM   30  C22 UNL     1      -1.203   5.695  -1.070  1.00  0.00     0.241 C 
HETATM   31  O9  UNL     1      -0.094   6.529  -0.781  1.00  0.00    -0.215 OA
HETATM   32  C23 UNL     1      -2.473   6.184  -0.338  1.00  0.00     0.220 C 
HETATM   33  O10 UNL     1      -2.226   6.283   1.060  1.00  0.00    -0.218 OA
HETATM   34  C24 UNL     1      -3.607   5.166  -0.608  1.00  0.00     0.215 C 
HETATM   35  O11 UNL     1      -4.773   5.496   0.127  1.00  0.00    -0.218 OA
HETATM   36  C25 UNL     1      -3.176   3.713  -0.287  1.00  0.00     0.184 C 
HETATM   37  O12 UNL     1      -1.988   3.402  -1.010  1.00  0.00    -0.326 OA
BRANCH  36  38
HETATM   38  C26 UNL     1      -4.223   2.676  -0.699  1.00  0.00     0.214 C 
HETATM   39  O13 UNL     1      -3.807   1.414  -0.225  1.00  0.00    -0.218 OA
ENDBRANCH  36  38
ENDBRANCH  28  29
ENDBRANCH   3  28
TORSDOF 12
