REMARK  5 active torsions:
REMARK  status: ('A' for Active; 'I' for Inactive)
REMARK    1  A    between atoms: C1_2  and  C2_3 
REMARK    2  A    between atoms: C2_3  and  O6_12 
REMARK    3  A    between atoms: O6_12  and  C7_13 
REMARK    4  A    between atoms: C7_13  and  C8_14 
REMARK    5  A    between atoms: C8_14  and  C9_15 
ROOT
HETATM    1  C2  UNL     1       0.008  -0.264  -1.213  1.00  0.00     0.250 C 
HETATM    2  C3  UNL     1      -0.789  -1.498  -1.732  1.00  0.00     0.238 C 
HETATM    3  O2  UNL     1      -0.002  -2.676  -1.637  1.00  0.00    -0.215 OA
HETATM    4  C4  UNL     1      -2.123  -1.676  -0.973  1.00  0.00     0.220 C 
HETATM    5  O3  UNL     1      -2.895  -2.731  -1.527  1.00  0.00    -0.218 OA
HETATM    6  C5  UNL     1      -2.922  -0.352  -0.973  1.00  0.00     0.215 C 
HETATM    7  O4  UNL     1      -3.422  -0.051  -2.268  1.00  0.00    -0.218 OA
HETATM    8  C6  UNL     1      -2.037   0.822  -0.502  1.00  0.00     0.180 C 
HETATM    9  O5  UNL     1      -0.826   0.894  -1.256  1.00  0.00    -0.328 OA
ENDROOT
BRANCH   1  10
HETATM   10  C1  UNL     1       1.228   0.047  -2.086  1.00  0.00     0.241 C 
HETATM   11  O1  UNL     1       0.814   0.064  -3.434  1.00  0.00    -0.215 OA
ENDBRANCH   1  10
BRANCH   1  12
HETATM   12  O6  UNL     1       0.492  -0.477   0.104  1.00  0.00    -0.331 OA
BRANCH  12  13
HETATM   13  C7  UNL     1       1.215   0.619   0.613  1.00  0.00     0.145 C 
BRANCH  13  14
HETATM   14  C8  UNL     1       1.467   0.377   2.102  1.00  0.00     0.032 C 
BRANCH  14  15
HETATM   15  C9  UNL     1       2.250   1.512   2.762  1.00  0.00     0.003 C 
HETATM   16  C10 UNL     1       2.502   1.269   4.250  1.00  0.00     0.000 C 
ENDBRANCH  14  15
ENDBRANCH  13  14
ENDBRANCH  12  13
ENDBRANCH   1  12
TORSDOF 5
