REMARK  1 active torsions:
REMARK  status: ('A' for Active; 'I' for Inactive)
REMARK    1  A    between atoms: C12_13  and  C13_14 
ROOT
HETATM    1  C1  UNL     1      -3.150   0.174  -0.953  1.00  0.00     0.012 C 
HETATM    2  C2  UNL     1      -4.674  -0.002  -0.783  1.00  0.00     0.070 C 
HETATM    3  C3  UNL     1      -5.041  -1.158   0.119  1.00  0.00     0.172 C 
HETATM    4  O1  UNL     1      -6.180  -1.559   0.184  1.00  0.00    -0.291 OA
HETATM    5  C4  UNL     1      -3.981  -1.799   0.914  1.00  0.00     0.029 C 
HETATM    6  C5  UNL     1      -2.738  -1.279   1.002  1.00  0.00    -0.042 C 
HETATM    7  C6  UNL     1      -1.627  -2.051   1.664  1.00  0.00     0.022 C 
HETATM    8  C7  UNL     1      -0.570  -2.344   0.594  1.00  0.00     0.004 C 
HETATM    9  C8  UNL     1      -0.084  -1.063  -0.139  1.00  0.00     0.001 C 
HETATM   10  C9  UNL     1       1.412  -0.848   0.191  1.00  0.00     0.000 C 
HETATM   11  C10 UNL     1       2.318  -1.838  -0.541  1.00  0.00     0.000 C 
HETATM   12  C11 UNL     1       3.676  -1.164  -0.416  1.00  0.00     0.007 C 
HETATM   13  C12 UNL     1       3.340   0.256  -0.857  1.00  0.00     0.058 C 
HETATM   14  C15 UNL     1       1.992   0.545  -0.156  1.00  0.00     0.006 C 
HETATM   15  C16 UNL     1       2.191   1.314   1.154  1.00  0.00     0.000 C 
HETATM   16  C17 UNL     1       1.061   1.305  -1.107  1.00  0.00     0.000 C 
HETATM   17  C18 UNL     1      -0.361   1.457  -0.533  1.00  0.00     0.000 C 
HETATM   18  C19 UNL     1      -0.838   0.228   0.281  1.00  0.00     0.004 C 
HETATM   19  C20 UNL     1      -2.393   0.074   0.395  1.00  0.00     0.016 C 
HETATM   20  C21 UNL     1      -2.916   1.164   1.338  1.00  0.00     0.004 C 
ENDROOT
BRANCH  13  21
HETATM   21  C13 UNL     1       4.449   1.244  -0.580  1.00  0.00     0.151 C 
HETATM   22  O2  UNL     1       5.365   0.959   0.156  1.00  0.00    -0.296 OA
HETATM   23  C14 UNL     1       4.381   2.590  -1.248  1.00  0.00     0.072 C 
ENDBRANCH  13  21
TORSDOF 1
