REMARK  6 active torsions:
REMARK  status: ('A' for Active; 'I' for Inactive)
REMARK    1  A    between atoms: C2_3  and  C15_17 
REMARK    2  A    between atoms: C6_7  and  C7_8 
REMARK    3  A    between atoms: C7_8  and  C8_9 
REMARK    4  A    between atoms: C8_9  and  C9_11 
REMARK    5  A    between atoms: C15_17  and  C16_18 
REMARK    6  A    between atoms: C16_18  and  C17_20 
ROOT
HETATM    1  C1  UNL     1      -0.215   0.764   0.775  1.00  0.00     0.285 C 
HETATM    2  N1  UNL     1      -0.563   0.643  -0.643  1.00  0.00     0.136 N 
HETATM    3  C2  UNL     1      -0.266   1.883  -1.379  1.00  0.00     0.227 C 
HETATM    4  C3  UNL     1      -1.155   3.043  -0.875  1.00  0.00     0.034 C 
HETATM    5  C4  UNL     1      -2.571   2.584  -0.484  1.00  0.00     0.004 C 
HETATM    6  C5  UNL     1      -2.942   1.275  -1.195  1.00  0.00     0.034 C 
HETATM    7  C6  UNL     1      -1.936   0.137  -0.901  1.00  0.00     0.227 C 
ENDROOT
BRANCH   3   8
HETATM    8  C15 UNL     1       1.228   2.219  -1.313  1.00  0.00     0.102 C 
BRANCH   8   9
HETATM    9  C16 UNL     1       2.097   1.037  -1.654  1.00  0.00     0.175 C 
HETATM   10  O2  UNL     1       1.629   0.045  -2.162  1.00  0.00    -0.291 OA
BRANCH   9  11
HETATM   11  C17 UNL     1       3.556   1.127  -1.350  1.00  0.00     0.035 A 
HETATM   12  C18 UNL     1       4.389   0.012  -1.551  1.00  0.00     0.003 A 
HETATM   13  C19 UNL     1       5.762   0.096  -1.264  1.00  0.00     0.000 A 
HETATM   14  C20 UNL     1       6.305   1.297  -0.776  1.00  0.00     0.000 A 
HETATM   15  C21 UNL     1       5.474   2.412  -0.572  1.00  0.00     0.000 A 
HETATM   16  C22 UNL     1       4.101   2.328  -0.860  1.00  0.00     0.003 A 
ENDBRANCH   9  11
ENDBRANCH   8   9
ENDBRANCH   3   8
BRANCH   7  17
HETATM   17  C7  UNL     1      -2.430  -0.783   0.228  1.00  0.00     0.102 C 
BRANCH  17  18
HETATM   18  C8  UNL     1      -1.637  -2.059   0.318  1.00  0.00     0.175 C 
HETATM   19  O1  UNL     1      -0.723  -2.277  -0.440  1.00  0.00    -0.291 OA
BRANCH  18  20
HETATM   20  C9  UNL     1      -2.014  -3.047   1.373  1.00  0.00     0.035 A 
HETATM   21  C10 UNL     1      -1.281  -4.240   1.516  1.00  0.00     0.003 A 
HETATM   22  C11 UNL     1      -1.637  -5.170   2.508  1.00  0.00     0.000 A 
HETATM   23  C12 UNL     1      -2.723  -4.910   3.359  1.00  0.00     0.000 A 
HETATM   24  C13 UNL     1      -3.455  -3.719   3.219  1.00  0.00     0.000 A 
HETATM   25  C14 UNL     1      -3.102  -2.787   2.226  1.00  0.00     0.003 A 
ENDBRANCH  18  20
ENDBRANCH  17  18
ENDBRANCH   7  17
TORSDOF 6
