REMARK  9 active torsions:
REMARK  status: ('A' for Active; 'I' for Inactive)
REMARK    1  A    between atoms: C2_2  and  O11_37 
REMARK    2  A    between atoms: C12_14  and  O8_27 
REMARK    3  A    between atoms: C14_16  and  C17_21 
REMARK    4  A    between atoms: C17_21  and  O6_23 
REMARK    5  A    between atoms: O8_27  and  C20_28 
REMARK    6  A    between atoms: C20_28  and  C21_30 
REMARK    7  A    between atoms: C21_30  and  C22_31 
REMARK    8  A    between atoms: O11_37  and  C27_38 
REMARK    9  A    between atoms: C31_42  and  C32_44 
ROOT
HETATM    1  C1  UNL     1      -3.287   0.063  -0.611  1.00  0.00     0.225 C 
HETATM    2  C2  UNL     1      -3.428  -1.182   0.168  1.00  0.00     0.126 C 
HETATM    3  C3  UNL     1      -2.344  -1.820   0.652  1.00  0.00    -0.019 C 
HETATM    4  C4  UNL     1      -0.943  -1.285   0.387  1.00  0.00     0.026 C 
HETATM    5  C5  UNL     1      -0.910   0.270   0.381  1.00  0.00     0.042 C 
HETATM    6  C6  UNL     1      -1.932   0.742  -0.705  1.00  0.00     0.215 C 
HETATM    7  O1  UNL     1      -2.135   2.143  -0.641  1.00  0.00    -0.215 OA
HETATM    8  C7  UNL     1       0.557   0.762   0.053  1.00  0.00     0.041 C 
HETATM    9  C8  UNL     1       1.648   0.051   0.914  1.00  0.00     0.061 C 
HETATM   10  C9  UNL     1       1.529  -1.484   0.910  1.00  0.00     0.127 C 
HETATM   11  C10 UNL     1       0.117  -1.879   1.342  1.00  0.00     0.035 C 
HETATM   12  O2  UNL     1       1.769  -2.068  -0.381  1.00  0.00    -0.302 OA
HETATM   13  C11 UNL     1       2.756  -1.600  -1.162  1.00  0.00     0.300 C 
HETATM   14  C12 UNL     1       3.301  -0.199  -0.990  1.00  0.00     0.213 C 
HETATM   15  C13 UNL     1       3.084   0.307   0.434  1.00  0.00     0.079 C 
HETATM   16  C14 UNL     1       3.217   1.783   0.824  1.00  0.00     0.203 C 
HETATM   17  C15 UNL     1       2.303   2.729   0.002  1.00  0.00     0.216 C 
HETATM   18  C16 UNL     1       0.803   2.311   0.004  1.00  0.00     0.185 C 
HETATM   19  O3  UNL     1       0.187   2.969   1.096  1.00  0.00    -0.221 OA
HETATM   20  O4  UNL     1       2.762   2.824  -1.334  1.00  0.00    -0.218 OA
HETATM   21  O7  UNL     1       2.715   1.748   2.146  1.00  0.00    -0.347 OA
HETATM   22  C19 UNL     1       1.820   0.662   2.318  1.00  0.00     0.145 C 
HETATM   23  O10 UNL     1       3.225  -2.283  -2.043  1.00  0.00    -0.262 OA
HETATM   24  C25 UNL     1      -1.379   0.740   1.773  1.00  0.00     0.003 C 
HETATM   25  C26 UNL     1      -2.516  -3.084   1.461  1.00  0.00     0.029 C 
HETATM   26  O17 UNL     1      -4.260   0.523  -1.168  1.00  0.00    -0.287 OA
ENDROOT
BRANCH   2  27
HETATM   27  O11 UNL     1      -4.647  -1.670   0.393  1.00  0.00    -0.301 OA
BRANCH  27  28
HETATM   28  C27 UNL     1      -5.110  -1.391   1.709  1.00  0.00     0.274 C 
HETATM   29  C28 UNL     1      -6.293  -2.309   2.082  1.00  0.00     0.241 C 
HETATM   30  C29 UNL     1      -7.539  -1.996   1.225  1.00  0.00     0.220 C 
HETATM   31  O16 UNL     1      -5.901  -3.658   1.912  1.00  0.00    -0.215 OA
HETATM   32  C30 UNL     1      -7.836  -0.480   1.283  1.00  0.00     0.215 C 
HETATM   33  O15 UNL     1      -8.654  -2.725   1.715  1.00  0.00    -0.218 OA
HETATM   34  C31 UNL     1      -6.578   0.357   0.955  1.00  0.00     0.184 C 
HETATM   35  O14 UNL     1      -8.854  -0.154   0.353  1.00  0.00    -0.218 OA
HETATM   36  O12 UNL     1      -5.508  -0.027   1.811  1.00  0.00    -0.326 OA
BRANCH  34  37
HETATM   37  C32 UNL     1      -6.795   1.859   1.170  1.00  0.00     0.214 C 
HETATM   38  O13 UNL     1      -5.656   2.541   0.695  1.00  0.00    -0.218 OA
ENDBRANCH  34  37
ENDBRANCH  27  28
ENDBRANCH   2  27
BRANCH  14  39
HETATM   39  O8  UNL     1       4.689  -0.174  -1.287  1.00  0.00    -0.294 OA
BRANCH  39  40
HETATM   40  C20 UNL     1       4.928  -0.186  -2.596  1.00  0.00     0.272 C 
HETATM   41  O9  UNL     1       4.062  -0.230  -3.438  1.00  0.00    -0.264 OA
BRANCH  40  42
HETATM   42  C21 UNL     1       6.383  -0.137  -2.983  1.00  0.00     0.096 C 
BRANCH  42  43
HETATM   43  C22 UNL     1       6.684  -0.965  -4.231  1.00  0.00     0.010 C 
HETATM   44  C23 UNL     1       8.109  -0.764  -4.744  1.00  0.00     0.001 C 
HETATM   45  C24 UNL     1       6.322  -2.441  -4.059  1.00  0.00     0.001 C 
ENDBRANCH  42  43
ENDBRANCH  40  42
ENDBRANCH  39  40
ENDBRANCH  14  39
BRANCH  16  46
HETATM   46  C17 UNL     1       4.650   2.258   0.875  1.00  0.00     0.299 C 
HETATM   47  O5  UNL     1       5.566   1.486   0.715  1.00  0.00    -0.262 OA
BRANCH  46  48
HETATM   48  O6  UNL     1       4.807   3.559   1.105  1.00  0.00    -0.297 OA
HETATM   49  C18 UNL     1       6.174   3.941   1.131  1.00  0.00     0.185 C 
ENDBRANCH  46  48
ENDBRANCH  16  46
TORSDOF 9
