REMARK  1 active torsions:
REMARK  status: ('A' for Active; 'I' for Inactive)
REMARK    1  A    between atoms: C22_23  and  C23_24 
ROOT
HETATM    1  C1  UNL     1      -4.873   0.029  -1.686  1.00  0.00     0.033 C 
HETATM    2  C2  UNL     1      -5.490  -0.820  -0.568  1.00  0.00     0.152 C 
HETATM    3  C3  UNL     1      -4.875  -0.516   0.820  1.00  0.00     0.028 C 
HETATM    4  C4  UNL     1      -3.328  -0.660   0.734  1.00  0.00     0.002 C 
HETATM    5  C5  UNL     1      -2.662   0.193  -0.387  1.00  0.00     0.000 C 
HETATM    6  C6  UNL     1      -3.350  -0.141  -1.732  1.00  0.00     0.003 C 
HETATM    7  C7  UNL     1      -1.135  -0.144  -0.451  1.00  0.00     0.000 C 
HETATM    8  C8  UNL     1      -0.389   0.022   0.916  1.00  0.00     0.000 C 
HETATM    9  C9  UNL     1      -1.137  -0.783   2.006  1.00  0.00     0.000 C 
HETATM   10  C10 UNL     1      -2.627  -0.437   2.088  1.00  0.00     0.000 C 
HETATM   11  C11 UNL     1       1.100  -0.459   0.781  1.00  0.00     0.003 C 
HETATM   12  C12 UNL     1       1.809   0.367  -0.334  1.00  0.00     0.001 C 
HETATM   13  C13 UNL     1       1.086   0.217  -1.682  1.00  0.00     0.000 C 
HETATM   14  C14 UNL     1      -0.393   0.609  -1.580  1.00  0.00     0.000 C 
HETATM   15  C15 UNL     1       3.299  -0.033  -0.430  1.00  0.00     0.006 C 
HETATM   16  C16 UNL     1       4.002   0.275   0.902  1.00  0.00     0.029 C 
HETATM   17  C17 UNL     1       3.383  -0.629   1.978  1.00  0.00     0.152 C 
HETATM   18  C18 UNL     1       1.879  -0.307   2.117  1.00  0.00     0.033 C 
HETATM   19  O1  UNL     1       4.025  -0.426   3.221  1.00  0.00    -0.224 OA
HETATM   20  C19 UNL     1       3.945   1.768   1.271  1.00  0.00     0.003 C 
HETATM   21  C20 UNL     1       5.439  -0.068   0.518  1.00  0.00     0.003 C 
HETATM   22  C21 UNL     1       5.604   0.551  -0.869  1.00  0.00     0.004 C 
HETATM   23  C22 UNL     1       4.187   0.686  -1.453  1.00  0.00     0.018 C 
HETATM   24  C26 UNL     1       1.123  -1.953   0.404  1.00  0.00     0.000 C 
HETATM   25  C27 UNL     1      -0.397   1.502   1.342  1.00  0.00     0.000 C 
HETATM   26  C28 UNL     1      -2.854   1.695  -0.119  1.00  0.00     0.000 C 
HETATM   27  C29 UNL     1      -5.260   0.895   1.299  1.00  0.00     0.003 C 
HETATM   28  C30 UNL     1      -5.428  -1.521   1.840  1.00  0.00     0.003 C 
HETATM   29  O2  UNL     1      -6.893  -0.613  -0.557  1.00  0.00    -0.224 OA
ENDROOT
BRANCH  23  30
HETATM   30  C23 UNL     1       4.084   0.129  -2.852  1.00  0.00    -0.044 C 
HETATM   31  C24 UNL     1       4.262  -1.332  -3.168  1.00  0.00     0.026 C 
HETATM   32  C25 UNL     1       3.822   0.975  -3.861  1.00  0.00    -0.009 C 
ENDBRANCH  23  30
TORSDOF 1
