REMARK  2 active torsions:
REMARK  status: ('A' for Active; 'I' for Inactive)
REMARK    1  A    between atoms: C15_17  and  O3_21 
REMARK    2  A    between atoms: C16_18  and  O2_19 
ROOT
HETATM    1  C1  UNL     1       3.969  -1.316  -0.174  1.00  0.00     0.000 A 
HETATM    2  C2  UNL     1       4.715  -0.125  -0.193  1.00  0.00     0.000 A 
HETATM    3  C3  UNL     1       4.049   1.113  -0.111  1.00  0.00     0.003 A 
HETATM    4  C4  UNL     1       2.631   1.174  -0.011  1.00  0.00     0.041 A 
HETATM    5  C5  UNL     1       1.854  -0.027   0.004  1.00  0.00     0.005 A 
HETATM    6  C6  UNL     1       2.563  -1.269  -0.076  1.00  0.00     0.000 A 
HETATM    7  C7  UNL     1       0.365   0.066   0.104  1.00  0.00     0.026 A 
HETATM    8  C8  UNL     1      -0.256   1.363   0.199  1.00  0.00     0.023 A 
HETATM    9  C9  UNL     1       0.508   2.588   0.190  1.00  0.00     0.120 A 
HETATM   10  C10 UNL     1       1.996   2.522   0.074  1.00  0.00     0.213 A 
HETATM   11  O1  UNL     1       2.656   3.535   0.055  1.00  0.00    -0.285 OA
HETATM   12  N1  UNL     1      -0.176   3.791   0.289  1.00  0.00    -0.241 NA
HETATM   13  C11 UNL     1      -1.541   3.873   0.395  1.00  0.00     0.099 A 
HETATM   14  C12 UNL     1      -2.332   2.711   0.406  1.00  0.00     0.021 A 
HETATM   15  C13 UNL     1      -1.689   1.453   0.307  1.00  0.00     0.005 A 
HETATM   16  C14 UNL     1      -2.494   0.295   0.317  1.00  0.00     0.026 A 
HETATM   17  C15 UNL     1      -1.892  -0.969   0.217  1.00  0.00     0.116 A 
HETATM   18  C16 UNL     1      -0.490  -1.092   0.112  1.00  0.00     0.116 A 
ENDROOT
BRANCH  17  19
HETATM   19  O3  UNL     1      -2.668  -2.064   0.225  1.00  0.00    -0.326 OA
HETATM   20  C18 UNL     1      -4.051  -1.900   0.500  1.00  0.00     0.181 C 
ENDBRANCH  17  19
BRANCH  18  21
HETATM   21  O2  UNL     1      -0.039  -2.348   0.016  1.00  0.00    -0.326 OA
HETATM   22  C17 UNL     1      -0.512  -3.148  -1.058  1.00  0.00     0.181 C 
ENDBRANCH  18  21
TORSDOF 2
