REMARK  8 active torsions:
REMARK  status: ('A' for Active; 'I' for Inactive)
REMARK    1  A    between atoms: C4_4  and  C8_9 
REMARK    2  A    between atoms: C5_5  and  O1_7 
REMARK    3  A    between atoms: C8_9  and  C9_10 
REMARK    4  A    between atoms: C8_9  and  O4_16 
REMARK    5  A    between atoms: C9_10  and  C10_11 
REMARK    6  A    between atoms: O4_16  and  C13_17 
REMARK    7  A    between atoms: C13_17  and  C14_19 
REMARK    8  A    between atoms: C14_19  and  C15_20 
ROOT
HETATM    1  C8  UNL     1       0.524  -0.688   0.305  1.00  0.00     0.181 C 
ENDROOT
BRANCH   1   2
HETATM    2  C4  UNL     1      -0.705   0.098   0.508  1.00  0.00     0.030 A 
HETATM    3  C3  UNL     1      -1.963  -0.479   0.203  1.00  0.00     0.002 A 
HETATM    4  C2  UNL     1      -3.142   0.277   0.398  1.00  0.00     0.023 A 
HETATM    5  C1  UNL     1      -3.078   1.607   0.895  1.00  0.00     0.105 A 
HETATM    6  C18 UNL     1      -4.476  -0.301   0.090  1.00  0.00     0.007 A 
HETATM    7  C6  UNL     1      -1.818   2.178   1.195  1.00  0.00     0.049 A 
HETATM    8  O6  UNL     1      -4.209   2.326   1.078  1.00  0.00    -0.273 OA
HETATM    9  C5  UNL     1      -0.635   1.424   1.004  1.00  0.00     0.095 A 
HETATM   10  C20 UNL     1      -5.437   1.836   0.809  1.00  0.00     0.300 A 
HETATM   11  C19 UNL     1      -5.572   0.455   0.291  1.00  0.00     0.069 A 
HETATM   12  O7  UNL     1      -6.441   2.488   0.977  1.00  0.00    -0.259 OA
BRANCH   9  13
HETATM   13  O1  UNL     1       0.553   1.977   1.295  1.00  0.00    -0.328 OA
HETATM   14  C7  UNL     1       0.578   3.344   1.674  1.00  0.00     0.181 C 
ENDBRANCH   9  13
ENDBRANCH   1   2
BRANCH   1  15
HETATM   15  C9  UNL     1       1.246  -0.951   1.627  1.00  0.00     0.212 C 
HETATM   16  O3  UNL     1       2.541  -1.424   1.334  1.00  0.00    -0.218 OA
BRANCH  15  17
HETATM   17  C10 UNL     1       0.537  -2.000   2.486  1.00  0.00     0.158 C 
HETATM   18  C11 UNL     1      -0.847  -1.545   2.947  1.00  0.00     0.036 C 
HETATM   19  C12 UNL     1       0.520  -3.383   1.836  1.00  0.00     0.036 C 
HETATM   20  O2  UNL     1       1.381  -2.053   3.615  1.00  0.00    -0.223 OA
ENDBRANCH  15  17
ENDBRANCH   1  15
BRANCH   1  21
HETATM   21  O4  UNL     1       1.391   0.010  -0.576  1.00  0.00    -0.297 OA
BRANCH  21  22
HETATM   22  C13 UNL     1       0.910   0.072  -1.814  1.00  0.00     0.272 C 
HETATM   23  O5  UNL     1      -0.109  -0.473  -2.170  1.00  0.00    -0.264 OA
BRANCH  22  24
HETATM   24  C14 UNL     1       1.733   0.883  -2.781  1.00  0.00     0.096 C 
BRANCH  24  25
HETATM   25  C15 UNL     1       2.539   0.006  -3.738  1.00  0.00     0.010 C 
HETATM   26  C16 UNL     1       3.229   0.814  -4.838  1.00  0.00     0.001 C 
HETATM   27  C17 UNL     1       3.498  -0.936  -3.010  1.00  0.00     0.001 C 
ENDBRANCH  24  25
ENDBRANCH  22  24
ENDBRANCH  21  22
ENDBRANCH   1  21
TORSDOF 8
