REMARK  0 active torsions:
REMARK  status: ('A' for Active; 'I' for Inactive)
ROOT
HETATM    1  C1  UNL     1       2.865  -0.727   0.908  1.00  0.00     0.026 C 
HETATM    2  C2  UNL     1       2.813   0.252  -0.268  1.00  0.00     0.005 C 
HETATM    3  C3  UNL     1       1.420   0.879  -0.381  1.00  0.00     0.004 C 
HETATM    4  C4  UNL     1       0.361  -0.229  -0.613  1.00  0.00     0.021 C 
HETATM    5  C5  UNL     1       0.492  -1.395   0.361  1.00  0.00     0.008 C 
HETATM    6  C6  UNL     1       1.650  -1.621   1.021  1.00  0.00    -0.028 C 
HETATM    7  C7  UNL     1      -0.684  -2.277   0.574  1.00  0.00     0.169 C 
HETATM    8  C8  UNL     1      -2.039  -1.877   0.035  1.00  0.00     0.069 C 
HETATM    9  C9  UNL     1      -2.234  -0.393  -0.279  1.00  0.00     0.008 A 
HETATM   10  C10 UNL     1      -1.021   0.449  -0.600  1.00  0.00     0.004 A 
HETATM   11  C11 UNL     1      -1.809   0.713   0.678  1.00  0.00     0.001 A 
HETATM   12  C12 UNL     1      -2.670   1.971   0.709  1.00  0.00     0.000 C 
HETATM   13  C13 UNL     1      -1.213   0.350   2.035  1.00  0.00     0.000 C 
HETATM   14  O1  UNL     1      -0.574  -3.315   1.187  1.00  0.00    -0.292 OA
HETATM   15  C14 UNL     1       0.471  -0.801  -2.033  1.00  0.00     0.004 C 
HETATM   16  C15 UNL     1       1.402   1.965  -1.465  1.00  0.00     0.000 C 
ENDROOT
TORSDOF 0
