REMARK  5 active torsions:
REMARK  status: ('A' for Active; 'I' for Inactive)
REMARK    1  A    between atoms: C2_2  and  C21_26 
REMARK    2  A    between atoms: C6_6  and  C7_7 
REMARK    3  A    between atoms: C7_7  and  C8_8 
REMARK    4  A    between atoms: C12_13  and  C15_17 
REMARK    5  A    between atoms: C22_27  and  C23_28 
ROOT
HETATM    1  C1  UNL     1      -1.895   0.150  -0.344  1.00  0.00     0.131 A 
HETATM    2  C2  UNL     1      -1.791   1.311  -1.152  1.00  0.00     0.050 A 
HETATM    3  C3  UNL     1      -0.525   1.896  -1.402  1.00  0.00     0.138 A 
HETATM    4  C4  UNL     1       0.641   1.318  -0.838  1.00  0.00     0.082 A 
HETATM    5  C5  UNL     1       0.545   0.131  -0.058  1.00  0.00     0.097 A 
HETATM    6  C6  UNL     1      -0.727  -0.438   0.201  1.00  0.00     0.030 A 
HETATM    7  O1  UNL     1       1.648  -0.467   0.442  1.00  0.00    -0.329 OA
HETATM    8  C12 UNL     1       2.939  -0.186  -0.107  1.00  0.00     0.153 C 
HETATM    9  C13 UNL     1       3.129   1.334  -0.283  1.00  0.00     0.104 C 
HETATM   10  C14 UNL     1       1.976   1.951  -1.043  1.00  0.00     0.180 C 
HETATM   11  O2  UNL     1       2.228   2.904  -1.746  1.00  0.00    -0.291 OA
HETATM   12  O5  UNL     1      -0.440   3.000  -2.162  1.00  0.00    -0.190 OA
HETATM   13  O6  UNL     1      -3.096  -0.395  -0.096  1.00  0.00    -0.190 OA
ENDROOT
BRANCH   8  14
HETATM   14  C15 UNL     1       3.982  -0.787   0.768  1.00  0.00     0.031 A 
HETATM   15  C16 UNL     1       4.986   0.027   1.317  1.00  0.00     0.002 A 
HETATM   16  C17 UNL     1       5.975  -0.531   2.143  1.00  0.00     0.027 A 
HETATM   17  C18 UNL     1       5.963  -1.908   2.424  1.00  0.00     0.133 A 
HETATM   18  C19 UNL     1       4.957  -2.723   1.875  1.00  0.00     0.054 A 
HETATM   19  O4  UNL     1       6.889  -2.434   3.201  1.00  0.00    -0.190 OA
HETATM   20  C20 UNL     1       3.965  -2.168   1.047  1.00  0.00     0.131 A 
HETATM   21  O3  UNL     1       3.027  -2.943   0.539  1.00  0.00    -0.190 OA
ENDBRANCH   8  14
BRANCH   6  22
HETATM   22  C7  UNL     1      -0.834  -1.647   1.037  1.00  0.00     0.056 C 
BRANCH  22  23
HETATM   23  C8  UNL     1      -0.971  -1.315   2.498  1.00  0.00    -0.030 C 
HETATM   24  C9  UNL     1      -1.297  -2.301   3.350  1.00  0.00    -0.048 C 
HETATM   25  C10 UNL     1      -1.502  -2.135   4.832  1.00  0.00     0.026 C 
HETATM   26  C11 UNL     1      -1.477  -3.691   2.805  1.00  0.00     0.026 C 
ENDBRANCH  22  23
ENDBRANCH   6  22
BRANCH   2  27
HETATM   27  C21 UNL     1      -3.012   1.912  -1.734  1.00  0.00    -0.001 C 
HETATM   28  C22 UNL     1      -3.084   2.059  -3.066  1.00  0.00    -0.026 C 
BRANCH  28  29
HETATM   29  C23 UNL     1      -4.328   2.672  -3.654  1.00  0.00     0.022 C 
HETATM   30  C24 UNL     1      -5.135   1.674  -4.486  1.00  0.00     0.005 C 
HETATM   31  C25 UNL     1      -4.037   3.971  -4.410  1.00  0.00     0.005 C 
ENDBRANCH  28  29
ENDBRANCH   2  27
TORSDOF 5
