REMARK  17 active torsions:
REMARK  status: ('A' for Active; 'I' for Inactive)
REMARK    1  A    between atoms: C1_1  and  O6_12 
REMARK    2  A    between atoms: C5_8  and  C6_10 
REMARK    3  A    between atoms: O6_12  and  C7_13 
REMARK    4  A    between atoms: C7_13  and  C8_14 
REMARK    5  A    between atoms: C8_14  and  C9_15 
REMARK    6  A    between atoms: C9_15  and  C10_16 
REMARK    7  A    between atoms: C10_16  and  C11_17 
REMARK    8  A    between atoms: C11_17  and  C12_18 
REMARK    9  A    between atoms: C12_18  and  C13_19 
REMARK   10  A    between atoms: C13_19  and  C14_20 
REMARK   11  A    between atoms: C14_20  and  C15_21 
REMARK   12  A    between atoms: C15_21  and  C16_22 
REMARK   13  A    between atoms: C16_22  and  C17_23 
REMARK   14  A    between atoms: C17_23  and  C18_24 
REMARK   15  A    between atoms: C18_24  and  C19_25 
REMARK   16  A    between atoms: C19_25  and  C20_26 
REMARK   17  A    between atoms: C20_26  and  C21_27 
ROOT
HETATM    1  C8  UNL     1      -1.686   3.168  -2.644  1.00  0.00     0.096 C 
ENDROOT
BRANCH   1   2
HETATM    2  C7  UNL     1      -2.076   3.406  -4.078  1.00  0.00     0.274 C 
HETATM    3  O7  UNL     1      -1.910   2.555  -4.918  1.00  0.00    -0.264 OA
BRANCH   2   4
HETATM    4  O6  UNL     1      -2.604   4.602  -4.328  1.00  0.00    -0.273 OA
BRANCH   4   5
HETATM    5  C1  UNL     1      -2.969   4.758  -5.695  1.00  0.00     0.276 C 
HETATM    6  C2  UNL     1      -3.295   6.232  -6.012  1.00  0.00     0.241 C 
HETATM    7  O1  UNL     1      -2.189   7.039  -5.645  1.00  0.00    -0.215 OA
HETATM    8  C3  UNL     1      -4.570   6.697  -5.273  1.00  0.00     0.220 C 
HETATM    9  O2  UNL     1      -4.943   7.988  -5.725  1.00  0.00    -0.218 OA
HETATM   10  C4  UNL     1      -5.715   5.695  -5.545  1.00  0.00     0.215 C 
HETATM   11  O3  UNL     1      -6.826   6.002  -4.723  1.00  0.00    -0.218 OA
HETATM   12  C5  UNL     1      -5.275   4.240  -5.260  1.00  0.00     0.184 C 
HETATM   13  O4  UNL     1      -4.094   3.943  -5.998  1.00  0.00    -0.326 OA
BRANCH  12  14
HETATM   14  C6  UNL     1      -6.330   3.209  -5.674  1.00  0.00     0.214 C 
HETATM   15  O5  UNL     1      -5.914   1.943  -5.211  1.00  0.00    -0.218 OA
ENDBRANCH  12  14
ENDBRANCH   4   5
ENDBRANCH   2   4
ENDBRANCH   1   2
BRANCH   1  16
HETATM   16  C9  UNL     1      -0.945   1.844  -2.455  1.00  0.00     0.010 C 
BRANCH  16  17
HETATM   17  C10 UNL     1      -0.539   1.598  -1.002  1.00  0.00     0.001 C 
BRANCH  17  18
HETATM   18  C11 UNL     1       0.199   0.271  -0.812  1.00  0.00     0.000 C 
BRANCH  18  19
HETATM   19  C12 UNL     1       0.606   0.025   0.641  1.00  0.00     0.000 C 
BRANCH  19  20
HETATM   20  C13 UNL     1       1.344  -1.301   0.832  1.00  0.00     0.000 C 
BRANCH  20  21
HETATM   21  C14 UNL     1       1.750  -1.547   2.285  1.00  0.00     0.000 C 
BRANCH  21  22
HETATM   22  C15 UNL     1       2.488  -2.873   2.475  1.00  0.00     0.000 C 
BRANCH  22  23
HETATM   23  C16 UNL     1       2.895  -3.119   3.928  1.00  0.00     0.000 C 
BRANCH  23  24
HETATM   24  C17 UNL     1       3.633  -4.445   4.117  1.00  0.00     0.000 C 
BRANCH  24  25
HETATM   25  C18 UNL     1       4.039  -4.692   5.570  1.00  0.00     0.000 C 
BRANCH  25  26
HETATM   26  C19 UNL     1       4.777  -6.016   5.760  1.00  0.00     0.000 C 
BRANCH  26  27
HETATM   27  C20 UNL     1       5.184  -6.262   7.213  1.00  0.00     0.000 C 
BRANCH  27  28
HETATM   28  C21 UNL     1       5.922  -7.588   7.403  1.00  0.00     0.000 C 
HETATM   29  C22 UNL     1       6.330  -7.834   8.856  1.00  0.00     0.000 C 
ENDBRANCH  27  28
ENDBRANCH  26  27
ENDBRANCH  25  26
ENDBRANCH  24  25
ENDBRANCH  23  24
ENDBRANCH  22  23
ENDBRANCH  21  22
ENDBRANCH  20  21
ENDBRANCH  19  20
ENDBRANCH  18  19
ENDBRANCH  17  18
ENDBRANCH  16  17
ENDBRANCH   1  16
TORSDOF 17
