REMARK  4 active torsions:
REMARK  status: ('A' for Active; 'I' for Inactive)
REMARK    1  A    between atoms: C1_1  and  O6_12 
REMARK    2  A    between atoms: C5_8  and  C6_10 
REMARK    3  A    between atoms: O6_12  and  C7_13 
REMARK    4  A    between atoms: C7_13  and  C10_16 
ROOT
HETATM    1  C1  UNL     1       0.344   0.398  -0.227  1.00  0.00     0.270 C 
HETATM    2  C2  UNL     1       0.090   1.828  -0.774  1.00  0.00     0.241 C 
HETATM    3  O1  UNL     1       1.047   2.721  -0.225  1.00  0.00    -0.215 OA
HETATM    4  C3  UNL     1      -1.332   2.313  -0.408  1.00  0.00     0.220 C 
HETATM    5  O2  UNL     1      -1.609   3.533  -1.072  1.00  0.00    -0.218 OA
HETATM    6  C4  UNL     1      -2.369   1.244  -0.820  1.00  0.00     0.215 C 
HETATM    7  O3  UNL     1      -3.647   1.602  -0.322  1.00  0.00    -0.218 OA
HETATM    8  C5  UNL     1      -1.992  -0.148  -0.270  1.00  0.00     0.184 C 
HETATM    9  O4  UNL     1      -0.674  -0.480  -0.686  1.00  0.00    -0.326 OA
ENDROOT
BRANCH   1  10
HETATM   10  O6  UNL     1       1.594  -0.086  -0.674  1.00  0.00    -0.330 OA
BRANCH  10  11
HETATM   11  C7  UNL     1       2.229  -0.926   0.264  1.00  0.00     0.114 C 
HETATM   12  C8  UNL     1       1.244  -2.022   0.672  1.00  0.00     0.034 C 
HETATM   13  C9  UNL     1       3.500  -1.482  -0.377  1.00  0.00     0.034 C 
BRANCH  11  14
HETATM   14  C10 UNL     1       2.523   0.027   1.391  1.00  0.00     0.000 C 
HETATM   15  C11 UNL     1       2.471  -0.434   2.650  1.00  0.00    -0.003 C 
ENDBRANCH  11  14
ENDBRANCH  10  11
ENDBRANCH   1  10
BRANCH   8  16
HETATM   16  C6  UNL     1      -2.914  -1.260  -0.783  1.00  0.00     0.214 C 
HETATM   17  O5  UNL     1      -2.566  -2.459  -0.131  1.00  0.00    -0.218 OA
ENDBRANCH   8  16
TORSDOF 4
