REMARK  3 active torsions:
REMARK  status: ('A' for Active; 'I' for Inactive)
REMARK    1  A    between atoms: C8_9  and  C10_11 
REMARK    2  A    between atoms: C10_11  and  C11_12 
REMARK    3  A    between atoms: C11_12  and  C12_14 
ROOT
HETATM    1  O1  UNL     1      -1.656  -0.283   0.717  1.00  0.00    -0.273 OA
HETATM    2  C1  UNL     1      -2.887  -0.764   0.451  1.00  0.00     0.300 A 
HETATM    3  C2  UNL     1      -3.029  -2.143  -0.066  1.00  0.00     0.069 A 
HETATM    4  C3  UNL     1      -1.936  -2.904  -0.269  1.00  0.00     0.007 A 
HETATM    5  C4  UNL     1      -0.600  -2.332   0.037  1.00  0.00     0.023 A 
HETATM    6  C5  UNL     1       0.578  -3.096  -0.162  1.00  0.00     0.004 A 
HETATM    7  C6  UNL     1       1.836  -2.523   0.141  1.00  0.00     0.027 A 
HETATM    8  C7  UNL     1       1.918  -1.201   0.637  1.00  0.00     0.129 A 
HETATM    9  C8  UNL     1       0.740  -0.439   0.832  1.00  0.00     0.029 A 
HETATM   10  C9  UNL     1      -0.525  -1.004   0.533  1.00  0.00     0.101 A 
HETATM   11  O3  UNL     1       3.119  -0.676   0.918  1.00  0.00    -0.190 OA
HETATM   12  O4  UNL     1      -3.887  -0.105   0.621  1.00  0.00    -0.259 OA
ENDROOT
BRANCH   9  13
HETATM   13  C10 UNL     1       0.828   0.940   1.348  1.00  0.00     0.068 C 
BRANCH  13  14
HETATM   14  C11 UNL     1       1.262   1.920   0.260  1.00  0.00     0.175 C 
HETATM   15  O2  UNL     1       1.440   3.188   0.852  1.00  0.00    -0.219 OA
BRANCH  14  16
HETATM   16  C12 UNL     1       0.252   2.025  -0.853  1.00  0.00    -0.014 C 
HETATM   17  C13 UNL     1      -1.119   2.615  -0.664  1.00  0.00     0.029 C 
HETATM   18  C14 UNL     1       0.592   1.570  -2.070  1.00  0.00    -0.007 C 
ENDBRANCH  14  16
ENDBRANCH  13  14
ENDBRANCH   9  13
TORSDOF 3
