REMARK  7 active torsions:
REMARK  status: ('A' for Active; 'I' for Inactive)
REMARK    1  A    between atoms: C3_3  and  O3_12 
REMARK    2  A    between atoms: O3_12  and  C10_13 
REMARK    3  A    between atoms: C10_13  and  C11_14 
REMARK    4  A    between atoms: C12_15  and  C14_17 
REMARK    5  A    between atoms: C14_17  and  O4_18 
REMARK    6  A    between atoms: O4_18  and  C15_19 
REMARK    7  A    between atoms: C19_26  and  C20_28 
ROOT
HETATM    1  C10 UNL     1      -0.736  -1.779   1.371  1.00  0.00     0.175 C 
ENDROOT
BRANCH   1   2
HETATM    2  O3  UNL     1      -1.375  -2.311   2.523  1.00  0.00    -0.322 OA
BRANCH   2   3
HETATM    3  C3  UNL     1      -1.596  -1.486   3.557  1.00  0.00     0.140 A 
HETATM    4  C2  UNL     1      -2.834  -1.010   4.047  1.00  0.00     0.124 A 
HETATM    5  C1  UNL     1      -2.967  -0.166   5.113  1.00  0.00     0.027 A 
HETATM    6  O10 UNL     1      -4.082  -1.317   3.531  1.00  0.00    -0.303 OA
HETATM    7  C6  UNL     1      -1.834   0.299   5.818  1.00  0.00     0.004 A 
HETATM    8  C22 UNL     1      -4.266   0.121   5.352  1.00  0.00     0.029 A 
HETATM    9  C5  UNL     1      -0.561  -0.147   5.375  1.00  0.00     0.025 A 
HETATM   10  C4  UNL     1      -0.440  -1.031   4.256  1.00  0.00     0.127 A 
HETATM   11  C7  UNL     1       0.678   0.297   6.068  1.00  0.00     0.007 A 
HETATM   12  O1  UNL     1       0.785  -1.442   3.854  1.00  0.00    -0.271 OA
HETATM   13  C9  UNL     1       1.930  -1.061   4.457  1.00  0.00     0.300 A 
HETATM   14  C8  UNL     1       1.867  -0.149   5.619  1.00  0.00     0.069 A 
HETATM   15  O2  UNL     1       3.014  -1.442   4.080  1.00  0.00    -0.259 OA
HETATM   16  C21 UNL     1      -4.983  -0.594   4.367  1.00  0.00     0.123 A 
ENDBRANCH   2   3
ENDBRANCH   1   2
BRANCH   1  17
HETATM   17  C11 UNL     1      -0.715  -2.820   0.285  1.00  0.00     0.000 C 
HETATM   18  C12 UNL     1      -0.357  -2.444  -0.955  1.00  0.00    -0.016 C 
HETATM   19  C13 UNL     1      -0.336  -3.485  -2.043  1.00  0.00     0.029 C 
BRANCH  18  20
HETATM   20  C14 UNL     1       0.002  -1.002  -1.193  1.00  0.00     0.167 C 
BRANCH  20  21
HETATM   21  O4  UNL     1       0.744  -0.895  -2.387  1.00  0.00    -0.325 OA
BRANCH  21  22
HETATM   22  C15 UNL     1       1.228   0.412  -2.623  1.00  0.00     0.270 C 
HETATM   23  C16 UNL     1       2.217   0.439  -3.818  1.00  0.00     0.241 C 
HETATM   24  O5  UNL     1       3.293  -0.457  -3.594  1.00  0.00    -0.215 OA
HETATM   25  C17 UNL     1       2.791   1.865  -4.022  1.00  0.00     0.220 C 
HETATM   26  O6  UNL     1       3.113   2.037  -5.391  1.00  0.00    -0.218 OA
HETATM   27  C18 UNL     1       1.771   2.955  -3.594  1.00  0.00     0.215 C 
HETATM   28  O7  UNL     1       2.068   3.393  -2.279  1.00  0.00    -0.218 OA
HETATM   29  C19 UNL     1       0.312   2.439  -3.637  1.00  0.00     0.184 C 
HETATM   30  O8  UNL     1       0.107   1.269  -2.840  1.00  0.00    -0.326 OA
BRANCH  29  31
HETATM   31  C20 UNL     1      -0.137   2.101  -5.063  1.00  0.00     0.214 C 
HETATM   32  O9  UNL     1      -1.539   2.226  -5.125  1.00  0.00    -0.218 OA
ENDBRANCH  29  31
ENDBRANCH  21  22
ENDBRANCH  20  21
ENDBRANCH  18  20
ENDBRANCH   1  17
TORSDOF 7
