REMARK  0 active torsions:
REMARK  status: ('A' for Active; 'I' for Inactive)
ROOT
HETATM    1  C1  UNL     1       1.012  -1.199   0.531  1.00  0.00     0.147 A 
HETATM    2  C2  UNL     1       2.324  -0.404   0.428  1.00  0.00     0.033 C 
HETATM    3  C3  UNL     1       2.287   0.795  -0.547  1.00  0.00     0.010 C 
HETATM    4  C4  UNL     1       1.094   1.754  -0.320  1.00  0.00     0.069 C 
HETATM    5  C5  UNL     1      -0.236   1.139  -0.701  1.00  0.00     0.174 C 
HETATM    6  C6  UNL     1      -1.301   0.861   0.310  1.00  0.00     0.052 A 
HETATM    7  C7  UNL     1      -2.164  -0.221   0.201  1.00  0.00     0.084 A 
HETATM    8  C8  UNL     1      -2.221  -1.320  -0.852  1.00  0.00     0.076 C 
HETATM    9  C9  UNL     1      -1.121  -2.346  -0.633  1.00  0.00    -0.009 C 
HETATM   10  C10 UNL     1       0.334  -1.879  -0.715  1.00  0.00     0.161 A 
HETATM   11  O1  UNL     1       1.182  -2.533   0.178  1.00  0.00    -0.350 OA
HETATM   12  C11 UNL     1      -1.447  -3.631  -0.391  1.00  0.00    -0.006 C 
HETATM   13  O2  UNL     1      -2.994  -0.180   1.287  1.00  0.00    -0.309 OA
HETATM   14  C12 UNL     1      -2.590   0.926   2.021  1.00  0.00     0.118 A 
HETATM   15  C13 UNL     1      -1.519   1.629   1.441  1.00  0.00     0.007 A 
HETATM   16  C14 UNL     1      -0.838   2.881   1.953  1.00  0.00     0.033 C 
HETATM   17  O3  UNL     1      -0.426   0.840  -1.858  1.00  0.00    -0.291 OA
HETATM   18  C15 UNL     1       2.401   0.344  -2.006  1.00  0.00     0.001 C 
ENDROOT
TORSDOF 0
