REMARK  3 active torsions:
REMARK  status: ('A' for Active; 'I' for Inactive)
REMARK    1  A    between atoms: C5_5  and  C7_7 
REMARK    2  A    between atoms: C7_7  and  C8_8 
REMARK    3  A    between atoms: C8_8  and  C9_10 
ROOT
HETATM    1  C1  UNL     1      -0.111   2.377  -0.746  1.00  0.00     0.156 A 
HETATM    2  C2  UNL     1       1.295   2.430  -0.746  1.00  0.00     0.156 A 
HETATM    3  C3  UNL     1       2.039   1.236  -0.746  1.00  0.00     0.029 A 
HETATM    4  C4  UNL     1       1.383  -0.008  -0.746  1.00  0.00    -0.002 A 
HETATM    5  C5  UNL     1      -0.021  -0.059  -0.746  1.00  0.00    -0.017 A 
HETATM    6  C6  UNL     1      -0.766   1.133  -0.746  1.00  0.00     0.025 A 
HETATM    7  O3  UNL     1       1.918   3.590  -0.746  1.00  0.00    -0.188 OA
HETATM    8  O4  UNL     1      -0.816   3.490  -0.746  1.00  0.00    -0.188 OA
ENDROOT
BRANCH   5   9
HETATM    9  C7  UNL     1      -0.719  -1.371  -0.746  1.00  0.00     0.077 C 
BRANCH   9  10
HETATM   10  C8  UNL     1      -1.150  -1.779   0.662  1.00  0.00     0.391 C 
HETATM   11  N1  UNL     1      -1.852  -3.053   0.631  1.00  0.00     0.628 N 
BRANCH  10  12
HETATM   12  C9  UNL     1       0.006  -1.848   1.621  1.00  0.00     0.224 C 
HETATM   13  O1  UNL     1       1.020  -2.442   1.334  1.00  0.00    -0.646 OA
HETATM   14  O2  UNL     1      -0.178  -1.213   2.777  1.00  0.00    -0.646 OA
ENDBRANCH  10  12
ENDBRANCH   9  10
ENDBRANCH   5   9
TORSDOF 3
