REMARK  0 active torsions:
REMARK  status: ('A' for Active; 'I' for Inactive)
ROOT
HETATM    1  C1  UNL     1      -1.709   0.393   0.332  1.00  0.00     0.027 A 
HETATM    2  C2  UNL     1      -1.577  -0.450  -0.734  1.00  0.00     0.127 A 
HETATM    3  C3  UNL     1      -0.339  -0.927  -1.223  1.00  0.00     0.176 A 
HETATM    4  C4  UNL     1       0.818  -0.472  -0.524  1.00  0.00     0.131 A 
HETATM    5  C5  UNL     1       0.697   0.413   0.596  1.00  0.00     0.025 A 
HETATM    6  C6  UNL     1      -0.577   0.858   1.038  1.00  0.00     0.004 A 
HETATM    7  C7  UNL     1       1.935   0.855   1.287  1.00  0.00     0.007 A 
HETATM    8  C8  UNL     1       3.125   0.411   0.840  1.00  0.00     0.069 A 
HETATM    9  C9  UNL     1       3.187  -0.502  -0.323  1.00  0.00     0.300 A 
HETATM   10  O1  UNL     1       2.042  -0.882  -0.927  1.00  0.00    -0.271 OA
HETATM   11  O2  UNL     1       4.271  -0.882  -0.700  1.00  0.00    -0.259 OA
HETATM   12  O3  UNL     1      -0.118  -1.751  -2.257  1.00  0.00    -0.186 OA
HETATM   13  O4  UNL     1      -2.825  -0.757  -1.249  1.00  0.00    -0.303 OA
HETATM   14  C10 UNL     1      -3.726  -0.035  -0.413  1.00  0.00     0.123 A 
HETATM   15  C11 UNL     1      -3.010   0.680   0.572  1.00  0.00     0.029 A 
ENDROOT
TORSDOF 0
