REMARK  4 active torsions:
REMARK  status: ('A' for Active; 'I' for Inactive)
REMARK    1  A    between atoms: C1_1  and  C2_2 
REMARK    2  A    between atoms: C1_1  and  O2_8 
REMARK    3  A    between atoms: C2_2  and  C3_3 
REMARK    4  A    between atoms: C3_3  and  C4_4 
ROOT
HETATM    1  C2  UNL     1      -0.385  -0.484  -0.823  1.00  0.00     0.096 C 
ENDROOT
BRANCH   1   2
HETATM    2  C1  UNL     1      -0.252  -1.976  -0.660  1.00  0.00     0.272 C 
HETATM    3  O1  UNL     1       0.550  -2.603  -1.311  1.00  0.00    -0.264 OA
BRANCH   2   4
HETATM    4  O2  UNL     1      -1.073  -2.523   0.232  1.00  0.00    -0.299 OA
HETATM    5  C7  UNL     1      -0.905  -3.930   0.330  1.00  0.00     0.184 C 
ENDBRANCH   2   4
ENDBRANCH   1   2
BRANCH   1   6
HETATM    6  C3  UNL     1       0.338   0.287   0.283  1.00  0.00     0.010 C 
BRANCH   6   7
HETATM    7  C4  UNL     1       0.050   1.789   0.238  1.00  0.00     0.001 C 
HETATM    8  C5  UNL     1       0.591   2.530   1.461  1.00  0.00     0.000 C 
HETATM    9  C6  UNL     1       0.482   2.432  -1.080  1.00  0.00     0.000 C 
ENDBRANCH   6   7
ENDBRANCH   1   6
TORSDOF 4
