REMARK  1 active torsions:
REMARK  status: ('A' for Active; 'I' for Inactive)
REMARK    1  A    between atoms: C1_1  and  O3_11 
ROOT
HETATM    1  C1  UNL     1       1.099   0.535  -0.073  1.00  0.00     0.096 A 
HETATM    2  C2  UNL     1       0.903  -0.868  -0.035  1.00  0.00     0.026 A 
HETATM    3  C3  UNL     1      -0.407  -1.389   0.046  1.00  0.00     0.023 A 
HETATM    4  C4  UNL     1      -1.476  -0.467   0.085  1.00  0.00     0.110 A 
HETATM    5  C5  UNL     1      -1.353   0.923   0.049  1.00  0.00     0.124 A 
HETATM    6  C6  UNL     1      -0.019   1.409  -0.031  1.00  0.00     0.051 A 
HETATM    7  O1  UNL     1      -2.517   1.566   0.096  1.00  0.00    -0.256 OA
HETATM    8  C7  UNL     1      -3.438   0.586   0.166  1.00  0.00     0.392 A 
HETATM    9  N1  UNL     1      -2.917  -0.743   0.168  1.00  0.00    -0.184 NA
HETATM   10  O2  UNL     1      -4.630   0.777   0.224  1.00  0.00    -0.236 OA
ENDROOT
BRANCH   1  11
HETATM   11  O3  UNL     1       2.340   1.036  -0.149  1.00  0.00    -0.328 OA
HETATM   12  C8  UNL     1       3.428   0.124  -0.153  1.00  0.00     0.181 C 
ENDBRANCH   1  11
TORSDOF 1
