REMARK  2 active torsions:
REMARK  status: ('A' for Active; 'I' for Inactive)
REMARK    1  A    between atoms: C14_17  and  C16_19 
REMARK    2  A    between atoms: C16_19  and  C17_20 
ROOT
HETATM    1  C1  UNL     1      -5.904   1.815   0.608  1.00  0.00     0.133 A 
HETATM    2  C2  UNL     1      -4.932   0.830   0.295  1.00  0.00     0.052 A 
HETATM    3  C3  UNL     1      -3.584   1.240   0.231  1.00  0.00     0.102 A 
HETATM    4  C4  UNL     1      -3.195   2.549   0.457  1.00  0.00     0.030 A 
HETATM    5  C5  UNL     1      -4.148   3.547   0.770  1.00  0.00     0.004 A 
HETATM    6  C6  UNL     1      -5.516   3.164   0.842  1.00  0.00     0.028 A 
HETATM    7  C7  UNL     1      -1.848   2.668   0.332  1.00  0.00     0.088 A 
HETATM    8  C8  UNL     1      -1.457   1.373   0.020  1.00  0.00     0.107 A 
HETATM    9  O1  UNL     1      -2.492   0.418  -0.062  1.00  0.00    -0.307 OA
HETATM   10  C9  UNL     1      -0.008   1.111  -0.201  1.00  0.00     0.046 A 
HETATM   11  C10 UNL     1       0.883   2.225  -0.072  1.00  0.00     0.107 A 
HETATM   12  O2  UNL     1       0.432   3.471   0.238  1.00  0.00    -0.273 OA
HETATM   13  C11 UNL     1      -0.875   3.777   0.451  1.00  0.00     0.302 A 
HETATM   14  O3  UNL     1      -1.254   4.893   0.727  1.00  0.00    -0.259 OA
HETATM   15  C12 UNL     1       2.268   2.020  -0.277  1.00  0.00     0.052 A 
HETATM   16  C13 UNL     1       2.760   0.733  -0.600  1.00  0.00     0.129 A 
HETATM   17  C14 UNL     1       1.869  -0.365  -0.723  1.00  0.00     0.008 A 
HETATM   18  C15 UNL     1       0.481  -0.176  -0.523  1.00  0.00     0.002 A 
HETATM   19  O4  UNL     1       4.076   0.559  -0.789  1.00  0.00    -0.190 OA
HETATM   20  O5  UNL     1      -7.197   1.471   0.678  1.00  0.00    -0.190 OA
ENDROOT
BRANCH  17  21
HETATM   21  C16 UNL     1       2.381  -1.703  -1.059  1.00  0.00     0.054 C 
BRANCH  21  22
HETATM   22  C17 UNL     1       3.070  -2.355   0.111  1.00  0.00    -0.030 C 
HETATM   23  C18 UNL     1       3.402  -3.652   0.016  1.00  0.00    -0.048 C 
HETATM   24  C19 UNL     1       3.100  -4.381  -1.266  1.00  0.00     0.026 C 
HETATM   25  C20 UNL     1       4.061  -4.314   1.197  1.00  0.00     0.026 C 
ENDBRANCH  21  22
ENDBRANCH  17  21
TORSDOF 2
