REMARK  9 active torsions:
REMARK  status: ('A' for Active; 'I' for Inactive)
REMARK    1  A    between atoms: C3_3  and  O1_30 
REMARK    2  A    between atoms: C15_15  and  C18_18 
REMARK    3  A    between atoms: C18_18  and  C20_20 
REMARK    4  A    between atoms: C20_20  and  C21_21 
REMARK    5  A    between atoms: C21_21  and  C22_22 
REMARK    6  A    between atoms: C22_22  and  C23_23 
REMARK    7  A    between atoms: C22_22  and  C25_25 
REMARK    8  A    between atoms: O1_30  and  C30_31 
REMARK    9  A    between atoms: C30_31  and  C31_32 
ROOT
HETATM    1  C1  UNL     1       1.975  -0.356  -0.373  1.00  0.00     0.002 C 
HETATM    2  C2  UNL     1       3.512  -0.258  -0.305  1.00  0.00     0.030 C 
HETATM    3  C3  UNL     1       4.174  -1.416  -1.064  1.00  0.00     0.116 C 
HETATM    4  C4  UNL     1       3.670  -2.779  -0.564  1.00  0.00     0.030 C 
HETATM    5  C5  UNL     1       2.135  -2.859  -0.613  1.00  0.00     0.003 C 
HETATM    6  C6  UNL     1       1.447  -1.713   0.168  1.00  0.00     0.000 C 
HETATM    7  C7  UNL     1      -0.100  -1.762  -0.004  1.00  0.00     0.000 C 
HETATM    8  C8  UNL     1      -0.777  -0.559   0.697  1.00  0.00     0.000 C 
HETATM    9  C9  UNL     1      -0.223   0.783   0.188  1.00  0.00     0.000 C 
HETATM   10  C10 UNL     1       1.303   0.844   0.320  1.00  0.00     0.000 C 
HETATM   11  C11 UNL     1      -2.312  -0.578   0.586  1.00  0.00     0.000 C 
HETATM   12  C12 UNL     1      -2.920  -1.922   1.014  1.00  0.00     0.000 C 
HETATM   13  C13 UNL     1      -2.256  -3.098   0.275  1.00  0.00     0.000 C 
HETATM   14  C14 UNL     1      -0.734  -3.084   0.473  1.00  0.00     0.000 C 
HETATM   15  C15 UNL     1      -4.379  -1.748   0.557  1.00  0.00     0.000 C 
HETATM   16  C16 UNL     1      -4.264  -1.041  -0.801  1.00  0.00     0.000 C 
HETATM   17  C17 UNL     1      -2.896  -0.354  -0.812  1.00  0.00     0.000 C 
HETATM   18  C28 UNL     1      -2.824  -2.100   2.529  1.00  0.00     0.000 C 
HETATM   19  C29 UNL     1       1.803  -1.857   1.658  1.00  0.00     0.000 C 
ENDROOT
BRANCH   3  20
HETATM   20  O1  UNL     1       5.576  -1.346  -0.896  1.00  0.00    -0.354 OA
BRANCH  20  21
HETATM   21  C30 UNL     1       6.162  -0.254  -1.568  1.00  0.00     0.174 C 
BRANCH  21  22
HETATM   22  C31 UNL     1       7.682  -0.447  -1.564  1.00  0.00     0.180 C 
HETATM   23  O2  UNL     1       8.096  -0.400  -0.205  1.00  0.00    -0.324 OA
HETATM   24  C32 UNL     1       9.477  -0.656   0.012  1.00  0.00     0.303 C 
HETATM   25  C33 UNL     1      10.328   0.420  -0.709  1.00  0.00     0.244 C 
HETATM   26  O6  UNL     1       9.719  -0.631   1.404  1.00  0.00    -0.187 OA
HETATM   27  C34 UNL     1       9.961   0.508  -2.207  1.00  0.00     0.220 C 
HETATM   28  O5  UNL     1      11.703   0.092  -0.580  1.00  0.00    -0.215 OA
HETATM   29  C35 UNL     1       8.430   0.643  -2.365  1.00  0.00     0.215 C 
HETATM   30  O4  UNL     1      10.606   1.627  -2.795  1.00  0.00    -0.218 OA
HETATM   31  O3  UNL     1       8.078   0.521  -3.732  1.00  0.00    -0.218 OA
ENDBRANCH  21  22
ENDBRANCH  20  21
ENDBRANCH   3  20
BRANCH  15  32
HETATM   32  C18 UNL     1      -5.195  -0.865   1.504  1.00  0.00     0.000 C 
HETATM   33  C19 UNL     1      -6.666  -1.273   1.440  1.00  0.00     0.000 C 
BRANCH  32  34
HETATM   34  C20 UNL     1      -4.975   0.605   1.147  1.00  0.00     0.000 C 
BRANCH  34  35
HETATM   35  C21 UNL     1      -6.260   1.303   0.703  1.00  0.00     0.000 C 
BRANCH  35  36
HETATM   36  C22 UNL     1      -6.066   2.801   0.461  1.00  0.00     0.000 C 
BRANCH  36  37
HETATM   37  C23 UNL     1      -6.230   3.188  -1.008  1.00  0.00     0.000 C 
HETATM   38  C24 UNL     1      -5.100   2.654  -1.889  1.00  0.00     0.000 C 
ENDBRANCH  36  37
BRANCH  36  39
HETATM   39  C25 UNL     1      -6.912   3.664   1.397  1.00  0.00     0.000 C 
HETATM   40  C26 UNL     1      -6.385   5.096   1.518  1.00  0.00     0.000 C 
HETATM   41  C27 UNL     1      -8.402   3.611   1.063  1.00  0.00     0.000 C 
ENDBRANCH  36  39
ENDBRANCH  35  36
ENDBRANCH  34  35
ENDBRANCH  32  34
ENDBRANCH  15  32
TORSDOF 9
