REMARK  2 active torsions:
REMARK  status: ('A' for Active; 'I' for Inactive)
REMARK    1  A    between atoms: C5_5  and  C9_9 
REMARK    2  A    between atoms: C10_10  and  C11_11 
ROOT
HETATM    1  C1  UNL     1       0.740   2.703  -0.994  1.00  0.00     0.072 C 
HETATM    2  C2  UNL     1      -0.729   3.053  -0.908  1.00  0.00     0.173 C 
HETATM    3  C3  UNL     1      -1.719   1.961  -0.928  1.00  0.00     0.032 C 
HETATM    4  C4  UNL     1      -1.367   0.660  -1.008  1.00  0.00    -0.010 C 
HETATM    5  C5  UNL     1       0.094   0.240  -1.082  1.00  0.00     0.160 C 
HETATM    6  C6  UNL     1       1.039   1.297  -0.428  1.00  0.00     0.040 C 
HETATM    7  C7  UNL     1       0.818   1.326   1.094  1.00  0.00     0.004 C 
HETATM    8  C8  UNL     1       2.518   0.959  -0.672  1.00  0.00     0.004 C 
HETATM    9  O2  UNL     1       0.418   0.113  -2.455  1.00  0.00    -0.217 OA
HETATM   10  C13 UNL     1      -2.447  -0.395  -1.023  1.00  0.00     0.029 C 
HETATM   11  O3  UNL     1      -1.090   4.203  -0.820  1.00  0.00    -0.291 OA
ENDROOT
BRANCH   5  12
HETATM   12  C9  UNL     1       0.287  -1.125  -0.461  1.00  0.00     0.005 C 
HETATM   13  C10 UNL     1      -0.328  -1.391   0.703  1.00  0.00     0.004 C 
BRANCH  13  14
HETATM   14  C11 UNL     1      -0.137  -2.750   1.322  1.00  0.00     0.174 C 
HETATM   15  O1  UNL     1      -1.377  -3.416   1.385  1.00  0.00    -0.219 OA
HETATM   16  C12 UNL     1       0.437  -2.670   2.736  1.00  0.00     0.041 C 
ENDBRANCH  13  14
ENDBRANCH   5  12
TORSDOF 2
