REMARK  3 active torsions:
REMARK  status: ('A' for Active; 'I' for Inactive)
REMARK    1  A    between atoms: C7_9  and  O3_10 
REMARK    2  A    between atoms: O3_10  and  C8_11 
REMARK    3  A    between atoms: C12_18  and  C13_20 
ROOT
HETATM    1  C1  UNL     1       4.848   0.174   0.414  1.00  0.00     0.126 A 
HETATM    2  C2  UNL     1       5.301   1.400   0.746  1.00  0.00     0.069 A 
HETATM    3  C3  UNL     1       4.363   2.469   1.152  1.00  0.00     0.202 A 
HETATM    4  O1  UNL     1       4.840   3.545   1.435  1.00  0.00    -0.286 OA
HETATM    5  C4  UNL     1       2.926   2.080   1.162  1.00  0.00     0.087 A 
HETATM    6  C5  UNL     1       1.916   3.006   1.535  1.00  0.00     0.138 A 
HETATM    7  O2  UNL     1       2.231   4.260   1.893  1.00  0.00    -0.190 OA
HETATM    8  C6  UNL     1       0.561   2.602   1.529  1.00  0.00     0.052 A 
HETATM    9  C7  UNL     1       0.211   1.283   1.154  1.00  0.00     0.101 A 
HETATM   10  C14 UNL     1       1.217   0.361   0.783  1.00  0.00     0.049 A 
HETATM   11  C15 UNL     1       2.576   0.754   0.787  1.00  0.00     0.107 A 
HETATM   12  O9  UNL     1       3.533  -0.133   0.434  1.00  0.00    -0.305 OA
ENDROOT
BRANCH   9  13
HETATM   13  O3  UNL     1      -1.074   0.908   1.152  1.00  0.00    -0.303 OA
BRANCH  13  14
HETATM   14  C8  UNL     1      -1.402  -0.352   0.578  1.00  0.00     0.274 C 
HETATM   15  C9  UNL     1      -2.912  -0.627   0.736  1.00  0.00     0.241 C 
HETATM   16  O4  UNL     1      -3.213  -0.731   2.117  1.00  0.00    -0.215 OA
HETATM   17  C10 UNL     1      -3.318  -1.928   0.010  1.00  0.00     0.220 C 
HETATM   18  O5  UNL     1      -4.732  -2.057   0.012  1.00  0.00    -0.218 OA
HETATM   19  C11 UNL     1      -2.797  -1.891  -1.443  1.00  0.00     0.215 C 
HETATM   20  O6  UNL     1      -3.002  -3.150  -2.059  1.00  0.00    -0.218 OA
HETATM   21  C12 UNL     1      -1.291  -1.553  -1.494  1.00  0.00     0.184 C 
HETATM   22  O7  UNL     1      -1.057  -0.334  -0.801  1.00  0.00    -0.326 OA
BRANCH  21  23
HETATM   23  C13 UNL     1      -0.771  -1.359  -2.922  1.00  0.00     0.214 C 
HETATM   24  O8  UNL     1       0.631  -1.231  -2.869  1.00  0.00    -0.218 OA
ENDBRANCH  21  23
ENDBRANCH  13  14
ENDBRANCH   9  13
TORSDOF 3
