REMARK  5 active torsions:
REMARK  status: ('A' for Active; 'I' for Inactive)
REMARK    1  A    between atoms: C2_2  and  O5_25 
REMARK    2  A    between atoms: C6_6  and  C7_7 
REMARK    3  A    between atoms: C11_11  and  C12_13 
REMARK    4  A    between atoms: C14_15  and  O4_22 
REMARK    5  A    between atoms: C16_17  and  O2_19 
ROOT
HETATM    1  C1  UNL     1       3.658  -0.043  -0.887  1.00  0.00     0.026 A 
HETATM    2  C2  UNL     1       2.645   0.945  -0.912  1.00  0.00     0.116 A 
HETATM    3  C3  UNL     1       1.275   0.551  -0.930  1.00  0.00     0.113 A 
HETATM    4  C4  UNL     1       0.947  -0.814  -0.928  1.00  0.00     0.004 A 
HETATM    5  C5  UNL     1       1.969  -1.793  -0.904  1.00  0.00    -0.002 A 
HETATM    6  C6  UNL     1       3.322  -1.410  -0.883  1.00  0.00     0.001 A 
HETATM    7  C10 UNL     1      -0.555  -0.961  -0.947  1.00  0.00     0.056 A 
HETATM    8  C11 UNL     1      -1.012   0.539  -0.992  1.00  0.00     0.148 A 
HETATM    9  O1  UNL     1       0.191   1.326  -0.945  1.00  0.00    -0.327 OA
HETATM   10  C20 UNL     1      -1.027  -1.730  -2.178  1.00  0.00     0.008 C 
ENDROOT
BRANCH   8  11
HETATM   11  C12 UNL     1      -1.906   0.920   0.135  1.00  0.00     0.009 A 
HETATM   12  C13 UNL     1      -3.275   1.135  -0.094  1.00  0.00     0.025 A 
HETATM   13  C14 UNL     1      -4.123   1.494   0.969  1.00  0.00     0.121 A 
HETATM   14  C15 UNL     1      -3.598   1.641   2.266  1.00  0.00     0.175 A 
HETATM   15  C16 UNL     1      -2.225   1.426   2.498  1.00  0.00     0.121 A 
HETATM   16  O3  UNL     1      -4.389   1.979   3.264  1.00  0.00    -0.186 OA
HETATM   17  C17 UNL     1      -1.383   1.065   1.432  1.00  0.00     0.025 A 
BRANCH  13  18
HETATM   18  O4  UNL     1      -5.406   1.695   0.746  1.00  0.00    -0.326 OA
HETATM   19  C19 UNL     1      -5.869   1.633  -0.596  1.00  0.00     0.181 C 
ENDBRANCH  13  18
BRANCH  15  20
HETATM   20  O2  UNL     1      -1.729   1.561   3.711  1.00  0.00    -0.326 OA
HETATM   21  C18 UNL     1      -0.338   1.332   3.891  1.00  0.00     0.181 C 
ENDBRANCH  15  20
ENDBRANCH   8  11
BRANCH   2  22
HETATM   22  O5  UNL     1       3.109   2.201  -0.914  1.00  0.00    -0.326 OA
HETATM   23  C21 UNL     1       2.166   3.262  -0.969  1.00  0.00     0.181 C 
ENDBRANCH   2  22
BRANCH   6  24
HETATM   24  C7  UNL     1       4.385  -2.437  -0.854  1.00  0.00    -0.004 C 
HETATM   25  C8  UNL     1       4.072  -3.676  -0.439  1.00  0.00    -0.026 C 
HETATM   26  C9  UNL     1       5.158  -4.719  -0.412  1.00  0.00     0.031 C 
ENDBRANCH   6  24
TORSDOF 5
