REMARK  15 active torsions:
REMARK  status: ('A' for Active; 'I' for Inactive)
REMARK    1  A    between atoms: C1_1  and  C6_7 
REMARK    2  A    between atoms: C2_2  and  C3_3 
REMARK    3  A    between atoms: C3_3  and  C4_4 
REMARK    4  A    between atoms: C7_8  and  C8_9 
REMARK    5  A    between atoms: C8_9  and  C9_11 
REMARK    6  A    between atoms: C10_12  and  C11_13 
REMARK    7  A    between atoms: C11_13  and  C12_14 
REMARK    8  A    between atoms: C12_14  and  C13_15 
REMARK    9  A    between atoms: C13_15  and  C14_16 
REMARK   10  A    between atoms: C14_16  and  C15_17 
REMARK   11  A    between atoms: C15_17  and  C16_18 
REMARK   12  A    between atoms: C16_18  and  C17_19 
REMARK   13  A    between atoms: C17_19  and  C18_20 
REMARK   14  A    between atoms: C18_20  and  O3_21 
REMARK   15  A    between atoms: O3_21  and  C19_22 
ROOT
HETATM    1  C9  UNL     1       3.371  -1.998   0.873  1.00  0.00     0.015 C 
HETATM    2  C10 UNL     1       2.672  -0.965   1.369  1.00  0.00    -0.027 C 
ENDROOT
BRANCH   2   3
HETATM    3  C11 UNL     1       1.426  -0.527   0.648  1.00  0.00     0.026 C 
BRANCH   3   4
HETATM    4  C12 UNL     1       0.926   0.838   1.123  1.00  0.00     0.005 C 
BRANCH   4   5
HETATM    5  C13 UNL     1      -0.336   1.291   0.389  1.00  0.00     0.000 C 
BRANCH   5   6
HETATM    6  C14 UNL     1      -0.838   2.654   0.865  1.00  0.00     0.000 C 
BRANCH   6   7
HETATM    7  C15 UNL     1      -2.100   3.109   0.129  1.00  0.00     0.000 C 
BRANCH   7   8
HETATM    8  C16 UNL     1      -2.602   4.473   0.605  1.00  0.00     0.003 C 
BRANCH   8   9
HETATM    9  C17 UNL     1      -3.863   4.926  -0.129  1.00  0.00     0.033 C 
BRANCH   9  10
HETATM   10  C18 UNL     1      -4.365   6.291   0.348  1.00  0.00     0.152 C 
BRANCH  10  11
HETATM   11  O3  UNL     1      -5.533   6.645  -0.377  1.00  0.00    -0.302 OA
BRANCH  11  12
HETATM   12  C19 UNL     1      -6.020   7.824  -0.008  1.00  0.00     0.272 C 
HETATM   13  C20 UNL     1      -7.262   8.262  -0.736  1.00  0.00     0.106 C 
HETATM   14  O4  UNL     1      -5.524   8.520   0.848  1.00  0.00    -0.264 OA
ENDBRANCH  11  12
ENDBRANCH  10  11
ENDBRANCH   9  10
ENDBRANCH   8   9
ENDBRANCH   7   8
ENDBRANCH   6   7
ENDBRANCH   5   6
ENDBRANCH   4   5
ENDBRANCH   3   4
ENDBRANCH   2   3
BRANCH   1  15
HETATM   15  C8  UNL     1       2.869  -2.670  -0.377  1.00  0.00     0.238 C 
HETATM   16  O2  UNL     1       3.371  -1.994  -1.508  1.00  0.00    -0.204 OA
BRANCH  15  17
HETATM   17  C7  UNL     1       3.355  -4.047  -0.377  1.00  0.00    -0.041 C 
HETATM   18  C6  UNL     1       3.752  -5.168  -0.377  1.00  0.00    -0.011 C 
BRANCH  18  19
HETATM   19  C1  UNL     1       4.211  -6.469  -0.377  1.00  0.00    -0.011 C 
HETATM   20  C2  UNL     1       4.609  -7.592  -0.377  1.00  0.00    -0.041 C 
BRANCH  20  21
HETATM   21  C3  UNL     1       5.096  -8.967  -0.377  1.00  0.00     0.238 C 
HETATM   22  O1  UNL     1       6.504  -8.967  -0.377  1.00  0.00    -0.204 OA
BRANCH  21  23
HETATM   23  C4  UNL     1       4.594  -9.639  -1.629  1.00  0.00     0.019 C 
HETATM   24  C5  UNL     1       3.418 -10.287  -1.580  1.00  0.00    -0.001 C 
ENDBRANCH  21  23
ENDBRANCH  20  21
ENDBRANCH  18  19
ENDBRANCH  15  17
ENDBRANCH   1  15
TORSDOF 15
