REMARK  2 active torsions:
REMARK  status: ('A' for Active; 'I' for Inactive)
REMARK    1  A    between atoms: C3_3  and  O4_14 
REMARK    2  A    between atoms: C6_6  and  O1_7 
ROOT
HETATM    1  C1  UNL     1      -1.219   0.229   0.367  1.00  0.00     0.049 A 
HETATM    2  C2  UNL     1      -1.084  -0.615  -0.699  1.00  0.00     0.126 A 
HETATM    3  C3  UNL     1       0.153  -1.088  -1.183  1.00  0.00     0.140 A 
HETATM    4  C4  UNL     1       1.301  -0.629  -0.480  1.00  0.00     0.129 A 
HETATM    5  C5  UNL     1       1.174   0.256   0.641  1.00  0.00     0.047 A 
HETATM    6  C6  UNL     1      -0.103   0.711   1.094  1.00  0.00     0.098 A 
HETATM    7  C8  UNL     1       2.422   0.695   1.328  1.00  0.00     0.009 A 
HETATM    8  C9  UNL     1       3.612   0.252   0.879  1.00  0.00     0.069 A 
HETATM    9  C10 UNL     1       3.672  -0.662  -0.281  1.00  0.00     0.300 A 
HETATM   10  O2  UNL     1       2.526  -1.039  -0.883  1.00  0.00    -0.271 OA
HETATM   11  O3  UNL     1       4.754  -1.043  -0.660  1.00  0.00    -0.259 OA
HETATM   12  O5  UNL     1      -2.330  -0.926  -1.219  1.00  0.00    -0.303 OA
HETATM   13  C12 UNL     1      -3.234  -0.205  -0.387  1.00  0.00     0.123 A 
HETATM   14  C13 UNL     1      -2.521   0.510   0.600  1.00  0.00     0.031 A 
ENDROOT
BRANCH   3  15
HETATM   15  O4  UNL     1       0.381  -1.912  -2.217  1.00  0.00    -0.324 OA
HETATM   16  C11 UNL     1      -0.740  -2.418  -2.926  1.00  0.00     0.182 C 
ENDBRANCH   3  15
BRANCH   6  17
HETATM   17  O1  UNL     1      -0.105   1.537   2.151  1.00  0.00    -0.328 OA
HETATM   18  C7  UNL     1      -1.092   2.559   2.195  1.00  0.00     0.181 C 
ENDBRANCH   6  17
TORSDOF 2
