REMARK  0 active torsions:
REMARK  status: ('A' for Active; 'I' for Inactive)
ROOT
HETATM    1  C1  UNL     1      -0.713   1.402   0.805  1.00  0.00     0.097 A 
HETATM    2  C2  UNL     1      -1.013   0.460  -0.222  1.00  0.00     0.022 A 
HETATM    3  C3  UNL     1      -0.281  -0.819  -0.281  1.00  0.00     0.001 A 
HETATM    4  C4  UNL     1       1.152  -0.843  -0.323  1.00  0.00    -0.012 A 
HETATM    5  C5  UNL     1       1.974   0.400  -0.385  1.00  0.00     0.093 C 
HETATM    6  C6  UNL     1       2.429   0.884   0.974  1.00  0.00     0.185 C 
HETATM    7  C7  UNL     1       1.460   1.687   1.810  1.00  0.00     0.213 C 
HETATM    8  O1  UNL     1       0.160   1.094   1.785  1.00  0.00    -0.323 OA
HETATM    9  O2  UNL     1       3.540   0.635   1.381  1.00  0.00    -0.293 OA
HETATM   10  C8  UNL     1       1.821  -2.077  -0.323  1.00  0.00     0.026 A 
HETATM   11  C9  UNL     1       1.100  -3.282  -0.321  1.00  0.00     0.156 A 
HETATM   12  C10 UNL     1      -0.305  -3.260  -0.323  1.00  0.00     0.156 A 
HETATM   13  C11 UNL     1      -0.989  -2.033  -0.304  1.00  0.00     0.029 A 
HETATM   14  O3  UNL     1      -0.986  -4.389  -0.339  1.00  0.00    -0.188 OA
HETATM   15  O4  UNL     1       1.745  -4.432  -0.321  1.00  0.00    -0.188 OA
HETATM   16  C12 UNL     1      -2.004   0.771  -1.169  1.00  0.00     0.004 A 
HETATM   17  C13 UNL     1      -2.654   2.016  -1.128  1.00  0.00     0.028 A 
HETATM   18  C14 UNL     1      -2.324   2.959  -0.140  1.00  0.00     0.133 A 
HETATM   19  C15 UNL     1      -1.355   2.648   0.828  1.00  0.00     0.052 A 
HETATM   20  O5  UNL     1      -2.925   4.132  -0.120  1.00  0.00    -0.190 OA
ENDROOT
TORSDOF 0
