REMARK  9 active torsions:
REMARK  status: ('A' for Active; 'I' for Inactive)
REMARK    1  A    between atoms: C1_1  and  C8_10 
REMARK    2  A    between atoms: C5_5  and  O1_7 
REMARK    3  A    between atoms: C8_10  and  C9_13 
REMARK    4  A    between atoms: C9_13  and  O5_14 
REMARK    5  A    between atoms: C9_13  and  C20_27 
REMARK    6  A    between atoms: O5_14  and  C10_15 
REMARK    7  A    between atoms: C11_16  and  O7_25 
REMARK    8  A    between atoms: C13_18  and  C16_21 
REMARK    9  A    between atoms: C17_22  and  C18_23 
ROOT
HETATM    1  C9  UNL     1      -2.907  -0.346   0.018  1.00  0.00     0.215 C 
ENDROOT
BRANCH   1   2
HETATM    2  C8  UNL     1      -2.759   1.036  -0.618  1.00  0.00     0.296 C 
HETATM    3  O3  UNL     1      -3.199   1.999   0.313  1.00  0.00    -0.185 OA
HETATM    4  O4  UNL     1      -3.569   1.082  -1.770  1.00  0.00    -0.185 OA
BRANCH   2   5
HETATM    5  C1  UNL     1      -1.348   1.318  -0.993  1.00  0.00     0.038 A 
HETATM    6  C2  UNL     1      -0.633   2.334  -0.335  1.00  0.00     0.003 A 
HETATM    7  C3  UNL     1       0.700   2.598  -0.692  1.00  0.00     0.029 A 
HETATM    8  C4  UNL     1       1.323   1.850  -1.707  1.00  0.00     0.153 A 
HETATM    9  C5  UNL     1       0.607   0.832  -2.366  1.00  0.00     0.119 A 
HETATM   10  O2  UNL     1       2.573   2.103  -2.036  1.00  0.00    -0.188 OA
HETATM   11  C6  UNL     1      -0.727   0.569  -2.008  1.00  0.00     0.027 A 
BRANCH   9  12
HETATM   12  O1  UNL     1       1.183   0.126  -3.318  1.00  0.00    -0.326 OA
HETATM   13  C7  UNL     1       0.426  -0.906  -3.934  1.00  0.00     0.181 C 
ENDBRANCH   9  12
ENDBRANCH   2   5
ENDBRANCH   1   2
BRANCH   1  14
HETATM   14  O5  UNL     1      -2.242  -0.365   1.272  1.00  0.00    -0.323 OA
BRANCH  14  15
HETATM   15  C10 UNL     1      -0.926  -0.418   1.274  1.00  0.00     0.116 A 
HETATM   16  C11 UNL     1      -0.178   0.527   2.002  1.00  0.00     0.116 A 
HETATM   17  C12 UNL     1       1.227   0.462   1.998  1.00  0.00     0.026 A 
HETATM   18  C13 UNL     1       1.887  -0.543   1.269  1.00  0.00     0.002 A 
HETATM   19  C14 UNL     1       1.140  -1.486   0.542  1.00  0.00     0.002 A 
HETATM   20  C15 UNL     1      -0.264  -1.422   0.546  1.00  0.00     0.026 A 
BRANCH  16  21
HETATM   21  O7  UNL     1      -0.790   1.472   2.688  1.00  0.00    -0.326 OA
HETATM   22  C19 UNL     1      -1.913   1.103   3.475  1.00  0.00     0.181 C 
ENDBRANCH  16  21
BRANCH  18  23
HETATM   23  C16 UNL     1       3.379  -0.608   1.268  1.00  0.00    -0.002 C 
HETATM   24  C17 UNL     1       3.974  -1.760   0.918  1.00  0.00     0.009 C 
BRANCH  24  25
HETATM   25  C18 UNL     1       5.478  -1.821   0.918  1.00  0.00     0.209 C 
HETATM   26  O6  UNL     1       5.894  -3.168   0.918  1.00  0.00    -0.215 OA
ENDBRANCH  24  25
ENDBRANCH  18  23
ENDBRANCH  14  15
ENDBRANCH   1  14
BRANCH   1  27
HETATM   27  C20 UNL     1      -4.369  -0.754   0.209  1.00  0.00     0.218 C 
HETATM   28  O8  UNL     1      -4.396  -2.027   0.814  1.00  0.00    -0.218 OA
ENDBRANCH   1  27
TORSDOF 9
