REMARK  1 active torsions:
REMARK  status: ('A' for Active; 'I' for Inactive)
REMARK    1  A    between atoms: C1_1  and  C13_13 
ROOT
HETATM    1  C1  UNL     1       0.879   1.000   0.391  1.00  0.00     0.005 C 
HETATM    2  C2  UNL     1       2.309   0.451   0.160  1.00  0.00     0.025 C 
HETATM    3  C3  UNL     1       2.457  -1.065   0.199  1.00  0.00    -0.034 C 
HETATM    4  C4  UNL     1       1.428  -1.875   0.500  1.00  0.00    -0.048 C 
HETATM    5  C5  UNL     1       0.031  -1.334   0.709  1.00  0.00     0.023 C 
HETATM    6  C6  UNL     1      -1.027  -2.406   0.356  1.00  0.00     0.029 C 
HETATM    7  C7  UNL     1      -2.432  -1.887   0.108  1.00  0.00    -0.034 C 
HETATM    8  C8  UNL     1      -2.703  -0.570   0.027  1.00  0.00    -0.048 C 
HETATM    9  C9  UNL     1      -1.645   0.484   0.268  1.00  0.00     0.022 C 
HETATM   10  C10 UNL     1      -0.209  -0.010  -0.029  1.00  0.00     0.008 C 
HETATM   11  C11 UNL     1      -4.104  -0.139  -0.330  1.00  0.00     0.026 C 
HETATM   12  C12 UNL     1       1.658  -3.359   0.623  1.00  0.00     0.026 C 
ENDROOT
BRANCH   1  13
HETATM   13  C13 UNL     1       0.705   2.373  -0.260  1.00  0.00     0.000 C 
HETATM   14  C14 UNL     1       1.760   3.381   0.199  1.00  0.00     0.000 C 
HETATM   15  C15 UNL     1       0.590   2.293  -1.783  1.00  0.00     0.000 C 
ENDBRANCH   1  13
TORSDOF 1
