REMARK  2 active torsions:
REMARK  status: ('A' for Active; 'I' for Inactive)
REMARK    1  A    between atoms: C2_2  and  C3_3 
REMARK    2  A    between atoms: C3_3  and  C6_6 
ROOT
HETATM    1  C3  UNL     1       0.727  -1.977   0.064  1.00  0.00     0.066 C 
HETATM    2  C4  UNL     1       0.981  -2.072   1.586  1.00  0.00     0.006 C 
HETATM    3  C5  UNL     1       1.896  -2.658  -0.665  1.00  0.00     0.006 C 
ENDROOT
BRANCH   1   4
HETATM    4  C2  UNL     1       0.709  -0.452  -0.381  1.00  0.00     0.212 A 
HETATM    5  C1  UNL     1      -0.657   0.139   0.157  1.00  0.00     0.300 A 
HETATM    6  O2  UNL     1       0.129   0.732   0.459  1.00  0.00    -0.292 OA
HETATM    7  O3  UNL     1      -1.443  -0.493   0.911  1.00  0.00    -0.262 OA
ENDBRANCH   1   4
BRANCH   1   8
HETATM    8  C6  UNL     1      -0.552  -2.783  -0.299  1.00  0.00     0.185 C 
HETATM    9  O1  UNL     1      -0.381  -4.135   0.145  1.00  0.00    -0.221 OA
ENDBRANCH   1   8
TORSDOF 2
