REMARK  8 active torsions:
REMARK  status: ('A' for Active; 'I' for Inactive)
REMARK    1  A    between atoms: C5_5  and  O2_7 
REMARK    2  A    between atoms: O2_7  and  C6_8 
REMARK    3  A    between atoms: C24_26  and  C25_27 
REMARK    4  A    between atoms: C25_27  and  C26_28 
REMARK    5  A    between atoms: C26_28  and  C27_29 
REMARK    6  A    between atoms: C27_29  and  C28_30 
REMARK    7  A    between atoms: C27_29  and  O4_35 
REMARK    8  A    between atoms: O4_35  and  C32_36 
ROOT
HETATM    1  C6  UNL     1       5.102   0.277  -0.113  1.00  0.00     0.118 C 
HETATM    2  C7  UNL     1       4.352  -0.184   1.145  1.00  0.00     0.030 C 
HETATM    3  C8  UNL     1       2.914  -0.615   0.824  1.00  0.00     0.003 C 
HETATM    4  C9  UNL     1       2.180   0.508   0.074  1.00  0.00     0.000 A 
HETATM    5  C10 UNL     1       2.932   0.983  -1.189  1.00  0.00     0.002 C 
HETATM    6  C11 UNL     1       4.375   1.434  -0.842  1.00  0.00     0.025 C 
HETATM    7  C12 UNL     1       4.336   2.695   0.037  1.00  0.00     0.002 C 
HETATM    8  C13 UNL     1       5.129   1.774  -2.137  1.00  0.00     0.002 C 
HETATM    9  C14 UNL     1       2.133   2.039  -1.973  1.00  0.00     0.000 C 
HETATM   10  C15 UNL     1       0.734   1.527  -2.299  1.00  0.00     0.000 C 
HETATM   11  C16 UNL     1      -0.131   1.275  -1.043  1.00  0.00     0.003 C 
HETATM   12  C17 UNL     1       0.639   0.578   0.119  1.00  0.00     0.000 A 
HETATM   13  C18 UNL     1      -0.137  -0.437   1.006  1.00  0.00     0.000 C 
HETATM   14  C19 UNL     1      -1.541  -0.904   0.578  1.00  0.00     0.001 C 
HETATM   15  C20 UNL     1      -2.262   0.197  -0.193  1.00  0.00     0.009 C 
HETATM   16  C21 UNL     1      -1.428   0.541  -1.457  1.00  0.00     0.035 C 
HETATM   17  C22 UNL     1      -2.459   1.389  -2.244  1.00  0.00     0.209 C 
HETATM   18  C23 UNL     1      -3.779   0.734  -1.936  1.00  0.00     0.180 C 
HETATM   19  C24 UNL     1      -3.623  -0.217  -0.783  1.00  0.00     0.060 C 
HETATM   20  O6  UNL     1      -4.816   0.945  -2.523  1.00  0.00    -0.293 OA
HETATM   21  O7  UNL     1      -2.205   1.412  -3.637  1.00  0.00    -0.215 OA
HETATM   22  C35 UNL     1      -1.125  -0.758  -2.234  1.00  0.00     0.003 C 
HETATM   23  C36 UNL     1      -2.471   1.436   0.695  1.00  0.00     0.001 C 
HETATM   24  C37 UNL     1       1.496   1.537   0.941  1.00  0.00     0.000 A 
ENDROOT
BRANCH  19  25
HETATM   25  C25 UNL     1      -4.777  -0.168   0.217  1.00  0.00     0.009 C 
HETATM   26  C34 UNL     1      -4.436  -1.031   1.432  1.00  0.00     0.001 C 
BRANCH  25  27
HETATM   27  C26 UNL     1      -6.068  -0.609  -0.475  1.00  0.00     0.033 C 
BRANCH  27  28
HETATM   28  C27 UNL     1      -7.283  -0.549   0.453  1.00  0.00     0.154 C 
BRANCH  28  29
HETATM   29  C28 UNL     1      -7.590  -1.943   0.981  1.00  0.00     0.167 A 
HETATM   30  C29 UNL     1      -7.791  -2.234   2.510  1.00  0.00     0.120 A 
HETATM   31  C30 UNL     1      -8.012  -3.662   2.986  1.00  0.00     0.032 C 
HETATM   32  C31 UNL     1      -7.664  -1.111   3.531  1.00  0.00     0.032 C 
HETATM   33  O3  UNL     1      -8.818  -1.904   1.631  1.00  0.00    -0.354 OA
ENDBRANCH  28  29
BRANCH  28  34
HETATM   34  O4  UNL     1      -8.404  -0.057  -0.268  1.00  0.00    -0.302 OA
BRANCH  34  35
HETATM   35  C32 UNL     1      -8.316   1.246  -0.516  1.00  0.00     0.272 C 
HETATM   36  C33 UNL     1      -9.471   1.832  -1.283  1.00  0.00     0.106 C 
HETATM   37  O5  UNL     1      -7.391   1.938  -0.162  1.00  0.00    -0.264 OA
ENDBRANCH  34  35
ENDBRANCH  28  34
ENDBRANCH  27  28
ENDBRANCH  25  27
ENDBRANCH  19  25
BRANCH   1  38
HETATM   38  O2  UNL     1       6.414   0.662   0.258  1.00  0.00    -0.332 OA
BRANCH  38  39
HETATM   39  C5  UNL     1       7.387  -0.320  -0.039  1.00  0.00     0.270 C 
HETATM   40  C4  UNL     1       8.815   0.238   0.205  1.00  0.00     0.241 C 
HETATM   41  C3  UNL     1       9.883  -0.867   0.039  1.00  0.00     0.220 C 
HETATM   42  O8  UNL     1       9.072   1.285  -0.715  1.00  0.00    -0.215 OA
HETATM   43  C2  UNL     1       9.488  -2.103   0.875  1.00  0.00     0.215 C 
HETATM   44  O9  UNL     1      11.147  -0.383   0.465  1.00  0.00    -0.218 OA
HETATM   45  C1  UNL     1       8.039  -2.539   0.582  1.00  0.00     0.181 C 
HETATM   46  O10 UNL     1      10.348  -3.189   0.580  1.00  0.00    -0.218 OA
HETATM   47  O1  UNL     1       7.160  -1.445   0.799  1.00  0.00    -0.326 OA
ENDBRANCH  38  39
ENDBRANCH   1  38
TORSDOF 8
