REMARK  0 active torsions:
REMARK  status: ('A' for Active; 'I' for Inactive)
ROOT
HETATM    1  C1  UNL     1      -2.184  -3.502   0.236  1.00  0.00     0.002 A 
HETATM    2  C2  UNL     1      -0.920  -2.891   0.384  1.00  0.00     0.024 A 
HETATM    3  C3  UNL     1      -0.719  -1.531   0.041  1.00  0.00     0.096 A 
HETATM    4  C4  UNL     1      -1.817  -0.776  -0.472  1.00  0.00     0.001 A 
HETATM    5  C5  UNL     1      -3.086  -1.399  -0.616  1.00  0.00    -0.002 A 
HETATM    6  C6  UNL     1      -3.270  -2.754  -0.263  1.00  0.00    -0.000 A 
HETATM    7  C7  UNL     1      -1.673   0.643  -0.863  1.00  0.00     0.033 C 
HETATM    8  C8  UNL     1      -1.030   1.490   0.241  1.00  0.00     0.033 C 
HETATM    9  C9  UNL     1       0.447   1.400   0.233  1.00  0.00     0.005 A 
HETATM   10  C10 UNL     1       1.127   0.143   0.228  1.00  0.00     0.121 A 
HETATM   11  O1  UNL     1       0.542  -1.077   0.232  1.00  0.00    -0.306 OA
HETATM   12  C11 UNL     1       2.546   0.128   0.228  1.00  0.00     0.155 A 
HETATM   13  C12 UNL     1       3.285   1.331   0.227  1.00  0.00     0.057 A 
HETATM   14  C13 UNL     1       2.614   2.570   0.229  1.00  0.00     0.133 A 
HETATM   15  C14 UNL     1       1.203   2.603   0.233  1.00  0.00     0.025 A 
HETATM   16  O2  UNL     1       3.314   3.713   0.227  1.00  0.00    -0.190 OA
HETATM   17  O3  UNL     1       3.202  -1.041   0.228  1.00  0.00    -0.188 OA
ENDROOT
TORSDOF 0
