REMARK  3 active torsions:
REMARK  status: ('A' for Active; 'I' for Inactive)
REMARK    1  A    between atoms: C2_2  and  O4_34 
REMARK    2  A    between atoms: C3_3  and  C30_31 
REMARK    3  A    between atoms: O4_34  and  C31_35 
ROOT
HETATM    1  C1  UNL     1       4.551  -1.584  -1.021  1.00  0.00     0.031 C 
HETATM    2  C2  UNL     1       4.920  -1.598   0.465  1.00  0.00     0.134 C 
HETATM    3  C3  UNL     1       3.733  -2.029   1.344  1.00  0.00     0.104 C 
HETATM    4  C4  UNL     1       2.457  -1.170   1.066  1.00  0.00     0.012 C 
HETATM    5  C5  UNL     1       2.090  -1.016  -0.449  1.00  0.00     0.007 C 
HETATM    6  C6  UNL     1       3.352  -0.670  -1.285  1.00  0.00     0.003 C 
HETATM    7  C7  UNL     1       1.039   0.135  -0.670  1.00  0.00     0.062 C 
HETATM    8  C8  UNL     1       0.135   0.401   0.572  1.00  0.00     0.010 C 
HETATM    9  C9  UNL     1       1.041   0.838   1.760  1.00  0.00     0.001 C 
HETATM   10  C10 UNL     1       2.453   0.215   1.742  1.00  0.00     0.001 C 
HETATM   11  C11 UNL     1      -0.924   1.500   0.227  1.00  0.00     0.016 C 
HETATM   12  C12 UNL     1      -1.783   1.004  -0.930  1.00  0.00    -0.042 C 
HETATM   13  C13 UNL     1      -1.197   0.360  -1.961  1.00  0.00     0.029 C 
HETATM   14  C14 UNL     1       0.236   0.010  -1.959  1.00  0.00     0.172 C 
HETATM   15  O1  UNL     1       0.752  -0.375  -2.982  1.00  0.00    -0.291 OA
HETATM   16  C15 UNL     1      -3.279   1.266  -0.832  1.00  0.00     0.018 C 
HETATM   17  C16 UNL     1      -3.854   0.604   0.455  1.00  0.00     0.003 C 
HETATM   18  C17 UNL     1      -3.002   0.957   1.711  1.00  0.00     0.001 C 
HETATM   19  C18 UNL     1      -1.822   1.904   1.432  1.00  0.00     0.004 C 
HETATM   20  C19 UNL     1      -5.311   1.084   0.650  1.00  0.00     0.000 C 
HETATM   21  C20 UNL     1      -6.193   0.848  -0.588  1.00  0.00     0.000 C 
HETATM   22  C21 UNL     1      -5.596   1.473  -1.861  1.00  0.00     0.000 C 
HETATM   23  C22 UNL     1      -4.152   0.983  -2.088  1.00  0.00     0.004 C 
HETATM   24  C23 UNL     1      -4.164  -0.494  -2.514  1.00  0.00     0.000 C 
HETATM   25  C24 UNL     1      -5.672   3.004  -1.811  1.00  0.00     0.000 C 
HETATM   26  C25 UNL     1      -3.859  -0.930   0.311  1.00  0.00     0.000 C 
HETATM   27  C26 UNL     1      -0.223   2.779  -0.262  1.00  0.00     0.004 C 
HETATM   28  C27 UNL     1      -0.598  -0.902   0.945  1.00  0.00     0.001 C 
HETATM   29  C28 UNL     1       1.516  -2.357  -0.941  1.00  0.00     0.000 C 
HETATM   30  C29 UNL     1       4.133  -1.976   2.824  1.00  0.00     0.013 C 
ENDROOT
BRANCH   2  31
HETATM   31  O4  UNL     1       5.356  -0.297   0.844  1.00  0.00    -0.304 OA
BRANCH  31  32
HETATM   32  C31 UNL     1       6.590  -0.035   0.430  1.00  0.00     0.272 C 
HETATM   33  O5  UNL     1       7.318  -0.855  -0.078  1.00  0.00    -0.264 OA
HETATM   34  C32 UNL     1       7.045   1.385   0.633  1.00  0.00     0.106 C 
ENDBRANCH  31  32
ENDBRANCH   2  31
BRANCH   3  35
HETATM   35  C30 UNL     1       3.438  -3.486   1.072  1.00  0.00     0.186 C 
HETATM   36  O2  UNL     1       2.451  -4.018   1.527  1.00  0.00    -0.647 OA
HETATM   37  O3  UNL     1       4.332  -4.113   0.314  1.00  0.00    -0.647 OA
ENDBRANCH   3  35
TORSDOF 3
