REMARK  2 active torsions:
REMARK  status: ('A' for Active; 'I' for Inactive)
REMARK    1  A    between atoms: C4_4  and  C8_10 
REMARK    2  A    between atoms: C5_5  and  C7_7 
ROOT
HETATM    1  C1  UNL     1      -0.619  -2.307   0.000  1.00  0.00     0.000 A 
HETATM    2  C2  UNL     1       0.785  -2.256   0.000  1.00  0.00     0.000 A 
HETATM    3  C3  UNL     1       1.443  -1.014   0.000  1.00  0.00     0.006 A 
HETATM    4  C4  UNL     1       0.699   0.180   0.000  1.00  0.00     0.070 A 
HETATM    5  C5  UNL     1      -0.711   0.129   0.000  1.00  0.00     0.070 A 
HETATM    6  C6  UNL     1      -1.365  -1.117   0.000  1.00  0.00     0.006 A 
ENDROOT
BRANCH   4   7
HETATM    7  C8  UNL     1       1.420   1.490   0.000  1.00  0.00     0.211 C 
HETATM    8  O3  UNL     1       0.982   2.440  -0.607  1.00  0.00    -0.644 OA
HETATM    9  O4  UNL     1       2.547   1.518   0.705  1.00  0.00    -0.644 OA
ENDBRANCH   4   7
BRANCH   5  10
HETATM   10  C7  UNL     1      -1.524   1.385   0.000  1.00  0.00     0.211 C 
HETATM   11  O1  UNL     1      -1.158   2.361   0.609  1.00  0.00    -0.644 OA
HETATM   12  O2  UNL     1      -2.649   1.330  -0.707  1.00  0.00    -0.644 OA
ENDBRANCH   5  10
TORSDOF 2
