REMARK  5 active torsions:
REMARK  status: ('A' for Active; 'I' for Inactive)
REMARK    1  A    between atoms: C2_2  and  O7_37 
REMARK    2  A    between atoms: C3_3  and  C30_35 
REMARK    3  A    between atoms: C16_16  and  C25_26 
REMARK    4  A    between atoms: O7_37  and  C31_38 
REMARK    5  A    between atoms: C35_45  and  C36_47 
ROOT
HETATM    1  C1  UNL     1      -3.994  -1.022  -1.185  1.00  0.00     0.152 C 
HETATM    2  C2  UNL     1      -4.375  -0.906   0.297  1.00  0.00     0.157 C 
HETATM    3  C3  UNL     1      -4.248   0.629   0.395  1.00  0.00     0.136 C 
HETATM    4  C4  UNL     1      -2.750   1.047   0.348  1.00  0.00     0.014 C 
HETATM    5  C5  UNL     1      -2.070   0.695  -1.014  1.00  0.00     0.003 C 
HETATM    6  C6  UNL     1      -2.483  -0.748  -1.420  1.00  0.00     0.033 C 
HETATM    7  C7  UNL     1      -0.524   0.924  -0.898  1.00  0.00     0.005 C 
HETATM    8  C8  UNL     1      -0.156   2.385  -0.467  1.00  0.00     0.004 C 
HETATM    9  C9  UNL     1      -0.899   2.699   0.861  1.00  0.00     0.000 C 
HETATM   10  C10 UNL     1      -2.426   2.488   0.766  1.00  0.00     0.001 C 
HETATM   11  C11 UNL     1       1.408   2.576  -0.367  1.00  0.00     0.017 C 
HETATM   12  C12 UNL     1       2.187   1.363   0.139  1.00  0.00    -0.049 C 
HETATM   13  C13 UNL     1       1.596   0.168   0.350  1.00  0.00    -0.035 C 
HETATM   14  C14 UNL     1       0.146  -0.098   0.051  1.00  0.00     0.025 C 
HETATM   15  C15 UNL     1       3.689   1.568   0.348  1.00  0.00     0.030 C 
HETATM   16  C16 UNL     1       4.369   1.975  -0.990  1.00  0.00     0.110 C 
HETATM   17  C17 UNL     1       3.576   3.137  -1.650  1.00  0.00     0.162 C 
HETATM   18  C18 UNL     1       2.057   2.875  -1.748  1.00  0.00     0.037 C 
HETATM   19  O1  UNL     1       4.078   3.428  -2.943  1.00  0.00    -0.223 OA
HETATM   20  C19 UNL     1       5.840   2.422  -0.726  1.00  0.00     0.013 C 
HETATM   21  C20 UNL     1       6.404   1.988   0.639  1.00  0.00     0.001 C 
HETATM   22  C21 UNL     1       6.004   0.557   1.026  1.00  0.00     0.000 C 
HETATM   23  C22 UNL     1       4.459   0.408   1.043  1.00  0.00     0.005 C 
HETATM   24  C23 UNL     1       6.625  -0.422   0.016  1.00  0.00     0.000 C 
HETATM   25  C24 UNL     1       6.578   0.223   2.406  1.00  0.00     0.000 C 
HETATM   26  C26 UNL     1       1.703   3.770   0.561  1.00  0.00     0.004 C 
HETATM   27  C27 UNL     1      -0.684   3.422  -1.476  1.00  0.00     0.000 C 
HETATM   28  C28 UNL     1      -2.572   1.602  -2.156  1.00  0.00     0.000 C 
HETATM   29  C29 UNL     1      -4.951   0.953  -0.896  1.00  0.00     0.276 C 
HETATM   30  O4  UNL     1      -4.797  -0.014  -1.805  1.00  0.00    -0.302 OA
HETATM   31  O5  UNL     1      -5.574   1.977  -1.068  1.00  0.00    -0.264 OA
ENDROOT
BRANCH   2  32
HETATM   32  O7  UNL     1      -3.531  -1.645   1.166  1.00  0.00    -0.328 OA
BRANCH  32  33
HETATM   33  C31 UNL     1      -3.807  -3.031   1.160  1.00  0.00     0.270 C 
HETATM   34  C32 UNL     1      -3.207  -3.707   2.420  1.00  0.00     0.241 C 
HETATM   35  O8  UNL     1      -3.869  -3.219   3.576  1.00  0.00    -0.215 OA
HETATM   36  C33 UNL     1      -3.360  -5.242   2.352  1.00  0.00     0.220 C 
HETATM   37  O9  UNL     1      -2.631  -5.848   3.408  1.00  0.00    -0.218 OA
HETATM   38  C34 UNL     1      -2.842  -5.766   0.994  1.00  0.00     0.215 C 
HETATM   39  O10 UNL     1      -3.160  -7.139   0.854  1.00  0.00    -0.218 OA
HETATM   40  C35 UNL     1      -3.475  -4.988  -0.183  1.00  0.00     0.184 C 
HETATM   41  O11 UNL     1      -3.236  -3.598  -0.012  1.00  0.00    -0.326 OA
BRANCH  40  42
HETATM   42  C36 UNL     1      -2.877  -5.373  -1.541  1.00  0.00     0.214 C 
HETATM   43  O12 UNL     1      -3.606  -4.707  -2.547  1.00  0.00    -0.218 OA
ENDBRANCH  40  42
ENDBRANCH  32  33
ENDBRANCH   2  32
BRANCH   3  44
HETATM   44  C30 UNL     1      -4.990   1.117   1.637  1.00  0.00     0.194 C 
HETATM   45  O6  UNL     1      -5.264   2.490   1.477  1.00  0.00    -0.220 OA
ENDBRANCH   3  44
BRANCH  16  46
HETATM   46  C25 UNL     1       4.361   0.764  -1.904  1.00  0.00     0.187 C 
HETATM   47  O2  UNL     1       3.654  -0.190  -1.672  1.00  0.00    -0.647 OA
HETATM   48  O3  UNL     1       5.176   0.842  -2.953  1.00  0.00    -0.647 OA
ENDBRANCH  16  46
TORSDOF 5
