REMARK  6 active torsions:
REMARK  status: ('A' for Active; 'I' for Inactive)
REMARK    1  A    between atoms: C4_4  and  O3_9 
REMARK    2  A    between atoms: C5_6  and  C6_7 
REMARK    3  A    between atoms: O3_9  and  C7_10 
REMARK    4  A    between atoms: C7_10  and  C8_11 
REMARK    5  A    between atoms: C9_12  and  C10_13 
REMARK    6  A    between atoms: C13_16  and  O4_19 
ROOT
HETATM    1  O3  UNL     1      -0.643   0.957   0.088  1.00  0.00    -0.324 OA
ENDROOT
BRANCH   1   2
HETATM    2  C4  UNL     1      -1.891   1.445   0.539  1.00  0.00     0.270 C 
HETATM    3  C3  UNL     1      -2.143   2.875  -0.002  1.00  0.00     0.241 C 
HETATM    4  C2  UNL     1      -3.565   3.361   0.355  1.00  0.00     0.220 C 
HETATM    5  O5  UNL     1      -1.188   3.764   0.557  1.00  0.00    -0.215 OA
HETATM    6  C1  UNL     1      -4.604   2.293  -0.051  1.00  0.00     0.215 C 
HETATM    7  O6  UNL     1      -3.840   4.578  -0.318  1.00  0.00    -0.218 OA
HETATM    8  C5  UNL     1      -4.225   0.898   0.498  1.00  0.00     0.184 C 
HETATM    9  O7  UNL     1      -5.879   2.646   0.453  1.00  0.00    -0.218 OA
HETATM   10  O1  UNL     1      -2.908   0.568   0.076  1.00  0.00    -0.326 OA
BRANCH   8  11
HETATM   11  C6  UNL     1      -5.143  -0.215  -0.012  1.00  0.00     0.214 C 
HETATM   12  O2  UNL     1      -4.883  -1.381   0.738  1.00  0.00    -0.218 OA
ENDBRANCH   8  11
ENDBRANCH   1   2
BRANCH   1  13
HETATM   13  C7  UNL     1      -0.264  -0.254   0.703  1.00  0.00     0.171 C 
BRANCH  13  14
HETATM   14  C8  UNL     1       1.090  -0.672   0.197  1.00  0.00     0.006 C 
HETATM   15  C9  UNL     1       1.797  -1.559   0.914  1.00  0.00    -0.002 C 
BRANCH  15  16
HETATM   16  C10 UNL     1       3.141  -1.979   0.416  1.00  0.00    -0.000 A 
HETATM   17  C11 UNL     1       3.725  -3.170   0.879  1.00  0.00     0.002 A 
HETATM   18  C12 UNL     1       4.988  -3.563   0.408  1.00  0.00     0.024 A 
HETATM   19  C13 UNL     1       5.674  -2.768  -0.525  1.00  0.00     0.094 A 
HETATM   20  C14 UNL     1       5.088  -1.576  -0.988  1.00  0.00     0.024 A 
HETATM   21  C15 UNL     1       3.824  -1.180  -0.520  1.00  0.00     0.002 A 
BRANCH  19  22
HETATM   22  O4  UNL     1       6.861  -3.137  -0.967  1.00  0.00    -0.328 OA
HETATM   23  C16 UNL     1       7.484  -2.330  -1.955  1.00  0.00     0.181 C 
ENDBRANCH  19  22
ENDBRANCH  15  16
ENDBRANCH  13  14
ENDBRANCH   1  13
TORSDOF 6
