REMARK  2 active torsions:
REMARK  status: ('A' for Active; 'I' for Inactive)
REMARK    1  A    between atoms: C3_3  and  C21_21 
REMARK    2  A    between atoms: C12_12  and  C16_16 
ROOT
HETATM    1  C1  UNL     1      -0.434   0.315  -3.488  1.00  0.00     0.001 C 
HETATM    2  C2  UNL     1       0.341   1.613  -3.279  1.00  0.00     0.010 C 
HETATM    3  C3  UNL     1      -0.113   2.357  -2.003  1.00  0.00     0.078 C 
HETATM    4  C4  UNL     1      -0.639   1.374  -0.902  1.00  0.00     0.010 C 
HETATM    5  C5  UNL     1       0.026  -0.036  -0.946  1.00  0.00     0.004 C 
HETATM    6  C6  UNL     1      -0.154  -0.684  -2.355  1.00  0.00     0.000 C 
HETATM    7  C7  UNL     1      -0.575  -0.985   0.151  1.00  0.00     0.015 C 
HETATM    8  C8  UNL     1      -0.564  -0.315   1.522  1.00  0.00    -0.049 C 
HETATM    9  C9  UNL     1      -1.134   1.085   1.595  1.00  0.00     0.022 C 
HETATM   10  C10 UNL     1      -0.556   1.994   0.511  1.00  0.00     0.005 C 
HETATM   11  C11 UNL     1      -0.096  -0.913   2.642  1.00  0.00    -0.031 C 
HETATM   12  C12 UNL     1       0.448  -2.325   2.668  1.00  0.00     0.036 C 
HETATM   13  C13 UNL     1      -0.056  -3.128   1.457  1.00  0.00     0.008 C 
HETATM   14  C14 UNL     1       0.163  -2.351   0.156  1.00  0.00     0.004 C 
HETATM   15  C15 UNL     1       0.011  -3.010   3.966  1.00  0.00     0.009 C 
HETATM   16  C18 UNL     1      -2.065  -1.255  -0.124  1.00  0.00     0.004 C 
HETATM   17  C19 UNL     1       1.531   0.164  -0.687  1.00  0.00     0.000 C 
HETATM   18  C20 UNL     1       1.062   3.215  -1.510  1.00  0.00     0.011 C 
ENDROOT
BRANCH   3  19
HETATM   19  C21 UNL     1      -1.220   3.324  -2.356  1.00  0.00     0.184 C 
HETATM   20  O1  UNL     1      -1.765   3.278  -3.435  1.00  0.00    -0.647 OA
HETATM   21  O2  UNL     1      -1.531   4.200  -1.406  1.00  0.00    -0.647 OA
ENDBRANCH   3  19
BRANCH  12  22
HETATM   22  C16 UNL     1       1.955  -2.242   2.668  1.00  0.00    -0.023 C 
HETATM   23  C17 UNL     1       2.530  -1.029   2.668  1.00  0.00    -0.005 C 
ENDBRANCH  12  22
TORSDOF 2
