REMARK  8 active torsions:
REMARK  status: ('A' for Active; 'I' for Inactive)
REMARK    1  A    between atoms: C5_5  and  C7_7 
REMARK    2  A    between atoms: C8_8  and  C9_9 
REMARK    3  A    between atoms: C9_9  and  O2_11 
REMARK    4  A    between atoms: O2_11  and  C10_12 
REMARK    5  A    between atoms: C11_13  and  O9_32 
REMARK    6  A    between atoms: C14_17  and  C15_18 
REMARK    7  A    between atoms: C17_22  and  C18_24 
REMARK    8  A    between atoms: O9_32  and  C24_33 
ROOT
HETATM    1  C10 UNL     1       0.291   2.102   1.004  1.00  0.00     0.184 C 
HETATM    2  C11 UNL     1       0.443   0.592   1.264  1.00  0.00     0.180 C 
HETATM    3  C12 UNL     1       1.728   0.297   2.092  1.00  0.00     0.202 C 
HETATM    4  C13 UNL     1       2.379   1.568   2.717  1.00  0.00     0.266 C 
HETATM    5  O3  UNL     1       1.344   2.397   3.236  1.00  0.00    -0.326 OA
HETATM    6  C14 UNL     1       0.437   2.963   2.285  1.00  0.00     0.181 C 
HETATM    7  O5  UNL     1       3.195   2.277   1.789  1.00  0.00    -0.326 OA
HETATM    8  C16 UNL     1       4.145   1.473   1.113  1.00  0.00     0.179 C 
HETATM    9  C17 UNL     1       3.402   0.340   0.371  1.00  0.00     0.168 C 
HETATM   10  O6  UNL     1       2.684  -0.432   1.324  1.00  0.00    -0.344 OA
ENDROOT
BRANCH   1  11
HETATM   11  O2  UNL     1      -0.959   2.379   0.383  1.00  0.00    -0.296 OA
BRANCH  11  12
HETATM   12  C9  UNL     1      -1.002   1.957  -0.879  1.00  0.00     0.296 C 
HETATM   13  O1  UNL     1      -0.049   1.512  -1.473  1.00  0.00    -0.259 OA
BRANCH  12  14
HETATM   14  C8  UNL     1      -2.307   2.064  -1.543  1.00  0.00     0.068 C 
HETATM   15  C7  UNL     1      -2.461   1.668  -2.816  1.00  0.00     0.005 C 
BRANCH  15  16
HETATM   16  C5  UNL     1      -3.807   1.795  -3.449  1.00  0.00     0.002 A 
HETATM   17  C4  UNL     1      -4.969   1.707  -2.660  1.00  0.00     0.002 A 
HETATM   18  C3  UNL     1      -6.235   1.826  -3.258  1.00  0.00     0.029 A 
HETATM   19  C2  UNL     1      -6.346   2.037  -4.645  1.00  0.00     0.156 A 
HETATM   20  C1  UNL     1      -5.184   2.125  -5.436  1.00  0.00     0.156 A 
HETATM   21  O14 UNL     1      -7.535   2.148  -5.199  1.00  0.00    -0.188 OA
HETATM   22  C6  UNL     1      -3.918   2.004  -4.836  1.00  0.00     0.029 A 
HETATM   23  O15 UNL     1      -5.279   2.320  -6.734  1.00  0.00    -0.188 OA
ENDBRANCH  15  16
ENDBRANCH  12  14
ENDBRANCH  11  12
ENDBRANCH   1  11
BRANCH   2  24
HETATM   24  O9  UNL     1      -0.690   0.143   1.984  1.00  0.00    -0.326 OA
BRANCH  24  25
HETATM   25  C24 UNL     1      -1.076  -1.176   1.650  1.00  0.00     0.270 C 
HETATM   26  O10 UNL     1      -0.037  -2.063   2.051  1.00  0.00    -0.329 OA
HETATM   27  C25 UNL     1      -0.260  -3.430   1.732  1.00  0.00     0.151 C 
HETATM   28  C26 UNL     1      -1.525  -3.926   2.469  1.00  0.00     0.212 C 
HETATM   29  C29 UNL     1       1.006  -4.190   2.145  1.00  0.00     0.035 C 
HETATM   30  C27 UNL     1      -2.748  -3.041   2.143  1.00  0.00     0.220 C 
HETATM   31  O13 UNL     1      -1.781  -5.264   2.076  1.00  0.00    -0.218 OA
HETATM   32  C28 UNL     1      -2.397  -1.553   2.369  1.00  0.00     0.241 C 
HETATM   33  O12 UNL     1      -3.842  -3.408   2.967  1.00  0.00    -0.218 OA
HETATM   34  O11 UNL     1      -3.449  -0.740   1.873  1.00  0.00    -0.215 OA
ENDBRANCH  24  25
ENDBRANCH   2  24
BRANCH   6  35
HETATM   35  C15 UNL     1       0.906   4.389   1.975  1.00  0.00     0.214 C 
HETATM   36  O4  UNL     1       0.766   5.164   3.145  1.00  0.00    -0.218 OA
ENDBRANCH   6  35
BRANCH   9  37
HETATM   37  C18 UNL     1       4.342  -0.553  -0.355  1.00  0.00     0.009 A 
HETATM   38  C19 UNL     1       3.846  -1.596  -1.156  1.00  0.00     0.028 A 
HETATM   39  C20 UNL     1       4.730  -2.443  -1.846  1.00  0.00     0.156 A 
HETATM   40  C21 UNL     1       6.119  -2.246  -1.732  1.00  0.00     0.156 A 
HETATM   41  O8  UNL     1       4.258  -3.420  -2.594  1.00  0.00    -0.188 OA
HETATM   42  C22 UNL     1       6.615  -1.203  -0.932  1.00  0.00     0.029 A 
HETATM   43  O7  UNL     1       6.957  -3.035  -2.375  1.00  0.00    -0.188 OA
HETATM   44  C23 UNL     1       5.729  -0.357  -0.244  1.00  0.00     0.000 A 
ENDBRANCH   9  37
TORSDOF 8
