REMARK  1 active torsions:
REMARK  status: ('A' for Active; 'I' for Inactive)
REMARK    1  A    between atoms: C1_1  and  C13_15 
ROOT
HETATM    1  C1  UNL     1      -1.076   0.832  -0.162  1.00  0.00     0.065 C 
HETATM    2  C2  UNL     1      -2.217  -0.035  -0.664  1.00  0.00     0.155 C 
HETATM    3  C3  UNL     1      -2.270  -1.496  -0.250  1.00  0.00     0.086 C 
HETATM    4  C4  UNL     1      -0.881  -2.068  -0.067  1.00  0.00    -0.041 C 
HETATM    5  C5  UNL     1      -0.066  -2.223  -1.129  1.00  0.00    -0.034 C 
HETATM    6  C6  UNL     1       1.400  -2.564  -1.012  1.00  0.00     0.026 C 
HETATM    7  C7  UNL     1       2.291  -1.314  -1.186  1.00  0.00     0.012 C 
HETATM    8  C8  UNL     1       2.078  -0.205  -0.119  1.00  0.00     0.058 C 
HETATM    9  C9  UNL     1       1.438   1.063  -0.664  1.00  0.00     0.151 C 
HETATM   10  C10 UNL     1       0.035   0.984  -1.231  1.00  0.00     0.072 C 
HETATM   11  O1  UNL     1       2.025   2.119  -0.656  1.00  0.00    -0.296 OA
HETATM   12  C11 UNL     1       3.395   0.121   0.598  1.00  0.00     0.008 C 
HETATM   13  C12 UNL     1      -0.443  -2.416   1.336  1.00  0.00     0.026 C 
HETATM   14  O2  UNL     1      -3.070   0.424  -1.389  1.00  0.00    -0.296 OA
ENDROOT
BRANCH   1  15
HETATM   15  C13 UNL     1      -1.590   2.199   0.305  1.00  0.00     0.007 C 
HETATM   16  C14 UNL     1      -2.674   2.086   1.377  1.00  0.00     0.000 C 
HETATM   17  C15 UNL     1      -0.461   3.150   0.703  1.00  0.00     0.000 C 
ENDBRANCH   1  15
TORSDOF 1
