REMARK  4 active torsions:
REMARK  status: ('A' for Active; 'I' for Inactive)
REMARK    1  A    between atoms: C4_4  and  O4_10 
REMARK    2  A    between atoms: C5_6  and  C6_7 
REMARK    3  A    between atoms: O4_10  and  C7_11 
REMARK    4  A    between atoms: C13_18  and  C16_22 
ROOT
HETATM    1  C7  UNL     1      -1.107   0.191  -0.303  1.00  0.00     0.101 A 
HETATM    2  C8  UNL     1      -0.996   1.482   0.264  1.00  0.00     0.052 A 
HETATM    3  C9  UNL     1       0.275   2.080   0.428  1.00  0.00     0.138 A 
HETATM    4  C10 UNL     1       1.442   1.381   0.022  1.00  0.00     0.083 A 
HETATM    5  C11 UNL     1       1.334   0.066  -0.514  1.00  0.00     0.101 A 
HETATM    6  C12 UNL     1       0.057  -0.514  -0.689  1.00  0.00     0.049 A 
HETATM    7  O5  UNL     1       2.430  -0.643  -0.859  1.00  0.00    -0.328 OA
HETATM    8  C13 UNL     1       3.717  -0.285  -0.344  1.00  0.00     0.151 C 
HETATM    9  C14 UNL     1       3.942   1.234  -0.455  1.00  0.00     0.104 C 
HETATM   10  C15 UNL     1       2.787   2.016   0.137  1.00  0.00     0.180 C 
HETATM   11  O6  UNL     1       3.045   3.082   0.648  1.00  0.00    -0.291 OA
HETATM   12  O9  UNL     1       0.358   3.309   0.961  1.00  0.00    -0.190 OA
ENDROOT
BRANCH   1  13
HETATM   13  O4  UNL     1      -2.314  -0.365  -0.467  1.00  0.00    -0.303 OA
BRANCH  13  14
HETATM   14  C4  UNL     1      -3.434   0.281   0.127  1.00  0.00     0.275 C 
HETATM   15  C3  UNL     1      -4.732  -0.469  -0.238  1.00  0.00     0.241 C 
HETATM   16  C2  UNL     1      -5.947   0.135   0.496  1.00  0.00     0.221 C 
HETATM   17  O10 UNL     1      -4.922  -0.389  -1.641  1.00  0.00    -0.215 OA
HETATM   18  C1  UNL     1      -5.643   0.238   2.008  1.00  0.00     0.223 C 
HETATM   19  O11 UNL     1      -7.090  -0.682   0.287  1.00  0.00    -0.218 OA
HETATM   20  C5  UNL     1      -4.291   0.949   2.264  1.00  0.00     0.237 C 
HETATM   21  O12 UNL     1      -6.676   0.963   2.652  1.00  0.00    -0.217 OA
HETATM   22  O1  UNL     1      -3.264   0.287   1.537  1.00  0.00    -0.318 OA
BRANCH  20  23
HETATM   23  C6  UNL     1      -3.895   0.959   3.719  1.00  0.00     0.217 C 
HETATM   24  O2  UNL     1      -3.439   2.125   4.174  1.00  0.00    -0.646 OA
HETATM   25  O3  UNL     1      -3.992  -0.035   4.399  1.00  0.00    -0.646 OA
ENDBRANCH  20  23
ENDBRANCH  13  14
ENDBRANCH   1  13
BRANCH   8  26
HETATM   26  C16 UNL     1       4.762  -1.066  -1.055  1.00  0.00     0.008 A 
HETATM   27  C17 UNL     1       5.748  -1.754  -0.326  1.00  0.00     0.000 A 
HETATM   28  C18 UNL     1       6.735  -2.490  -1.004  1.00  0.00     0.029 A 
HETATM   29  C19 UNL     1       6.740  -2.543  -2.408  1.00  0.00     0.156 A 
HETATM   30  C20 UNL     1       5.752  -1.855  -3.139  1.00  0.00     0.156 A 
HETATM   31  O8  UNL     1       7.668  -3.236  -3.035  1.00  0.00    -0.188 OA
HETATM   32  C21 UNL     1       4.766  -1.119  -2.461  1.00  0.00     0.028 A 
HETATM   33  O7  UNL     1       5.750  -1.900  -4.457  1.00  0.00    -0.188 OA
ENDBRANCH   8  26
TORSDOF 4
