REMARK  6 active torsions:
REMARK  status: ('A' for Active; 'I' for Inactive)
REMARK    1  A    between atoms: C1_1  and  C9_11 
REMARK    2  A    between atoms: C3_3  and  O2_9 
REMARK    3  A    between atoms: C4_4  and  O1_7 
REMARK    4  A    between atoms: C12_14  and  C19_24 
REMARK    5  A    between atoms: C14_16  and  O5_22 
REMARK    6  A    between atoms: C19_24  and  C20_25 
ROOT
HETATM    1  C9  UNL     1       0.098   0.129   0.408  1.00  0.00     0.041 C 
HETATM    2  C10 UNL     1      -0.430   1.123  -0.658  1.00  0.00     0.113 C 
HETATM    3  C11 UNL     1      -1.766   1.713  -0.246  1.00  0.00    -0.017 C 
HETATM    4  C12 UNL     1      -2.951   0.838  -0.066  1.00  0.00    -0.021 C 
HETATM    5  C13 UNL     1      -2.942  -0.494  -0.293  1.00  0.00     0.025 C 
HETATM    6  C14 UNL     1      -1.717  -1.270  -0.760  1.00  0.00     0.215 C 
HETATM    7  C15 UNL     1      -0.551  -1.279   0.266  1.00  0.00     0.061 C 
HETATM    8  C16 UNL     1      -0.971  -1.842   1.633  1.00  0.00     0.006 C 
HETATM    9  O3  UNL     1      -1.246  -0.762  -2.016  1.00  0.00    -0.277 OA
HETATM   10  C17 UNL     1      -0.613   0.420  -1.984  1.00  0.00     0.278 C 
HETATM   11  O4  UNL     1      -0.180   0.937  -2.988  1.00  0.00    -0.264 OA
HETATM   12  C22 UNL     1      -1.852   3.043  -0.049  1.00  0.00    -0.004 C 
ENDROOT
BRANCH   1  13
HETATM   13  C1  UNL     1       1.590   0.051   0.393  1.00  0.00    -0.019 A 
HETATM   14  C2  UNL     1       2.324   0.391   1.543  1.00  0.00     0.022 A 
HETATM   15  C3  UNL     1       3.728   0.318   1.533  1.00  0.00     0.116 A 
HETATM   16  C4  UNL     1       4.400  -0.096   0.367  1.00  0.00     0.116 A 
HETATM   17  C5  UNL     1       3.664  -0.436  -0.781  1.00  0.00     0.026 A 
HETATM   18  C6  UNL     1       2.260  -0.361  -0.769  1.00  0.00    -0.002 A 
BRANCH  15  19
HETATM   19  O2  UNL     1       4.410   0.639   2.615  1.00  0.00    -0.326 OA
HETATM   20  C8  UNL     1       5.176  -0.377   3.244  1.00  0.00     0.181 C 
ENDBRANCH  15  19
BRANCH  16  21
HETATM   21  O1  UNL     1       5.717  -0.166   0.350  1.00  0.00    -0.326 OA
HETATM   22  C7  UNL     1       6.355  -0.346  -0.906  1.00  0.00     0.181 C 
ENDBRANCH  16  21
ENDBRANCH   1  13
BRANCH   6  23
HETATM   23  O5  UNL     1      -2.110  -2.609  -0.994  1.00  0.00    -0.328 OA
HETATM   24  C18 UNL     1      -2.953  -2.756  -2.115  1.00  0.00     0.177 C 
ENDBRANCH   6  23
BRANCH   4  25
HETATM   25  C19 UNL     1      -4.248   1.457   0.395  1.00  0.00     0.052 C 
BRANCH  25  26
HETATM   26  C20 UNL     1      -5.010   2.016  -0.777  1.00  0.00    -0.021 C 
HETATM   27  C21 UNL     1      -6.350   1.910  -0.779  1.00  0.00    -0.005 C 
ENDBRANCH  25  26
ENDBRANCH   4  25
TORSDOF 6
