REMARK  19 active torsions:
REMARK  status: ('A' for Active; 'I' for Inactive)
REMARK    1  A    between atoms: C1_1  and  O1_2 
REMARK    2  A    between atoms: C1_1  and  C20_25 
REMARK    3  A    between atoms: O1_2  and  C2_3 
REMARK    4  A    between atoms: C2_3  and  C3_5 
REMARK    5  A    between atoms: C3_5  and  C4_6 
REMARK    6  A    between atoms: C4_6  and  C5_7 
REMARK    7  A    between atoms: C5_7  and  C6_8 
REMARK    8  A    between atoms: C6_8  and  C7_9 
REMARK    9  A    between atoms: C7_9  and  C8_10 
REMARK   10  A    between atoms: C8_10  and  C9_11 
REMARK   11  A    between atoms: C9_11  and  C10_12 
REMARK   12  A    between atoms: C11_13  and  C12_14 
REMARK   13  A    between atoms: C12_14  and  C13_16 
REMARK   14  A    between atoms: C13_16  and  C14_17 
REMARK   15  A    between atoms: C14_17  and  C15_18 
REMARK   16  A    between atoms: C15_18  and  C16_19 
REMARK   17  A    between atoms: C16_19  and  C17_20 
REMARK   18  A    between atoms: C17_20  and  C18_21 
REMARK   19  A    between atoms: C20_25  and  C21_27 
ROOT
HETATM    1  C8  UNL     1       0.463   0.609  -1.951  1.00  0.00     0.037 C 
ENDROOT
BRANCH   1   2
HETATM    2  C7  UNL     1       1.967   0.377  -1.807  1.00  0.00     0.003 C 
BRANCH   2   3
HETATM    3  C6  UNL     1       2.539   0.984  -0.527  1.00  0.00     0.000 C 
BRANCH   3   4
HETATM    4  C5  UNL     1       4.045   0.758  -0.387  1.00  0.00     0.001 C 
BRANCH   4   5
HETATM    5  C4  UNL     1       4.617   1.365   0.895  1.00  0.00     0.010 C 
BRANCH   5   6
HETATM    6  C3  UNL     1       6.121   1.135   1.037  1.00  0.00     0.096 C 
BRANCH   6   7
HETATM    7  C2  UNL     1       6.688   1.781   2.272  1.00  0.00     0.272 C 
HETATM    8  O2  UNL     1       6.000   1.967   3.248  1.00  0.00    -0.264 OA
BRANCH   7   9
HETATM    9  O1  UNL     1       7.973   2.119   2.195  1.00  0.00    -0.299 OA
BRANCH   9  10
HETATM   10  C1  UNL     1       8.444   2.725   3.391  1.00  0.00     0.187 C 
BRANCH  10  11
HETATM   11  C20 UNL     1       9.920   3.086   3.231  1.00  0.00     0.215 C 
HETATM   12  O6  UNL     1      10.655   1.889   3.090  1.00  0.00    -0.218 OA
BRANCH  11  13
HETATM   13  C21 UNL     1      10.475   3.848   4.434  1.00  0.00     0.218 C 
HETATM   14  O7  UNL     1      11.762   4.320   4.102  1.00  0.00    -0.218 OA
ENDBRANCH  11  13
ENDBRANCH  10  11
ENDBRANCH   9  10
ENDBRANCH   7   9
ENDBRANCH   6   7
ENDBRANCH   5   6
ENDBRANCH   4   5
ENDBRANCH   3   4
ENDBRANCH   2   3
ENDBRANCH   1   2
BRANCH   1  15
HETATM   15  C9  UNL     1      -0.121  -0.051  -3.199  1.00  0.00     0.174 C 
HETATM   16  O5  UNL     1       0.350   0.648  -4.330  1.00  0.00    -0.219 OA
BRANCH  15  17
HETATM   17  C10 UNL     1      -1.625  -0.051  -3.199  1.00  0.00     0.004 C 
HETATM   18  C11 UNL     1      -2.266  -1.232  -3.199  1.00  0.00     0.007 C 
BRANCH  18  19
HETATM   19  C12 UNL     1      -3.771  -1.232  -3.199  1.00  0.00     0.204 C 
HETATM   20  O3  UNL     1      -4.242  -1.971  -4.303  1.00  0.00    -0.216 OA
BRANCH  19  21
HETATM   21  C13 UNL     1      -4.355  -1.848  -1.928  1.00  0.00     0.187 C 
HETATM   22  O4  UNL     1      -3.932  -3.190  -1.854  1.00  0.00    -0.220 OA
BRANCH  21  23
HETATM   23  C14 UNL     1      -5.883  -1.826  -1.910  1.00  0.00     0.036 C 
BRANCH  23  24
HETATM   24  C15 UNL     1      -6.463  -2.172  -0.537  1.00  0.00     0.003 C 
BRANCH  24  25
HETATM   25  C16 UNL     1      -7.988  -2.090  -0.502  1.00  0.00     0.000 C 
BRANCH  25  26
HETATM   26  C17 UNL     1      -8.568  -2.447   0.867  1.00  0.00     0.000 C 
BRANCH  26  27
HETATM   27  C18 UNL     1     -10.094  -2.367   0.902  1.00  0.00     0.000 C 
HETATM   28  C19 UNL     1     -10.674  -2.723   2.272  1.00  0.00     0.000 C 
ENDBRANCH  26  27
ENDBRANCH  25  26
ENDBRANCH  24  25
ENDBRANCH  23  24
ENDBRANCH  21  23
ENDBRANCH  19  21
ENDBRANCH  18  19
ENDBRANCH  15  17
ENDBRANCH   1  15
TORSDOF 19
