REMARK  10 active torsions:
REMARK  status: ('A' for Active; 'I' for Inactive)
REMARK    1  A    between atoms: C1_1  and  C2_2 
REMARK    2  A    between atoms: C3_3  and  C4_4 
REMARK    3  A    between atoms: C4_4  and  C5_5 
REMARK    4  A    between atoms: C5_5  and  C6_6 
REMARK    5  A    between atoms: C15_17  and  C18_21 
REMARK    6  A    between atoms: C18_21  and  C19_22 
REMARK    7  A    between atoms: C18_21  and  C26_29 
REMARK    8  A    between atoms: C19_22  and  C20_23 
REMARK    9  A    between atoms: C20_23  and  C21_24 
REMARK   10  A    between atoms: C21_24  and  C22_25 
ROOT
HETATM    1  C2  UNL     1      -4.858   0.238   0.234  1.00  0.00     0.022 C 
HETATM    2  C3  UNL     1      -3.902  -0.928  -0.121  1.00  0.00     0.019 C 
HETATM    3  C7  UNL     1      -2.438  -0.584   0.141  1.00  0.00    -0.052 C 
HETATM    4  C8  UNL     1      -2.018   0.697   0.315  1.00  0.00    -0.053 C 
HETATM    5  C9  UNL     1      -2.963   1.881   0.254  1.00  0.00     0.022 C 
HETATM    6  C10 UNL     1      -4.332   1.553  -0.346  1.00  0.00     0.009 C 
HETATM    7  C11 UNL     1      -0.553   0.980   0.592  1.00  0.00     0.017 C 
HETATM    8  C12 UNL     1       0.369  -0.043  -0.098  1.00  0.00     0.006 C 
HETATM    9  C13 UNL     1       0.021  -1.410   0.498  1.00  0.00     0.005 C 
HETATM   10  C14 UNL     1      -1.449  -1.750   0.178  1.00  0.00     0.021 C 
HETATM   11  C15 UNL     1       1.760   0.514   0.234  1.00  0.00     0.041 C 
HETATM   12  C16 UNL     1       1.564   2.023  -0.010  1.00  0.00     0.153 C 
HETATM   13  C17 UNL     1       0.049   2.287   0.053  1.00  0.00     0.037 C 
HETATM   14  O3  UNL     1       2.242   2.771   0.983  1.00  0.00    -0.223 OA
HETATM   15  C27 UNL     1       0.180  -0.053  -1.625  1.00  0.00     0.000 C 
HETATM   16  C28 UNL     1      -0.379   1.037   2.115  1.00  0.00     0.004 C 
HETATM   17  C29 UNL     1      -4.014  -1.275  -1.611  1.00  0.00     0.004 C 
ENDROOT
BRANCH  11  18
HETATM   18  C18 UNL     1       2.889  -0.078  -0.605  1.00  0.00     0.090 C 
BRANCH  18  19
HETATM   19  C19 UNL     1       4.090   0.664  -0.019  1.00  0.00     0.015 C 
BRANCH  19  20
HETATM   20  C20 UNL     1       5.424   0.133  -0.541  1.00  0.00     0.022 C 
BRANCH  20  21
HETATM   21  C21 UNL     1       6.604   0.760   0.154  1.00  0.00    -0.044 C 
HETATM   22  C25 UNL     1       7.014   0.234   1.320  1.00  0.00    -0.009 C 
BRANCH  21  23
HETATM   23  C22 UNL     1       7.344   1.947  -0.398  1.00  0.00     0.018 C 
HETATM   24  C23 UNL     1       8.606   2.271   0.400  1.00  0.00     0.004 C 
HETATM   25  C24 UNL     1       6.438   3.164  -0.588  1.00  0.00     0.004 C 
ENDBRANCH  21  23
ENDBRANCH  20  21
ENDBRANCH  19  20
ENDBRANCH  18  19
BRANCH  18  26
HETATM   26  C26 UNL     1       3.002  -1.570  -0.443  1.00  0.00     0.185 C 
HETATM   27  O4  UNL     1       3.256  -2.063   0.631  1.00  0.00    -0.647 OA
HETATM   28  O5  UNL     1       2.805  -2.277  -1.553  1.00  0.00    -0.647 OA
ENDBRANCH  18  26
ENDBRANCH  11  18
BRANCH   2  29
HETATM   29  C4  UNL     1      -4.311  -2.160   0.699  1.00  0.00     0.015 C 
BRANCH  29  30
HETATM   30  C5  UNL     1      -4.153  -3.467  -0.080  1.00  0.00     0.098 C 
BRANCH  30  31
HETATM   31  C6  UNL     1      -4.342  -4.680   0.789  1.00  0.00     0.185 C 
HETATM   32  O1  UNL     1      -4.711  -4.574   1.936  1.00  0.00    -0.647 OA
HETATM   33  O2  UNL     1      -4.078  -5.844   0.201  1.00  0.00    -0.647 OA
ENDBRANCH  30  31
ENDBRANCH  29  30
ENDBRANCH   2  29
BRANCH   1  34
HETATM   34  C1  UNL     1      -6.281  -0.018  -0.205  1.00  0.00    -0.044 C 
HETATM   35  C30 UNL     1      -7.326  -0.611   0.703  1.00  0.00     0.026 C 
HETATM   36  C31 UNL     1      -6.631   0.297  -1.463  1.00  0.00    -0.009 C 
ENDBRANCH   1  34
TORSDOF 10
