REMARK  1 active torsions:
REMARK  status: ('A' for Active; 'I' for Inactive)
REMARK    1  A    between atoms: C12_13  and  C15_18 
ROOT
HETATM    1  C1  UNL     1       4.717   0.375   0.545  1.00  0.00     0.000 A 
HETATM    2  C2  UNL     1       3.529   1.113   0.348  1.00  0.00     0.003 A 
HETATM    3  C3  UNL     1       2.269   0.459   0.273  1.00  0.00     0.042 A 
HETATM    4  C4  UNL     1       2.211  -0.957   0.404  1.00  0.00     0.042 A 
HETATM    5  C5  UNL     1       3.412  -1.689   0.605  1.00  0.00     0.003 A 
HETATM    6  C6  UNL     1       4.658  -1.029   0.676  1.00  0.00     0.000 A 
HETATM    7  C7  UNL     1       0.916  -1.701   0.334  1.00  0.00     0.198 A 
HETATM    8  C8  UNL     1      -0.322  -0.881   0.105  1.00  0.00     0.071 A 
HETATM    9  C9  UNL     1      -0.262   0.541  -0.023  1.00  0.00     0.070 A 
HETATM   10  C10 UNL     1       1.041   1.285   0.063  1.00  0.00     0.198 A 
HETATM   11  O1  UNL     1       1.101   2.490  -0.035  1.00  0.00    -0.286 OA
HETATM   12  C11 UNL     1      -1.467   1.276  -0.238  1.00  0.00     0.142 A 
HETATM   13  C12 UNL     1      -2.709   0.604  -0.328  1.00  0.00     0.117 A 
HETATM   14  C13 UNL     1      -2.768  -0.801  -0.201  1.00  0.00     0.164 A 
HETATM   15  C14 UNL     1      -1.582  -1.539   0.014  1.00  0.00     0.160 A 
HETATM   16  O2  UNL     1      -1.674  -2.873   0.131  1.00  0.00    -0.188 OA
HETATM   17  O3  UNL     1      -3.944  -1.441  -0.283  1.00  0.00    -0.188 OA
HETATM   18  O6  UNL     1      -1.442   2.611  -0.361  1.00  0.00    -0.190 OA
HETATM   19  O7  UNL     1       0.875  -2.906   0.455  1.00  0.00    -0.286 OA
ENDROOT
BRANCH  13  20
HETATM   20  C15 UNL     1      -3.951   1.375  -0.555  1.00  0.00     0.215 C 
HETATM   21  O4  UNL     1      -4.951   1.418   0.125  1.00  0.00    -0.644 OA
HETATM   22  O5  UNL     1      -3.795   2.059  -1.684  1.00  0.00    -0.644 OA
ENDBRANCH  13  20
TORSDOF 1
