REMARK  0 active torsions:
REMARK  status: ('A' for Active; 'I' for Inactive)
ROOT
HETATM    1  C1  UNL     1      -0.058   2.416  -0.075  1.00  0.00     0.020 A 
HETATM    2  C2  UNL     1      -0.877   1.369  -0.058  1.00  0.00     0.103 A 
HETATM    3  C3  UNL     1      -0.549  -0.043  -0.044  1.00  0.00     0.024 A 
HETATM    4  C4  UNL     1       0.744  -0.674  -0.063  1.00  0.00    -0.003 A 
HETATM    5  C5  UNL     1       1.919  -0.056  -0.072  1.00  0.00    -0.027 A 
HETATM    6  C6  UNL     1       2.229   1.369  -0.066  1.00  0.00    -0.030 A 
HETATM    7  C7  UNL     1       1.415   2.434  -0.074  1.00  0.00    -0.024 A 
HETATM    8  C8  UNL     1       2.059   3.794  -0.069  1.00  0.00     0.031 C 
HETATM    9  C9  UNL     1       3.737   1.540  -0.044  1.00  0.00     0.026 C 
HETATM   10  C10 UNL     1       4.142   0.165   0.571  1.00  0.00     0.009 C 
HETATM   11  C11 UNL     1       3.191  -0.809  -0.141  1.00  0.00     0.022 C 
HETATM   12  C12 UNL     1       3.141  -2.230   0.453  1.00  0.00     0.005 C 
HETATM   13  C13 UNL     1      -1.691  -0.712  -0.024  1.00  0.00     0.043 A 
HETATM   14  C14 UNL     1      -2.769   0.245  -0.024  1.00  0.00     0.296 A 
HETATM   15  O1  UNL     1      -2.251   1.508  -0.048  1.00  0.00    -0.273 OA
HETATM   16  O2  UNL     1      -3.972  -0.035  -0.011  1.00  0.00    -0.259 OA
HETATM   17  C15 UNL     1      -1.839  -2.205  -0.011  1.00  0.00     0.037 C 
ENDROOT
TORSDOF 0
