REMARK  3 active torsions:
REMARK  status: ('A' for Active; 'I' for Inactive)
REMARK    1  A    between atoms: C1_1  and  C16_22 
REMARK    2  A    between atoms: C9_10  and  C10_12 
REMARK    3  A    between atoms: C16_22  and  C17_23 
ROOT
HETATM    1  C1  UNL     1      -1.984  -0.973   0.037  1.00  0.00     0.033 A 
HETATM    2  C2  UNL     1      -2.135   0.334  -0.494  1.00  0.00     0.131 A 
HETATM    3  C3  UNL     1      -0.994   1.100  -0.830  1.00  0.00     0.052 A 
HETATM    4  C4  UNL     1       0.301   0.566  -0.637  1.00  0.00     0.107 A 
HETATM    5  C5  UNL     1       0.453  -0.740  -0.107  1.00  0.00     0.089 A 
HETATM    6  C6  UNL     1      -0.689  -1.514   0.233  1.00  0.00     0.134 A 
HETATM    7  O1  UNL     1      -0.551  -2.750   0.735  1.00  0.00    -0.190 OA
HETATM    8  C7  UNL     1       1.830  -1.275   0.082  1.00  0.00     0.227 A 
HETATM    9  C8  UNL     1       2.934  -0.367  -0.307  1.00  0.00     0.192 A 
HETATM   10  C9  UNL     1       2.658   0.865  -0.803  1.00  0.00     0.128 A 
HETATM   11  O2  UNL     1       1.389   1.301  -0.957  1.00  0.00    -0.305 OA
HETATM   12  O4  UNL     1       4.191  -0.785  -0.160  1.00  0.00    -0.185 OA
HETATM   13  O5  UNL     1       2.137  -2.361   0.516  1.00  0.00    -0.284 OA
HETATM   14  O6  UNL     1      -3.357   0.852  -0.682  1.00  0.00    -0.190 OA
ENDROOT
BRANCH  10  15
HETATM   15  C10 UNL     1       3.783   1.768  -1.189  1.00  0.00     0.025 A 
HETATM   16  C11 UNL     1       3.690   2.553  -2.351  1.00  0.00     0.004 A 
HETATM   17  C12 UNL     1       4.750   3.400  -2.715  1.00  0.00     0.028 A 
HETATM   18  C13 UNL     1       5.906   3.469  -1.918  1.00  0.00     0.131 A 
HETATM   19  C14 UNL     1       5.998   2.684  -0.756  1.00  0.00     0.028 A 
HETATM   20  O3  UNL     1       6.899   4.266  -2.258  1.00  0.00    -0.190 OA
HETATM   21  C15 UNL     1       4.940   1.834  -0.390  1.00  0.00     0.004 A 
ENDBRANCH  10  15
BRANCH   1  22
HETATM   22  C16 UNL     1      -3.176  -1.768   0.387  1.00  0.00     0.056 C 
BRANCH  22  23
HETATM   23  C17 UNL     1      -3.824  -1.287   1.656  1.00  0.00    -0.030 C 
HETATM   24  C18 UNL     1      -5.035  -1.770   1.979  1.00  0.00    -0.048 C 
HETATM   25  C19 UNL     1      -5.697  -1.266   3.233  1.00  0.00     0.026 C 
HETATM   26  C20 UNL     1      -5.670  -2.785   1.067  1.00  0.00     0.026 C 
ENDBRANCH  22  23
ENDBRANCH   1  22
TORSDOF 3
