REMARK  6 active torsions:
REMARK  status: ('A' for Active; 'I' for Inactive)
REMARK    1  A    between atoms: C4_4  and  O7_19 
REMARK    2  A    between atoms: C5_6  and  C6_7 
REMARK    3  A    between atoms: C6_7  and  O2_8 
REMARK    4  A    between atoms: O2_8  and  C7_9 
REMARK    5  A    between atoms: O7_19  and  C13_20 
REMARK    6  A    between atoms: C13_20  and  C14_21 
ROOT
HETATM    1  C1  UNL     1       0.576  -2.871   0.016  1.00  0.00     0.215 C 
HETATM    2  C2  UNL     1      -0.596  -3.848   0.291  1.00  0.00     0.220 C 
HETATM    3  C3  UNL     1      -1.959  -3.104   0.314  1.00  0.00     0.241 C 
HETATM    4  C4  UNL     1      -1.916  -1.758  -0.453  1.00  0.00     0.270 C 
HETATM    5  O1  UNL     1      -0.867  -0.883  -0.024  1.00  0.00    -0.326 OA
HETATM    6  C5  UNL     1       0.275  -1.473   0.600  1.00  0.00     0.180 C 
HETATM    7  O8  UNL     1      -2.330  -2.848   1.658  1.00  0.00    -0.215 OA
HETATM    8  O9  UNL     1      -0.617  -4.832  -0.727  1.00  0.00    -0.218 OA
HETATM    9  O10 UNL     1       1.760  -3.385   0.600  1.00  0.00    -0.218 OA
ENDROOT
BRANCH   6  10
HETATM   10  C6  UNL     1       1.424  -0.473   0.434  1.00  0.00     0.177 C 
BRANCH  10  11
HETATM   11  O2  UNL     1       1.115   0.682   1.184  1.00  0.00    -0.326 OA
BRANCH  11  12
HETATM   12  C7  UNL     1       2.100   1.691   1.080  1.00  0.00     0.270 C 
HETATM   13  C8  UNL     1       1.604   3.035   1.674  1.00  0.00     0.241 C 
HETATM   14  C9  UNL     1       2.680   4.145   1.492  1.00  0.00     0.220 C 
HETATM   15  O6  UNL     1       0.350   3.416   1.125  1.00  0.00    -0.215 OA
HETATM   16  C10 UNL     1       4.104   3.529   1.512  1.00  0.00     0.212 C 
HETATM   17  O5  UNL     1       2.529   4.854   0.269  1.00  0.00    -0.218 OA
HETATM   18  C11 UNL     1       4.125   2.219   2.332  1.00  0.00     0.151 C 
HETATM   19  O4  UNL     1       5.012   4.459   2.074  1.00  0.00    -0.218 OA
HETATM   20  O3  UNL     1       3.279   1.230   1.742  1.00  0.00    -0.329 OA
HETATM   21  C12 UNL     1       5.514   1.584   2.455  1.00  0.00     0.035 C 
ENDBRANCH  11  12
ENDBRANCH  10  11
ENDBRANCH   6  10
BRANCH   4  22
HETATM   22  O7  UNL     1      -1.770  -2.018  -1.834  1.00  0.00    -0.324 OA
BRANCH  22  23
HETATM   23  C13 UNL     1      -2.092  -0.910  -2.645  1.00  0.00     0.172 C 
BRANCH  23  24
HETATM   24  C14 UNL     1      -3.568  -0.813  -2.785  1.00  0.00     0.007 A 
HETATM   25  C15 UNL     1      -4.262   0.264  -2.199  1.00  0.00    -0.002 A 
HETATM   26  C16 UNL     1      -5.656   0.355  -2.334  1.00  0.00    -0.000 A 
HETATM   27  C17 UNL     1      -6.361  -0.625  -3.053  1.00  0.00    -0.000 A 
HETATM   28  C18 UNL     1      -5.670  -1.699  -3.639  1.00  0.00    -0.000 A 
HETATM   29  C19 UNL     1      -4.274  -1.793  -3.506  1.00  0.00    -0.002 A 
ENDBRANCH  23  24
ENDBRANCH  22  23
ENDBRANCH   4  22
TORSDOF 6
