REMARK  3 active torsions:
REMARK  status: ('A' for Active; 'I' for Inactive)
REMARK    1  A    between atoms: C1_1  and  C11_13 
REMARK    2  A    between atoms: C11_13  and  C12_14 
REMARK    3  A    between atoms: C13_15  and  C15_17 
ROOT
HETATM    1  C1  UNL     1       0.168   0.344  -0.426  1.00  0.00     0.007 A 
HETATM    2  C2  UNL     1       0.254   1.719  -0.092  1.00  0.00     0.127 A 
HETATM    3  C3  UNL     1      -0.922   2.496   0.008  1.00  0.00     0.023 A 
HETATM    4  C4  UNL     1      -2.194   1.914  -0.221  1.00  0.00    -0.012 A 
HETATM    5  C5  UNL     1      -2.274   0.531  -0.551  1.00  0.00    -0.004 A 
HETATM    6  C6  UNL     1      -1.096  -0.248  -0.654  1.00  0.00    -0.002 A 
HETATM    7  C7  UNL     1      -3.600  -0.099  -0.783  1.00  0.00     0.003 A 
HETATM    8  C8  UNL     1      -4.738   0.608  -0.670  1.00  0.00     0.038 A 
HETATM    9  C9  UNL     1      -4.735   2.039  -0.315  1.00  0.00     0.177 A 
HETATM   10  C10 UNL     1      -3.414   2.758  -0.115  1.00  0.00     0.096 A 
HETATM   11  O1  UNL     1      -5.781   2.629  -0.184  1.00  0.00    -0.291 OA
HETATM   12  O2  UNL     1       1.447   2.289   0.131  1.00  0.00    -0.191 OA
ENDROOT
BRANCH   1  13
HETATM   13  C11 UNL     1       1.387  -0.473  -0.535  1.00  0.00     0.054 C 
BRANCH  13  14
HETATM   14  C12 UNL     1       1.976  -0.797   0.811  1.00  0.00    -0.027 C 
HETATM   15  C13 UNL     1       2.973  -1.695   0.877  1.00  0.00    -0.015 C 
HETATM   16  C14 UNL     1       3.560  -2.019   2.223  1.00  0.00     0.029 C 
BRANCH  15  17
HETATM   17  C15 UNL     1       3.449  -2.332  -0.402  1.00  0.00     0.204 C 
HETATM   18  O3  UNL     1       2.617  -3.424  -0.723  1.00  0.00    -0.216 OA
ENDBRANCH  15  17
ENDBRANCH  13  14
ENDBRANCH   1  13
TORSDOF 3
