REMARK  9 active torsions:
REMARK  status: ('A' for Active; 'I' for Inactive)
REMARK    1  A    between atoms: C3_3  and  S1_4 
REMARK    2  A    between atoms: S1_4  and  C4_5 
REMARK    3  A    between atoms: C4_5  and  C5_6 
REMARK    4  A    between atoms: C5_6  and  N1_7 
REMARK    5  A    between atoms: C5_6  and  C11_17 
REMARK       I    between atoms: N1_7  and  C6_8 
REMARK    6  A    between atoms: C6_8  and  C7_9 
REMARK    7  A    between atoms: C7_9  and  C8_10 
REMARK    8  A    between atoms: C8_10  and  C9_11 
REMARK    9  A    between atoms: C9_11  and  C10_13 
ROOT
HETATM    1  N1  UNL     1      -0.453  -0.402   0.774  1.00  0.00    -0.228 NA
HETATM    2  C6  UNL     1       0.914  -0.402   0.774  1.00  0.00     0.252 C 
HETATM    3  O3  UNL     1       1.523  -1.447   0.774  1.00  0.00    -0.271 OA
ENDROOT
BRANCH   1   4
HETATM    4  C5  UNL     1      -1.174  -1.684   0.774  1.00  0.00     0.204 C 
BRANCH   4   5
HETATM    5  C4  UNL     1      -2.570  -1.527   0.170  1.00  0.00     0.098 C 
BRANCH   5   6
HETATM    6  S1  UNL     1      -2.475  -0.998  -1.496  1.00  0.00    -0.111 SA
BRANCH   6   7
HETATM    7  C3  UNL     1      -4.100  -0.895  -1.943  1.00  0.00     0.026 C 
HETATM    8  C2  UNL     1      -4.494  -0.518  -3.170  1.00  0.00    -0.019 C 
HETATM    9  C1  UNL     1      -5.971  -0.459  -3.463  1.00  0.00     0.031 C 
ENDBRANCH   6   7
ENDBRANCH   5   6
ENDBRANCH   4   5
BRANCH   4  10
HETATM   10  C11 UNL     1      -1.209  -2.301   2.147  1.00  0.00     0.210 C 
HETATM   11  O4  UNL     1      -2.152  -2.127   2.883  1.00  0.00    -0.646 OA
HETATM   12  O5  UNL     1      -0.143  -3.027   2.467  1.00  0.00    -0.646 OA
ENDBRANCH   4  10
ENDBRANCH   1   4
BRANCH   2  13
HETATM   13  C7  UNL     1       1.637   0.918   0.774  1.00  0.00     0.092 C 
BRANCH  13  14
HETATM   14  C8  UNL     1       3.156   0.750   0.734  1.00  0.00     0.060 C 
BRANCH  14  15
HETATM   15  C9  UNL     1       3.896   2.088   0.774  1.00  0.00     0.388 C 
HETATM   16  N2  UNL     1       3.621   2.859  -0.426  1.00  0.00     0.628 N 
BRANCH  15  17
HETATM   17  C10 UNL     1       5.381   1.916   0.949  1.00  0.00     0.224 C 
HETATM   18  O1  UNL     1       5.951   0.943   0.512  1.00  0.00    -0.646 OA
HETATM   19  O2  UNL     1       5.990   2.896   1.609  1.00  0.00    -0.646 OA
ENDBRANCH  15  17
ENDBRANCH  14  15
ENDBRANCH  13  14
ENDBRANCH   2  13
TORSDOF 9
