REMARK  3 active torsions:
REMARK  status: ('A' for Active; 'I' for Inactive)
REMARK    1  A    between atoms: C3_3  and  O4_20 
REMARK    2  A    between atoms: C4_4  and  O3_18 
REMARK    3  A    between atoms: C9_9  and  O2_16 
ROOT
HETATM    1  C1  UNL     1      -2.857  -1.564   0.088  1.00  0.00     0.029 A 
HETATM    2  C2  UNL     1      -3.535  -0.355   0.336  1.00  0.00     0.155 A 
HETATM    3  C3  UNL     1      -2.803   0.832   0.525  1.00  0.00     0.141 A 
HETATM    4  C4  UNL     1      -1.389   0.828   0.469  1.00  0.00     0.118 A 
HETATM    5  C5  UNL     1      -0.664  -0.393   0.219  1.00  0.00     0.025 A 
HETATM    6  C6  UNL     1       0.777  -0.492   0.148  1.00  0.00     0.004 A 
HETATM    7  C7  UNL     1       1.656   0.623   0.324  1.00  0.00     0.002 A 
HETATM    8  C8  UNL     1       3.059   0.477   0.244  1.00  0.00     0.026 A 
HETATM    9  C9  UNL     1       3.629  -0.783  -0.014  1.00  0.00     0.119 A 
HETATM   10  C10 UNL     1       2.799  -1.910  -0.193  1.00  0.00     0.153 A 
HETATM   11  C11 UNL     1       1.383  -1.771  -0.113  1.00  0.00     0.027 A 
HETATM   12  C12 UNL     1       0.580  -2.924  -0.297  1.00  0.00     0.002 A 
HETATM   13  C13 UNL     1      -0.820  -2.832  -0.225  1.00  0.00     0.000 A 
HETATM   14  C14 UNL     1      -1.441  -1.588   0.027  1.00  0.00     0.004 A 
HETATM   15  O1  UNL     1       3.371  -3.100  -0.438  1.00  0.00    -0.188 OA
HETATM   16  O5  UNL     1      -4.875  -0.340   0.391  1.00  0.00    -0.188 OA
ENDROOT
BRANCH   3  17
HETATM   17  O4  UNL     1      -3.457   1.981   0.760  1.00  0.00    -0.324 OA
HETATM   18  C17 UNL     1      -4.637   2.240   0.014  1.00  0.00     0.182 C 
ENDBRANCH   3  17
BRANCH   4  19
HETATM   19  O3  UNL     1      -0.795   2.014   0.660  1.00  0.00    -0.326 OA
HETATM   20  C16 UNL     1      -0.896   2.983  -0.371  1.00  0.00     0.181 C 
ENDBRANCH   4  19
BRANCH   9  21
HETATM   21  O2  UNL     1       4.961  -0.908  -0.088  1.00  0.00    -0.326 OA
HETATM   22  C15 UNL     1       5.750   0.266   0.045  1.00  0.00     0.181 C 
ENDBRANCH   9  21
TORSDOF 3
