REMARK  4 active torsions:
REMARK  status: ('A' for Active; 'I' for Inactive)
REMARK    1  A    between atoms: C2_2  and  C16_20 
REMARK    2  A    between atoms: C8_9  and  C10_12 
REMARK    3  A    between atoms: C16_20  and  C17_21 
REMARK    4  A    between atoms: C17_21  and  C18_23 
ROOT
HETATM    1  C1  UNL     1       1.836   2.297   0.367  1.00  0.00     0.131 A 
HETATM    2  C2  UNL     1       1.988   0.887   0.367  1.00  0.00     0.032 A 
HETATM    3  C3  UNL     1       0.844   0.051   0.392  1.00  0.00     0.134 A 
HETATM    4  C4  UNL     1      -0.451   0.633   0.420  1.00  0.00     0.087 A 
HETATM    5  C5  UNL     1      -0.602   2.045   0.424  1.00  0.00     0.107 A 
HETATM    6  C6  UNL     1       0.545   2.873   0.396  1.00  0.00     0.052 A 
HETATM    7  O1  UNL     1      -1.830   2.604   0.453  1.00  0.00    -0.305 OA
HETATM    8  C7  UNL     1      -2.967   1.881   0.482  1.00  0.00     0.126 A 
HETATM    9  C8  UNL     1      -2.965   0.527   0.480  1.00  0.00     0.064 A 
HETATM   10  C9  UNL     1      -1.678  -0.215   0.447  1.00  0.00     0.201 A 
HETATM   11  O2  UNL     1      -1.721  -1.426   0.443  1.00  0.00    -0.286 OA
HETATM   12  O4  UNL     1       0.990  -1.283   0.392  1.00  0.00    -0.190 OA
HETATM   13  O6  UNL     1       2.914   3.094   0.342  1.00  0.00    -0.190 OA
ENDROOT
BRANCH   9  14
HETATM   14  C10 UNL     1      -4.268  -0.213   0.512  1.00  0.00     0.005 A 
HETATM   15  C11 UNL     1      -5.375   0.281  -0.201  1.00  0.00     0.002 A 
HETATM   16  C12 UNL     1      -6.596  -0.414  -0.170  1.00  0.00     0.027 A 
HETATM   17  C13 UNL     1      -6.717  -1.604   0.570  1.00  0.00     0.131 A 
HETATM   18  C14 UNL     1      -5.608  -2.096   1.281  1.00  0.00     0.027 A 
HETATM   19  O3  UNL     1      -7.861  -2.256   0.597  1.00  0.00    -0.190 OA
HETATM   20  C15 UNL     1      -4.385  -1.402   1.252  1.00  0.00     0.002 A 
ENDBRANCH   9  14
BRANCH   2  21
HETATM   21  C16 UNL     1       3.334   0.291   0.340  1.00  0.00     0.068 C 
BRANCH  21  22
HETATM   22  C17 UNL     1       3.801   0.016  -1.090  1.00  0.00     0.175 C 
HETATM   23  O5  UNL     1       4.068   1.254  -1.711  1.00  0.00    -0.219 OA
BRANCH  22  24
HETATM   24  C18 UNL     1       5.031  -0.848  -1.137  1.00  0.00    -0.014 C 
HETATM   25  C19 UNL     1       5.010  -1.955  -1.897  1.00  0.00    -0.007 C 
HETATM   26  C20 UNL     1       6.287  -0.527  -0.371  1.00  0.00     0.029 C 
ENDBRANCH  22  24
ENDBRANCH  21  22
ENDBRANCH   2  21
TORSDOF 4
