REMARK  15 active torsions:
REMARK  status: ('A' for Active; 'I' for Inactive)
REMARK    1  A    between atoms: C2_2  and  O19_67 
REMARK    2  A    between atoms: C3_3  and  C48_65 
REMARK    3  A    between atoms: C16_16  and  O2_26 
REMARK    4  A    between atoms: C21_21  and  C22_22 
REMARK    5  A    between atoms: O2_26  and  C25_27 
REMARK    6  A    between atoms: C25_27  and  C26_28 
REMARK    7  A    between atoms: C27_30  and  C31_37 
REMARK    8  A    between atoms: C31_37  and  O7_38 
REMARK    9  A    between atoms: O7_38  and  C32_39 
REMARK   10  A    between atoms: C33_41  and  C43_58 
REMARK   11  A    between atoms: C34_42  and  O11_47 
REMARK   12  A    between atoms: O11_47  and  C37_48 
REMARK   13  A    between atoms: O19_67  and  C49_68 
REMARK   14  A    between atoms: C53_73  and  O21_74 
REMARK   15  A    between atoms: O21_74  and  C54_75 
ROOT
HETATM    1  C1  UNL     1      -3.477  -2.731  -0.715  1.00  0.00     0.030 C 
HETATM    2  C2  UNL     1      -4.180  -3.912  -0.043  1.00  0.00     0.120 C 
HETATM    3  C3  UNL     1      -3.463  -4.346   1.271  1.00  0.00     0.056 C 
HETATM    4  C4  UNL     1      -1.898  -4.186   1.158  1.00  0.00     0.005 C 
HETATM    5  C5  UNL     1      -1.377  -4.213  -0.309  1.00  0.00     0.000 C 
HETATM    6  C6  UNL     1      -2.064  -3.119  -1.180  1.00  0.00     0.003 C 
HETATM    7  C7  UNL     1       0.184  -4.107  -0.348  1.00  0.00     0.000 C 
HETATM    8  C8  UNL     1       0.822  -2.961   0.506  1.00  0.00     0.000 C 
HETATM    9  C9  UNL     1       0.221  -2.992   1.926  1.00  0.00     0.000 C 
HETATM   10  C10 UNL     1      -1.314  -2.977   1.922  1.00  0.00     0.000 C 
HETATM   11  C11 UNL     1       2.381  -3.145   0.533  1.00  0.00     0.000 C 
HETATM   12  C12 UNL     1       2.922  -3.115  -0.930  1.00  0.00     0.002 C 
HETATM   13  C13 UNL     1       2.283  -4.215  -1.797  1.00  0.00     0.000 C 
HETATM   14  C14 UNL     1       0.752  -4.115  -1.783  1.00  0.00     0.000 C 
HETATM   15  C15 UNL     1       4.457  -3.100  -1.082  1.00  0.00     0.028 C 
HETATM   16  C16 UNL     1       5.098  -2.049  -0.172  1.00  0.00     0.101 C 
HETATM   17  C17 UNL     1       4.619  -2.135   1.283  1.00  0.00     0.028 C 
HETATM   18  C18 UNL     1       3.088  -2.029   1.342  1.00  0.00     0.002 C 
HETATM   19  C19 UNL     1       6.578  -2.379  -0.332  1.00  0.00     0.028 C 
HETATM   20  C20 UNL     1       6.621  -3.904  -0.277  1.00  0.00     0.005 C 
HETATM   21  C21 UNL     1       5.256  -4.381  -0.787  1.00  0.00     0.030 C 
HETATM   22  C44 UNL     1       2.719  -4.486   1.205  1.00  0.00     0.000 C 
HETATM   23  C45 UNL     1       0.500  -1.580  -0.090  1.00  0.00     0.000 C 
HETATM   24  C46 UNL     1      -1.750  -5.588  -0.897  1.00  0.00     0.000 C 
HETATM   25  C47 UNL     1      -4.000  -3.559   2.482  1.00  0.00     0.005 C 
ENDROOT
BRANCH  16  26
HETATM   26  O2  UNL     1       4.840  -0.744  -0.676  1.00  0.00    -0.305 OA
BRANCH  26  27
HETATM   27  C25 UNL     1       4.873  -0.699  -2.004  1.00  0.00     0.302 C 
HETATM   28  O17 UNL     1       5.781  -1.137  -2.670  1.00  0.00    -0.261 OA
BRANCH  27  29
HETATM   29  C26 UNL     1       3.678  -0.049  -2.654  1.00  0.00     0.234 C 
HETATM   30  O3  UNL     1       3.819   1.359  -2.510  1.00  0.00    -0.342 OA
HETATM   31  C27 UNL     1       2.719   2.129  -2.981  1.00  0.00     0.178 C 
HETATM   32  C28 UNL     1       2.539   1.895  -4.496  1.00  0.00     0.214 C 
HETATM   33  C29 UNL     1       2.385   0.393  -4.815  1.00  0.00     0.218 C 
HETATM   34  O6  UNL     1       1.391   2.602  -4.934  1.00  0.00    -0.218 OA
HETATM   35  C30 UNL     1       3.535  -0.402  -4.154  1.00  0.00     0.222 C 
HETATM   36  O5  UNL     1       2.402   0.191  -6.219  1.00  0.00    -0.218 OA
HETATM   37  O4  UNL     1       3.287  -1.791  -4.277  1.00  0.00    -0.217 OA
BRANCH  31  38
HETATM   38  C31 UNL     1       3.020   3.592  -2.633  1.00  0.00     0.177 C 
BRANCH  38  39
HETATM   39  O7  UNL     1       3.008   3.723  -1.229  1.00  0.00    -0.326 OA
BRANCH  39  40
HETATM   40  C32 UNL     1       3.322   5.029  -0.789  1.00  0.00     0.270 C 
HETATM   41  O8  UNL     1       2.244   5.889  -1.137  1.00  0.00    -0.326 OA
HETATM   42  C33 UNL     1       2.436   7.258  -0.803  1.00  0.00     0.181 C 
HETATM   43  C34 UNL     1       2.588   7.393   0.730  1.00  0.00     0.181 C 
HETATM   44  C35 UNL     1       3.723   6.490   1.264  1.00  0.00     0.217 C 
HETATM   45  C36 UNL     1       3.537   5.047   0.746  1.00  0.00     0.241 C 
HETATM   46  O10 UNL     1       3.719   6.498   2.682  1.00  0.00    -0.218 OA
HETATM   47  O9  UNL     1       4.688   4.281   1.066  1.00  0.00    -0.215 OA
BRANCH  42  48
HETATM   48  C43 UNL     1       1.225   8.020  -1.352  1.00  0.00     0.214 C 
HETATM   49  O16 UNL     1       1.248   7.928  -2.758  1.00  0.00    -0.218 OA
ENDBRANCH  42  48
BRANCH  43  50
HETATM   50  O11 UNL     1       2.863   8.746   1.041  1.00  0.00    -0.326 OA
BRANCH  50  51
HETATM   51  C37 UNL     1       2.504   9.100   2.363  1.00  0.00     0.270 C 
HETATM   52  O12 UNL     1       3.684   9.471   3.063  1.00  0.00    -0.329 OA
HETATM   53  C38 UNL     1       3.490   9.805   4.432  1.00  0.00     0.151 C 
HETATM   54  C39 UNL     1       2.555  11.031   4.529  1.00  0.00     0.212 C 
HETATM   55  C42 UNL     1       4.881  10.067   5.022  1.00  0.00     0.035 C 
HETATM   56  C40 UNL     1       1.221  10.779   3.791  1.00  0.00     0.220 C 
HETATM   57  O15 UNL     1       2.303  11.299   5.899  1.00  0.00    -0.218 OA
HETATM   58  C41 UNL     1       1.500  10.279   2.355  1.00  0.00     0.241 C 
HETATM   59  O14 UNL     1       0.465  11.979   3.744  1.00  0.00    -0.218 OA
HETATM   60  O13 UNL     1       0.283   9.858   1.760  1.00  0.00    -0.215 OA
ENDBRANCH  50  51
ENDBRANCH  43  50
ENDBRANCH  39  40
ENDBRANCH  38  39
ENDBRANCH  31  38
ENDBRANCH  27  29
ENDBRANCH  26  27
ENDBRANCH  16  26
BRANCH  21  61
HETATM   61  C22 UNL     1       5.395  -5.244  -2.037  1.00  0.00     0.127 C 
HETATM   62  O1  UNL     1       5.174  -4.436  -3.172  1.00  0.00    -0.226 OA
HETATM   63  C23 UNL     1       6.815  -5.803  -2.117  1.00  0.00     0.033 C 
HETATM   64  C24 UNL     1       4.330  -6.342  -2.020  1.00  0.00     0.033 C 
ENDBRANCH  21  61
BRANCH   3  65
HETATM   65  C48 UNL     1      -3.807  -5.820   1.529  1.00  0.00     0.184 C 
HETATM   66  O18 UNL     1      -5.211  -5.949   1.543  1.00  0.00    -0.221 OA
ENDBRANCH   3  65
BRANCH   2  67
HETATM   67  O19 UNL     1      -5.541  -3.586   0.180  1.00  0.00    -0.332 OA
BRANCH  67  68
HETATM   68  C49 UNL     1      -6.342  -3.711  -0.979  1.00  0.00     0.267 C 
HETATM   69  O20 UNL     1      -6.516  -5.096  -1.258  1.00  0.00    -0.326 OA
HETATM   70  C50 UNL     1      -7.270  -5.375  -2.430  1.00  0.00     0.181 C 
HETATM   71  C51 UNL     1      -8.693  -4.809  -2.279  1.00  0.00     0.214 C 
HETATM   72  C52 UNL     1      -8.664  -3.299  -1.959  1.00  0.00     0.217 C 
HETATM   73  O27 UNL     1      -9.395  -5.041  -3.486  1.00  0.00    -0.218 OA
HETATM   74  C53 UNL     1      -7.721  -3.037  -0.760  1.00  0.00     0.207 C 
HETATM   75  O26 UNL     1      -9.973  -2.848  -1.648  1.00  0.00    -0.218 OA
BRANCH  74  76
HETATM   76  O21 UNL     1      -7.543  -1.641  -0.598  1.00  0.00    -0.324 OA
BRANCH  76  77
HETATM   77  C54 UNL     1      -7.264  -1.266   0.736  1.00  0.00     0.270 C 
HETATM   78  C55 UNL     1      -8.416  -0.400   1.311  1.00  0.00     0.241 C 
HETATM   79  C56 UNL     1      -8.055   0.146   2.709  1.00  0.00     0.220 C 
HETATM   80  O25 UNL     1      -9.592  -1.189   1.404  1.00  0.00    -0.215 OA
HETATM   81  C57 UNL     1      -6.664   0.816   2.670  1.00  0.00     0.212 C 
HETATM   82  O24 UNL     1      -9.031   1.090   3.123  1.00  0.00    -0.218 OA
HETATM   83  C58 UNL     1      -5.607  -0.119   2.039  1.00  0.00     0.151 C 
HETATM   84  O23 UNL     1      -6.250   1.145   3.984  1.00  0.00    -0.218 OA
HETATM   85  O22 UNL     1      -6.051  -0.525   0.750  1.00  0.00    -0.329 OA
HETATM   86  C59 UNL     1      -4.248   0.561   1.844  1.00  0.00     0.035 C 
ENDBRANCH  76  77
ENDBRANCH  74  76
ENDBRANCH  67  68
ENDBRANCH   2  67
TORSDOF 15
