REMARK  21 active torsions:
REMARK  status: ('A' for Active; 'I' for Inactive)
REMARK    1  A    between atoms: C3_3  and  C7_7 
REMARK    2  A    between atoms: C7_7  and  C8_8 
REMARK    3  A    between atoms: C8_8  and  C9_9 
REMARK    4  A    between atoms: C9_9  and  C10_10 
REMARK    5  A    between atoms: C10_10  and  C11_11 
REMARK    6  A    between atoms: C11_11  and  C12_12 
REMARK    7  A    between atoms: C11_11  and  O7_48 
REMARK    8  A    between atoms: C12_12  and  C13_13 
REMARK    9  A    between atoms: C13_13  and  C14_14 
REMARK   10  A    between atoms: C16_16  and  O6_46 
REMARK   11  A    between atoms: C18_18  and  C20_20 
REMARK   12  A    between atoms: C22_23  and  O4_43 
REMARK   13  A    between atoms: C24_25  and  C26_27 
REMARK   14  A    between atoms: C26_27  and  C27_28 
REMARK   15  A    between atoms: C27_28  and  C28_29 
REMARK   16  A    between atoms: C28_29  and  C29_30 
REMARK   17  A    between atoms: C28_29  and  O3_41 
REMARK   18  A    between atoms: C29_30  and  C30_31 
REMARK   19  A    between atoms: C30_31  and  C31_32 
REMARK   20  A    between atoms: C31_32  and  C32_33 
REMARK   21  A    between atoms: C32_33  and  C33_34 
ROOT
HETATM    1  C14 UNL     1       2.131   0.359   2.438  1.00  0.00    -0.020 A 
HETATM    2  C15 UNL     1       1.445   1.141   3.383  1.00  0.00     0.022 A 
HETATM    3  C16 UNL     1       0.094   1.473   3.182  1.00  0.00     0.119 A 
HETATM    4  C17 UNL     1      -0.578   1.021   2.029  1.00  0.00     0.153 A 
HETATM    5  C18 UNL     1       0.109   0.236   1.078  1.00  0.00     0.029 A 
HETATM    6  C19 UNL     1       1.463  -0.092   1.285  1.00  0.00    -0.002 A 
HETATM    7  O5  UNL     1      -1.846   1.340   1.850  1.00  0.00    -0.188 OA
ENDROOT
BRANCH   5   8
HETATM    8  C20 UNL     1      -0.566  -0.240  -0.121  1.00  0.00     0.029 A 
HETATM    9  C21 UNL     1      -1.719  -1.049  -0.025  1.00  0.00     0.153 A 
HETATM   10  O1  UNL     1      -2.205  -1.391   1.152  1.00  0.00    -0.188 OA
HETATM   11  C22 UNL     1      -2.357  -1.500  -1.195  1.00  0.00     0.119 A 
HETATM   12  C23 UNL     1      -1.850  -1.143  -2.457  1.00  0.00     0.022 A 
HETATM   13  C24 UNL     1      -0.703  -0.336  -2.555  1.00  0.00    -0.020 A 
HETATM   14  C25 UNL     1      -0.062   0.115  -1.387  1.00  0.00    -0.002 A 
BRANCH  11  15
HETATM   15  O4  UNL     1      -3.434  -2.256  -1.113  1.00  0.00    -0.326 OA
HETATM   16  C40 UNL     1      -4.105  -2.592  -2.318  1.00  0.00     0.181 C 
ENDBRANCH  11  15
BRANCH  13  17
HETATM   17  C26 UNL     1      -0.168   0.039  -3.889  1.00  0.00     0.029 C 
BRANCH  17  18
HETATM   18  C27 UNL     1      -0.510   1.486  -4.246  1.00  0.00     0.035 C 
BRANCH  18  19
HETATM   19  C28 UNL     1      -1.990   1.680  -4.576  1.00  0.00     0.123 C 
BRANCH  19  20
HETATM   20  C29 UNL     1      -2.316   1.348  -6.031  1.00  0.00     0.094 C 
BRANCH  20  21
HETATM   21  C30 UNL     1      -3.752   1.645  -6.379  1.00  0.00     0.153 C 
HETATM   22  O2  UNL     1      -4.654   1.008  -5.889  1.00  0.00    -0.296 OA
BRANCH  21  23
HETATM   23  C31 UNL     1      -4.029   2.756  -7.356  1.00  0.00     0.069 C 
BRANCH  23  24
HETATM   24  C32 UNL     1      -4.734   3.945  -6.701  1.00  0.00     0.034 C 
BRANCH  24  25
HETATM   25  C33 UNL     1      -5.004   5.027  -7.682  1.00  0.00    -0.022 A 
HETATM   26  C34 UNL     1      -6.119   4.943  -8.533  1.00  0.00    -0.004 A 
HETATM   27  C35 UNL     1      -6.375   5.969  -9.461  1.00  0.00    -0.000 A 
HETATM   28  C36 UNL     1      -5.518   7.078  -9.537  1.00  0.00    -0.000 A 
HETATM   29  C37 UNL     1      -4.402   7.164  -8.686  1.00  0.00    -0.000 A 
HETATM   30  C38 UNL     1      -4.146   6.139  -7.758  1.00  0.00    -0.004 A 
ENDBRANCH  24  25
ENDBRANCH  23  24
ENDBRANCH  21  23
ENDBRANCH  20  21
ENDBRANCH  19  20
BRANCH  19  31
HETATM   31  O3  UNL     1      -2.320   3.029  -4.346  1.00  0.00    -0.354 OA
HETATM   32  C39 UNL     1      -1.551   3.930  -5.113  1.00  0.00     0.174 C 
ENDBRANCH  19  31
ENDBRANCH  18  19
ENDBRANCH  17  18
ENDBRANCH  13  17
ENDBRANCH   5   8
BRANCH   3  33
HETATM   33  O6  UNL     1      -0.541   2.207   4.074  1.00  0.00    -0.326 OA
HETATM   34  C41 UNL     1       0.219   2.791   5.121  1.00  0.00     0.181 C 
ENDBRANCH   3  33
BRANCH   1  35
HETATM   35  C13 UNL     1       3.559   0.012   2.654  1.00  0.00     0.029 C 
BRANCH  35  36
HETATM   36  C12 UNL     1       3.715  -1.406   3.203  1.00  0.00     0.035 C 
BRANCH  36  37
HETATM   37  C11 UNL     1       3.154  -1.557   4.619  1.00  0.00     0.123 C 
BRANCH  37  38
HETATM   38  C10 UNL     1       4.244  -1.791   5.664  1.00  0.00     0.094 C 
BRANCH  38  39
HETATM   39  C9  UNL     1       5.006  -3.066   5.424  1.00  0.00     0.153 C 
HETATM   40  O8  UNL     1       4.701  -3.813   4.522  1.00  0.00    -0.296 OA
BRANCH  39  41
HETATM   41  C8  UNL     1       6.154  -3.387   6.342  1.00  0.00     0.069 C 
BRANCH  41  42
HETATM   42  C7  UNL     1       5.692  -3.777   7.744  1.00  0.00     0.034 C 
BRANCH  42  43
HETATM   43  C3  UNL     1       4.994  -5.092   7.744  1.00  0.00    -0.022 A 
HETATM   44  C2  UNL     1       3.590  -5.145   7.744  1.00  0.00    -0.004 A 
HETATM   45  C1  UNL     1       2.932  -6.387   7.744  1.00  0.00    -0.000 A 
HETATM   46  C6  UNL     1       3.678  -7.576   7.744  1.00  0.00    -0.000 A 
HETATM   47  C5  UNL     1       5.082  -7.526   7.744  1.00  0.00    -0.000 A 
HETATM   48  C4  UNL     1       5.742  -6.283   7.744  1.00  0.00    -0.004 A 
ENDBRANCH  42  43
ENDBRANCH  41  42
ENDBRANCH  39  41
ENDBRANCH  38  39
ENDBRANCH  37  38
BRANCH  37  49
HETATM   49  O7  UNL     1       2.283  -2.664   4.633  1.00  0.00    -0.354 OA
HETATM   50  C42 UNL     1       1.051  -2.412   3.998  1.00  0.00     0.174 C 
ENDBRANCH  37  49
ENDBRANCH  36  37
ENDBRANCH  35  36
ENDBRANCH   1  35
TORSDOF 21
