REMARK  5 active torsions:
REMARK  status: ('A' for Active; 'I' for Inactive)
REMARK    1  A    between atoms: C2_2  and  C10_13 
REMARK    2  A    between atoms: C4_4  and  O3_11 
REMARK    3  A    between atoms: C5_5  and  O2_9 
REMARK    4  A    between atoms: C6_6  and  O1_7 
REMARK    5  A    between atoms: C10_13  and  O5_15 
ROOT
HETATM    1  C1  UNL     1      -0.830  -0.957   0.180  1.00  0.00     0.032 A 
HETATM    2  C2  UNL     1       0.576  -0.908   0.180  1.00  0.00     0.067 A 
HETATM    3  C3  UNL     1       1.233   0.336   0.180  1.00  0.00     0.032 A 
HETATM    4  C4  UNL     1       0.488   1.527   0.180  1.00  0.00     0.118 A 
HETATM    5  C5  UNL     1      -0.918   1.477   0.180  1.00  0.00     0.138 A 
HETATM    6  C6  UNL     1      -1.578   0.232   0.180  1.00  0.00     0.118 A 
ENDROOT
BRANCH   2   7
HETATM    7  C10 UNL     1       1.369  -2.174   0.180  1.00  0.00     0.296 C 
HETATM    8  O4  UNL     1       2.578  -2.148   0.180  1.00  0.00    -0.259 OA
BRANCH   7   9
HETATM    9  O5  UNL     1       0.650  -3.293   0.180  1.00  0.00    -0.296 OA
HETATM   10  C11 UNL     1       1.463  -4.457   0.168  1.00  0.00     0.185 C 
ENDBRANCH   7   9
ENDBRANCH   2   7
BRANCH   6  11
HETATM   11  O1  UNL     1      -2.895   0.180   0.180  1.00  0.00    -0.326 OA
HETATM   12  C7  UNL     1      -3.512  -1.100   0.180  1.00  0.00     0.181 C 
ENDBRANCH   6  11
BRANCH   4  13
HETATM   13  O3  UNL     1       1.109   2.690   0.180  1.00  0.00    -0.326 OA
HETATM   14  C9  UNL     1       2.504   2.701  -0.088  1.00  0.00     0.181 C 
ENDBRANCH   4  13
BRANCH   5  15
HETATM   15  O2  UNL     1      -1.619   2.594   0.180  1.00  0.00    -0.324 OA
HETATM   16  C8  UNL     1      -1.197   3.645  -0.676  1.00  0.00     0.182 C 
ENDBRANCH   5  15
TORSDOF 5
