REMARK  0 active torsions:
REMARK  status: ('A' for Active; 'I' for Inactive)
ROOT
HETATM    1  C1  UNL     1       3.353   0.637  -0.529  1.00  0.00     0.119 A 
HETATM    2  C2  UNL     1       3.100  -0.480   0.264  1.00  0.00     0.119 A 
HETATM    3  C3  UNL     1       2.031  -0.443   1.193  1.00  0.00     0.029 A 
HETATM    4  C4  UNL     1       1.207   0.699   1.336  1.00  0.00     0.033 A 
HETATM    5  C5  UNL     1       1.445   1.834   0.514  1.00  0.00    -0.017 A 
HETATM    6  C6  UNL     1       2.531   1.783  -0.398  1.00  0.00     0.022 A 
HETATM    7  C7  UNL     1       0.601   3.061   0.563  1.00  0.00     0.026 C 
HETATM    8  C8  UNL     1      -0.934   2.920   0.326  1.00  0.00     0.005 C 
HETATM    9  C9  UNL     1      -1.529   1.709  -0.451  1.00  0.00     0.005 C 
HETATM   10  C10 UNL     1      -2.295   0.690   0.455  1.00  0.00     0.028 C 
HETATM   11  C11 UNL     1      -1.858  -0.732   0.379  1.00  0.00    -0.001 A 
HETATM   12  C12 UNL     1      -1.072  -1.346   1.402  1.00  0.00    -0.016 A 
HETATM   13  C13 UNL     1      -0.617  -0.607   2.619  1.00  0.00     0.095 C 
HETATM   14  C14 UNL     1       0.094   0.705   2.332  1.00  0.00     0.177 C 
HETATM   15  O1  UNL     1      -0.318   1.672   2.930  1.00  0.00    -0.291 OA
HETATM   16  C15 UNL     1      -0.709  -2.705   1.256  1.00  0.00    -0.002 A 
HETATM   17  C16 UNL     1      -1.115  -3.426   0.117  1.00  0.00     0.026 A 
HETATM   18  C17 UNL     1      -1.891  -2.818  -0.898  1.00  0.00     0.119 A 
HETATM   19  C18 UNL     1      -2.260  -1.478  -0.768  1.00  0.00     0.115 A 
HETATM   20  O2  UNL     1      -2.983  -1.123  -1.830  1.00  0.00    -0.300 OA
HETATM   21  C19 UNL     1      -3.115  -2.254  -2.719  1.00  0.00     0.304 A 
HETATM   22  O3  UNL     1      -2.379  -3.297  -2.043  1.00  0.00    -0.300 OA
HETATM   23  C20 UNL     1      -0.586   1.106  -1.504  1.00  0.00     0.000 C 
HETATM   24  O4  UNL     1       3.982  -1.435  -0.031  1.00  0.00    -0.300 OA
HETATM   25  C21 UNL     1       4.875  -0.953  -1.059  1.00  0.00     0.304 A 
HETATM   26  O5  UNL     1       4.398   0.385  -1.318  1.00  0.00    -0.300 OA
ENDROOT
TORSDOF 0
