REMARK  0 active torsions:
REMARK  status: ('A' for Active; 'I' for Inactive)
ROOT
HETATM    1  C1  UNL     1       3.356   1.137   0.453  1.00  0.00     0.005 C 
HETATM    2  C2  UNL     1       3.940   0.111  -0.506  1.00  0.00     0.004 C 
HETATM    3  C3  UNL     1       3.301  -1.271  -0.279  1.00  0.00     0.019 C 
HETATM    4  C4  UNL     1       1.803  -1.209  -0.203  1.00  0.00    -0.027 A 
HETATM    5  C5  UNL     1       1.092   0.022   0.006  1.00  0.00    -0.025 A 
HETATM    6  C6  UNL     1       1.850   1.295   0.219  1.00  0.00     0.026 C 
HETATM    7  C7  UNL     1      -0.349   0.018   0.006  1.00  0.00     0.017 A 
HETATM    8  C8  UNL     1      -1.049  -1.256  -0.139  1.00  0.00     0.024 A 
HETATM    9  C9  UNL     1      -0.324  -2.453  -0.295  1.00  0.00     0.002 A 
HETATM   10  C10 UNL     1       1.080  -2.424  -0.330  1.00  0.00    -0.004 A 
HETATM   11  C11 UNL     1      -2.484  -1.303  -0.125  1.00  0.00     0.102 A 
HETATM   12  C12 UNL     1      -3.209  -0.135   0.019  1.00  0.00     0.045 A 
HETATM   13  C13 UNL     1      -2.510   1.061   0.141  1.00  0.00     0.121 A 
HETATM   14  C14 UNL     1      -1.141   1.225   0.139  1.00  0.00     0.106 A 
HETATM   15  N1  UNL     1      -0.832   2.529   0.264  1.00  0.00    -0.224 NA
HETATM   16  C15 UNL     1      -2.060   3.141   0.350  1.00  0.00     0.159 A 
HETATM   17  O1  UNL     1      -3.125   2.258   0.277  1.00  0.00    -0.292 OA
HETATM   18  C16 UNL     1      -2.219   4.637   0.510  1.00  0.00     0.080 C 
HETATM   19  C17 UNL     1      -4.510  -0.564  -0.008  1.00  0.00     0.007 A 
HETATM   20  C18 UNL     1      -4.559  -1.957  -0.168  1.00  0.00     0.118 A 
HETATM   21  O2  UNL     1      -3.250  -2.449  -0.244  1.00  0.00    -0.305 OA
HETATM   22  C19 UNL     1      -5.725   0.330   0.115  1.00  0.00     0.033 C 
HETATM   23  C20 UNL     1       3.754  -2.176  -1.438  1.00  0.00     0.004 C 
HETATM   24  C21 UNL     1       3.830  -1.865   1.033  1.00  0.00     0.004 C 
ENDROOT
TORSDOF 0
