REMARK  4 active torsions:
REMARK  status: ('A' for Active; 'I' for Inactive)
REMARK    1  A    between atoms: C15_15  and  C18_18 
REMARK    2  A    between atoms: C18_18  and  C20_20 
REMARK    3  A    between atoms: C20_20  and  C21_21 
REMARK    4  A    between atoms: C21_21  and  C22_22 
ROOT
HETATM    1  C1  UNL     1       4.653   0.828   0.342  1.00  0.00     0.007 C 
HETATM    2  C2  UNL     1       6.090   0.512   0.781  1.00  0.00     0.034 C 
HETATM    3  C3  UNL     1       6.528  -0.941   0.482  1.00  0.00     0.155 C 
HETATM    4  C4  UNL     1       5.641  -1.680  -0.555  1.00  0.00     0.043 C 
HETATM    5  C5  UNL     1       4.209  -1.643  -0.033  1.00  0.00    -0.047 C 
HETATM    6  C6  UNL     1       3.666  -0.346   0.555  1.00  0.00     0.018 C 
HETATM    7  C7  UNL     1       2.211  -0.025   0.068  1.00  0.00     0.004 C 
HETATM    8  C8  UNL     1       1.322  -1.324  -0.012  1.00  0.00     0.005 C 
HETATM    9  C9  UNL     1       2.012  -2.592   0.529  1.00  0.00     0.025 C 
HETATM   10  C10 UNL     1       3.397  -2.721  -0.049  1.00  0.00    -0.035 C 
HETATM   11  C11 UNL     1      -0.082  -1.152   0.613  1.00  0.00     0.000 C 
HETATM   12  C12 UNL     1      -0.685   0.186   0.141  1.00  0.00     0.000 C 
HETATM   13  C13 UNL     1       0.092   1.359   0.756  1.00  0.00     0.000 C 
HETATM   14  C14 UNL     1       1.580   1.031   1.020  1.00  0.00     0.000 C 
HETATM   15  C15 UNL     1      -2.141   0.047   0.613  1.00  0.00     0.000 C 
HETATM   16  C16 UNL     1      -2.484  -1.412   0.281  1.00  0.00     0.000 C 
HETATM   17  C17 UNL     1      -1.146  -2.147   0.131  1.00  0.00     0.000 C 
HETATM   18  C26 UNL     1      -0.697   0.285  -1.395  1.00  0.00     0.000 C 
HETATM   19  C27 UNL     1      -0.060  -1.250   2.149  1.00  0.00     0.000 C 
HETATM   20  C28 UNL     1       2.279   0.596  -1.338  1.00  0.00     0.000 C 
HETATM   21  C29 UNL     1       5.678  -0.994  -1.928  1.00  0.00     0.007 C 
HETATM   22  C30 UNL     1       6.149  -3.123  -0.723  1.00  0.00     0.007 C 
HETATM   23  O1  UNL     1       7.885  -0.945   0.070  1.00  0.00    -0.223 OA
ENDROOT
BRANCH  15  24
HETATM   24  C18 UNL     1      -3.109   1.043  -0.019  1.00  0.00     0.000 C 
HETATM   25  C19 UNL     1      -2.625   2.469   0.254  1.00  0.00     0.000 C 
BRANCH  24  26
HETATM   26  C20 UNL     1      -4.521   0.787   0.508  1.00  0.00     0.005 C 
BRANCH  26  27
HETATM   27  C21 UNL     1      -5.602   1.434  -0.359  1.00  0.00     0.025 C 
BRANCH  27  28
HETATM   28  C22 UNL     1      -6.992   1.096   0.109  1.00  0.00    -0.035 C 
HETATM   29  C23 UNL     1      -8.012   1.867  -0.303  1.00  0.00    -0.048 C 
HETATM   30  C24 UNL     1      -9.445   1.717   0.129  1.00  0.00     0.026 C 
HETATM   31  C25 UNL     1      -7.723   2.979  -1.277  1.00  0.00     0.026 C 
ENDBRANCH  27  28
ENDBRANCH  26  27
ENDBRANCH  24  26
ENDBRANCH  15  24
TORSDOF 4
