REMARK  4 active torsions:
REMARK  status: ('A' for Active; 'I' for Inactive)
REMARK    1  A    between atoms: C5_6  and  C6_7 
REMARK    2  A    between atoms: C6_7  and  C7_9 
REMARK    3  A    between atoms: C7_9  and  C8_10 
REMARK    4  A    between atoms: C8_10  and  C9_11 
ROOT
HETATM    1  C1  UNL     1      -0.645   2.686  -1.080  1.00  0.00     0.238 A 
HETATM    2  O1  UNL     1      -1.889   3.182  -1.322  1.00  0.00    -0.288 OA
HETATM    3  C2  UNL     1      -2.940   2.328  -1.402  1.00  0.00     0.083 A 
HETATM    4  C3  UNL     1      -2.830   0.994  -1.248  1.00  0.00     0.063 A 
HETATM    5  C4  UNL     1      -1.514   0.422  -0.980  1.00  0.00     0.204 A 
HETATM    6  C5  UNL     1      -0.393   1.365  -0.904  1.00  0.00     0.123 A 
HETATM    7  O3  UNL     1      -1.369  -0.770  -0.832  1.00  0.00    -0.286 OA
HETATM    8  C12 UNL     1      -4.313   2.885  -1.676  1.00  0.00     0.059 C 
HETATM    9  O4  UNL     1       0.391   3.520  -1.004  1.00  0.00    -0.163 OA
ENDROOT
BRANCH   6  10
HETATM   10  C6  UNL     1       0.971   0.871  -0.644  1.00  0.00     0.180 C 
HETATM   11  O2  UNL     1       1.873   1.139  -1.402  1.00  0.00    -0.291 OA
BRANCH  10  12
HETATM   12  C7  UNL     1       1.213   0.033   0.582  1.00  0.00     0.069 C 
BRANCH  12  13
HETATM   13  C8  UNL     1       1.836  -1.322   0.250  1.00  0.00     0.008 C 
BRANCH  13  14
HETATM   14  C9  UNL     1       2.160  -2.147   1.496  1.00  0.00     0.000 C 
HETATM   15  C10 UNL     1       0.906  -2.623   2.231  1.00  0.00     0.000 C 
HETATM   16  C11 UNL     1       3.146  -3.279   1.215  1.00  0.00     0.000 C 
ENDBRANCH  13  14
ENDBRANCH  12  13
ENDBRANCH  10  12
ENDBRANCH   6  10
TORSDOF 4
