REMARK  1 active torsions:
REMARK  status: ('A' for Active; 'I' for Inactive)
REMARK    1  A    between atoms: C3_3  and  C29_31 
ROOT
HETATM    1  C1  UNL     1       3.197   0.172  -2.035  1.00  0.00     0.005 C 
HETATM    2  C2  UNL     1       2.527   0.660  -0.719  1.00  0.00     0.030 C 
HETATM    3  C3  UNL     1       3.367   0.223   0.527  1.00  0.00     0.110 C 
HETATM    4  C4  UNL     1       3.608  -1.311   0.457  1.00  0.00     0.013 C 
HETATM    5  C5  UNL     1       4.299  -1.760  -0.840  1.00  0.00     0.001 C 
HETATM    6  C6  UNL     1       3.516  -1.344  -2.096  1.00  0.00     0.000 C 
HETATM    7  C7  UNL     1       4.371  -1.627  -3.336  1.00  0.00     0.000 C 
HETATM    8  C8  UNL     1       2.250  -2.203  -2.203  1.00  0.00     0.000 C 
HETATM    9  C9  UNL     1       2.719   0.705   1.875  1.00  0.00     0.162 C 
HETATM   10  C10 UNL     1       1.322   1.328   1.709  1.00  0.00     0.037 C 
HETATM   11  C11 UNL     1       0.369   0.537   0.775  1.00  0.00     0.017 C 
HETATM   12  C12 UNL     1       1.039   0.336  -0.574  1.00  0.00    -0.049 C 
HETATM   13  C13 UNL     1       0.266  -0.119  -1.586  1.00  0.00    -0.035 C 
HETATM   14  C14 UNL     1      -1.189  -0.428  -1.322  1.00  0.00     0.025 C 
HETATM   15  C15 UNL     1      -1.848   0.783  -0.631  1.00  0.00     0.005 C 
HETATM   16  C16 UNL     1      -1.031   1.268   0.633  1.00  0.00     0.004 C 
HETATM   17  C17 UNL     1      -1.814   1.088   1.955  1.00  0.00     0.000 C 
HETATM   18  C18 UNL     1      -3.246   1.596   1.865  1.00  0.00     0.000 C 
HETATM   19  C19 UNL     1      -4.047   0.746   0.875  1.00  0.00     0.007 C 
HETATM   20  C20 UNL     1      -3.436   0.826  -0.560  1.00  0.00     0.001 C 
HETATM   21  C21 UNL     1      -4.121  -0.264  -1.434  1.00  0.00     0.008 C 
HETATM   22  C22 UNL     1      -3.930  -1.707  -0.922  1.00  0.00     0.065 C 
HETATM   23  C23 UNL     1      -3.660  -1.748   0.561  1.00  0.00     0.150 C 
HETATM   24  C24 UNL     1      -4.379  -0.697   1.365  1.00  0.00     0.058 C 
HETATM   25  C25 UNL     1      -4.236  -0.914   2.877  1.00  0.00     0.008 C 
HETATM   26  O1  UNL     1      -2.914  -2.561   1.057  1.00  0.00    -0.296 OA
HETATM   27  C26 UNL     1      -3.879   2.186  -1.141  1.00  0.00     0.000 C 
HETATM   28  C27 UNL     1      -0.809   2.785   0.457  1.00  0.00     0.000 C 
HETATM   29  C28 UNL     1       0.193  -0.885   1.342  1.00  0.00     0.004 C 
HETATM   30  O2  UNL     1       2.654  -0.322   2.850  1.00  0.00    -0.223 OA
ENDROOT
BRANCH   3  31
HETATM   31  C29 UNL     1       4.729   0.887   0.449  1.00  0.00     0.187 C 
HETATM   32  O3  UNL     1       4.885   1.914  -0.166  1.00  0.00    -0.647 OA
HETATM   33  O4  UNL     1       5.703   0.258   1.100  1.00  0.00    -0.647 OA
ENDBRANCH   3  31
TORSDOF 1
