REMARK  11 active torsions:
REMARK  status: ('A' for Active; 'I' for Inactive)
REMARK    1  A    between atoms: C5_5  and  C7_7 
REMARK    2  A    between atoms: C7_7  and  C8_8 
REMARK    3  A    between atoms: C8_8  and  N1_9 
REMARK    4  A    between atoms: C8_8  and  C16_18 
REMARK       I    between atoms: N1_9  and  C9_10 
REMARK    5  A    between atoms: C9_10  and  C10_12 
REMARK       I    between atoms: C16_18  and  N2_19 
REMARK    6  A    between atoms: N2_19  and  C17_20 
REMARK    7  A    between atoms: C17_20  and  C18_21 
REMARK    8  A    between atoms: C17_20  and  C22_27 
REMARK    9  A    between atoms: C18_21  and  C19_22 
REMARK   10  A    between atoms: C19_22  and  O2_23 
REMARK   11  A    between atoms: O2_23  and  C20_24 
ROOT
HETATM    1  C8  UNL     1       0.778   0.221  -1.787  1.00  0.00     0.191 C 
ENDROOT
BRANCH   1   2
HETATM    2  C7  UNL     1       1.405   1.244  -2.734  1.00  0.00     0.060 C 
BRANCH   2   3
HETATM    3  C5  UNL     1       0.549   2.451  -2.877  1.00  0.00    -0.020 A 
HETATM    4  C4  UNL     1      -0.687   2.365  -3.541  1.00  0.00    -0.002 A 
HETATM    5  C3  UNL     1      -1.494   3.508  -3.676  1.00  0.00     0.027 A 
HETATM    6  C2  UNL     1      -1.070   4.740  -3.147  1.00  0.00     0.131 A 
HETATM    7  C1  UNL     1       0.166   4.824  -2.482  1.00  0.00     0.027 A 
HETATM    8  O6  UNL     1      -1.830   5.811  -3.273  1.00  0.00    -0.190 OA
HETATM    9  C6  UNL     1       0.975   3.684  -2.348  1.00  0.00    -0.002 A 
ENDBRANCH   2   3
ENDBRANCH   1   2
BRANCH   1  10
HETATM   10  N1  UNL     1       1.543  -1.033  -1.787  1.00  0.00    -0.226 NA
HETATM   11  C9  UNL     1       0.877  -2.227  -1.789  1.00  0.00     0.275 C 
HETATM   12  O1  UNL     1      -0.330  -2.250  -1.791  1.00  0.00    -0.266 OA
BRANCH  11  13
HETATM   13  C10 UNL     1       1.670  -3.492  -1.789  1.00  0.00     0.058 A 
HETATM   14  C11 UNL     1       1.014  -4.737  -1.789  1.00  0.00     0.005 A 
HETATM   15  C12 UNL     1       1.760  -5.926  -1.789  1.00  0.00     0.000 A 
HETATM   16  C13 UNL     1       3.164  -5.875  -1.789  1.00  0.00     0.000 A 
HETATM   17  C14 UNL     1       3.823  -4.633  -1.789  1.00  0.00     0.000 A 
HETATM   18  C15 UNL     1       3.076  -3.442  -1.789  1.00  0.00     0.005 A 
ENDBRANCH  11  13
ENDBRANCH   1  10
BRANCH   1  19
HETATM   19  C16 UNL     1       0.600   0.760  -0.393  1.00  0.00     0.274 C 
HETATM   20  N2  UNL     1      -0.297   0.150   0.436  1.00  0.00    -0.234 NA
HETATM   21  O5  UNL     1       1.233   1.715  -0.010  1.00  0.00    -0.268 OA
BRANCH  20  22
HETATM   22  C17 UNL     1      -0.484   0.664   1.801  1.00  0.00     0.131 C 
BRANCH  22  23
HETATM   23  C18 UNL     1      -1.803   0.168   2.397  1.00  0.00     0.062 C 
BRANCH  23  24
HETATM   24  C19 UNL     1      -3.027   0.775   1.711  1.00  0.00     0.154 C 
BRANCH  24  25
HETATM   25  O2  UNL     1      -4.207   0.303   2.342  1.00  0.00    -0.302 OA
BRANCH  25  26
HETATM   26  C20 UNL     1      -5.310   0.797   1.789  1.00  0.00     0.272 C 
HETATM   27  C21 UNL     1      -6.601   0.334   2.410  1.00  0.00     0.106 C 
HETATM   28  O3  UNL     1      -5.310   1.562   0.854  1.00  0.00    -0.264 OA
ENDBRANCH  25  26
ENDBRANCH  24  25
ENDBRANCH  23  24
ENDBRANCH  22  23
BRANCH  22  29
HETATM   29  C22 UNL     1       0.670   0.332   2.674  1.00  0.00     0.000 A 
HETATM   30  C23 UNL     1       1.440   1.359   3.246  1.00  0.00    -0.000 A 
HETATM   31  C24 UNL     1       2.531   1.045   4.072  1.00  0.00     0.027 A 
HETATM   32  C25 UNL     1       2.860  -0.299   4.328  1.00  0.00     0.131 A 
HETATM   33  C26 UNL     1       2.090  -1.326   3.754  1.00  0.00     0.027 A 
HETATM   34  O4  UNL     1       3.885  -0.594   5.104  1.00  0.00    -0.190 OA
HETATM   35  C27 UNL     1       0.996  -1.012   2.928  1.00  0.00    -0.000 A 
ENDBRANCH  22  29
ENDBRANCH  20  22
ENDBRANCH   1  19
TORSDOF 11
