REMARK  20 active torsions:
REMARK  status: ('A' for Active; 'I' for Inactive)
REMARK    1  A    between atoms: C3_3  and  C30_33 
REMARK    2  A    between atoms: C24_24  and  C26_26 
REMARK    3  A    between atoms: C30_33  and  O5_35 
REMARK    4  A    between atoms: O5_35  and  C31_36 
REMARK    5  A    between atoms: C33_38  and  O23_77 
REMARK    6  A    between atoms: C35_40  and  C36_42 
REMARK    7  A    between atoms: C36_42  and  O7_43 
REMARK    8  A    between atoms: O7_43  and  C37_44 
REMARK    9  A    between atoms: C38_46  and  C48_64 
REMARK   10  A    between atoms: C41_49  and  O9_50 
REMARK   11  A    between atoms: O9_50  and  C42_51 
REMARK   12  A    between atoms: C43_53  and  C47_60 
REMARK   13  A    between atoms: C48_64  and  O17_65 
REMARK   14  A    between atoms: O17_65  and  C49_66 
REMARK   15  A    between atoms: C49_66  and  C50_67 
REMARK   16  A    between atoms: C50_67  and  C51_68 
REMARK   17  A    between atoms: C51_68  and  C52_69 
REMARK   18  A    between atoms: C52_69  and  C53_70 
REMARK   19  A    between atoms: O23_77  and  C55_78 
REMARK   20  A    between atoms: C56_80  and  C60_87 
ROOT
HETATM    1  C31 UNL     1      -0.624  -2.836   0.993  1.00  0.00     0.276 C 
HETATM    2  C32 UNL     1      -0.937  -3.449   2.374  1.00  0.00     0.238 C 
HETATM    3  C33 UNL     1      -2.445  -3.362   2.693  1.00  0.00     0.186 C 
HETATM    4  C34 UNL     1      -2.941  -1.915   2.477  1.00  0.00     0.211 C 
HETATM    5  C35 UNL     1      -2.521  -1.375   1.090  1.00  0.00     0.180 C 
HETATM    6  O6  UNL     1      -1.113  -1.503   0.938  1.00  0.00    -0.326 OA
HETATM    7  O22 UNL     1      -4.355  -1.873   2.570  1.00  0.00    -0.218 OA
HETATM    8  O29 UNL     1      -0.519  -4.802   2.374  1.00  0.00    -0.215 OA
ENDROOT
BRANCH   1   9
HETATM    9  O5  UNL     1       0.781  -2.819   0.774  1.00  0.00    -0.273 OA
BRANCH   9  10
HETATM   10  C30 UNL     1       1.092  -2.620  -0.503  1.00  0.00     0.273 C 
HETATM   11  O4  UNL     1       0.298  -2.264  -1.342  1.00  0.00    -0.264 OA
BRANCH  10  12
HETATM   12  C3  UNL     1       2.543  -2.871  -0.859  1.00  0.00     0.082 C 
HETATM   13  C2  UNL     1       2.862  -2.151  -2.196  1.00  0.00     0.027 C 
HETATM   14  C1  UNL     1       4.206  -2.616  -2.804  1.00  0.00     0.004 C 
HETATM   15  C12 UNL     1       2.843  -0.632  -2.083  1.00  0.00    -0.049 C 
HETATM   16  C6  UNL     1       4.291  -4.141  -2.996  1.00  0.00     0.000 C 
HETATM   17  C5  UNL     1       4.023  -4.835  -1.650  1.00  0.00     0.001 C 
HETATM   18  C7  UNL     1       5.688  -4.519  -3.499  1.00  0.00     0.000 C 
HETATM   19  C8  UNL     1       3.267  -4.599  -4.042  1.00  0.00     0.000 C 
HETATM   20  C4  UNL     1       2.685  -4.404  -1.027  1.00  0.00     0.010 C 
HETATM   21  C11 UNL     1       3.107   0.024  -0.731  1.00  0.00     0.015 C 
HETATM   22  C13 UNL     1       2.605   0.100  -3.192  1.00  0.00    -0.035 C 
HETATM   23  C10 UNL     1       3.999  -0.923   0.110  1.00  0.00     0.004 C 
HETATM   24  C16 UNL     1       3.774   1.430  -0.921  1.00  0.00     0.004 C 
HETATM   25  C29 UNL     1       1.753   0.184  -0.021  1.00  0.00     0.004 C 
HETATM   26  C9  UNL     1       3.444  -2.351   0.294  1.00  0.00     0.010 C 
HETATM   27  C15 UNL     1       2.877   2.296  -1.852  1.00  0.00     0.005 C 
HETATM   28  C17 UNL     1       3.939   2.154   0.437  1.00  0.00     0.000 C 
HETATM   29  C28 UNL     1       5.166   1.258  -1.557  1.00  0.00     0.000 C 
HETATM   30  C14 UNL     1       2.662   1.609  -3.221  1.00  0.00     0.025 C 
HETATM   31  C20 UNL     1       3.325   3.787  -2.006  1.00  0.00     0.001 C 
HETATM   32  C19 UNL     1       3.546   4.444  -0.617  1.00  0.00     0.012 C 
HETATM   33  C21 UNL     1       2.218   4.566  -2.778  1.00  0.00     0.003 C 
HETATM   34  C27 UNL     1       4.640   3.866  -2.802  1.00  0.00     0.000 C 
HETATM   35  C18 UNL     1       4.454   3.587   0.288  1.00  0.00     0.001 C 
HETATM   36  C24 UNL     1       3.995   5.944  -0.688  1.00  0.00     0.106 C 
HETATM   37  C23 UNL     1       3.450   6.630  -1.978  1.00  0.00     0.162 C 
HETATM   38  C25 UNL     1       3.505   6.643   0.593  1.00  0.00     0.013 C 
HETATM   39  C22 UNL     1       2.097   6.054  -2.405  1.00  0.00     0.034 C 
HETATM   40  O3  UNL     1       3.335   8.033  -1.819  1.00  0.00    -0.223 OA
BRANCH  36  41
HETATM   41  C26 UNL     1       5.502   6.090  -0.695  1.00  0.00     0.187 C 
HETATM   42  O1  UNL     1       6.098   6.341  -1.716  1.00  0.00    -0.647 OA
HETATM   43  O2  UNL     1       6.092   5.925   0.486  1.00  0.00    -0.647 OA
ENDBRANCH  36  41
ENDBRANCH  10  12
ENDBRANCH   9  10
ENDBRANCH   1   9
BRANCH   3  44
HETATM   44  O23 UNL     1      -2.677  -3.755   4.036  1.00  0.00    -0.326 OA
BRANCH  44  45
HETATM   45  C55 UNL     1      -3.869  -4.498   4.201  1.00  0.00     0.270 C 
HETATM   46  O24 UNL     1      -3.667  -5.796   3.658  1.00  0.00    -0.326 OA
HETATM   47  C56 UNL     1      -4.802  -6.651   3.705  1.00  0.00     0.184 C 
HETATM   48  C57 UNL     1      -5.206  -6.883   5.179  1.00  0.00     0.215 C 
HETATM   49  C58 UNL     1      -5.446  -5.545   5.913  1.00  0.00     0.220 C 
HETATM   50  O27 UNL     1      -6.388  -7.665   5.207  1.00  0.00    -0.218 OA
HETATM   51  C59 UNL     1      -4.237  -4.605   5.703  1.00  0.00     0.241 C 
HETATM   52  O26 UNL     1      -5.635  -5.784   7.298  1.00  0.00    -0.218 OA
HETATM   53  O25 UNL     1      -4.554  -3.315   6.202  1.00  0.00    -0.215 OA
BRANCH  47  54
HETATM   54  C60 UNL     1      -4.410  -7.944   2.983  1.00  0.00     0.214 C 
HETATM   55  O28 UNL     1      -4.224  -7.647   1.618  1.00  0.00    -0.218 OA
ENDBRANCH  47  54
ENDBRANCH  44  45
ENDBRANCH   3  44
BRANCH   5  56
HETATM   56  C36 UNL     1      -2.852   0.109   0.902  1.00  0.00     0.177 C 
BRANCH  56  57
HETATM   57  O7  UNL     1      -2.607   0.449  -0.444  1.00  0.00    -0.326 OA
BRANCH  57  58
HETATM   58  C37 UNL     1      -2.930   1.791  -0.748  1.00  0.00     0.267 C 
HETATM   59  O8  UNL     1      -2.017   2.638  -0.062  1.00  0.00    -0.326 OA
HETATM   60  C38 UNL     1      -2.246   4.031  -0.230  1.00  0.00     0.181 C 
HETATM   61  C39 UNL     1      -2.098   4.397  -1.724  1.00  0.00     0.214 C 
HETATM   62  C40 UNL     1      -3.028   3.536  -2.607  1.00  0.00     0.217 C 
HETATM   63  O16 UNL     1      -2.414   5.768  -1.888  1.00  0.00    -0.218 OA
HETATM   64  C41 UNL     1      -2.834   2.039  -2.275  1.00  0.00     0.207 C 
HETATM   65  O15 UNL     1      -2.739   3.767  -3.977  1.00  0.00    -0.218 OA
BRANCH  60  66
HETATM   66  C48 UNL     1      -1.236   4.755   0.665  1.00  0.00     0.184 C 
BRANCH  66  67
HETATM   67  O17 UNL     1      -1.432   4.362   2.016  1.00  0.00    -0.299 OA
BRANCH  67  68
HETATM   68  C49 UNL     1      -0.580   4.958   2.845  1.00  0.00     0.275 C 
HETATM   69  O21 UNL     1       0.268   5.742   2.490  1.00  0.00    -0.264 OA
BRANCH  68  70
HETATM   70  C50 UNL     1      -0.737   4.589   4.296  1.00  0.00     0.127 C 
BRANCH  70  71
HETATM   71  C51 UNL     1      -0.026   3.281   4.646  1.00  0.00     0.146 C 
HETATM   72  O20 UNL     1       1.363   3.492   4.539  1.00  0.00    -0.225 OA
HETATM   73  C54 UNL     1      -0.250   2.190   3.599  1.00  0.00     0.034 C 
BRANCH  71  74
HETATM   74  C52 UNL     1      -0.330   2.806   6.067  1.00  0.00     0.129 C 
BRANCH  74  75
HETATM   75  C53 UNL     1      -0.061   3.870   7.098  1.00  0.00     0.188 C 
HETATM   76  O18 UNL     1      -1.091   4.167   7.885  1.00  0.00    -0.647 OA
HETATM   77  O19 UNL     1       1.023   4.397   7.179  1.00  0.00    -0.647 OA
ENDBRANCH  74  75
ENDBRANCH  71  74
ENDBRANCH  70  71
ENDBRANCH  68  70
ENDBRANCH  67  68
ENDBRANCH  66  67
ENDBRANCH  60  66
BRANCH  64  78
HETATM   78  O9  UNL     1      -3.832   1.278  -2.937  1.00  0.00    -0.324 OA
BRANCH  78  79
HETATM   79  C42 UNL     1      -3.412  -0.033  -3.258  1.00  0.00     0.270 C 
HETATM   80  O10 UNL     1      -4.421  -0.943  -2.839  1.00  0.00    -0.326 OA
HETATM   81  C43 UNL     1      -4.118  -2.315  -3.050  1.00  0.00     0.184 C 
HETATM   82  C44 UNL     1      -3.940  -2.573  -4.563  1.00  0.00     0.215 C 
HETATM   83  C45 UNL     1      -2.873  -1.635  -5.170  1.00  0.00     0.220 C 
HETATM   84  O13 UNL     1      -3.554  -3.923  -4.751  1.00  0.00    -0.218 OA
HETATM   85  C46 UNL     1      -3.178  -0.169  -4.784  1.00  0.00     0.241 C 
HETATM   86  O12 UNL     1      -2.862  -1.769  -6.582  1.00  0.00    -0.218 OA
HETATM   87  O11 UNL     1      -2.088   0.654  -5.168  1.00  0.00    -0.215 OA
BRANCH  81  88
HETATM   88  C47 UNL     1      -5.270  -3.120  -2.439  1.00  0.00     0.214 C 
HETATM   89  O14 UNL     1      -5.245  -2.936  -1.042  1.00  0.00    -0.218 OA
ENDBRANCH  81  88
ENDBRANCH  78  79
ENDBRANCH  64  78
ENDBRANCH  57  58
ENDBRANCH  56  57
ENDBRANCH   5  56
TORSDOF 20
