REMARK  5 active torsions:
REMARK  status: ('A' for Active; 'I' for Inactive)
REMARK    1  A    between atoms: C1_1  and  O2_11 
REMARK    2  A    between atoms: C4_4  and  C7_7 
REMARK    3  A    between atoms: C8_8  and  C9_9 
REMARK    4  A    between atoms: O2_11  and  C10_12 
REMARK    5  A    between atoms: C10_12  and  C11_13 
ROOT
HETATM    1  C1  UNL     1      -0.605   0.442   0.100  1.00  0.00     0.095 A 
HETATM    2  C2  UNL     1      -1.348   1.635   0.100  1.00  0.00     0.024 A 
HETATM    3  C3  UNL     1      -0.691   2.877   0.100  1.00  0.00     0.002 A 
HETATM    4  C4  UNL     1       0.715   2.930   0.100  1.00  0.00     0.000 A 
HETATM    5  C5  UNL     1       1.459   1.737   0.100  1.00  0.00     0.002 A 
HETATM    6  C6  UNL     1       0.801   0.496   0.100  1.00  0.00     0.024 A 
ENDROOT
BRANCH   1   7
HETATM    7  O2  UNL     1      -1.223  -0.724   0.100  1.00  0.00    -0.326 OA
BRANCH   7   8
HETATM    8  C10 UNL     1      -0.426  -1.900   0.100  1.00  0.00     0.174 C 
BRANCH   8   9
HETATM    9  C11 UNL     1      -1.320  -3.111   0.100  1.00  0.00    -0.002 C 
HETATM   10  C12 UNL     1      -0.771  -4.312  -0.142  1.00  0.00    -0.045 C 
HETATM   11  C13 UNL     1       0.713  -4.390  -0.373  1.00  0.00     0.026 C 
HETATM   12  C14 UNL     1      -1.670  -5.519  -0.168  1.00  0.00     0.026 C 
ENDBRANCH   8   9
ENDBRANCH   7   8
ENDBRANCH   1   7
BRANCH   4  13
HETATM   13  C7  UNL     1       1.412   4.248   0.100  1.00  0.00     0.003 C 
HETATM   14  C8  UNL     1       0.674   5.370   0.100  1.00  0.00     0.045 C 
BRANCH  14  15
HETATM   15  C9  UNL     1       1.316   6.690   0.100  1.00  0.00     0.234 C 
HETATM   16  O1  UNL     1       0.647   7.696   0.100  1.00  0.00    -0.283 OA
ENDBRANCH  14  15
ENDBRANCH   4  13
TORSDOF 5
