REMARK  6 active torsions:
REMARK  status: ('A' for Active; 'I' for Inactive)
REMARK    1  A    between atoms: C2_2  and  C22_27 
REMARK    2  A    between atoms: C5_5  and  C20_24 
REMARK    3  A    between atoms: C11_11  and  C13_15 
REMARK    4  A    between atoms: C14_16  and  C15_17 
REMARK    5  A    between atoms: C16_18  and  C17_19 
REMARK    6  A    between atoms: C22_27  and  O7_29 
ROOT
HETATM    1  C1  UNL     1      -3.590   0.861  -0.133  1.00  0.00    -0.025 C 
HETATM    2  C2  UNL     1      -4.096  -0.342  -0.471  1.00  0.00     0.037 C 
HETATM    3  C3  UNL     1      -3.514  -1.619   0.088  1.00  0.00     0.032 C 
HETATM    4  C4  UNL     1      -2.055  -1.855  -0.336  1.00  0.00     0.012 C 
HETATM    5  C5  UNL     1      -1.004  -1.074   0.492  1.00  0.00     0.063 C 
HETATM    6  C6  UNL     1      -1.057   0.467   0.424  1.00  0.00     0.088 C 
HETATM    7  C7  UNL     1      -2.434   1.057   0.824  1.00  0.00     0.036 C 
HETATM    8  C8  UNL     1      -0.709   0.738  -1.051  1.00  0.00     0.010 C 
HETATM    9  C9  UNL     1       0.289  -0.357  -1.420  1.00  0.00     0.004 C 
HETATM   10  C10 UNL     1       0.389  -1.246  -0.168  1.00  0.00     0.036 C 
HETATM   11  C11 UNL     1       1.543  -0.754   0.746  1.00  0.00     0.120 C 
HETATM   12  O1  UNL     1       1.314   0.572   1.236  1.00  0.00    -0.302 OA
HETATM   13  C12 UNL     1       0.062   1.067   1.281  1.00  0.00     0.272 C 
HETATM   14  O2  UNL     1      -0.184   2.012   1.994  1.00  0.00    -0.264 OA
HETATM   15  C19 UNL     1       1.711  -1.691   1.947  1.00  0.00     0.035 C 
ENDROOT
BRANCH  11  16
HETATM   16  C13 UNL     1       2.877  -0.748   0.041  1.00  0.00     0.001 C 
HETATM   17  C14 UNL     1       3.535   0.418  -0.072  1.00  0.00    -0.002 C 
BRANCH  17  18
HETATM   18  C15 UNL     1       4.836   0.479  -0.748  1.00  0.00     0.002 C 
HETATM   19  C16 UNL     1       5.670   1.512  -0.539  1.00  0.00     0.043 C 
HETATM   20  C18 UNL     1       5.236   2.604   0.404  1.00  0.00     0.037 C 
BRANCH  19  21
HETATM   21  C17 UNL     1       6.982   1.625  -1.186  1.00  0.00     0.207 C 
HETATM   22  O3  UNL     1       7.264   0.688  -2.086  1.00  0.00    -0.644 OA
HETATM   23  O4  UNL     1       7.732   2.526  -0.893  1.00  0.00    -0.644 OA
ENDBRANCH  19  21
ENDBRANCH  17  18
ENDBRANCH  11  16
BRANCH   5  24
HETATM   24  C20 UNL     1      -1.092  -1.582   1.918  1.00  0.00     0.151 C 
HETATM   25  O5  UNL     1      -1.363  -2.736   2.152  1.00  0.00    -0.296 OA
HETATM   26  C21 UNL     1      -0.832  -0.605   3.033  1.00  0.00     0.072 C 
ENDBRANCH   5  24
BRANCH   2  27
HETATM   27  C22 UNL     1      -5.231  -0.435  -1.404  1.00  0.00     0.291 C 
HETATM   28  O6  UNL     1      -5.598  -1.512  -1.815  1.00  0.00    -0.260 OA
BRANCH  27  29
HETATM   29  O7  UNL     1      -5.795   0.721  -1.744  1.00  0.00    -0.296 OA
HETATM   30  C23 UNL     1      -6.875   0.547  -2.651  1.00  0.00     0.185 C 
ENDBRANCH  27  29
ENDBRANCH   2  27
TORSDOF 6
