REMARK  4 active torsions:
REMARK  status: ('A' for Active; 'I' for Inactive)
REMARK    1  A    between atoms: C3_3  and  C22_24 
REMARK    2  A    between atoms: C12_13  and  C15_16 
REMARK    3  A    between atoms: C12_13  and  O2_19 
REMARK    4  A    between atoms: O2_19  and  C18_20 
ROOT
HETATM    1  C1  UNL     1      -4.053   1.055  -0.533  1.00  0.00     0.001 C 
HETATM    2  C2  UNL     1      -4.360   0.287   0.750  1.00  0.00     0.010 C 
HETATM    3  C3  UNL     1      -3.652  -1.090   0.781  1.00  0.00     0.079 C 
HETATM    4  C4  UNL     1      -2.320  -1.082  -0.045  1.00  0.00     0.018 C 
HETATM    5  C5  UNL     1      -1.600   0.303  -0.047  1.00  0.00     0.005 C 
HETATM    6  C6  UNL     1      -2.555   1.381  -0.643  1.00  0.00     0.000 C 
HETATM    7  C7  UNL     1      -0.307   0.226  -0.916  1.00  0.00     0.025 C 
HETATM    8  C8  UNL     1       0.598  -0.910  -0.467  1.00  0.00     0.010 C 
HETATM    9  C9  UNL     1      -0.035  -2.227  -0.320  1.00  0.00     0.169 C 
HETATM   10  C10 UNL     1      -1.395  -2.270   0.326  1.00  0.00     0.069 C 
HETATM   11  O1  UNL     1       0.518  -3.236  -0.693  1.00  0.00    -0.292 OA
HETATM   12  C11 UNL     1       1.912  -0.740  -0.195  1.00  0.00    -0.001 C 
HETATM   13  C12 UNL     1       2.609   0.600  -0.266  1.00  0.00     0.111 C 
HETATM   14  C13 UNL     1       1.609   1.764  -0.152  1.00  0.00     0.032 C 
HETATM   15  C14 UNL     1       0.428   1.576  -1.109  1.00  0.00     0.007 C 
HETATM   16  C20 UNL     1      -1.227   0.684   1.397  1.00  0.00     0.000 C 
HETATM   17  C21 UNL     1      -3.428  -1.473   2.250  1.00  0.00     0.011 C 
ENDROOT
BRANCH  13  18
HETATM   18  C15 UNL     1       3.693   0.703   0.809  1.00  0.00     0.029 C 
HETATM   19  C16 UNL     1       4.742   1.771   0.490  1.00  0.00     0.003 C 
HETATM   20  C17 UNL     1       3.117   0.844   2.219  1.00  0.00     0.003 C 
ENDBRANCH  13  18
BRANCH  13  21
HETATM   21  O2  UNL     1       3.273   0.685  -1.512  1.00  0.00    -0.355 OA
BRANCH  21  22
HETATM   22  C18 UNL     1       4.064  -0.445  -1.797  1.00  0.00     0.143 C 
HETATM   23  C19 UNL     1       4.688  -0.254  -3.182  1.00  0.00     0.035 C 
ENDBRANCH  21  22
ENDBRANCH  13  21
BRANCH   3  24
HETATM   24  C22 UNL     1      -4.574  -2.137   0.201  1.00  0.00     0.184 C 
HETATM   25  O3  UNL     1      -4.557  -3.276   0.609  1.00  0.00    -0.647 OA
HETATM   26  O4  UNL     1      -5.381  -1.709  -0.766  1.00  0.00    -0.647 OA
ENDBRANCH   3  24
TORSDOF 4
