REMARK  3 active torsions:
REMARK  status: ('A' for Active; 'I' for Inactive)
REMARK    1  A    between atoms: C6_6  and  C7_7 
REMARK    2  A    between atoms: C7_7  and  C8_8 
REMARK    3  A    between atoms: C8_8  and  C9_9 
ROOT
HETATM    1  C1  UNL     1      -1.869  -0.422   0.457  1.00  0.00    -0.002 A 
HETATM    2  C2  UNL     1      -2.526  -1.664   0.457  1.00  0.00     0.027 A 
HETATM    3  C3  UNL     1      -1.783  -2.857   0.457  1.00  0.00     0.131 A 
HETATM    4  C4  UNL     1      -0.377  -2.803   0.457  1.00  0.00     0.027 A 
HETATM    5  C5  UNL     1       0.281  -1.563   0.457  1.00  0.00    -0.002 A 
HETATM    6  C6  UNL     1      -0.465  -0.369   0.457  1.00  0.00    -0.022 A 
HETATM    7  O2  UNL     1      -2.401  -4.023   0.457  1.00  0.00    -0.190 OA
ENDROOT
BRANCH   6   8
HETATM    8  C7  UNL     1       0.230   0.943   0.457  1.00  0.00     0.034 C 
BRANCH   8   9
HETATM    9  C8  UNL     1       0.494   1.441  -0.965  1.00  0.00     0.069 C 
BRANCH   9  10
HETATM   10  C9  UNL     1       1.201   2.770  -0.987  1.00  0.00     0.151 C 
HETATM   11  C10 UNL     1       2.623   2.824  -0.498  1.00  0.00     0.072 C 
HETATM   12  O1  UNL     1       0.641   3.766  -1.385  1.00  0.00    -0.296 OA
ENDBRANCH   9  10
ENDBRANCH   8   9
ENDBRANCH   6   8
TORSDOF 3
