REMARK  2 active torsions:
REMARK  status: ('A' for Active; 'I' for Inactive)
REMARK    1  A    between atoms: C1_1  and  O2_4 
REMARK    2  A    between atoms: O2_4  and  C3_5 
ROOT
HETATM    1  C3  UNL     1       4.961  -0.328  -0.051  1.00  0.00     0.124 C 
HETATM    2  C4  UNL     1       4.209  -0.877  -1.264  1.00  0.00     0.030 C 
HETATM    3  C5  UNL     1       2.738  -1.186  -0.926  1.00  0.00     0.003 C 
HETATM    4  C6  UNL     1       2.129  -0.289   0.191  1.00  0.00     0.000 C 
HETATM    5  C7  UNL     1       2.830   1.094   0.180  1.00  0.00     0.002 C 
HETATM    6  C8  UNL     1       4.369   1.020   0.441  1.00  0.00     0.026 C 
HETATM    7  C9  UNL     1       4.701   1.156   1.936  1.00  0.00     0.002 C 
HETATM    8  C10 UNL     1       5.035   2.193  -0.289  1.00  0.00     0.002 C 
HETATM    9  C11 UNL     1       2.125   2.107   1.102  1.00  0.00     0.000 C 
HETATM   10  C12 UNL     1       0.643   2.250   0.746  1.00  0.00     0.000 C 
HETATM   11  C13 UNL     1      -0.135   0.910   0.824  1.00  0.00     0.000 C 
HETATM   12  C14 UNL     1      -0.049   0.422   2.285  1.00  0.00     0.000 C 
HETATM   13  C15 UNL     1      -1.650   1.102   0.371  1.00  0.00     0.000 C 
HETATM   14  C16 UNL     1      -1.803   2.318  -0.562  1.00  0.00     0.000 C 
HETATM   15  C17 UNL     1      -2.560   1.350   1.604  1.00  0.00     0.000 C 
HETATM   16  C18 UNL     1      -4.047   1.471   1.256  1.00  0.00     0.000 C 
HETATM   17  C19 UNL     1      -4.582   0.219   0.531  1.00  0.00     0.004 C 
HETATM   18  C20 UNL     1      -4.564  -0.984   1.488  1.00  0.00     0.000 C 
HETATM   19  C21 UNL     1      -6.033   0.490   0.078  1.00  0.00     0.025 C 
HETATM   20  C22 UNL     1      -6.572  -0.500  -0.930  1.00  0.00    -0.035 C 
HETATM   21  C23 UNL     1      -5.768  -1.295  -1.662  1.00  0.00    -0.049 C 
HETATM   22  C24 UNL     1      -6.377  -2.240  -2.666  1.00  0.00     0.026 C 
HETATM   23  C25 UNL     1      -4.258  -1.289  -1.508  1.00  0.00     0.018 C 
HETATM   24  C26 UNL     1      -3.570  -1.402  -2.875  1.00  0.00     0.004 C 
HETATM   25  C27 UNL     1      -3.717  -0.070  -0.715  1.00  0.00     0.004 C 
HETATM   26  C28 UNL     1      -2.182  -0.125  -0.434  1.00  0.00     0.000 C 
HETATM   27  C29 UNL     1      -1.648  -1.428   0.182  1.00  0.00     0.000 C 
HETATM   28  C30 UNL     1      -0.125  -1.525   0.012  1.00  0.00     0.000 C 
HETATM   29  C31 UNL     1       0.590  -0.148  -0.059  1.00  0.00     0.000 C 
HETATM   30  C32 UNL     1       2.387  -0.955   1.555  1.00  0.00     0.000 C 
ENDROOT
BRANCH   1  31
HETATM   31  O2  UNL     1       6.340  -0.182  -0.371  1.00  0.00    -0.304 OA
BRANCH  31  32
HETATM   32  C1  UNL     1       6.965  -1.350  -0.463  1.00  0.00     0.272 C 
HETATM   33  C2  UNL     1       8.387  -1.279  -0.953  1.00  0.00     0.106 C 
HETATM   34  O1  UNL     1       6.459  -2.410  -0.180  1.00  0.00    -0.264 OA
ENDBRANCH  31  32
ENDBRANCH   1  31
TORSDOF 2
