REMARK  12 active torsions:
REMARK  status: ('A' for Active; 'I' for Inactive)
REMARK    1  A    between atoms: C1_1  and  C2_2 
REMARK    2  A    between atoms: C2_2  and  C3_3 
REMARK    3  A    between atoms: C3_3  and  C4_4 
REMARK    4  A    between atoms: C4_4  and  C5_5 
REMARK    5  A    between atoms: C5_5  and  C6_6 
REMARK    6  A    between atoms: C6_6  and  C7_7 
REMARK    7  A    between atoms: C7_7  and  C8_8 
REMARK    8  A    between atoms: C8_8  and  C9_9 
REMARK    9  A    between atoms: C9_9  and  C10_10 
REMARK   10  A    between atoms: C10_10  and  C11_11 
REMARK   11  A    between atoms: C11_11  and  C12_12 
REMARK   12  A    between atoms: C12_12  and  C13_13 
ROOT
HETATM    1  C9  UNL     1      -0.066   0.180   0.240  1.00  0.00     0.000 C 
ENDROOT
BRANCH   1   2
HETATM    2  C8  UNL     1      -1.553   0.113  -0.111  1.00  0.00     0.000 C 
BRANCH   2   3
HETATM    3  C7  UNL     1      -2.285  -1.002   0.635  1.00  0.00     0.000 C 
BRANCH   3   4
HETATM    4  C6  UNL     1      -3.772  -1.068   0.283  1.00  0.00     0.000 C 
BRANCH   4   5
HETATM    5  C5  UNL     1      -4.506  -2.184   1.027  1.00  0.00     0.003 C 
BRANCH   5   6
HETATM    6  C4  UNL     1      -5.992  -2.250   0.678  1.00  0.00     0.034 C 
BRANCH   6   7
HETATM    7  C3  UNL     1      -6.711  -3.406   1.371  1.00  0.00     0.163 C 
HETATM    8  O2  UNL     1      -6.756  -3.133   2.754  1.00  0.00    -0.223 OA
BRANCH   7   9
HETATM    9  C2  UNL     1      -8.145  -3.594   0.875  1.00  0.00     0.130 C 
BRANCH   9  10
HETATM   10  C1  UNL     1      -8.803  -4.813   1.465  1.00  0.00     0.188 C 
HETATM   11  O3  UNL     1      -8.143  -5.719   1.916  1.00  0.00    -0.647 OA
HETATM   12  O4  UNL     1     -10.133  -4.803   1.443  1.00  0.00    -0.647 OA
ENDBRANCH   9  10
ENDBRANCH   7   9
ENDBRANCH   6   7
ENDBRANCH   5   6
ENDBRANCH   4   5
ENDBRANCH   3   4
ENDBRANCH   2   3
ENDBRANCH   1   2
BRANCH   1  13
HETATM   13  C10 UNL     1       0.668   1.295  -0.506  1.00  0.00     0.000 C 
BRANCH  13  14
HETATM   14  C11 UNL     1       2.154   1.361  -0.154  1.00  0.00     0.002 C 
BRANCH  14  15
HETATM   15  C12 UNL     1       2.887   2.478  -0.898  1.00  0.00     0.036 C 
BRANCH  15  16
HETATM   16  C13 UNL     1       4.357   2.596  -0.488  1.00  0.00     0.257 C 
HETATM   17  C14 UNL     1       4.943   3.959  -0.898  1.00  0.00     0.039 C 
HETATM   18  C15 UNL     1       6.440   4.057  -0.566  1.00  0.00     0.037 C 
HETATM   19  C16 UNL     1       7.217   2.855  -1.131  1.00  0.00     0.186 C 
HETATM   20  C17 UNL     1       6.553   1.516  -0.734  1.00  0.00     0.286 C 
HETATM   21  O1  UNL     1       7.285   2.973  -2.541  1.00  0.00    -0.221 OA
HETATM   22  N1  UNL     1       5.127   1.498  -1.094  1.00  0.00     0.337 N 
HETATM   23  C18 UNL     1       7.260   0.303  -1.354  1.00  0.00     0.041 C 
ENDBRANCH  15  16
ENDBRANCH  14  15
ENDBRANCH  13  14
ENDBRANCH   1  13
TORSDOF 12
