REMARK  1 active torsions:
REMARK  status: ('A' for Active; 'I' for Inactive)
REMARK    1  A    between atoms: C9_10  and  C10_11 
ROOT
HETATM    1  C1  UNL     1       1.023  -0.873   1.879  1.00  0.00     0.131 C 
HETATM    2  C2  UNL     1       0.336  -1.774   2.920  1.00  0.00     0.030 C 
HETATM    3  C3  UNL     1      -0.777  -2.748   2.498  1.00  0.00     0.004 C 
HETATM    4  C4  UNL     1      -1.061  -2.852   0.996  1.00  0.00     0.035 C 
HETATM    5  C5  UNL     1      -1.701  -1.580   0.426  1.00  0.00     0.250 C 
HETATM    6  N1  UNL     1      -0.766  -0.498   0.059  1.00  0.00     0.138 N 
HETATM    7  C6  UNL     1       0.082   0.082   1.111  1.00  0.00     0.244 C 
HETATM    8  C7  UNL     1      -0.848   0.949   1.945  1.00  0.00     0.038 C 
HETATM    9  C8  UNL     1      -1.707   1.586   0.848  1.00  0.00     0.038 C 
HETATM   10  C9  UNL     1      -1.537   0.676  -0.385  1.00  0.00     0.247 C 
HETATM   11  C15 UNL     1       1.918  -1.668   0.896  1.00  0.00     0.040 C 
HETATM   12  C16 UNL     1       3.117  -0.744   0.705  1.00  0.00     0.089 C 
HETATM   13  C17 UNL     1       3.065   0.072   1.957  1.00  0.00     0.271 C 
HETATM   14  O3  UNL     1       1.926  -0.059   2.629  1.00  0.00    -0.305 OA
HETATM   15  O4  UNL     1       3.988   0.771   2.305  1.00  0.00    -0.264 OA
HETATM   16  C18 UNL     1       4.410  -1.535   0.531  1.00  0.00     0.011 C 
ENDROOT
BRANCH  10  17
HETATM   17  C10 UNL     1      -0.773   1.402  -1.496  1.00  0.00     0.156 C 
HETATM   18  O1  UNL     1      -0.447   0.492  -2.543  1.00  0.00    -0.302 OA
HETATM   19  C11 UNL     1      -0.451   1.181  -3.680  1.00  0.00     0.271 C 
HETATM   20  C12 UNL     1      -0.934   2.594  -3.516  1.00  0.00     0.089 C 
HETATM   21  O2  UNL     1      -0.113   0.734  -4.750  1.00  0.00    -0.264 OA
HETATM   22  C13 UNL     1      -1.588   2.535  -2.135  1.00  0.00     0.042 C 
HETATM   23  C14 UNL     1      -1.924   3.039  -4.586  1.00  0.00     0.011 C 
ENDBRANCH  10  17
TORSDOF 1
