REMARK  3 active torsions:
REMARK  status: ('A' for Active; 'I' for Inactive)
REMARK    1  A    between atoms: C1_1  and  C7_9 
REMARK    2  A    between atoms: C4_4  and  C5_6 
REMARK    3  A    between atoms: C8_11  and  C11_14 
ROOT
HETATM    1  C11 UNL     1       1.417   1.937  -3.423  1.00  0.00    -0.058 C 
HETATM    2  C12 UNL     1       1.770   2.430  -4.447  1.00  0.00    -0.085 C 
HETATM    3  C13 UNL     1       2.203   3.040  -5.705  1.00  0.00     0.090 C 
ENDROOT
BRANCH   1   4
HETATM    4  C8  UNL     1       0.993   1.350  -2.185  1.00  0.00     0.071 A 
HETATM    5  S2  UNL     1      -0.007  -0.019  -1.982  1.00  0.00    -0.078 SA
HETATM    6  C7  UNL     1       0.110   0.148  -0.304  1.00  0.00     0.036 A 
HETATM    7  C10 UNL     1       0.891   1.214   0.147  1.00  0.00     0.008 A 
HETATM    8  C9  UNL     1       1.409   1.919  -0.960  1.00  0.00     0.015 A 
BRANCH   6   9
HETATM    9  C1  UNL     1      -0.565  -0.777   0.648  1.00  0.00     0.035 A 
HETATM   10  C2  UNL     1      -1.345  -1.848   0.207  1.00  0.00     0.008 A 
HETATM   11  C3  UNL     1      -1.854  -2.545   1.326  1.00  0.00     0.010 A 
HETATM   12  C4  UNL     1      -1.444  -1.984   2.556  1.00  0.00     0.064 A 
HETATM   13  S1  UNL     1      -0.448  -0.617   2.328  1.00  0.00    -0.084 SA
BRANCH  12  14
HETATM   14  C5  UNL     1      -1.818  -2.496   3.866  1.00  0.00     0.179 C 
HETATM   15  O1  UNL     1      -2.529  -3.470   3.955  1.00  0.00    -0.291 OA
HETATM   16  C6  UNL     1      -1.307  -1.795   5.096  1.00  0.00     0.078 C 
ENDBRANCH  12  14
ENDBRANCH   6   9
ENDBRANCH   1   4
TORSDOF 3
