REMARK  0 active torsions:
REMARK  status: ('A' for Active; 'I' for Inactive)
ROOT
HETATM    1  C1  UNL     1       0.875  -0.578  -0.656  1.00  0.00     0.105 A 
HETATM    2  C2  UNL     1       0.746   0.305   0.463  1.00  0.00     0.023 A 
HETATM    3  C3  UNL     1      -0.533   0.748   0.901  1.00  0.00     0.004 A 
HETATM    4  C4  UNL     1      -1.666   0.281   0.194  1.00  0.00     0.025 A 
HETATM    5  C5  UNL     1      -1.535  -0.563  -0.873  1.00  0.00     0.102 A 
HETATM    6  C6  UNL     1      -0.287  -1.024  -1.343  1.00  0.00     0.050 A 
HETATM    7  O1  UNL     1      -2.779  -0.873  -1.392  1.00  0.00    -0.305 OA
HETATM    8  C7  UNL     1      -3.682  -0.150  -0.556  1.00  0.00     0.123 A 
HETATM    9  C8  UNL     1      -2.969   0.566   0.430  1.00  0.00     0.029 A 
HETATM   10  C9  UNL     1       1.981   0.750   1.157  1.00  0.00     0.007 A 
HETATM   11  C10 UNL     1       3.172   0.307   0.713  1.00  0.00     0.069 A 
HETATM   12  C11 UNL     1       3.240  -0.606  -0.451  1.00  0.00     0.300 A 
HETATM   13  O2  UNL     1       2.098  -0.990  -1.060  1.00  0.00    -0.273 OA
HETATM   14  O3  UNL     1       4.326  -0.983  -0.824  1.00  0.00    -0.259 OA
ENDROOT
TORSDOF 0
