REMARK  3 active torsions:
REMARK  status: ('A' for Active; 'I' for Inactive)
REMARK    1  A    between atoms: C1_1  and  C10_13 
REMARK    2  A    between atoms: C10_13  and  C11_14 
REMARK    3  A    between atoms: C11_14  and  C12_15 
ROOT
HETATM    1  C1  UNL     1      -0.078  -0.847  -0.268  1.00  0.00     0.081 A 
HETATM    2  C2  UNL     1       0.188  -2.082   0.219  1.00  0.00     0.062 A 
HETATM    3  C3  UNL     1      -0.906  -3.006   0.586  1.00  0.00     0.199 A 
HETATM    4  O1  UNL     1      -0.596  -4.096   1.012  1.00  0.00    -0.286 OA
HETATM    5  C4  UNL     1      -2.281  -2.474   0.381  1.00  0.00     0.064 A 
HETATM    6  C5  UNL     1      -3.418  -3.256   0.695  1.00  0.00     0.033 A 
HETATM    7  C6  UNL     1      -4.713  -2.722   0.488  1.00  0.00     0.131 A 
HETATM    8  C7  UNL     1      -4.867  -1.414  -0.029  1.00  0.00     0.029 A 
HETATM    9  C8  UNL     1      -3.729  -0.635  -0.342  1.00  0.00     0.027 A 
HETATM   10  C9  UNL     1      -2.432  -1.160  -0.137  1.00  0.00     0.103 A 
HETATM   11  O2  UNL     1      -1.346  -0.414  -0.436  1.00  0.00    -0.311 OA
HETATM   12  O3  UNL     1      -5.795  -3.457   0.783  1.00  0.00    -0.190 OA
ENDROOT
BRANCH   1  13
HETATM   13  C10 UNL     1       1.080   0.047  -0.621  1.00  0.00     0.056 C 
BRANCH  13  14
HETATM   14  C11 UNL     1       1.326   1.125   0.434  1.00  0.00     0.033 C 
BRANCH  14  15
HETATM   15  C12 UNL     1       2.479   1.992   0.070  1.00  0.00    -0.022 A 
HETATM   16  C13 UNL     1       3.773   1.662   0.508  1.00  0.00    -0.004 A 
HETATM   17  C14 UNL     1       4.863   2.483   0.164  1.00  0.00    -0.000 A 
HETATM   18  C15 UNL     1       4.658   3.633  -0.617  1.00  0.00    -0.000 A 
HETATM   19  C16 UNL     1       3.363   3.963  -1.055  1.00  0.00    -0.000 A 
HETATM   20  C17 UNL     1       2.273   3.143  -0.711  1.00  0.00    -0.004 A 
ENDBRANCH  14  15
ENDBRANCH  13  14
ENDBRANCH   1  13
TORSDOF 3
