REMARK  8 active torsions:
REMARK  status: ('A' for Active; 'I' for Inactive)
REMARK    1  A    between atoms: C12_13  and  O8_27 
REMARK    2  A    between atoms: C14_15  and  C17_20 
REMARK    3  A    between atoms: C17_20  and  C18_22 
REMARK    4  A    between atoms: O8_27  and  C20_28 
REMARK    5  A    between atoms: C20_28  and  C21_29 
REMARK    6  A    between atoms: C22_30  and  C23_31 
REMARK    7  A    between atoms: C23_31  and  O9_34 
REMARK    8  A    between atoms: O9_34  and  C26_35 
ROOT
HETATM    1  C1  UNL     1      -5.959  -1.525  -0.393  1.00  0.00     0.198 C 
HETATM    2  C2  UNL     1      -6.408  -0.352  -1.168  1.00  0.00     0.158 C 
HETATM    3  C3  UNL     1      -5.529   0.572  -1.611  1.00  0.00    -0.016 C 
HETATM    4  C4  UNL     1      -4.043   0.455  -1.311  1.00  0.00     0.023 C 
HETATM    5  C5  UNL     1      -3.586  -1.021  -1.172  1.00  0.00     0.013 C 
HETATM    6  C6  UNL     1      -4.483  -1.713  -0.121  1.00  0.00     0.072 C 
HETATM    7  C7  UNL     1      -2.092  -1.064  -0.707  1.00  0.00     0.039 C 
HETATM    8  C8  UNL     1      -1.156  -0.178  -1.586  1.00  0.00     0.061 C 
HETATM    9  C9  UNL     1      -1.692   1.254  -1.809  1.00  0.00     0.127 C 
HETATM   10  C10 UNL     1      -3.139   1.211  -2.309  1.00  0.00     0.034 C 
HETATM   11  O1  UNL     1      -1.693   2.057  -0.617  1.00  0.00    -0.302 OA
HETATM   12  C11 UNL     1      -0.703   1.955   0.285  1.00  0.00     0.300 C 
HETATM   13  C12 UNL     1       0.168   0.725   0.369  1.00  0.00     0.213 C 
HETATM   14  C13 UNL     1       0.240   0.012  -0.979  1.00  0.00     0.077 C 
HETATM   15  C14 UNL     1       0.779  -1.416  -1.139  1.00  0.00     0.187 C 
HETATM   16  C15 UNL     1       0.059  -2.477  -0.262  1.00  0.00     0.214 C 
HETATM   17  C16 UNL     1      -1.488  -2.481  -0.432  1.00  0.00     0.185 C 
HETATM   18  O2  UNL     1      -1.805  -3.389  -1.471  1.00  0.00    -0.221 OA
HETATM   19  O3  UNL     1       0.371  -2.279   1.105  1.00  0.00    -0.218 OA
HETATM   20  O7  UNL     1       0.428  -1.672  -2.488  1.00  0.00    -0.349 OA
HETATM   21  C19 UNL     1      -0.684  -0.881  -2.875  1.00  0.00     0.145 C 
HETATM   22  O12 UNL     1      -0.500   2.852   1.070  1.00  0.00    -0.262 OA
HETATM   23  C29 UNL     1      -3.803  -1.717  -2.529  1.00  0.00     0.001 C 
HETATM   24  C30 UNL     1      -6.022   1.754  -2.412  1.00  0.00     0.029 C 
HETATM   25  O13 UNL     1      -7.709  -0.215  -1.430  1.00  0.00    -0.188 OA
HETATM   26  O14 UNL     1      -6.764  -2.330   0.016  1.00  0.00    -0.289 OA
ENDROOT
BRANCH  13  27
HETATM   27  O8  UNL     1       1.482   1.086   0.775  1.00  0.00    -0.291 OA
BRANCH  27  28
HETATM   28  C20 UNL     1       1.553   1.365   2.074  1.00  0.00     0.296 C 
HETATM   29  O11 UNL     1       0.631   1.227   2.844  1.00  0.00    -0.259 OA
BRANCH  28  30
HETATM   30  C21 UNL     1       2.848   1.869   2.549  1.00  0.00     0.062 C 
HETATM   31  C22 UNL     1       3.740   1.037   3.109  1.00  0.00    -0.014 C 
HETATM   32  C28 UNL     1       3.383  -0.420   3.238  1.00  0.00     0.029 C 
BRANCH  31  33
HETATM   33  C23 UNL     1       5.053   1.604   3.580  1.00  0.00     0.117 C 
HETATM   34  C24 UNL     1       5.254   1.438   5.086  1.00  0.00     0.035 C 
HETATM   35  C25 UNL     1       5.268   3.043   3.111  1.00  0.00     0.035 C 
BRANCH  33  36
HETATM   36  O9  UNL     1       5.943   0.742   2.885  1.00  0.00    -0.303 OA
BRANCH  36  37
HETATM   37  C26 UNL     1       6.010   1.025   1.586  1.00  0.00     0.273 C 
HETATM   38  C27 UNL     1       5.225   0.105   0.689  1.00  0.00     0.106 C 
HETATM   39  O10 UNL     1       6.647   1.945   1.129  1.00  0.00    -0.264 OA
ENDBRANCH  36  37
ENDBRANCH  33  36
ENDBRANCH  31  33
ENDBRANCH  28  30
ENDBRANCH  27  28
ENDBRANCH  13  27
BRANCH  15  40
HETATM   40  C17 UNL     1       2.285  -1.494  -1.022  1.00  0.00     0.263 C 
HETATM   41  O4  UNL     1       2.811  -1.904  -0.014  1.00  0.00    -0.282 OA
BRANCH  40  42
HETATM   42  C18 UNL     1       3.102  -1.063  -2.162  1.00  0.00     0.250 C 
HETATM   43  O5  UNL     1       4.219  -1.502  -2.316  1.00  0.00    -0.642 OA
HETATM   44  O6  UNL     1       2.533  -0.182  -2.981  1.00  0.00    -0.642 OA
ENDBRANCH  40  42
ENDBRANCH  15  40
TORSDOF 8
