REMARK  1 active torsions:
REMARK  status: ('A' for Active; 'I' for Inactive)
REMARK    1  A    between atoms: C7_8  and  C10_12 
ROOT
HETATM    1  C1  UNL     1      -3.928  -0.449   0.187  1.00  0.00     0.135 A 
HETATM    2  C2  UNL     1      -3.773  -1.756   0.705  1.00  0.00     0.055 A 
HETATM    3  C3  UNL     1      -2.481  -2.293   0.912  1.00  0.00     0.138 A 
HETATM    4  C4  UNL     1      -1.338  -1.512   0.598  1.00  0.00     0.087 A 
HETATM    5  C5  UNL     1      -1.490  -0.197   0.080  1.00  0.00     0.107 A 
HETATM    6  C6  UNL     1      -2.787   0.330  -0.125  1.00  0.00     0.052 A 
HETATM    7  O1  UNL     1      -0.404   0.551  -0.219  1.00  0.00    -0.307 OA
HETATM    8  C7  UNL     1       0.863   0.119  -0.051  1.00  0.00     0.103 A 
HETATM    9  C8  UNL     1       1.131  -1.115   0.434  1.00  0.00     0.067 A 
HETATM   10  C9  UNL     1       0.039  -2.041   0.801  1.00  0.00     0.202 A 
HETATM   11  O2  UNL     1       0.355  -3.127   1.227  1.00  0.00    -0.286 OA
HETATM   12  O3  UNL     1      -2.354  -3.535   1.402  1.00  0.00    -0.190 OA
HETATM   13  O4  UNL     1      -5.154   0.055  -0.008  1.00  0.00    -0.190 OA
ENDROOT
BRANCH   8  14
HETATM   14  C10 UNL     1       2.006   1.016  -0.406  1.00  0.00     0.023 A 
HETATM   15  C11 UNL     1       3.252   0.852   0.225  1.00  0.00     0.002 A 
HETATM   16  C12 UNL     1       4.326   1.696  -0.109  1.00  0.00     0.000 A 
HETATM   17  C13 UNL     1       4.154   2.703  -1.074  1.00  0.00     0.000 A 
HETATM   18  C14 UNL     1       2.908   2.869  -1.705  1.00  0.00     0.000 A 
HETATM   19  C15 UNL     1       1.834   2.026  -1.371  1.00  0.00     0.002 A 
ENDBRANCH   8  14
TORSDOF 1
