REMARK  1 active torsions:
REMARK  status: ('A' for Active; 'I' for Inactive)
REMARK    1  A    between atoms: C17_17  and  C26_26 
ROOT
HETATM    1  C1  UNL     1       5.219   0.684  -1.309  1.00  0.00     0.033 C 
HETATM    2  C2  UNL     1       5.615   0.963   0.158  1.00  0.00     0.152 C 
HETATM    3  C3  UNL     1       4.832   0.090   1.170  1.00  0.00     0.028 C 
HETATM    4  C4  UNL     1       3.281   0.281   0.992  1.00  0.00     0.002 C 
HETATM    5  C5  UNL     1       2.838   0.928  -0.352  1.00  0.00     0.000 C 
HETATM    6  C6  UNL     1       3.719   0.375  -1.492  1.00  0.00     0.003 C 
HETATM    7  C7  UNL     1       1.301   0.691  -0.582  1.00  0.00     0.003 C 
HETATM    8  C8  UNL     1       0.480   0.502   0.734  1.00  0.00     0.015 C 
HETATM    9  C9  UNL     1       1.092   1.367   1.855  1.00  0.00     0.004 C 
HETATM   10  C10 UNL     1       2.555   0.975   2.174  1.00  0.00     0.000 C 
HETATM   11  C11 UNL     1      -0.969   0.803   0.394  1.00  0.00    -0.050 C 
HETATM   12  C12 UNL     1      -1.565   0.090  -0.809  1.00  0.00     0.015 A 
HETATM   13  C13 UNL     1      -0.600  -0.490  -1.832  1.00  0.00     0.004 A 
HETATM   14  C14 UNL     1       0.922  -0.393  -1.621  1.00  0.00     0.001 C 
HETATM   15  C15 UNL     1      -1.395   0.758  -2.162  1.00  0.00     0.004 A 
HETATM   16  C16 UNL     1      -2.895  -0.602  -0.441  1.00  0.00     0.013 C 
HETATM   17  C17 UNL     1      -3.871   0.424   0.250  1.00  0.00     0.083 C 
HETATM   18  C18 UNL     1      -3.191   1.787   0.582  1.00  0.00     0.035 C 
HETATM   19  C19 UNL     1      -1.772   1.641   1.078  1.00  0.00    -0.034 C 
HETATM   20  C20 UNL     1      -5.094   0.680  -0.658  1.00  0.00     0.011 C 
HETATM   21  C21 UNL     1      -5.879  -0.594  -1.031  1.00  0.00     0.001 C 
HETATM   22  C22 UNL     1      -4.992  -1.844  -1.262  1.00  0.00     0.000 C 
HETATM   23  C23 UNL     1      -3.549  -1.416  -1.586  1.00  0.00     0.001 C 
HETATM   24  C24 UNL     1      -5.555  -2.674  -2.422  1.00  0.00     0.000 C 
HETATM   25  C25 UNL     1      -4.992  -2.738  -0.014  1.00  0.00     0.000 C 
HETATM   26  C27 UNL     1       0.461  -0.961   1.211  1.00  0.00     0.004 C 
HETATM   27  C28 UNL     1       3.068   2.453  -0.289  1.00  0.00     0.000 C 
HETATM   28  C29 UNL     1       5.277   0.428   2.602  1.00  0.00     0.003 C 
HETATM   29  C30 UNL     1       5.190  -1.391   0.932  1.00  0.00     0.003 C 
HETATM   30  O3  UNL     1       7.014   0.777   0.297  1.00  0.00    -0.224 OA
ENDROOT
BRANCH  17  31
HETATM   31  C26 UNL     1      -4.367  -0.149   1.561  1.00  0.00     0.184 C 
HETATM   32  O1  UNL     1      -5.549  -0.197   1.811  1.00  0.00    -0.647 OA
HETATM   33  O2  UNL     1      -3.418  -0.580   2.387  1.00  0.00    -0.647 OA
ENDBRANCH  17  31
TORSDOF 1
