REMARK  5 active torsions:
REMARK  status: ('A' for Active; 'I' for Inactive)
REMARK    1  A    between atoms: C5_5  and  C7_7 
REMARK    2  A    between atoms: C8_8  and  C9_9 
REMARK    3  A    between atoms: C12_12  and  O1_15 
REMARK    4  A    between atoms: O1_15  and  C15_16 
REMARK    5  A    between atoms: C16_18  and  C20_25 
ROOT
HETATM    1  C9  UNL     1       1.205  -1.643  -0.180  1.00  0.00     0.000 A 
HETATM    2  C10 UNL     1       1.967  -1.313  -1.315  1.00  0.00     0.002 A 
HETATM    3  C11 UNL     1       2.244   0.035  -1.606  1.00  0.00     0.024 A 
HETATM    4  C12 UNL     1       1.764   1.055  -0.766  1.00  0.00     0.097 A 
HETATM    5  C13 UNL     1       1.004   0.721   0.369  1.00  0.00     0.024 A 
HETATM    6  C14 UNL     1       0.725  -0.625   0.664  1.00  0.00     0.002 A 
ENDROOT
BRANCH   4   7
HETATM    7  O1  UNL     1       2.025   2.316  -1.039  1.00  0.00    -0.304 OA
BRANCH   7   8
HETATM    8  C15 UNL     1       1.133   3.307  -0.547  1.00  0.00     0.274 C 
HETATM    9  O2  UNL     1      -0.188   2.981  -0.963  1.00  0.00    -0.326 OA
HETATM   10  C16 UNL     1      -1.197   3.865  -0.498  1.00  0.00     0.184 C 
HETATM   11  C17 UNL     1      -0.930   5.287  -1.043  1.00  0.00     0.215 C 
HETATM   12  C18 UNL     1       0.494   5.770  -0.684  1.00  0.00     0.220 C 
HETATM   13  O5  UNL     1      -1.889   6.172  -0.494  1.00  0.00    -0.218 OA
HETATM   14  C19 UNL     1       1.525   4.695  -1.092  1.00  0.00     0.241 C 
HETATM   15  O4  UNL     1       0.775   6.986  -1.356  1.00  0.00    -0.218 OA
HETATM   16  O3  UNL     1       2.805   5.033  -0.588  1.00  0.00    -0.215 OA
BRANCH  10  17
HETATM   17  C20 UNL     1      -2.537   3.289  -0.965  1.00  0.00     0.214 C 
HETATM   18  O6  UNL     1      -2.760   2.076  -0.281  1.00  0.00    -0.218 OA
ENDBRANCH  10  17
ENDBRANCH   7   8
ENDBRANCH   4   7
BRANCH   1  19
HETATM   19  C8  UNL     1       0.910  -3.072   0.131  1.00  0.00     0.000 C 
HETATM   20  C7  UNL     1      -0.127  -3.357   0.936  1.00  0.00     0.000 C 
BRANCH  20  21
HETATM   21  C5  UNL     1      -0.424  -4.787   1.248  1.00  0.00     0.004 A 
HETATM   22  C4  UNL     1       0.619  -5.731   1.281  1.00  0.00     0.028 A 
HETATM   23  C3  UNL     1       0.342  -7.078   1.572  1.00  0.00     0.133 A 
HETATM   24  C2  UNL     1      -0.981  -7.479   1.832  1.00  0.00     0.055 A 
HETATM   25  O7  UNL     1       1.318  -7.963   1.604  1.00  0.00    -0.190 OA
HETATM   26  C1  UNL     1      -2.026  -6.539   1.799  1.00  0.00     0.133 A 
HETATM   27  C6  UNL     1      -1.744  -5.193   1.506  1.00  0.00     0.028 A 
HETATM   28  O8  UNL     1      -3.264  -6.918   2.043  1.00  0.00    -0.190 OA
ENDBRANCH  20  21
ENDBRANCH   1  19
TORSDOF 5
