REMARK  1 active torsions:
REMARK  status: ('A' for Active; 'I' for Inactive)
REMARK    1  A    between atoms: C5_5  and  C7_7 
ROOT
HETATM    1  C1  UNL     1      -1.615  -0.531   0.000  1.00  0.00     0.028 A 
HETATM    2  C2  UNL     1      -0.873  -1.727   0.000  1.00  0.00     0.131 A 
HETATM    3  C3  UNL     1       0.533  -1.670   0.000  1.00  0.00     0.028 A 
HETATM    4  C4  UNL     1       1.191  -0.430   0.000  1.00  0.00     0.008 A 
HETATM    5  C5  UNL     1       0.447   0.764   0.000  1.00  0.00     0.065 A 
HETATM    6  C6  UNL     1      -0.959   0.711   0.000  1.00  0.00     0.008 A 
HETATM    7  O3  UNL     1      -1.490  -2.891   0.000  1.00  0.00    -0.190 OA
ENDROOT
BRANCH   5   8
HETATM    8  C7  UNL     1       1.147   2.082   0.000  1.00  0.00     0.211 C 
HETATM    9  O1  UNL     1       0.348   3.147   0.000  1.00  0.00    -0.644 OA
HETATM   10  O2  UNL     1       2.354   2.147   0.000  1.00  0.00    -0.644 OA
ENDBRANCH   5   8
TORSDOF 1
