REMARK  2 active torsions:
REMARK  status: ('A' for Active; 'I' for Inactive)
REMARK    1  A    between atoms: C16_16  and  C25_27 
REMARK    2  A    between atoms: C21_22  and  C24_25 
ROOT
HETATM    1  C1  UNL     1      -5.365  -0.658  -1.526  1.00  0.00     0.033 C 
HETATM    2  C2  UNL     1      -6.004  -0.256  -0.174  1.00  0.00     0.152 C 
HETATM    3  C3  UNL     1      -4.975   0.076   0.943  1.00  0.00     0.028 C 
HETATM    4  C4  UNL     1      -3.834   0.965   0.375  1.00  0.00     0.002 C 
HETATM    5  C5  UNL     1      -3.105   0.371  -0.887  1.00  0.00     0.001 C 
HETATM    6  C6  UNL     1      -3.850  -0.875  -1.434  1.00  0.00     0.003 C 
HETATM    7  C7  UNL     1      -1.633   0.004  -0.531  1.00  0.00     0.005 C 
HETATM    8  C8  UNL     1      -0.781   1.215  -0.051  1.00  0.00     0.004 C 
HETATM    9  C9  UNL     1      -1.611   2.102   0.918  1.00  0.00     0.000 C 
HETATM   10  C10 UNL     1      -2.850   1.402   1.484  1.00  0.00     0.000 C 
HETATM   11  C11 UNL     1       0.535   0.672   0.605  1.00  0.00     0.017 C 
HETATM   12  C12 UNL     1       1.227  -0.379  -0.274  1.00  0.00    -0.049 C 
HETATM   13  C13 UNL     1       0.578  -0.988  -1.299  1.00  0.00    -0.035 C 
HETATM   14  C14 UNL     1      -0.873  -0.736  -1.645  1.00  0.00     0.025 C 
HETATM   15  C15 UNL     1       2.680  -0.736   0.062  1.00  0.00     0.023 C 
HETATM   16  C16 UNL     1       3.565   0.527   0.228  1.00  0.00     0.062 C 
HETATM   17  C17 UNL     1       2.918   1.414   1.320  1.00  0.00     0.155 C 
HETATM   18  C18 UNL     1       1.502   1.854   0.922  1.00  0.00     0.037 C 
HETATM   19  O1  UNL     1       3.695   2.574   1.557  1.00  0.00    -0.223 OA
HETATM   20  C19 UNL     1       4.996   0.117   0.646  1.00  0.00     0.005 C 
HETATM   21  C20 UNL     1       5.629  -0.895  -0.320  1.00  0.00     0.003 C 
HETATM   22  C21 UNL     1       4.774  -2.160  -0.471  1.00  0.00     0.031 C 
HETATM   23  C22 UNL     1       3.344  -1.768  -0.885  1.00  0.00     0.007 C 
HETATM   24  C23 UNL     1       5.385  -3.068  -1.545  1.00  0.00     0.003 C 
HETATM   25  C26 UNL     1       0.211  -0.045   1.926  1.00  0.00     0.004 C 
HETATM   26  C27 UNL     1      -0.410   2.080  -1.274  1.00  0.00     0.000 C 
HETATM   27  C28 UNL     1      -3.119   1.422  -2.014  1.00  0.00     0.000 C 
HETATM   28  C29 UNL     1      -5.666   0.781   2.123  1.00  0.00     0.003 C 
HETATM   29  C30 UNL     1      -4.398  -1.229   1.514  1.00  0.00     0.003 C 
HETATM   30  O4  UNL     1      -6.859   0.852  -0.404  1.00  0.00    -0.224 OA
ENDROOT
BRANCH  22  31
HETATM   31  C24 UNL     1       4.746  -2.938   0.850  1.00  0.00     0.182 C 
HETATM   32  O2  UNL     1       6.068  -3.289   1.184  1.00  0.00    -0.221 OA
ENDBRANCH  22  31
BRANCH  16  33
HETATM   33  C25 UNL     1       3.635   1.285  -1.109  1.00  0.00     0.185 C 
HETATM   34  O3  UNL     1       4.559   2.340  -0.969  1.00  0.00    -0.221 OA
ENDBRANCH  16  33
TORSDOF 2
