REMARK  13 active torsions:
REMARK  status: ('A' for Active; 'I' for Inactive)
REMARK    1  A    between atoms: C1_1  and  C2_2 
REMARK    2  A    between atoms: C2_2  and  C3_3 
REMARK    3  A    between atoms: C3_3  and  C4_4 
REMARK    4  A    between atoms: C4_4  and  C5_5 
REMARK    5  A    between atoms: C5_5  and  C6_6 
REMARK    6  A    between atoms: C6_6  and  C7_7 
REMARK    7  A    between atoms: C7_7  and  C8_8 
REMARK    8  A    between atoms: C8_8  and  C9_9 
REMARK    9  A    between atoms: C10_10  and  C11_11 
REMARK   10  A    between atoms: C11_11  and  C12_12 
REMARK   11  A    between atoms: C13_13  and  C14_14 
REMARK   12  A    between atoms: C14_14  and  C15_15 
REMARK   13  A    between atoms: C16_16  and  C17_17 
ROOT
HETATM    1  C8  UNL     1      -1.920   0.746   0.719  1.00  0.00     0.026 C 
ENDROOT
BRANCH   1   2
HETATM    2  C7  UNL     1      -1.338   2.102   0.322  1.00  0.00     0.005 C 
BRANCH   2   3
HETATM    3  C6  UNL     1       0.191   2.109   0.320  1.00  0.00     0.000 C 
BRANCH   3   4
HETATM    4  C5  UNL     1       0.775   3.465  -0.078  1.00  0.00     0.000 C 
BRANCH   4   5
HETATM    5  C4  UNL     1       2.303   3.473  -0.080  1.00  0.00     0.001 C 
BRANCH   5   6
HETATM    6  C3  UNL     1       2.887   4.828  -0.479  1.00  0.00     0.011 C 
BRANCH   6   7
HETATM    7  C2  UNL     1       4.416   4.836  -0.477  1.00  0.00     0.098 C 
BRANCH   7   8
HETATM    8  C1  UNL     1       4.982   6.170  -0.883  1.00  0.00     0.185 C 
HETATM    9  O1  UNL     1       4.260   7.113  -1.106  1.00  0.00    -0.647 OA
HETATM   10  O2  UNL     1       6.309   6.217  -0.975  1.00  0.00    -0.647 OA
ENDBRANCH   7   8
ENDBRANCH   6   7
ENDBRANCH   5   6
ENDBRANCH   4   5
ENDBRANCH   3   4
ENDBRANCH   2   3
ENDBRANCH   1   2
BRANCH   1  11
HETATM   11  C9  UNL     1      -3.426   0.746   0.719  1.00  0.00    -0.030 C 
HETATM   12  C10 UNL     1      -4.067  -0.436   0.719  1.00  0.00    -0.026 C 
BRANCH  12  13
HETATM   13  C11 UNL     1      -3.248  -1.697   0.719  1.00  0.00     0.051 C 
BRANCH  13  14
HETATM   14  C12 UNL     1      -4.117  -2.891   1.006  1.00  0.00    -0.026 C 
HETATM   15  C13 UNL     1      -3.600  -4.117   0.836  1.00  0.00    -0.026 C 
BRANCH  15  16
HETATM   16  C14 UNL     1      -2.174  -4.236   0.367  1.00  0.00     0.051 C 
BRANCH  16  17
HETATM   17  C15 UNL     1      -1.701  -5.662   0.473  1.00  0.00    -0.026 C 
HETATM   18  C16 UNL     1      -0.547  -6.000  -0.127  1.00  0.00    -0.030 C 
BRANCH  18  19
HETATM   19  C17 UNL     1       0.213  -4.938  -0.873  1.00  0.00     0.026 C 
HETATM   20  C18 UNL     1       1.658  -5.348  -1.162  1.00  0.00     0.005 C 
ENDBRANCH  18  19
ENDBRANCH  16  17
ENDBRANCH  15  16
ENDBRANCH  13  14
ENDBRANCH  12  13
ENDBRANCH   1  11
TORSDOF 13
