REMARK  5 active torsions:
REMARK  status: ('A' for Active; 'I' for Inactive)
REMARK    1  A    between atoms: C5_5  and  C8_8 
REMARK    2  A    between atoms: C8_8  and  C9_9 
REMARK    3  A    between atoms: C9_9  and  C10_10 
REMARK    4  A    between atoms: C12_12  and  O2_18 
REMARK    5  A    between atoms: C15_15  and  O1_16 
ROOT
HETATM    1  C8  UNL     1      -0.670  -0.047  -0.699  1.00  0.00     0.031 C 
ENDROOT
BRANCH   1   2
HETATM    2  C5  UNL     1      -2.160  -0.039  -0.707  1.00  0.00    -0.026 A 
HETATM    3  C4  UNL     1      -2.871  -1.256  -0.668  1.00  0.00    -0.001 A 
HETATM    4  C3  UNL     1      -4.279  -1.250  -0.674  1.00  0.00     0.129 A 
HETATM    5  C18 UNL     1      -2.140  -2.553  -0.617  1.00  0.00     0.033 C 
HETATM    6  C2  UNL     1      -4.971  -0.027  -0.720  1.00  0.00     0.054 A 
HETATM    7  O3  UNL     1      -4.955  -2.381  -0.636  1.00  0.00    -0.190 OA
HETATM    8  C1  UNL     1      -4.267   1.190  -0.761  1.00  0.00     0.129 A 
HETATM    9  C6  UNL     1      -2.859   1.184  -0.754  1.00  0.00    -0.001 A 
HETATM   10  O4  UNL     1      -4.932   2.328  -0.804  1.00  0.00    -0.190 OA
HETATM   11  C7  UNL     1      -2.115   2.473  -0.797  1.00  0.00     0.033 C 
ENDBRANCH   1   2
BRANCH   1  12
HETATM   12  C9  UNL     1      -0.113   0.170   0.707  1.00  0.00     0.033 C 
BRANCH  12  13
HETATM   13  C10 UNL     1       1.373   0.213   0.707  1.00  0.00     0.002 A 
HETATM   14  C11 UNL     1       2.033   1.455   0.707  1.00  0.00     0.022 A 
HETATM   15  C12 UNL     1       3.438   1.510   0.707  1.00  0.00     0.094 A 
HETATM   16  C13 UNL     1       4.182   0.316   0.707  1.00  0.00     0.026 A 
HETATM   17  C14 UNL     1       3.524  -0.926   0.707  1.00  0.00     0.026 A 
HETATM   18  C15 UNL     1       2.119  -0.982   0.707  1.00  0.00     0.090 A 
BRANCH  15  19
HETATM   19  O2  UNL     1       4.055   2.674   0.707  1.00  0.00    -0.328 OA
HETATM   20  C17 UNL     1       5.475   2.676   0.774  1.00  0.00     0.181 C 
ENDBRANCH  15  19
BRANCH  18  21
HETATM   21  O1  UNL     1       1.512  -2.152   0.707  1.00  0.00    -0.328 OA
HETATM   22  C16 UNL     1       2.317  -3.322   0.707  1.00  0.00     0.181 C 
ENDBRANCH  18  21
ENDBRANCH  12  13
ENDBRANCH   1  12
TORSDOF 5
