REMARK  0 active torsions:
REMARK  status: ('A' for Active; 'I' for Inactive)
ROOT
HETATM    1  C1  UNL     1       1.463  -1.528  -0.002  1.00  0.00     0.000 C 
HETATM    2  C2  UNL     1       2.172  -0.201   0.328  1.00  0.00     0.002 C 
HETATM    3  C3  UNL     1       1.400   1.152   0.439  1.00  0.00     0.028 C 
HETATM    4  C4  UNL     1      -0.088   1.195   0.906  1.00  0.00     0.127 C 
HETATM    5  C5  UNL     1      -0.678  -0.160   1.351  1.00  0.00     0.030 C 
HETATM    6  C6  UNL     1      -1.086  -1.070   0.176  1.00  0.00     0.002 C 
HETATM    7  C7  UNL     1       0.111  -1.463  -0.727  1.00  0.00     0.000 C 
HETATM    8  C8  UNL     1      -2.164  -0.334  -0.649  1.00  0.00     0.000 C 
HETATM    9  C9  UNL     1      -1.701   1.043  -1.151  1.00  0.00     0.003 C 
HETATM   10  C10 UNL     1      -1.094   1.916  -0.035  1.00  0.00     0.030 C 
HETATM   11  C11 UNL     1      -1.699  -2.350   0.762  1.00  0.00     0.000 C 
HETATM   12  O1  UNL     1      -0.074   1.978   2.094  1.00  0.00    -0.226 OA
HETATM   13  C12 UNL     1       1.748   1.408  -1.047  1.00  0.00     0.002 C 
HETATM   14  C13 UNL     1       2.924   0.426  -0.871  1.00  0.00     0.000 C 
ENDROOT
TORSDOF 0
