REMARK  6 active torsions:
REMARK  status: ('A' for Active; 'I' for Inactive)
REMARK    1  A    between atoms: C4_4  and  C9_9 
REMARK    2  A    between atoms: C9_9  and  C10_10 
REMARK    3  A    between atoms: C10_10  and  C11_11 
REMARK    4  A    between atoms: C11_11  and  O1_12 
REMARK    5  A    between atoms: C11_11  and  C17_22 
REMARK    6  A    between atoms: O1_12  and  C12_13 
ROOT
HETATM    1  C11 UNL     1       2.088  -0.297   0.496  1.00  0.00     0.151 C 
ENDROOT
BRANCH   1   2
HETATM    2  C10 UNL     1       0.865   0.537   0.883  1.00  0.00     0.032 C 
BRANCH   2   3
HETATM    3  C9  UNL     1       0.059   0.998  -0.332  1.00  0.00     0.003 C 
BRANCH   3   4
HETATM    4  C4  UNL     1      -1.148   1.863   0.053  1.00  0.00     0.000 C 
HETATM    5  C3  UNL     1      -0.850   3.363  -0.170  1.00  0.00     0.003 C 
HETATM    6  C2  UNL     1      -2.059   4.240   0.197  1.00  0.00     0.033 C 
HETATM    7  C18 UNL     1       0.393   3.815   0.607  1.00  0.00     0.000 C 
HETATM    8  C1  UNL     1      -3.326   3.787  -0.543  1.00  0.00     0.152 C 
HETATM    9  C6  UNL     1      -3.623   2.301  -0.283  1.00  0.00     0.033 C 
HETATM   10  O7  UNL     1      -4.424   4.566  -0.105  1.00  0.00    -0.224 OA
HETATM   11  C5  UNL     1      -2.436   1.398  -0.674  1.00  0.00     0.003 C 
HETATM   12  C7  UNL     1      -2.236   1.445  -2.195  1.00  0.00     0.000 C 
HETATM   13  C8  UNL     1      -2.762  -0.047  -0.279  1.00  0.00     0.000 C 
ENDBRANCH   3   4
ENDBRANCH   2   3
ENDBRANCH   1   2
BRANCH   1  14
HETATM   14  O1  UNL     1       1.902  -1.605   0.986  1.00  0.00    -0.329 OA
BRANCH  14  15
HETATM   15  C12 UNL     1       0.893  -2.322   0.293  1.00  0.00     0.270 C 
HETATM   16  C13 UNL     1       0.563  -3.672   0.986  1.00  0.00     0.241 C 
HETATM   17  O2  UNL     1       0.225  -3.457   2.350  1.00  0.00    -0.215 OA
HETATM   18  C14 UNL     1       1.723  -4.684   0.859  1.00  0.00     0.220 C 
HETATM   19  O3  UNL     1       1.316  -5.953   1.346  1.00  0.00    -0.218 OA
HETATM   20  C15 UNL     1       2.131  -4.799  -0.625  1.00  0.00     0.215 C 
HETATM   21  O4  UNL     1       3.305  -5.580  -0.754  1.00  0.00    -0.218 OA
HETATM   22  C16 UNL     1       2.399  -3.412  -1.244  1.00  0.00     0.181 C 
HETATM   23  O5  UNL     1       1.270  -2.563  -1.061  1.00  0.00    -0.326 OA
ENDBRANCH  14  15
ENDBRANCH   1  14
BRANCH   1  24
HETATM   24  C17 UNL     1       3.387   0.254   1.086  1.00  0.00     0.212 C 
HETATM   25  O6  UNL     1       4.467  -0.412   0.473  1.00  0.00    -0.218 OA
ENDBRANCH   1  24
TORSDOF 6
