REMARK  5 active torsions:
REMARK  status: ('A' for Active; 'I' for Inactive)
REMARK    1  A    between atoms: C5_5  and  C9_10 
REMARK    2  A    between atoms: C10_11  and  C11_12 
REMARK    3  A    between atoms: C11_12  and  O2_14 
REMARK    4  A    between atoms: O2_14  and  C13_15 
REMARK    5  A    between atoms: C17_22  and  C18_24 
ROOT
HETATM    1  C11 UNL     1       1.465   0.865  -1.035  1.00  0.00     0.140 C 
HETATM    2  C12 UNL     1       2.576   0.994  -2.076  1.00  0.00     0.037 C 
ENDROOT
BRANCH   1   3
HETATM    3  C10 UNL     1       0.781  -0.475  -1.088  1.00  0.00     0.001 C 
HETATM    4  C9  UNL     1       0.777  -1.234   0.019  1.00  0.00     0.000 C 
BRANCH   4   5
HETATM    5  C5  UNL     1       0.098  -2.596   0.004  1.00  0.00     0.133 A 
HETATM    6  C4  UNL     1       0.934  -3.930  -0.006  1.00  0.00     0.122 A 
HETATM    7  C3  UNL     1       0.217  -5.277   0.154  1.00  0.00     0.063 C 
HETATM    8  O1  UNL     1       0.461  -3.283  -1.150  1.00  0.00    -0.355 OA
HETATM    9  C19 UNL     1       2.455  -3.889  -0.045  1.00  0.00     0.033 C 
HETATM   10  C2  UNL     1      -1.152  -5.092   0.834  1.00  0.00     0.155 C 
HETATM   11  C1  UNL     1      -2.020  -4.041   0.119  1.00  0.00     0.036 C 
HETATM   12  O8  UNL     1      -1.832  -6.332   0.828  1.00  0.00    -0.223 OA
HETATM   13  C6  UNL     1      -1.432  -2.615   0.226  1.00  0.00     0.031 C 
HETATM   14  C7  UNL     1      -1.627  -2.070   1.646  1.00  0.00     0.003 C 
HETATM   15  C8  UNL     1      -2.102  -1.676  -0.785  1.00  0.00     0.003 C 
ENDBRANCH   4   5
ENDBRANCH   1   3
BRANCH   1  16
HETATM   16  O2  UNL     1       0.518   1.885  -1.272  1.00  0.00    -0.327 OA
BRANCH  16  17
HETATM   17  C13 UNL     1      -0.314   2.145  -0.152  1.00  0.00     0.270 C 
HETATM   18  C14 UNL     1      -1.541   3.014  -0.531  1.00  0.00     0.241 C 
HETATM   19  O3  UNL     1      -2.260   2.418  -1.602  1.00  0.00    -0.215 OA
HETATM   20  C15 UNL     1      -1.135   4.463  -0.879  1.00  0.00     0.220 C 
HETATM   21  O4  UNL     1      -2.295   5.266  -1.037  1.00  0.00    -0.218 OA
HETATM   22  C16 UNL     1      -0.258   5.031   0.260  1.00  0.00     0.215 C 
HETATM   23  O5  UNL     1       0.273   6.287  -0.125  1.00  0.00    -0.218 OA
HETATM   24  C17 UNL     1       0.912   4.084   0.611  1.00  0.00     0.184 C 
HETATM   25  O6  UNL     1       0.412   2.779   0.898  1.00  0.00    -0.326 OA
BRANCH  24  26
HETATM   26  C18 UNL     1       1.690   4.537   1.850  1.00  0.00     0.214 C 
HETATM   27  O7  UNL     1       2.822   3.707   1.990  1.00  0.00    -0.218 OA
ENDBRANCH  24  26
ENDBRANCH  16  17
ENDBRANCH   1  16
TORSDOF 5
