REMARK  8 active torsions:
REMARK  status: ('A' for Active; 'I' for Inactive)
REMARK    1  A    between atoms: C2_2  and  C22_32 
REMARK    2  A    between atoms: C2_2  and  C29_40 
REMARK    3  A    between atoms: C6_6  and  C7_8 
REMARK    4  A    between atoms: C8_10  and  C12_17 
REMARK    5  A    between atoms: C13_20  and  C14_22 
REMARK    6  A    between atoms: C15_23  and  C16_24 
REMARK    7  A    between atoms: C22_32  and  C23_33 
REMARK    8  A    between atoms: C33_44  and  C34_46 
ROOT
HETATM    1  C1  UNL     1      -0.223  -0.666  -1.348  1.00  0.00     0.196 C 
HETATM    2  C2  UNL     1      -0.262  -0.635   0.168  1.00  0.00     0.141 C 
HETATM    3  C3  UNL     1       0.863   0.209   0.742  1.00  0.00     0.186 C 
HETATM    4  C4  UNL     1       2.070   0.557  -0.068  1.00  0.00     0.098 C 
HETATM    5  C5  UNL     1       2.184   0.016  -1.455  1.00  0.00     0.214 C 
HETATM    6  C6  UNL     1       1.113  -0.893  -2.024  1.00  0.00     0.259 C 
HETATM    7  O1  UNL     1       1.512  -2.232  -1.824  1.00  0.00    -0.208 OA
HETATM    8  O7  UNL     1       3.135   0.293  -2.152  1.00  0.00    -0.288 OA
HETATM    9  C13 UNL     1       3.061   1.352   0.428  1.00  0.00     0.137 C 
HETATM   10  O8  UNL     1       4.137   1.650  -0.297  1.00  0.00    -0.190 OA
HETATM   11  O10 UNL     1       0.750   0.590   1.887  1.00  0.00    -0.291 OA
HETATM   12  O17 UNL     1      -1.230  -0.510  -2.000  1.00  0.00    -0.292 OA
ENDROOT
BRANCH   2  13
HETATM   13  C22 UNL     1      -0.133  -2.061   0.711  1.00  0.00     0.043 C 
BRANCH  13  14
HETATM   14  C23 UNL     1      -0.160  -2.080   2.197  1.00  0.00    -0.021 A 
HETATM   15  C24 UNL     1      -1.375  -2.283   2.875  1.00  0.00    -0.002 A 
HETATM   16  C25 UNL     1      -1.402  -2.301   4.279  1.00  0.00     0.027 A 
HETATM   17  C26 UNL     1      -0.217  -2.113   5.012  1.00  0.00     0.131 A 
HETATM   18  C27 UNL     1       0.998  -1.910   4.332  1.00  0.00     0.027 A 
HETATM   19  O11 UNL     1      -0.242  -2.131   6.330  1.00  0.00    -0.190 OA
HETATM   20  C28 UNL     1       1.026  -1.893   2.926  1.00  0.00    -0.002 A 
ENDBRANCH  13  14
ENDBRANCH   2  13
BRANCH   2  21
HETATM   21  C29 UNL     1      -1.601  -0.060   0.637  1.00  0.00     0.162 C 
HETATM   22  C30 UNL     1      -1.867   1.361   0.090  1.00  0.00     0.213 C 
HETATM   23  C31 UNL     1      -3.287   1.846   0.453  1.00  0.00     0.217 C 
HETATM   24  O16 UNL     1      -0.902   2.246   0.633  1.00  0.00    -0.218 OA
HETATM   25  C32 UNL     1      -4.322   0.775   0.041  1.00  0.00     0.214 C 
HETATM   26  O15 UNL     1      -3.564   3.068  -0.213  1.00  0.00    -0.218 OA
HETATM   27  C33 UNL     1      -3.937  -0.617   0.588  1.00  0.00     0.181 C 
HETATM   28  O14 UNL     1      -5.600   1.125   0.543  1.00  0.00    -0.218 OA
HETATM   29  O12 UNL     1      -2.617  -0.943   0.172  1.00  0.00    -0.350 OA
BRANCH  27  30
HETATM   30  C34 UNL     1      -4.855  -1.730   0.072  1.00  0.00     0.214 C 
HETATM   31  O13 UNL     1      -4.549  -2.912   0.777  1.00  0.00    -0.218 OA
ENDBRANCH  27  30
ENDBRANCH   2  21
BRANCH   6  32
HETATM   32  C7  UNL     1       0.998  -0.717  -3.547  1.00  0.00     0.190 C 
HETATM   33  O2  UNL     1      -0.326  -1.117  -3.902  1.00  0.00    -0.348 OA
HETATM   34  C8  UNL     1      -0.547  -1.555  -5.248  1.00  0.00     0.181 C 
HETATM   35  C9  UNL     1       0.453  -0.947  -6.260  1.00  0.00     0.214 C 
HETATM   36  C10 UNL     1       1.928  -1.225  -5.863  1.00  0.00     0.218 C 
HETATM   37  O5  UNL     1       0.236   0.451  -6.340  1.00  0.00    -0.218 OA
HETATM   38  C11 UNL     1       2.061  -1.502  -4.346  1.00  0.00     0.215 C 
HETATM   39  O4  UNL     1       2.399  -2.353  -6.576  1.00  0.00    -0.218 OA
HETATM   40  O3  UNL     1       3.356  -1.125  -3.912  1.00  0.00    -0.218 OA
BRANCH  34  41
HETATM   41  C12 UNL     1      -0.492  -3.086  -5.240  1.00  0.00     0.214 C 
HETATM   42  O6  UNL     1      -1.754  -3.572  -4.844  1.00  0.00    -0.218 OA
ENDBRANCH  34  41
ENDBRANCH   6  32
BRANCH   9  43
HETATM   43  C14 UNL     1       3.027   1.936   1.779  1.00  0.00     0.028 C 
HETATM   44  C15 UNL     1       2.387   3.094   2.010  1.00  0.00     0.002 C 
BRANCH  44  45
HETATM   45  C16 UNL     1       2.383   3.647   3.398  1.00  0.00     0.000 A 
HETATM   46  C17 UNL     1       2.492   2.779   4.500  1.00  0.00     0.002 A 
HETATM   47  C18 UNL     1       2.486   3.301   5.807  1.00  0.00     0.027 A 
HETATM   48  C19 UNL     1       2.371   4.688   6.016  1.00  0.00     0.131 A 
HETATM   49  C20 UNL     1       2.262   5.551   4.910  1.00  0.00     0.027 A 
HETATM   50  O9  UNL     1       2.365   5.174   7.238  1.00  0.00    -0.190 OA
HETATM   51  C21 UNL     1       2.268   5.031   3.603  1.00  0.00     0.002 A 
ENDBRANCH  44  45
ENDBRANCH   9  43
TORSDOF 8
