REMARK  12 active torsions:
REMARK  status: ('A' for Active; 'I' for Inactive)
REMARK    1  A    between atoms: C9_11  and  C13_17 
REMARK    2  A    between atoms: C10_12  and  O4_15 
REMARK    3  A    between atoms: C17_21  and  C18_23 
REMARK    4  A    between atoms: C18_23  and  C19_24 
REMARK    5  A    between atoms: C19_24  and  O7_26 
REMARK    6  A    between atoms: O7_26  and  C20_27 
REMARK    7  A    between atoms: C27_41  and  C31_47 
REMARK    8  A    between atoms: C28_42  and  O16_45 
REMARK    9  A    between atoms: C35_51  and  C36_53 
REMARK   10  A    between atoms: C36_53  and  C37_54 
REMARK   11  A    between atoms: C37_54  and  O19_56 
REMARK   12  A    between atoms: O19_56  and  C38_57 
ROOT
HETATM    1  C1  UNL     1       1.391  -1.268   3.967  1.00  0.00     0.018 A 
HETATM    2  C2  UNL     1       1.867   0.037   3.633  1.00  0.00     0.062 A 
HETATM    3  C3  UNL     1       1.137   1.266   4.068  1.00  0.00     0.300 C 
HETATM    4  O1  UNL     1      -0.020   1.238   4.738  1.00  0.00    -0.271 OA
HETATM    5  C4  UNL     1      -1.193   1.176   4.088  1.00  0.00     0.133 A 
HETATM    6  C5  UNL     1      -1.766  -0.065   3.676  1.00  0.00     0.060 A 
HETATM    7  C6  UNL     1      -1.115  -1.387   3.959  1.00  0.00     0.179 C 
HETATM    8  C7  UNL     1       0.160  -1.465   4.783  1.00  0.00     0.098 C 
HETATM    9  O2  UNL     1      -1.535  -2.457   3.580  1.00  0.00    -0.291 OA
HETATM   10  C8  UNL     1      -2.984  -0.057   2.977  1.00  0.00     0.005 A 
HETATM   11  C9  UNL     1      -3.641   1.154   2.703  1.00  0.00     0.032 A 
HETATM   12  C10 UNL     1      -3.082   2.375   3.125  1.00  0.00     0.120 A 
HETATM   13  C11 UNL     1      -1.859   2.383   3.818  1.00  0.00     0.176 A 
HETATM   14  O3  UNL     1      -1.326   3.521   4.215  1.00  0.00    -0.186 OA
HETATM   15  O14 UNL     1       1.561   2.377   3.836  1.00  0.00    -0.259 OA
HETATM   16  C26 UNL     1       3.043   0.178   2.877  1.00  0.00     0.005 A 
HETATM   17  C27 UNL     1       3.746  -0.955   2.439  1.00  0.00     0.032 A 
HETATM   18  C28 UNL     1       3.275  -2.242   2.752  1.00  0.00     0.117 A 
HETATM   19  C29 UNL     1       2.100  -2.399   3.512  1.00  0.00     0.149 A 
HETATM   20  O15 UNL     1       1.666  -3.611   3.793  1.00  0.00    -0.188 OA
ENDROOT
BRANCH  11  21
HETATM   21  C13 UNL     1      -4.934   1.139   1.963  1.00  0.00     0.172 C 
HETATM   22  C14 UNL     1      -6.127   1.650   2.813  1.00  0.00     0.216 C 
HETATM   23  C15 UNL     1      -7.416   1.748   1.967  1.00  0.00     0.218 C 
HETATM   24  O13 UNL     1      -6.346   0.766   3.898  1.00  0.00    -0.218 OA
HETATM   25  C16 UNL     1      -7.135   2.535   0.668  1.00  0.00     0.212 C 
HETATM   26  O12 UNL     1      -8.436   2.398   2.709  1.00  0.00    -0.218 OA
HETATM   27  C17 UNL     1      -5.904   1.967  -0.072  1.00  0.00     0.159 C 
HETATM   28  O11 UNL     1      -8.256   2.461  -0.193  1.00  0.00    -0.218 OA
HETATM   29  O5  UNL     1      -4.787   1.955   0.807  1.00  0.00    -0.349 OA
BRANCH  27  30
HETATM   30  C18 UNL     1      -5.500   2.807  -1.289  1.00  0.00     0.128 C 
BRANCH  30  31
HETATM   31  C19 UNL     1      -4.391   2.170  -2.084  1.00  0.00     0.279 C 
HETATM   32  O6  UNL     1      -4.059   1.025  -1.883  1.00  0.00    -0.264 OA
BRANCH  31  33
HETATM   33  O7  UNL     1      -3.826   2.955  -2.998  1.00  0.00    -0.276 OA
BRANCH  33  34
HETATM   34  C20 UNL     1      -3.252   2.402  -4.047  1.00  0.00     0.107 A 
HETATM   35  C21 UNL     1      -3.779   1.226  -4.604  1.00  0.00     0.054 A 
HETATM   36  C22 UNL     1      -3.170   0.635  -5.723  1.00  0.00     0.160 A 
HETATM   37  C23 UNL     1      -2.023   1.223  -6.289  1.00  0.00     0.181 A 
HETATM   38  O10 UNL     1      -3.674  -0.471  -6.238  1.00  0.00    -0.188 OA
HETATM   39  C24 UNL     1      -1.492   2.402  -5.734  1.00  0.00     0.160 A 
HETATM   40  O9  UNL     1      -1.449   0.670  -7.340  1.00  0.00    -0.186 OA
HETATM   41  C25 UNL     1      -2.107   2.988  -4.615  1.00  0.00     0.054 A 
HETATM   42  O8  UNL     1      -0.420   2.959  -6.260  1.00  0.00    -0.188 OA
ENDBRANCH  33  34
ENDBRANCH  31  33
ENDBRANCH  30  31
ENDBRANCH  27  30
ENDBRANCH  11  21
BRANCH  12  43
HETATM   43  O4  UNL     1      -3.699   3.512   2.871  1.00  0.00    -0.326 OA
HETATM   44  C12 UNL     1      -3.766   4.480   3.908  1.00  0.00     0.181 C 
ENDBRANCH  12  43
BRANCH  18  45
HETATM   45  O16 UNL     1       3.932  -3.307   2.336  1.00  0.00    -0.326 OA
HETATM   46  C30 UNL     1       4.627  -4.082   3.303  1.00  0.00     0.181 C 
ENDBRANCH  18  45
BRANCH  17  47
HETATM   47  C31 UNL     1       4.990  -0.783   1.641  1.00  0.00     0.172 C 
HETATM   48  C32 UNL     1       6.277  -1.113   2.443  1.00  0.00     0.216 C 
HETATM   49  C33 UNL     1       7.531  -1.057   1.541  1.00  0.00     0.218 C 
HETATM   50  O25 UNL     1       6.422  -0.180   3.502  1.00  0.00    -0.218 OA
HETATM   51  C34 UNL     1       7.301  -1.906   0.271  1.00  0.00     0.212 C 
HETATM   52  O24 UNL     1       8.658  -1.549   2.248  1.00  0.00    -0.218 OA
HETATM   53  C35 UNL     1       5.975  -1.526  -0.422  1.00  0.00     0.159 C 
HETATM   54  O23 UNL     1       8.365  -1.705  -0.643  1.00  0.00    -0.218 OA
HETATM   55  O17 UNL     1       4.906  -1.641   0.508  1.00  0.00    -0.349 OA
BRANCH  53  56
HETATM   56  C36 UNL     1       5.635  -2.440  -1.604  1.00  0.00     0.128 C 
BRANCH  56  57
HETATM   57  C37 UNL     1       4.397  -1.996  -2.338  1.00  0.00     0.279 C 
HETATM   58  O18 UNL     1       4.080  -0.830  -2.373  1.00  0.00    -0.264 OA
BRANCH  57  59
HETATM   59  O19 UNL     1       3.707  -2.969  -2.924  1.00  0.00    -0.276 OA
BRANCH  59  60
HETATM   60  C38 UNL     1       2.908  -2.670  -3.928  1.00  0.00     0.107 A 
HETATM   61  C39 UNL     1       1.684  -3.344  -4.080  1.00  0.00     0.054 A 
HETATM   62  C40 UNL     1       0.828  -3.027  -5.150  1.00  0.00     0.160 A 
HETATM   63  C41 UNL     1       1.199  -2.031  -6.074  1.00  0.00     0.181 A 
HETATM   64  O22 UNL     1      -0.316  -3.666  -5.285  1.00  0.00    -0.188 OA
HETATM   65  C42 UNL     1       2.424  -1.356  -5.922  1.00  0.00     0.160 A 
HETATM   66  O21 UNL     1       0.400  -1.733  -7.078  1.00  0.00    -0.186 OA
HETATM   67  C43 UNL     1       3.273  -1.676  -4.850  1.00  0.00     0.054 A 
HETATM   68  O20 UNL     1       2.777  -0.422  -6.783  1.00  0.00    -0.188 OA
ENDBRANCH  59  60
ENDBRANCH  57  59
ENDBRANCH  56  57
ENDBRANCH  53  56
ENDBRANCH  17  47
TORSDOF 12
