REMARK  4 active torsions:
REMARK  status: ('A' for Active; 'I' for Inactive)
REMARK    1  A    between atoms: C13_14  and  C14_15 
REMARK    2  A    between atoms: C14_15  and  C15_16 
REMARK    3  A    between atoms: C19_22  and  C20_23 
REMARK    4  A    between atoms: C20_23  and  C21_24 
ROOT
HETATM    1  C1  UNL     1       1.893   0.287   1.039  1.00  0.00    -0.014 C 
HETATM    2  C2  UNL     1       2.771   1.279   1.107  1.00  0.00     0.057 C 
HETATM    3  C3  UNL     1       4.225   1.055   1.084  1.00  0.00     0.000 C 
HETATM    4  C4  UNL     1       4.705  -0.203   1.180  1.00  0.00    -0.026 C 
HETATM    5  C5  UNL     1       3.756  -1.379   1.359  1.00  0.00     0.030 C 
HETATM    6  C6  UNL     1       2.342  -1.135   0.779  1.00  0.00     0.029 C 
HETATM    7  C7  UNL     1       2.031   2.522   1.187  1.00  0.00     0.295 C 
HETATM    8  O1  UNL     1       0.717   2.258   1.135  1.00  0.00    -0.299 OA
HETATM    9  C8  UNL     1       0.486   0.830   1.219  1.00  0.00     0.121 C 
HETATM   10  C9  UNL     1      -0.117   0.588   2.635  1.00  0.00     0.051 C 
HETATM   11  C10 UNL     1      -1.461   1.297   2.674  1.00  0.00    -0.022 C 
HETATM   12  C11 UNL     1      -2.283   0.858   1.703  1.00  0.00     0.042 A 
HETATM   13  C12 UNL     1      -1.772  -0.197   0.783  1.00  0.00     0.066 A 
HETATM   14  C13 UNL     1      -0.498   0.361   0.094  1.00  0.00     0.039 C 
HETATM   15  C17 UNL     1      -3.033  -0.330  -0.051  1.00  0.00     0.080 A 
HETATM   16  O2  UNL     1      -4.057   0.484   0.291  1.00  0.00    -0.278 OA
HETATM   17  C18 UNL     1      -3.645   1.213   1.342  1.00  0.00     0.296 A 
HETATM   18  O3  UNL     1      -4.295   2.051   1.922  1.00  0.00    -0.259 OA
HETATM   19  C19 UNL     1      -3.145  -1.203  -1.070  1.00  0.00    -0.005 C 
HETATM   20  C23 UNL     1      -1.385  -1.414   1.656  1.00  0.00     0.011 C 
HETATM   21  C24 UNL     1      -0.436  -0.920   2.787  1.00  0.00     0.008 C 
HETATM   22  O4  UNL     1       2.543   3.613   1.275  1.00  0.00    -0.259 OA
ENDROOT
BRANCH  14  23
HETATM   23  C14 UNL     1      -0.834   1.486  -0.900  1.00  0.00     0.003 C 
BRANCH  23  24
HETATM   24  C15 UNL     1       0.326   1.807  -1.844  1.00  0.00     0.000 C 
HETATM   25  C16 UNL     1      -0.006   2.930  -2.826  1.00  0.00     0.000 C 
ENDBRANCH  23  24
ENDBRANCH  14  23
BRANCH  19  26
HETATM   26  C20 UNL     1      -2.024  -2.127  -1.473  1.00  0.00     0.028 C 
BRANCH  26  27
HETATM   27  C21 UNL     1      -1.504  -1.834  -2.881  1.00  0.00     0.005 C 
HETATM   28  C22 UNL     1      -0.359  -2.762  -3.291  1.00  0.00     0.000 C 
ENDBRANCH  26  27
ENDBRANCH  19  26
TORSDOF 4
