REMARK  9 active torsions:
REMARK  status: ('A' for Active; 'I' for Inactive)
REMARK    1  A    between atoms: C4_4  and  O5_25 
REMARK    2  A    between atoms: C7_7  and  C20_21 
REMARK    3  A    between atoms: O5_25  and  C21_26 
REMARK    4  A    between atoms: C21_26  and  C22_28 
REMARK    5  A    between atoms: C23_29  and  C24_30 
REMARK    6  A    between atoms: C25_31  and  C26_32 
REMARK    7  A    between atoms: C27_33  and  C28_34 
REMARK    8  A    between atoms: C29_35  and  C30_36 
REMARK    9  A    between atoms: C31_37  and  C32_38 
ROOT
HETATM    1  C32 UNL     1      15.190  -2.137  -4.113  1.00  0.00     0.000 C 
HETATM    2  C33 UNL     1      16.285  -2.260  -4.561  1.00  0.00     0.000 C 
HETATM    3  C34 UNL     1      17.557  -2.404  -5.080  1.00  0.00     0.000 C 
HETATM    4  C35 UNL     1      18.653  -2.529  -5.527  1.00  0.00     0.000 C 
ENDROOT
BRANCH   1   5
HETATM    5  C31 UNL     1      13.920  -1.992  -3.594  1.00  0.00     0.000 C 
HETATM    6  C30 UNL     1      12.824  -1.867  -3.145  1.00  0.00     0.000 C 
BRANCH   6   7
HETATM    7  C29 UNL     1      11.555  -1.725  -2.625  1.00  0.00     0.000 C 
HETATM    8  C28 UNL     1      10.459  -1.600  -2.178  1.00  0.00     0.000 C 
BRANCH   8   9
HETATM    9  C27 UNL     1       9.189  -1.455  -1.658  1.00  0.00    -0.000 C 
HETATM   10  C26 UNL     1       8.094  -1.332  -1.211  1.00  0.00    -0.000 C 
BRANCH  10  11
HETATM   11  C25 UNL     1       6.822  -1.188  -0.691  1.00  0.00    -0.000 C 
HETATM   12  C24 UNL     1       5.727  -1.064  -0.242  1.00  0.00    -0.000 C 
BRANCH  12  13
HETATM   13  C23 UNL     1       4.457  -0.920   0.277  1.00  0.00    -0.003 C 
HETATM   14  C22 UNL     1       3.361  -0.795   0.725  1.00  0.00     0.017 C 
BRANCH  14  15
HETATM   15  C21 UNL     1       2.039  -0.647   1.266  1.00  0.00     0.341 C 
HETATM   16  O6  UNL     1       1.736  -1.139   2.326  1.00  0.00    -0.249 OA
BRANCH  15  17
HETATM   17  O5  UNL     1       1.201   0.064   0.514  1.00  0.00    -0.288 OA
BRANCH  17  18
HETATM   18  C4  UNL     1      -0.055   0.271   1.148  1.00  0.00     0.174 C 
HETATM   19  C3  UNL     1      -0.012   1.436   2.090  1.00  0.00    -0.018 C 
HETATM   20  C2  UNL     1      -1.154   2.125   2.043  1.00  0.00    -0.023 C 
HETATM   21  C36 UNL     1       1.170   1.771   2.959  1.00  0.00     0.029 C 
HETATM   22  C1  UNL     1      -2.147   1.510   1.068  1.00  0.00     0.101 C 
HETATM   23  C5  UNL     1      -1.182   0.648   0.143  1.00  0.00     0.196 C 
HETATM   24  C10 UNL     1      -3.067   0.617   1.881  1.00  0.00     0.160 C 
HETATM   25  C15 UNL     1      -2.981   2.672   0.436  1.00  0.00     0.014 C 
HETATM   26  C6  UNL     1      -1.586  -0.668  -0.602  1.00  0.00     0.204 C 
HETATM   27  O4  UNL     1      -0.594   1.516  -0.824  1.00  0.00    -0.219 OA
HETATM   28  C7  UNL     1      -2.166  -1.803   0.240  1.00  0.00     0.017 C 
HETATM   29  O3  UNL     1      -2.449  -0.406  -1.695  1.00  0.00    -0.216 OA
HETATM   30  C8  UNL     1      -3.258  -1.656   1.020  1.00  0.00    -0.023 C 
HETATM   31  C9  UNL     1      -3.945  -0.320   1.102  1.00  0.00     0.079 C 
HETATM   32  C11 UNL     1      -5.377  -0.297   1.607  1.00  0.00     0.011 A 
HETATM   33  C12 UNL     1      -6.094   1.041   1.598  1.00  0.00     0.001 A 
HETATM   34  C17 UNL     1      -6.576  -0.080   0.689  1.00  0.00     0.001 A 
HETATM   35  C13 UNL     1      -5.520   2.373   1.053  1.00  0.00     0.000 C 
HETATM   36  C14 UNL     1      -4.447   2.527  -0.074  1.00  0.00     0.001 C 
HETATM   37  C16 UNL     1      -4.783   3.777  -0.898  1.00  0.00     0.000 C 
HETATM   38  C18 UNL     1      -7.875  -0.775   1.080  1.00  0.00     0.000 C 
HETATM   39  C19 UNL     1      -6.379   0.031  -0.818  1.00  0.00     0.000 C 
HETATM   40  O1  UNL     1      -3.113   0.645   3.090  1.00  0.00    -0.295 OA
BRANCH  28  41
HETATM   41  C20 UNL     1      -1.475  -3.145   0.186  1.00  0.00     0.207 C 
HETATM   42  O2  UNL     1      -0.461  -3.190   1.162  1.00  0.00    -0.216 OA
ENDBRANCH  28  41
ENDBRANCH  17  18
ENDBRANCH  15  17
ENDBRANCH  14  15
ENDBRANCH  12  13
ENDBRANCH  10  11
ENDBRANCH   8   9
ENDBRANCH   6   7
ENDBRANCH   1   5
TORSDOF 9
