REMARK  3 active torsions:
REMARK  status: ('A' for Active; 'I' for Inactive)
REMARK    1  A    between atoms: C7_7  and  C12_13 
REMARK    2  A    between atoms: C12_13  and  C13_14 
REMARK    3  A    between atoms: C13_14  and  C14_15 
ROOT
HETATM    1  C1  UNL     1      -3.241   1.446   1.854  1.00  0.00    -0.026 C 
HETATM    2  C2  UNL     1      -3.901   0.407   1.308  1.00  0.00    -0.009 C 
HETATM    3  C3  UNL     1      -3.275  -0.496   0.319  1.00  0.00    -0.020 C 
HETATM    4  C4  UNL     1      -1.872  -0.171  -0.181  1.00  0.00     0.054 C 
HETATM    5  C5  UNL     1      -1.044   0.507   0.951  1.00  0.00     0.014 C 
HETATM    6  C6  UNL     1      -1.808   1.749   1.473  1.00  0.00     0.027 C 
HETATM    7  C7  UNL     1       0.365   0.919   0.445  1.00  0.00     0.019 C 
HETATM    8  C8  UNL     1       0.286   1.726  -0.833  1.00  0.00    -0.042 C 
HETATM    9  C9  UNL     1      -0.525   1.123  -1.956  1.00  0.00     0.055 C 
HETATM   10  C10 UNL     1      -1.921   0.703  -1.464  1.00  0.00     0.160 C 
HETATM   11  O1  UNL     1      -2.559  -0.001  -2.513  1.00  0.00    -0.223 OA
HETATM   12  C11 UNL     1       0.900   2.918  -0.963  1.00  0.00    -0.009 C 
HETATM   13  C18 UNL     1      -0.873  -0.474   2.125  1.00  0.00     0.001 C 
HETATM   14  C19 UNL     1      -3.920  -1.590  -0.133  1.00  0.00    -0.004 C 
ENDROOT
BRANCH   7  15
HETATM   15  C12 UNL     1       1.278  -0.290   0.202  1.00  0.00     0.009 C 
BRANCH  15  16
HETATM   16  C13 UNL     1       2.656   0.109  -0.328  1.00  0.00     0.032 C 
BRANCH  16  17
HETATM   17  C14 UNL     1       3.607  -1.057  -0.389  1.00  0.00     0.039 A 
HETATM   18  C15 UNL     1       5.047  -0.972  -0.566  1.00  0.00     0.292 A 
HETATM   19  O2  UNL     1       5.581  -2.199  -0.575  1.00  0.00    -0.294 OA
HETATM   20  O3  UNL     1       5.651   0.069  -0.685  1.00  0.00    -0.260 OA
HETATM   21  C16 UNL     1       4.526  -3.162  -0.401  1.00  0.00     0.178 A 
HETATM   22  C17 UNL     1       3.266  -2.341  -0.288  1.00  0.00     0.007 A 
ENDBRANCH  16  17
ENDBRANCH  15  16
ENDBRANCH   7  15
TORSDOF 3
