REMARK  16 active torsions:
REMARK  status: ('A' for Active; 'I' for Inactive)
REMARK    1  A    between atoms: C1_1  and  O14_42 
REMARK    2  A    between atoms: C3_3  and  C23_33 
REMARK    3  A    between atoms: C5_5  and  C7_8 
REMARK    4  A    between atoms: C9_10  and  C20_28 
REMARK    5  A    between atoms: C11_12  and  O8_26 
REMARK    6  A    between atoms: C12_13  and  O2_14 
REMARK    7  A    between atoms: O2_14  and  C13_15 
REMARK    8  A    between atoms: C17_19  and  C18_21 
REMARK    9  A    between atoms: C20_28  and  C21_29 
REMARK   10  A    between atoms: C21_29  and  C22_30 
REMARK   11  A    between atoms: C23_33  and  C24_34 
REMARK   12  A    between atoms: C24_34  and  C25_35 
REMARK   13  A    between atoms: C25_35  and  O12_37 
REMARK   14  A    between atoms: O12_37  and  C26_38 
REMARK   15  A    between atoms: C26_38  and  C27_39 
REMARK   16  A    between atoms: C27_39  and  C28_40 
ROOT
HETATM    1  C7  UNL     1       1.760  -0.295   1.359  1.00  0.00     0.026 A 
HETATM    2  C8  UNL     1       3.109  -0.670   1.219  1.00  0.00    -0.002 A 
HETATM    3  C9  UNL     1       3.613  -1.777   1.922  1.00  0.00    -0.019 A 
HETATM    4  C10 UNL     1       2.766  -2.514   2.768  1.00  0.00     0.022 A 
HETATM    5  C11 UNL     1       1.418  -2.145   2.912  1.00  0.00     0.116 A 
HETATM    6  C12 UNL     1       0.910  -1.035   2.209  1.00  0.00     0.119 A 
ENDROOT
BRANCH   1   7
HETATM    7  C5  UNL     1       1.256   0.855   0.621  1.00  0.00     0.029 A 
HETATM    8  C4  UNL     1       0.943   0.721  -0.744  1.00  0.00    -0.002 A 
HETATM    9  C3  UNL     1       0.455   1.820  -1.469  1.00  0.00    -0.020 A 
HETATM   10  C2  UNL     1       0.279   3.059  -0.830  1.00  0.00     0.022 A 
HETATM   11  C1  UNL     1       0.590   3.201   0.533  1.00  0.00     0.119 A 
HETATM   12  C6  UNL     1       1.078   2.100   1.264  1.00  0.00     0.153 A 
HETATM   13  O1  UNL     1       1.365   2.246   2.543  1.00  0.00    -0.188 OA
BRANCH   9  14
HETATM   14  C23 UNL     1       0.127   1.674  -2.912  1.00  0.00     0.037 C 
BRANCH  14  15
HETATM   15  C24 UNL     1      -1.203   0.951  -3.115  1.00  0.00     0.101 C 
BRANCH  15  16
HETATM   16  C25 UNL     1      -1.559   0.799  -4.570  1.00  0.00     0.272 C 
HETATM   17  O11 UNL     1      -1.242  -0.189  -5.188  1.00  0.00    -0.264 OA
BRANCH  16  18
HETATM   18  O12 UNL     1      -2.231   1.818  -5.098  1.00  0.00    -0.302 OA
BRANCH  18  19
HETATM   19  C26 UNL     1      -2.445   1.660  -6.492  1.00  0.00     0.155 C 
BRANCH  19  20
HETATM   20  C27 UNL     1      -1.141   1.924  -7.244  1.00  0.00     0.068 C 
BRANCH  20  21
HETATM   21  C28 UNL     1      -1.293   1.785  -8.760  1.00  0.00     0.185 C 
HETATM   22  O13 UNL     1      -2.088   2.854  -9.223  1.00  0.00    -0.221 OA
ENDBRANCH  20  21
ENDBRANCH  19  20
ENDBRANCH  18  19
ENDBRANCH  16  18
ENDBRANCH  15  16
ENDBRANCH  14  15
ENDBRANCH   9  14
BRANCH  11  23
HETATM   23  O14 UNL     1       0.420   4.365   1.127  1.00  0.00    -0.326 OA
HETATM   24  C29 UNL     1      -0.154   5.422   0.369  1.00  0.00     0.181 C 
ENDBRANCH  11  23
ENDBRANCH   1   7
BRANCH   6  25
HETATM   25  O2  UNL     1      -0.357  -0.699   2.354  1.00  0.00    -0.302 OA
BRANCH  25  26
HETATM   26  C13 UNL     1      -0.873  -0.586   3.674  1.00  0.00     0.274 C 
HETATM   27  C14 UNL     1      -1.570   0.785   3.848  1.00  0.00     0.241 C 
HETATM   28  C15 UNL     1      -2.943   0.855   3.141  1.00  0.00     0.220 C 
HETATM   29  O7  UNL     1      -1.744   1.043   5.231  1.00  0.00    -0.215 OA
HETATM   30  C16 UNL     1      -3.787  -0.420   3.373  1.00  0.00     0.215 C 
HETATM   31  O6  UNL     1      -2.723   1.004   1.750  1.00  0.00    -0.218 OA
HETATM   32  C17 UNL     1      -2.969  -1.729   3.225  1.00  0.00     0.184 C 
HETATM   33  O5  UNL     1      -4.352  -0.369   4.672  1.00  0.00    -0.218 OA
HETATM   34  O3  UNL     1      -1.756  -1.664   3.977  1.00  0.00    -0.326 OA
BRANCH  32  35
HETATM   35  C18 UNL     1      -2.658  -2.084   1.766  1.00  0.00     0.214 C 
HETATM   36  O4  UNL     1      -1.861  -3.246   1.756  1.00  0.00    -0.218 OA
ENDBRANCH  32  35
ENDBRANCH  25  26
ENDBRANCH   6  25
BRANCH   3  37
HETATM   37  C20 UNL     1       5.039  -2.170   1.773  1.00  0.00     0.038 C 
BRANCH  37  38
HETATM   38  C21 UNL     1       5.180  -3.529   1.086  1.00  0.00     0.102 C 
BRANCH  38  39
HETATM   39  C22 UNL     1       4.576  -3.541  -0.293  1.00  0.00     0.186 C 
HETATM   40  O9  UNL     1       4.516  -2.531  -0.955  1.00  0.00    -0.647 OA
HETATM   41  O10 UNL     1       4.131  -4.725  -0.705  1.00  0.00    -0.647 OA
ENDBRANCH  38  39
ENDBRANCH  37  38
ENDBRANCH   3  37
BRANCH   5  42
HETATM   42  O8  UNL     1       0.629  -2.842   3.709  1.00  0.00    -0.326 OA
HETATM   43  C19 UNL     1       1.207  -3.902   4.453  1.00  0.00     0.181 C 
ENDBRANCH   5  42
TORSDOF 16
