REMARK  6 active torsions:
REMARK  status: ('A' for Active; 'I' for Inactive)
REMARK    1  A    between atoms: C1_1  and  C2_2 
REMARK    2  A    between atoms: C1_1  and  O7_13 
REMARK    3  A    between atoms: C2_2  and  C3_3 
REMARK    4  A    between atoms: C2_2  and  C5_8 
REMARK    5  A    between atoms: C3_3  and  C4_4 
REMARK    6  A    between atoms: C5_8  and  C6_9 
ROOT
HETATM    1  C2  UNL     1       0.703   0.203   0.574  1.00  0.00     0.224 C 
HETATM    2  O3  UNL     1       1.121   1.107   1.570  1.00  0.00    -0.215 OA
ENDROOT
BRANCH   1   3
HETATM    3  C1  UNL     1      -0.799   0.221   0.477  1.00  0.00     0.301 C 
HETATM    4  O6  UNL     1      -1.469   0.779   1.313  1.00  0.00    -0.262 OA
BRANCH   3   5
HETATM    5  O7  UNL     1      -1.305  -0.410  -0.578  1.00  0.00    -0.297 OA
HETATM    6  C7  UNL     1      -2.725  -0.410  -0.578  1.00  0.00     0.185 C 
ENDBRANCH   3   5
ENDBRANCH   1   3
BRANCH   1   7
HETATM    7  C3  UNL     1       1.248  -1.182   0.926  1.00  0.00     0.138 C 
BRANCH   7   8
HETATM    8  C4  UNL     1       0.879  -2.221  -0.098  1.00  0.00     0.188 C 
HETATM    9  O1  UNL     1       1.588  -2.432  -1.055  1.00  0.00    -0.647 OA
HETATM   10  O2  UNL     1      -0.260  -2.867   0.137  1.00  0.00    -0.647 OA
ENDBRANCH   7   8
ENDBRANCH   1   7
BRANCH   1  11
HETATM   11  C5  UNL     1       1.211   0.711  -0.775  1.00  0.00     0.138 C 
BRANCH  11  12
HETATM   12  C6  UNL     1       0.678   2.078  -1.113  1.00  0.00     0.188 C 
HETATM   13  O4  UNL     1      -0.221   2.217  -1.908  1.00  0.00    -0.647 OA
HETATM   14  O5  UNL     1       1.264   3.088  -0.476  1.00  0.00    -0.647 OA
ENDBRANCH  11  12
ENDBRANCH   1  11
TORSDOF 6
