REMARK  11 active torsions:
REMARK  status: ('A' for Active; 'I' for Inactive)
REMARK    1  A    between atoms: C2_2  and  C27_37 
REMARK    2  A    between atoms: C4_4  and  O6_22 
REMARK    3  A    between atoms: C5_5  and  O2_8 
REMARK    4  A    between atoms: O2_8  and  C7_9 
REMARK    5  A    between atoms: C7_9  and  C8_10 
REMARK    6  A    between atoms: C8_10  and  C9_11 
REMARK    7  A    between atoms: C10_12  and  C11_13 
REMARK    8  A    between atoms: O6_22  and  C17_23 
REMARK    9  A    between atoms: C17_23  and  C18_24 
REMARK   10  A    between atoms: C18_24  and  C19_25 
REMARK   11  A    between atoms: C20_26  and  C21_27 
ROOT
HETATM    1  C1  UNL     1       2.633   1.535  -0.041  1.00  0.00     0.077 C 
HETATM    2  C2  UNL     1       3.059   0.049   0.072  1.00  0.00     0.209 C 
HETATM    3  C3  UNL     1       1.951  -0.881  -0.471  1.00  0.00     0.073 C 
HETATM    4  C4  UNL     1       0.590  -0.619   0.205  1.00  0.00     0.148 C 
HETATM    5  C5  UNL     1       0.170   0.865   0.062  1.00  0.00     0.173 C 
HETATM    6  C6  UNL     1       1.258   1.834   0.592  1.00  0.00     0.185 C 
HETATM    7  O1  UNL     1       1.371   1.758   2.004  1.00  0.00    -0.221 OA
HETATM    8  O10 UNL     1       4.211  -0.135  -0.729  1.00  0.00    -0.215 OA
ENDROOT
BRANCH   4   9
HETATM    9  O6  UNL     1      -0.373  -1.461  -0.404  1.00  0.00    -0.346 OA
BRANCH   9  10
HETATM   10  C17 UNL     1      -0.119  -2.832  -0.201  1.00  0.00     0.211 C 
BRANCH  10  11
HETATM   11  C18 UNL     1      -1.379  -3.617  -0.449  1.00  0.00     0.203 C 
HETATM   12  O9  UNL     1      -2.461  -3.076  -0.451  1.00  0.00    -0.289 OA
BRANCH  11  13
HETATM   13  C19 UNL     1      -1.272  -5.061  -0.693  1.00  0.00     0.040 C 
HETATM   14  C20 UNL     1      -0.133  -5.719  -0.420  1.00  0.00     0.003 C 
BRANCH  14  15
HETATM   15  C21 UNL     1      -0.072  -7.188  -0.684  1.00  0.00     0.002 A 
HETATM   16  C22 UNL     1      -1.236  -7.969  -0.596  1.00  0.00     0.002 A 
HETATM   17  C23 UNL     1      -1.176  -9.350  -0.846  1.00  0.00     0.029 A 
HETATM   18  C24 UNL     1       0.049  -9.955  -1.184  1.00  0.00     0.156 A 
HETATM   19  C25 UNL     1       1.215  -9.174  -1.272  1.00  0.00     0.156 A 
HETATM   20  O8  UNL     1       0.098 -11.252  -1.416  1.00  0.00    -0.188 OA
HETATM   21  C26 UNL     1       1.152  -7.791  -1.022  1.00  0.00     0.029 A 
HETATM   22  O7  UNL     1       2.367  -9.733  -1.586  1.00  0.00    -0.188 OA
ENDBRANCH  14  15
ENDBRANCH  11  13
ENDBRANCH  10  11
ENDBRANCH   9  10
ENDBRANCH   4   9
BRANCH   5  23
HETATM   23  O2  UNL     1      -1.066   1.106   0.719  1.00  0.00    -0.343 OA
BRANCH  23  24
HETATM   24  C7  UNL     1      -1.596   2.383   0.451  1.00  0.00     0.211 C 
BRANCH  24  25
HETATM   25  C8  UNL     1      -1.453   3.252   1.672  1.00  0.00     0.203 C 
HETATM   26  O5  UNL     1      -1.318   2.764   2.770  1.00  0.00    -0.289 OA
BRANCH  25  27
HETATM   27  C9  UNL     1      -1.480   4.709   1.506  1.00  0.00     0.040 C 
HETATM   28  C10 UNL     1      -1.930   5.260   0.365  1.00  0.00     0.003 C 
BRANCH  28  29
HETATM   29  C11 UNL     1      -1.938   6.748   0.242  1.00  0.00     0.002 A 
HETATM   30  C12 UNL     1      -0.984   7.518   0.932  1.00  0.00     0.002 A 
HETATM   31  C13 UNL     1      -0.994   8.918   0.814  1.00  0.00     0.029 A 
HETATM   32  C14 UNL     1      -1.955   9.555   0.010  1.00  0.00     0.156 A 
HETATM   33  C15 UNL     1      -2.910   8.785  -0.682  1.00  0.00     0.156 A 
HETATM   34  O4  UNL     1      -1.959  10.867  -0.096  1.00  0.00    -0.188 OA
HETATM   35  C16 UNL     1      -2.898   7.383  -0.563  1.00  0.00     0.029 A 
HETATM   36  O3  UNL     1      -3.815   9.373  -1.438  1.00  0.00    -0.188 OA
ENDBRANCH  28  29
ENDBRANCH  25  27
ENDBRANCH  24  25
ENDBRANCH  23  24
ENDBRANCH   5  23
BRANCH   2  37
HETATM   37  C27 UNL     1       3.449  -0.328   1.480  1.00  0.00     0.214 C 
HETATM   38  O11 UNL     1       3.100  -1.381   1.963  1.00  0.00    -0.646 OA
HETATM   39  O12 UNL     1       4.190   0.570   2.123  1.00  0.00    -0.646 OA
ENDBRANCH   2  37
TORSDOF 11
