REMARK  1 active torsions:
REMARK  status: ('A' for Active; 'I' for Inactive)
REMARK    1  A    between atoms: C21_21  and  C24_24 
ROOT
HETATM    1  C1  UNL     1       5.484   1.012  -1.141  1.00  0.00     0.059 C 
HETATM    2  C2  UNL     1       6.045  -0.016  -0.137  1.00  0.00     0.219 C 
HETATM    3  C3  UNL     1       5.228   0.033   1.158  1.00  0.00     0.057 C 
HETATM    4  C4  UNL     1       3.945  -0.670   0.646  1.00  0.00     0.032 C 
HETATM    5  C5  UNL     1       3.164   0.342  -0.250  1.00  0.00     0.003 C 
HETATM    6  C6  UNL     1       4.014   0.723  -1.486  1.00  0.00     0.005 C 
HETATM    7  C7  UNL     1       1.713  -0.107  -0.609  1.00  0.00     0.000 C 
HETATM    8  C8  UNL     1       0.953  -0.449   0.705  1.00  0.00     0.000 C 
HETATM    9  C9  UNL     1       1.691  -1.586   1.441  1.00  0.00     0.000 C 
HETATM   10  C10 UNL     1       3.105  -1.154   1.842  1.00  0.00     0.003 C 
HETATM   11  C11 UNL     1      -0.582  -0.689   0.531  1.00  0.00     0.000 C 
HETATM   12  C12 UNL     1      -1.235   0.537  -0.190  1.00  0.00     0.000 C 
HETATM   13  C13 UNL     1      -0.518   0.768  -1.537  1.00  0.00     0.000 C 
HETATM   14  C14 UNL     1       0.984   1.029  -1.357  1.00  0.00     0.000 C 
HETATM   15  C15 UNL     1      -2.760   0.271  -0.381  1.00  0.00     0.001 C 
HETATM   16  C16 UNL     1      -3.516  -0.018   0.963  1.00  0.00     0.000 C 
HETATM   17  C17 UNL     1      -2.555  -0.139   2.170  1.00  0.00     0.000 C 
HETATM   18  C18 UNL     1      -1.270  -0.939   1.908  1.00  0.00     0.000 C 
HETATM   19  C19 UNL     1      -4.510   1.123   1.279  1.00  0.00     0.001 C 
HETATM   20  C20 UNL     1      -5.557   1.377   0.182  1.00  0.00     0.010 C 
HETATM   21  C21 UNL     1      -5.000   1.213  -1.252  1.00  0.00     0.078 C 
HETATM   22  C22 UNL     1      -3.465   1.350  -1.248  1.00  0.00     0.010 C 
HETATM   23  C23 UNL     1      -5.405  -0.150  -1.836  1.00  0.00     0.011 C 
HETATM   24  C25 UNL     1      -4.297  -1.336   0.846  1.00  0.00     0.000 C 
HETATM   25  C26 UNL     1      -1.051   1.832   0.625  1.00  0.00     0.000 C 
HETATM   26  C27 UNL     1      -0.791  -1.959  -0.316  1.00  0.00     0.000 C 
HETATM   27  C28 UNL     1       1.746  -1.326  -1.547  1.00  0.00     0.000 C 
HETATM   28  C29 UNL     1       4.594  -1.826  -0.150  1.00  0.00     0.145 C 
HETATM   29  O3  UNL     1       5.836  -1.328  -0.609  1.00  0.00    -0.332 OA
HETATM   30  C30 UNL     1       5.910  -0.709   2.316  1.00  0.00     0.005 C 
HETATM   31  O4  UNL     1       7.416   0.258   0.086  1.00  0.00    -0.196 OA
ENDROOT
BRANCH  21  32
HETATM   32  C24 UNL     1      -5.598   2.264  -2.158  1.00  0.00     0.184 C 
HETATM   33  O1  UNL     1      -4.895   3.051  -2.746  1.00  0.00    -0.647 OA
HETATM   34  O2  UNL     1      -6.926   2.246  -2.246  1.00  0.00    -0.647 OA
ENDBRANCH  21  32
TORSDOF 1
