REMARK  1 active torsions:
REMARK  status: ('A' for Active; 'I' for Inactive)
REMARK    1  A    between atoms: C1_1  and  O3_26 
ROOT
HETATM    1  C1  UNL     1       2.460   0.316   2.436  1.00  0.00     0.094 C 
HETATM    2  C2  UNL     1       2.484   1.728   2.382  1.00  0.00     0.026 C 
HETATM    3  C3  UNL     1       1.891   2.393   1.290  1.00  0.00     0.019 C 
HETATM    4  C4  UNL     1       1.313   1.597   0.276  1.00  0.00     0.058 C 
HETATM    5  C5  UNL     1       1.412   0.181   0.170  1.00  0.00    -0.001 C 
HETATM    6  C6  UNL     1       1.926  -0.433   1.356  1.00  0.00     0.021 C 
HETATM    7  C7  UNL     1       1.012  -0.371  -1.250  1.00  0.00     0.071 C 
HETATM    8  C8  UNL     1       0.075   0.851  -1.639  1.00  0.00     0.096 C 
HETATM    9  N1  UNL     1       0.404   1.989  -0.798  1.00  0.00    -0.301 N 
HETATM   10  C9  UNL     1      -0.396   3.164  -0.663  1.00  0.00     0.240 C 
HETATM   11  C10 UNL     1      -1.817   2.934  -1.206  1.00  0.00     0.118 C 
HETATM   12  C11 UNL     1      -2.282   1.608  -0.519  1.00  0.00     0.133 C 
HETATM   13  C12 UNL     1      -1.321   0.503  -1.003  1.00  0.00     0.053 C 
HETATM   14  C13 UNL     1      -2.005  -0.726  -1.626  1.00  0.00     0.026 C 
HETATM   15  C14 UNL     1      -1.187  -1.311  -2.709  1.00  0.00     0.038 C 
HETATM   16  C15 UNL     1       0.126  -1.509  -1.981  1.00  0.00     0.225 C 
HETATM   17  N2  UNL     1       0.082  -2.690  -1.201  1.00  0.00     0.139 N 
HETATM   18  C16 UNL     1       1.531  -2.720  -0.915  1.00  0.00     0.251 C 
HETATM   19  C17 UNL     1       2.187  -1.386  -1.479  1.00  0.00     0.043 C 
HETATM   20  C18 UNL     1      -1.041  -2.679  -0.180  1.00  0.00     0.273 C 
HETATM   21  C19 UNL     1      -2.135  -1.602  -0.421  1.00  0.00    -0.009 C 
HETATM   22  C20 UNL     1      -3.143  -1.244   0.412  1.00  0.00     0.020 C 
HETATM   23  C21 UNL     1      -4.015   0.039   0.255  1.00  0.00     0.116 C 
HETATM   24  O1  UNL     1      -3.638   1.153  -0.616  1.00  0.00    -0.331 OA
HETATM   25  O2  UNL     1      -0.038   4.172  -0.097  1.00  0.00    -0.272 OA
ENDROOT
BRANCH   1  26
HETATM   26  O3  UNL     1       2.959  -0.318   3.506  1.00  0.00    -0.328 OA
HETATM   27  C22 UNL     1       3.492   0.471   4.560  1.00  0.00     0.181 C 
ENDBRANCH   1  26
TORSDOF 1
