REMARK  0 active torsions:
REMARK  status: ('A' for Active; 'I' for Inactive)
ROOT
HETATM    1  C1  UNL     1       5.188  -0.820   1.076  1.00  0.00     0.012 C 
HETATM    2  C2  UNL     1       6.699  -0.736   0.844  1.00  0.00     0.070 C 
HETATM    3  C3  UNL     1       6.977  -0.521  -0.619  1.00  0.00     0.172 C 
HETATM    4  C4  UNL     1       6.113   0.430  -1.332  1.00  0.00     0.029 C 
HETATM    5  C5  UNL     1       4.945   0.877  -0.822  1.00  0.00    -0.042 C 
HETATM    6  C6  UNL     1       4.389   0.395   0.518  1.00  0.00     0.016 C 
HETATM    7  C7  UNL     1       2.902  -0.027   0.334  1.00  0.00     0.006 C 
HETATM    8  C8  UNL     1       2.043   1.012  -0.432  1.00  0.00     0.001 C 
HETATM    9  C9  UNL     1       2.684   1.410  -1.772  1.00  0.00     0.004 C 
HETATM   10  C10 UNL     1       4.123   1.895  -1.586  1.00  0.00     0.022 C 
HETATM   11  C11 UNL     1       0.686   0.338  -0.699  1.00  0.00     0.007 C 
HETATM   12  C12 UNL     1      -0.057  -0.066   0.592  1.00  0.00     0.057 C 
HETATM   13  C13 UNL     1       0.826  -1.045   1.397  1.00  0.00     0.154 C 
HETATM   14  C14 UNL     1       2.211  -0.426   1.658  1.00  0.00     0.033 C 
HETATM   15  O1  UNL     1       0.207  -1.365   2.629  1.00  0.00    -0.223 OA
HETATM   16  C15 UNL     1      -1.363  -0.635  -0.035  1.00  0.00     0.158 C 
HETATM   17  C16 UNL     1      -1.533   0.150  -1.354  1.00  0.00     0.146 C 
HETATM   18  C17 UNL     1      -0.375   1.145  -1.457  1.00  0.00     0.032 C 
HETATM   19  O2  UNL     1      -2.795   0.775  -1.238  1.00  0.00    -0.335 OA
HETATM   20  C18 UNL     1      -3.658  -0.020  -0.447  1.00  0.00     0.189 C 
HETATM   21  C19 UNL     1      -2.715  -0.422   0.701  1.00  0.00     0.082 C 
HETATM   22  C20 UNL     1      -3.209  -1.576   1.580  1.00  0.00     0.008 C 
HETATM   23  C21 UNL     1      -4.869   0.840   0.000  1.00  0.00     0.057 C 
HETATM   24  C22 UNL     1      -6.055  -0.053   0.391  1.00  0.00     0.007 C 
HETATM   25  C23 UNL     1      -6.432  -1.020  -0.754  1.00  0.00     0.030 C 
HETATM   26  C24 UNL     1      -5.315  -1.133  -1.816  1.00  0.00     0.145 C 
HETATM   27  O3  UNL     1      -4.061  -1.199  -1.156  1.00  0.00    -0.335 OA
HETATM   28  C25 UNL     1      -7.758  -0.639  -1.416  1.00  0.00     0.003 C 
HETATM   29  O4  UNL     1      -1.211  -2.012  -0.365  1.00  0.00    -0.223 OA
HETATM   30  C26 UNL     1      -0.324   1.215   1.400  1.00  0.00     0.005 C 
HETATM   31  C27 UNL     1       4.496   1.570   1.500  1.00  0.00     0.004 C 
HETATM   32  O5  UNL     1       7.867  -1.107  -1.191  1.00  0.00    -0.291 OA
ENDROOT
TORSDOF 0
