REMARK  1 active torsions:
REMARK  status: ('A' for Active; 'I' for Inactive)
REMARK    1  A    between atoms: C21_21  and  C24_24 
ROOT
HETATM    1  C1  UNL     1      -4.557  -0.496   2.160  1.00  0.00     0.204 C 
HETATM    2  C2  UNL     1      -5.338   0.576   1.416  1.00  0.00     0.271 C 
HETATM    3  C3  UNL     1      -4.416   1.566   0.684  1.00  0.00     0.064 C 
HETATM    4  C4  UNL     1      -3.867   0.594  -0.393  1.00  0.00     0.033 C 
HETATM    5  C5  UNL     1      -2.801  -0.295   0.348  1.00  0.00     0.010 C 
HETATM    6  C6  UNL     1      -3.506  -1.234   1.359  1.00  0.00     0.070 C 
HETATM    7  C7  UNL     1      -1.801  -0.947  -0.660  1.00  0.00     0.001 C 
HETATM    8  C8  UNL     1      -0.986   0.227  -1.340  1.00  0.00     0.000 C 
HETATM    9  C9  UNL     1      -1.824   1.527  -1.500  1.00  0.00     0.000 C 
HETATM   10  C10 UNL     1      -3.312   1.252  -1.678  1.00  0.00     0.003 C 
HETATM   11  C11 UNL     1       0.512   0.506  -0.887  1.00  0.00     0.000 C 
HETATM   12  C12 UNL     1       1.025  -0.471   0.201  1.00  0.00     0.000 C 
HETATM   13  C13 UNL     1       0.596  -1.891  -0.184  1.00  0.00     0.000 C 
HETATM   14  C14 UNL     1      -0.914  -2.064  -0.018  1.00  0.00     0.000 C 
HETATM   15  C15 UNL     1       2.574  -0.322   0.439  1.00  0.00     0.001 C 
HETATM   16  C16 UNL     1       3.156   1.098   0.186  1.00  0.00     0.000 C 
HETATM   17  C17 UNL     1       2.078   2.141   0.504  1.00  0.00     0.000 C 
HETATM   18  C18 UNL     1       0.787   1.959  -0.348  1.00  0.00     0.000 C 
HETATM   19  C19 UNL     1       4.422   1.209   1.057  1.00  0.00     0.001 C 
HETATM   20  C20 UNL     1       5.471   0.154   0.625  1.00  0.00     0.010 C 
HETATM   21  C21 UNL     1       4.930  -1.301   0.537  1.00  0.00     0.078 C 
HETATM   22  C22 UNL     1       3.537  -1.377  -0.150  1.00  0.00     0.010 C 
HETATM   23  C23 UNL     1       5.924  -2.176  -0.230  1.00  0.00     0.011 C 
HETATM   24  C25 UNL     1       3.625   1.355  -1.258  1.00  0.00     0.000 C 
HETATM   25  C26 UNL     1       0.334  -0.117   1.541  1.00  0.00     0.000 C 
HETATM   26  C27 UNL     1       1.338   0.299  -2.172  1.00  0.00     0.000 C 
HETATM   27  C28 UNL     1      -2.621  -1.684  -1.740  1.00  0.00     0.000 C 
HETATM   28  C29 UNL     1      -5.172  -0.152  -0.771  1.00  0.00     0.145 C 
HETATM   29  O3  UNL     1      -6.023  -0.031   0.348  1.00  0.00    -0.327 OA
HETATM   30  C30 UNL     1      -5.162   2.773   0.100  1.00  0.00     0.006 C 
HETATM   31  O4  UNL     1      -6.236   1.246   2.279  1.00  0.00    -0.188 OA
HETATM   32  O5  UNL     1      -4.744  -0.756   3.328  1.00  0.00    -0.291 OA
ENDROOT
BRANCH  21  33
HETATM   33  C24 UNL     1       4.840  -1.873   1.934  1.00  0.00     0.184 C 
HETATM   34  O1  UNL     1       5.156  -1.217   2.897  1.00  0.00    -0.647 OA
HETATM   35  O2  UNL     1       4.395  -3.125   2.002  1.00  0.00    -0.647 OA
ENDBRANCH  21  33
TORSDOF 1
