REMARK  0 active torsions:
REMARK  status: ('A' for Active; 'I' for Inactive)
ROOT
HETATM    1  C1  UNL     1       0.098   1.508   0.002  1.00  0.00     0.127 A 
HETATM    2  C2  UNL     1      -0.562   0.262   0.002  1.00  0.00    -0.000 A 
HETATM    3  C3  UNL     1       0.188  -0.932   0.002  1.00  0.00    -0.024 A 
HETATM    4  C4  UNL     1       1.592  -0.879   0.002  1.00  0.00    -0.004 A 
HETATM    5  C5  UNL     1       2.250   0.363   0.002  1.00  0.00     0.002 A 
HETATM    6  C6  UNL     1       1.504   1.553   0.002  1.00  0.00     0.027 A 
HETATM    7  C7  UNL     1      -0.492  -2.256   0.002  1.00  0.00     0.031 C 
HETATM    8  C8  UNL     1      -2.051   0.215   0.002  1.00  0.00     0.033 C 
HETATM    9  O1  UNL     1      -0.590   2.631   0.002  1.00  0.00    -0.191 OA
ENDROOT
TORSDOF 0
