REMARK  1 active torsions:
REMARK  status: ('A' for Active; 'I' for Inactive)
REMARK    1  A    between atoms: C3_3  and  C17_19 
ROOT
HETATM    1  C1  UNL     1      -2.082  -2.123  -0.080  1.00  0.00     0.001 C 
HETATM    2  C2  UNL     1      -2.803  -0.805  -0.408  1.00  0.00     0.010 C 
HETATM    3  C3  UNL     1      -2.344   0.379   0.465  1.00  0.00     0.079 C 
HETATM    4  C4  UNL     1      -0.777   0.545   0.480  1.00  0.00     0.013 C 
HETATM    5  C5  UNL     1       0.006  -0.602  -0.223  1.00  0.00     0.004 C 
HETATM    6  C6  UNL     1      -0.588  -1.951   0.246  1.00  0.00     0.000 C 
HETATM    7  C7  UNL     1       1.520  -0.502   0.142  1.00  0.00     0.021 C 
HETATM    8  C8  UNL     1       2.092   0.893  -0.115  1.00  0.00    -0.012 C 
HETATM    9  C9  UNL     1       1.240   2.105   0.207  1.00  0.00     0.171 C 
HETATM   10  C10 UNL     1      -0.269   1.912  -0.025  1.00  0.00     0.038 C 
HETATM   11  O1  UNL     1       1.451   2.445   1.564  1.00  0.00    -0.219 OA
HETATM   12  C11 UNL     1       3.338   1.070  -0.606  1.00  0.00     0.031 C 
HETATM   13  C12 UNL     1       4.268  -0.043  -0.854  1.00  0.00     0.172 C 
HETATM   14  C13 UNL     1       3.867  -1.414  -0.381  1.00  0.00     0.070 C 
HETATM   15  C14 UNL     1       2.358  -1.619  -0.535  1.00  0.00     0.012 C 
HETATM   16  O2  UNL     1       5.320   0.146  -1.420  1.00  0.00    -0.291 OA
HETATM   17  C15 UNL     1      -0.137  -0.494  -1.754  1.00  0.00     0.000 C 
HETATM   18  C16 UNL     1      -3.066   1.641  -0.029  1.00  0.00     0.011 C 
ENDROOT
BRANCH   3  19
HETATM   19  C17 UNL     1      -2.852   0.142   1.869  1.00  0.00     0.184 C 
HETATM   20  O3  UNL     1      -3.559  -0.805   2.123  1.00  0.00    -0.647 OA
HETATM   21  O4  UNL     1      -2.465   1.041   2.771  1.00  0.00    -0.647 OA
ENDBRANCH   3  19
TORSDOF 1
