REMARK  6 active torsions:
REMARK  status: ('A' for Active; 'I' for Inactive)
REMARK    1  A    between atoms: C4_4  and  C14_18 
REMARK    2  A    between atoms: C5_5  and  N1_8 
REMARK       I    between atoms: N1_8  and  C8_9 
REMARK    3  A    between atoms: N1_8  and  C10_13 
REMARK    4  A    between atoms: C8_9  and  C9_11 
REMARK    5  A    between atoms: C10_13  and  C12_15 
REMARK    6  A    between atoms: C12_15  and  O2_16 
ROOT
HETATM    1  N1  UNL     1      -0.740   0.309   0.683  1.00  0.00    -0.298 N 
HETATM    2  C8  UNL     1      -1.441   0.447   1.848  1.00  0.00     0.254 C 
HETATM    3  O1  UNL     1      -0.861   0.496   2.906  1.00  0.00    -0.271 OA
ENDROOT
BRANCH   1   4
HETATM    4  C5  UNL     1       0.633   0.357   0.683  1.00  0.00     0.054 A 
HETATM    5  C4  UNL     1       1.389  -0.838   0.683  1.00  0.00    -0.007 A 
HETATM    6  C3  UNL     1       2.795  -0.779   0.683  1.00  0.00    -0.003 A 
HETATM    7  C2  UNL     1       3.451   0.459   0.683  1.00  0.00    -0.001 A 
HETATM    8  C1  UNL     1       2.705   1.648   0.683  1.00  0.00    -0.003 A 
HETATM    9  C6  UNL     1       1.301   1.605   0.683  1.00  0.00    -0.006 A 
HETATM   10  C7  UNL     1       0.549   2.893   0.683  1.00  0.00     0.033 C 
BRANCH   5  11
HETATM   11  C14 UNL     1       0.734  -2.178   0.683  1.00  0.00     0.028 C 
HETATM   12  C15 UNL     1       1.502  -3.182   1.543  1.00  0.00     0.005 C 
ENDBRANCH   5  11
ENDBRANCH   1   4
BRANCH   1  13
HETATM   13  C10 UNL     1      -1.469   0.102  -0.576  1.00  0.00     0.118 C 
HETATM   14  C11 UNL     1      -2.049  -1.311  -0.651  1.00  0.00     0.027 C 
BRANCH  13  15
HETATM   15  C12 UNL     1      -0.588   0.441  -1.779  1.00  0.00     0.165 C 
BRANCH  15  16
HETATM   16  O2  UNL     1      -1.387   0.385  -2.942  1.00  0.00    -0.350 OA
HETATM   17  C13 UNL     1      -0.674   0.682  -4.119  1.00  0.00     0.174 C 
ENDBRANCH  15  16
ENDBRANCH  13  15
ENDBRANCH   1  13
BRANCH   2  18
HETATM   18  C9  UNL     1      -2.943   0.539   1.781  1.00  0.00     0.183 C 
HETATM   19 CL1  UNL     1      -3.447   2.225   1.482  1.00  0.00    -0.103 Cl
ENDBRANCH   2  18
TORSDOF 6
