REMARK  1 active torsions:
REMARK  status: ('A' for Active; 'I' for Inactive)
REMARK    1  A    between atoms: C9_10  and  C10_11 
ROOT
HETATM    1  C1  UNL     1      -3.293  -1.266  -1.029  1.00  0.00     0.036 C 
HETATM    2  C2  UNL     1      -3.631  -0.029  -0.166  1.00  0.00     0.012 C 
HETATM    3  C3  UNL     1      -2.529   0.234   0.883  1.00  0.00     0.081 C 
HETATM    4  C4  UNL     1      -1.242   0.580   0.115  1.00  0.00     0.047 C 
HETATM    5  C5  UNL     1      -0.885  -0.851  -0.305  1.00  0.00     0.130 C 
HETATM    6  C6  UNL     1      -1.809  -1.328  -1.457  1.00  0.00     0.177 C 
HETATM    7  O1  UNL     1      -1.639  -0.521  -2.609  1.00  0.00    -0.221 OA
HETATM    8  C7  UNL     1       0.615  -0.791  -0.629  1.00  0.00     0.029 C 
HETATM    9  C8  UNL     1       1.172   0.393   0.213  1.00  0.00     0.016 C 
HETATM   10  C9  UNL     1      -0.027   1.016   0.949  1.00  0.00     0.091 C 
HETATM   11  C11 UNL     1       2.289  -0.088   1.170  1.00  0.00     0.005 C 
HETATM   12  C12 UNL     1       3.338  -0.562   0.154  1.00  0.00     0.018 C 
HETATM   13  C13 UNL     1       2.895  -1.908  -0.455  1.00  0.00     0.004 C 
HETATM   14  C14 UNL     1       1.363  -2.117  -0.406  1.00  0.00     0.003 C 
HETATM   15  C15 UNL     1       3.281   0.551  -0.855  1.00  0.00    -0.044 C 
HETATM   16  C16 UNL     1       1.998   1.315  -0.711  1.00  0.00     0.023 C 
HETATM   17  C17 UNL     1       4.240   0.828  -1.756  1.00  0.00    -0.009 C 
HETATM   18  O4  UNL     1      -1.129  -1.650   0.859  1.00  0.00    -0.304 OA
HETATM   19  C18 UNL     1      -2.107  -1.053   1.535  1.00  0.00     0.271 C 
HETATM   20  O5  UNL     1      -2.605  -1.473   2.555  1.00  0.00    -0.264 OA
HETATM   21  C19 UNL     1      -2.912   1.338   1.867  1.00  0.00     0.010 C 
ENDROOT
BRANCH  10  22
HETATM   22  C10 UNL     1       0.037   2.508   1.158  1.00  0.00     0.185 C 
HETATM   23  O2  UNL     1      -0.613   3.262   0.473  1.00  0.00    -0.647 OA
HETATM   24  O3  UNL     1       0.848   2.908   2.133  1.00  0.00    -0.647 OA
ENDBRANCH  10  22
TORSDOF 1
