REMARK  6 active torsions:
REMARK  status: ('A' for Active; 'I' for Inactive)
REMARK    1  A    between atoms: C8_9  and  C10_12 
REMARK    2  A    between atoms: C11_13  and  O4_25 
REMARK    3  A    between atoms: C12_14  and  C16_19 
REMARK    4  A    between atoms: C16_19  and  C17_20 
REMARK    5  A    between atoms: C18_21  and  C19_22 
REMARK    6  A    between atoms: O4_25  and  C22_26 
ROOT
HETATM    1  C10 UNL     1      -0.055   1.574  -0.088  1.00  0.00     0.009 A 
HETATM    2  C11 UNL     1       0.012   0.178  -0.250  1.00  0.00     0.089 A 
HETATM    3  C12 UNL     1      -0.383  -0.404  -1.471  1.00  0.00     0.029 A 
HETATM    4  C13 UNL     1      -0.842   0.408  -2.525  1.00  0.00     0.129 A 
HETATM    5  C14 UNL     1      -0.904   1.801  -2.356  1.00  0.00     0.027 A 
HETATM    6  C15 UNL     1      -0.512   2.385  -1.141  1.00  0.00     0.000 A 
HETATM    7  O3  UNL     1      -1.213  -0.129  -3.672  1.00  0.00    -0.190 OA
ENDROOT
BRANCH   1   8
HETATM    8  C8  UNL     1       0.359   2.203   1.199  1.00  0.00     0.116 C 
HETATM    9  C7  UNL     1       0.691   1.143   2.268  1.00  0.00     0.161 C 
HETATM   10  O1  UNL     1       1.936   0.490   1.980  1.00  0.00    -0.330 OA
HETATM   11  C5  UNL     1       3.018   1.219   1.637  1.00  0.00     0.101 A 
HETATM   12  C4  UNL     1       2.893   2.559   1.172  1.00  0.00     0.083 A 
HETATM   13  C6  UNL     1       4.301   0.631   1.740  1.00  0.00     0.052 A 
HETATM   14  C3  UNL     1       4.055   3.318   0.875  1.00  0.00     0.138 A 
HETATM   15  C9  UNL     1       1.531   3.145   0.992  1.00  0.00     0.183 C 
HETATM   16  C2  UNL     1       5.334   2.727   1.002  1.00  0.00     0.055 A 
HETATM   17  O5  UNL     1       3.959   4.592   0.465  1.00  0.00    -0.190 OA
HETATM   18  C1  UNL     1       5.457   1.383   1.424  1.00  0.00     0.135 A 
HETATM   19  O6  UNL     1       6.670   0.822   1.529  1.00  0.00    -0.190 OA
HETATM   20  O2  UNL     1       1.273   4.291   0.697  1.00  0.00    -0.291 OA
ENDBRANCH   1   8
BRANCH   2  21
HETATM   21  O4  UNL     1       0.443  -0.584   0.738  1.00  0.00    -0.331 OA
BRANCH  21  22
HETATM   22  C22 UNL     1      -0.467  -1.512   1.311  1.00  0.00     0.149 C 
HETATM   23  C23 UNL     1      -1.875  -0.914   1.305  1.00  0.00     0.035 C 
ENDBRANCH  21  22
ENDBRANCH   2  21
BRANCH   3  24
HETATM   24  C16 UNL     1      -0.314  -1.881  -1.647  1.00  0.00     0.052 C 
BRANCH  24  25
HETATM   25  C17 UNL     1      -1.647  -2.541  -1.418  1.00  0.00    -0.044 C 
HETATM   26  C18 UNL     1      -2.756  -1.900  -1.818  1.00  0.00    -0.034 C 
HETATM   27  C21 UNL     1      -1.793  -3.889  -0.762  1.00  0.00     0.026 C 
BRANCH  26  28
HETATM   28  C19 UNL     1      -4.090  -2.561  -1.590  1.00  0.00     0.025 C 
HETATM   29  C20 UNL     1      -4.697  -2.197  -0.234  1.00  0.00     0.005 C 
ENDBRANCH  26  28
ENDBRANCH  24  25
ENDBRANCH   3  24
TORSDOF 6
