REMARK  8 active torsions:
REMARK  status: ('A' for Active; 'I' for Inactive)
REMARK    1  A    between atoms: C4_4  and  O3_10 
REMARK    2  A    between atoms: C5_6  and  C7_8 
REMARK    3  A    between atoms: O3_10  and  O4_11 
REMARK    4  A    between atoms: O4_11  and  C8_12 
REMARK    5  A    between atoms: C8_12  and  C21_27 
REMARK    6  A    between atoms: C11_15  and  C14_19 
REMARK    7  A    between atoms: C14_19  and  C15_20 
REMARK    8  A    between atoms: C21_27  and  C22_28 
ROOT
HETATM    1  C8  UNL     1       0.598   0.215  -1.670  1.00  0.00     0.130 C 
HETATM    2  C9  UNL     1      -0.480  -0.834  -1.309  1.00  0.00     0.035 C 
HETATM    3  C10 UNL     1      -0.588  -1.914  -2.399  1.00  0.00     0.052 C 
HETATM    4  C11 UNL     1      -2.072  -2.309  -2.338  1.00  0.00     0.131 C 
HETATM    5  C12 UNL     1      -2.738  -0.941  -2.211  1.00  0.00     0.031 C 
HETATM    6  C13 UNL     1      -1.904  -0.277  -1.121  1.00  0.00     0.005 C 
HETATM    7  O5  UNL     1      -2.478  -2.939  -3.535  1.00  0.00    -0.226 OA
HETATM    8  C17 UNL     1       0.365  -3.082  -2.225  1.00  0.00    -0.026 C 
HETATM    9  C18 UNL     1       1.629  -2.988  -1.760  1.00  0.00     0.002 C 
HETATM   10  C19 UNL     1       2.324  -1.703  -1.340  1.00  0.00     0.176 C 
HETATM   11  C20 UNL     1       1.924  -0.438  -2.131  1.00  0.00     0.068 C 
HETATM   12  O6  UNL     1       3.717  -1.891  -1.496  1.00  0.00    -0.218 OA
ENDROOT
BRANCH   1  13
HETATM   13  O4  UNL     1       0.856   0.986  -0.514  1.00  0.00    -0.223 OA
BRANCH  13  14
HETATM   14  O3  UNL     1       1.100   0.080   0.582  1.00  0.00    -0.190 OA
BRANCH  14  15
HETATM   15  C4  UNL     1       1.658   0.822   1.648  1.00  0.00     0.303 C 
HETATM   16  C3  UNL     1       2.160  -0.094   2.812  1.00  0.00     0.244 C 
HETATM   17  C2  UNL     1       2.272   0.674   4.164  1.00  0.00     0.220 C 
HETATM   18  O7  UNL     1       1.307  -1.211   3.021  1.00  0.00    -0.215 OA
HETATM   19  C1  UNL     1       2.426   2.182   3.893  1.00  0.00     0.212 C 
HETATM   20  O8  UNL     1       3.375   0.172   4.902  1.00  0.00    -0.218 OA
HETATM   21  C5  UNL     1       1.246   2.750   3.041  1.00  0.00     0.157 C 
HETATM   22  O9  UNL     1       2.559   2.902   5.107  1.00  0.00    -0.218 OA
HETATM   23  O1  UNL     1       0.715   1.752   2.162  1.00  0.00    -0.327 OA
HETATM   24  C6  UNL     1       1.729   3.908   2.162  1.00  0.00     0.035 C 
BRANCH  21  25
HETATM   25  C7  UNL     1       0.043   3.193   3.885  1.00  0.00     0.212 C 
HETATM   26  O2  UNL     1      -0.945   3.697   3.016  1.00  0.00    -0.218 OA
ENDBRANCH  21  25
ENDBRANCH  14  15
ENDBRANCH  13  14
ENDBRANCH   1  13
BRANCH   1  27
HETATM   27  C21 UNL     1       0.086   1.193  -2.738  1.00  0.00     0.031 C 
BRANCH  27  28
HETATM   28  C22 UNL     1      -0.189   2.588  -2.176  1.00  0.00     0.003 C 
HETATM   29  C23 UNL     1      -0.808   3.529  -3.211  1.00  0.00     0.000 C 
ENDBRANCH  27  28
ENDBRANCH   1  27
BRANCH   4  30
HETATM   30  C14 UNL     1      -2.435  -3.225  -1.168  1.00  0.00     0.031 C 
BRANCH  30  31
HETATM   31  C15 UNL     1      -3.900  -3.643  -1.285  1.00  0.00     0.003 C 
HETATM   32  C16 UNL     1      -4.391  -4.420  -0.063  1.00  0.00     0.000 C 
ENDBRANCH  30  31
ENDBRANCH   4  30
TORSDOF 8
