REMARK  0 active torsions:
REMARK  status: ('A' for Active; 'I' for Inactive)
ROOT
HETATM    1  C1  UNL     1       2.648   0.893  -0.729  1.00  0.00     0.174 C 
HETATM    2  C2  UNL     1       2.697  -0.322   0.213  1.00  0.00     0.038 C 
HETATM    3  C3  UNL     1       1.330  -1.012   0.299  1.00  0.00     0.006 C 
HETATM    4  C4  UNL     1       0.256  -0.014   0.807  1.00  0.00     0.017 C 
HETATM    5  C5  UNL     1       0.344   1.367   0.172  1.00  0.00    -0.017 C 
HETATM    6  C6  UNL     1       1.438   1.773  -0.518  1.00  0.00     0.000 C 
HETATM    7  C7  UNL     1      -0.889   2.240   0.381  1.00  0.00     0.170 C 
HETATM    8  C8  UNL     1      -2.137   1.623  -0.271  1.00  0.00     0.037 C 
HETATM    9  C9  UNL     1      -2.311   0.156   0.137  1.00  0.00     0.003 A 
HETATM   10  C10 UNL     1      -1.129  -0.668   0.625  1.00  0.00     0.004 A 
HETATM   11  C11 UNL     1      -1.738  -0.943  -0.742  1.00  0.00     0.000 A 
HETATM   12  C12 UNL     1      -2.563  -2.217  -0.889  1.00  0.00     0.000 C 
HETATM   13  C13 UNL     1      -0.980  -0.547  -2.006  1.00  0.00     0.000 C 
HETATM   14  O1  UNL     1      -0.742   3.566  -0.096  1.00  0.00    -0.219 OA
HETATM   15  C14 UNL     1       0.395   0.188   2.324  1.00  0.00     0.004 C 
HETATM   16  C15 UNL     1       1.404  -2.287   1.148  1.00  0.00     0.000 C 
HETATM   17  O2  UNL     1       2.648   0.443  -2.068  1.00  0.00    -0.219 OA
ENDROOT
TORSDOF 0
