REMARK  4 active torsions:
REMARK  status: ('A' for Active; 'I' for Inactive)
REMARK    1  A    between atoms: C5_5  and  C7_7 
REMARK    2  A    between atoms: C7_7  and  C8_8 
REMARK    3  A    between atoms: C8_8  and  C9_9 
REMARK    4  A    between atoms: C14_14  and  O1_15 
ROOT
HETATM    1  C7  UNL     1      -0.119  -0.338  -0.693  1.00  0.00     0.031 C 
ENDROOT
BRANCH   1   2
HETATM    2  C5  UNL     1      -0.947   0.896  -0.699  1.00  0.00    -0.018 A 
HETATM    3  C4  UNL     1      -0.445   2.082  -0.137  1.00  0.00     0.023 A 
HETATM    4  C3  UNL     1      -1.227   3.252  -0.139  1.00  0.00     0.129 A 
HETATM    5  C2  UNL     1      -2.514   3.232  -0.709  1.00  0.00     0.029 A 
HETATM    6  O2  UNL     1      -0.746   4.359   0.391  1.00  0.00    -0.190 OA
HETATM    7  C1  UNL     1      -3.020   2.045  -1.273  1.00  0.00     0.129 A 
HETATM    8  C16 UNL     1      -3.344   4.469  -0.715  1.00  0.00     0.035 C 
HETATM    9  C6  UNL     1      -2.233   0.879  -1.267  1.00  0.00     0.023 A 
HETATM   10  O3  UNL     1      -4.223   2.018  -1.810  1.00  0.00    -0.190 OA
ENDBRANCH   1   2
BRANCH   1  11
HETATM   11  C8  UNL     1      -0.002  -0.930   0.711  1.00  0.00     0.033 C 
BRANCH  11  12
HETATM   12  C9  UNL     1       0.797  -2.186   0.711  1.00  0.00     0.001 A 
HETATM   13  C10 UNL     1       0.141  -3.428   0.711  1.00  0.00    -0.002 A 
HETATM   14  C11 UNL     1       0.887  -4.619   0.711  1.00  0.00    -0.000 A 
HETATM   15  C12 UNL     1       2.291  -4.568   0.711  1.00  0.00     0.002 A 
HETATM   16  C13 UNL     1       2.947  -3.326   0.711  1.00  0.00     0.024 A 
HETATM   17  C14 UNL     1       2.205  -2.131   0.711  1.00  0.00     0.090 A 
BRANCH  17  18
HETATM   18  O1  UNL     1       2.834  -0.973   0.711  1.00  0.00    -0.328 OA
HETATM   19  C15 UNL     1       4.252  -0.981   0.783  1.00  0.00     0.181 C 
ENDBRANCH  17  18
ENDBRANCH  11  12
ENDBRANCH   1  11
TORSDOF 4
