REMARK  3 active torsions:
REMARK  status: ('A' for Active; 'I' for Inactive)
REMARK    1  A    between atoms: C3_3  and  C19_21 
REMARK    2  A    between atoms: C7_7  and  C12_12 
REMARK    3  A    between atoms: C12_12  and  C13_13 
ROOT
HETATM    1  C1  UNL     1      -3.197   0.027  -0.057  1.00  0.00     0.033 C 
HETATM    2  C2  UNL     1      -3.244  -1.516  -0.217  1.00  0.00     0.154 C 
HETATM    3  C3  UNL     1      -2.184  -2.250   0.641  1.00  0.00     0.059 C 
HETATM    4  C4  UNL     1      -0.734  -1.697   0.408  1.00  0.00     0.005 C 
HETATM    5  C5  UNL     1      -0.650  -0.256  -0.170  1.00  0.00     0.004 C 
HETATM    6  C6  UNL     1      -1.824   0.578   0.379  1.00  0.00     0.003 C 
HETATM    7  C7  UNL     1       0.723   0.332   0.254  1.00  0.00     0.023 C 
HETATM    8  C8  UNL     1       1.857  -0.650   0.012  1.00  0.00    -0.044 C 
HETATM    9  C9  UNL     1       1.574  -1.945  -0.730  1.00  0.00     0.022 C 
HETATM   10  C10 UNL     1       0.238  -2.627  -0.352  1.00  0.00     0.004 C 
HETATM   11  C11 UNL     1       3.100  -0.379   0.457  1.00  0.00    -0.009 C 
HETATM   12  C18 UNL     1      -0.729  -0.248  -1.709  1.00  0.00     0.000 C 
HETATM   13  C20 UNL     1      -2.574  -2.037   2.111  1.00  0.00     0.005 C 
HETATM   14  O4  UNL     1      -3.096  -1.863  -1.582  1.00  0.00    -0.223 OA
ENDROOT
BRANCH   7  15
HETATM   15  C12 UNL     1       1.014   1.686  -0.410  1.00  0.00     0.030 C 
BRANCH  15  16
HETATM   16  C13 UNL     1       1.842   2.590   0.467  1.00  0.00    -0.025 C 
HETATM   17  C14 UNL     1       2.568   3.609  -0.033  1.00  0.00     0.039 C 
HETATM   18  C15 UNL     1       2.691   4.027  -1.426  1.00  0.00     0.291 C 
HETATM   19  C17 UNL     1       3.408   4.524   0.803  1.00  0.00     0.064 C 
HETATM   20  O1  UNL     1       3.545   5.045  -1.543  1.00  0.00    -0.298 OA
HETATM   21  O2  UNL     1       2.088   3.516  -2.340  1.00  0.00    -0.260 OA
HETATM   22  C16 UNL     1       4.186   5.281  -0.281  1.00  0.00     0.157 C 
ENDBRANCH  15  16
ENDBRANCH   7  15
BRANCH   3  23
HETATM   23  C19 UNL     1      -2.258  -3.770   0.404  1.00  0.00     0.185 C 
HETATM   24  O3  UNL     1      -3.580  -4.190   0.658  1.00  0.00    -0.221 OA
ENDBRANCH   3  23
TORSDOF 3
