REMARK  5 active torsions:
REMARK  status: ('A' for Active; 'I' for Inactive)
REMARK    1  A    between atoms: C15_15  and  C18_18 
REMARK    2  A    between atoms: C18_18  and  C20_20 
REMARK    3  A    between atoms: C20_20  and  C21_21 
REMARK    4  A    between atoms: C21_21  and  C22_22 
REMARK    5  A    between atoms: C22_22  and  C23_23 
ROOT
HETATM    1  C1  UNL     1       6.008   0.574   1.111  1.00  0.00     0.033 C 
HETATM    2  C2  UNL     1       6.820  -0.660   0.670  1.00  0.00     0.152 C 
HETATM    3  C3  UNL     1       5.934  -1.910   0.566  1.00  0.00     0.030 C 
HETATM    4  C4  UNL     1       4.742  -1.730  -0.428  1.00  0.00     0.002 C 
HETATM    5  C5  UNL     1       4.145  -0.271  -0.494  1.00  0.00     0.000 C 
HETATM    6  C6  UNL     1       4.490   0.467   0.830  1.00  0.00     0.003 C 
HETATM    7  C7  UNL     1       2.598  -0.240  -0.863  1.00  0.00     0.000 C 
HETATM    8  C8  UNL     1       1.726  -1.338  -0.146  1.00  0.00     0.000 C 
HETATM    9  C9  UNL     1       2.535  -2.342   0.674  1.00  0.00     0.000 C 
HETATM   10  C10 UNL     1       3.693  -2.836  -0.191  1.00  0.00     0.000 C 
HETATM   11  C11 UNL     1       0.496  -0.785   0.602  1.00  0.00     0.000 C 
HETATM   12  C12 UNL     1      -0.315   0.064  -0.406  1.00  0.00     0.000 C 
HETATM   13  C13 UNL     1       0.473   1.313  -0.846  1.00  0.00     0.000 C 
HETATM   14  C14 UNL     1       1.994   1.180  -0.621  1.00  0.00     0.000 C 
HETATM   15  C15 UNL     1      -1.588   0.332   0.414  1.00  0.00     0.000 C 
HETATM   16  C16 UNL     1      -1.877  -1.029   1.064  1.00  0.00     0.000 C 
HETATM   17  C17 UNL     1      -0.557  -1.813   1.031  1.00  0.00     0.000 C 
HETATM   18  C26 UNL     1      -0.733  -0.750  -1.645  1.00  0.00     0.000 C 
HETATM   19  C27 UNL     1       0.889  -0.039   1.885  1.00  0.00     0.000 C 
HETATM   20  C28 UNL     1       2.467  -0.508  -2.379  1.00  0.00     0.000 C 
HETATM   21  C29 UNL     1       4.885   0.520  -1.594  1.00  0.00     0.000 C 
HETATM   22  C30 UNL     1       5.490  -2.313   1.980  1.00  0.00     0.003 C 
HETATM   23  O3  UNL     1       7.453  -0.424  -0.574  1.00  0.00    -0.224 OA
ENDROOT
BRANCH  15  24
HETATM   24  C18 UNL     1      -2.774   0.857  -0.393  1.00  0.00     0.000 C 
HETATM   25  C19 UNL     1      -2.395   2.184  -1.051  1.00  0.00     0.000 C 
BRANCH  24  26
HETATM   26  C20 UNL     1      -3.996   0.979   0.518  1.00  0.00     0.003 C 
BRANCH  26  27
HETATM   27  C21 UNL     1      -5.297   1.160  -0.264  1.00  0.00     0.035 C 
BRANCH  27  28
HETATM   28  C22 UNL     1      -6.522   1.273   0.646  1.00  0.00     0.180 C 
HETATM   29  O2  UNL     1      -6.824  -0.012   1.141  1.00  0.00    -0.221 OA
BRANCH  28  30
HETATM   30  C23 UNL     1      -7.752   1.809  -0.084  1.00  0.00     0.155 C 
HETATM   31  C24 UNL     1      -8.004   1.098  -1.414  1.00  0.00     0.036 C 
HETATM   32  O1  UNL     1      -7.362   3.135  -0.359  1.00  0.00    -0.223 OA
HETATM   33  C25 UNL     1      -8.994   1.850   0.807  1.00  0.00     0.036 C 
ENDBRANCH  28  30
ENDBRANCH  27  28
ENDBRANCH  26  27
ENDBRANCH  24  26
ENDBRANCH  15  24
TORSDOF 5
