REMARK  0 active torsions:
REMARK  status: ('A' for Active; 'I' for Inactive)
ROOT
HETATM    1  C1  UNL     1       2.812  -1.346  -0.722  1.00  0.00     0.035 C 
HETATM    2  C2  UNL     1       2.900  -0.250   0.344  1.00  0.00     0.034 C 
HETATM    3  C3  UNL     1       1.834   0.857   0.143  1.00  0.00     0.134 C 
HETATM    4  C4  UNL     1       0.539   0.328  -0.564  1.00  0.00     0.093 C 
HETATM    5  C5  UNL     1       0.258  -1.170  -0.187  1.00  0.00     0.043 C 
HETATM    6  C6  UNL     1       1.436  -2.049  -0.724  1.00  0.00     0.153 C 
HETATM    7  O1  UNL     1       1.521  -3.266  -0.004  1.00  0.00    -0.223 OA
HETATM    8  C7  UNL     1      -1.072  -1.692  -0.808  1.00  0.00     0.054 C 
HETATM    9  C8  UNL     1      -2.201  -0.707  -0.582  1.00  0.00     0.080 A 
HETATM   10  C9  UNL     1      -2.016   0.644  -0.394  1.00  0.00     0.051 A 
HETATM   11  C10 UNL     1      -0.666   1.254  -0.387  1.00  0.00     0.176 C 
HETATM   12  O2  UNL     1      -0.533   2.449  -0.248  1.00  0.00    -0.291 OA
HETATM   13  C11 UNL     1      -3.233   1.238  -0.228  1.00  0.00     0.007 A 
HETATM   14  C12 UNL     1      -4.209   0.250  -0.308  1.00  0.00     0.118 A 
HETATM   15  O3  UNL     1      -3.568  -0.975  -0.529  1.00  0.00    -0.310 OA
HETATM   16  C13 UNL     1      -3.490   2.713   0.000  1.00  0.00     0.033 C 
HETATM   17  C14 UNL     1       0.133  -1.262   1.350  1.00  0.00     0.004 C 
HETATM   18  C15 UNL     1       1.555   1.545   1.487  1.00  0.00     0.033 C 
HETATM   19  O4  UNL     1       2.402   1.857  -0.685  1.00  0.00    -0.226 OA
ENDROOT
TORSDOF 0
