REMARK  7 active torsions:
REMARK  status: ('A' for Active; 'I' for Inactive)
REMARK    1  A    between atoms: C1_1  and  O3_16 
REMARK    2  A    between atoms: C4_4  and  C9_9 
REMARK    3  A    between atoms: C9_9  and  C10_10 
REMARK    4  A    between atoms: C10_10  and  C11_11 
REMARK    5  A    between atoms: C11_11  and  C12_13 
REMARK    6  A    between atoms: O3_16  and  C14_17 
REMARK    7  A    between atoms: C18_24  and  C19_26 
ROOT
HETATM    1  C1  UNL     1      -0.789   0.697   0.051  1.00  0.00     0.118 C 
HETATM    2  C2  UNL     1       0.480   1.150   0.789  1.00  0.00     0.030 C 
HETATM    3  C3  UNL     1       1.689   0.273   0.422  1.00  0.00     0.002 C 
HETATM    4  C4  UNL     1       1.390  -1.227   0.646  1.00  0.00     0.000 C 
HETATM    5  C5  UNL     1       0.103  -1.691  -0.082  1.00  0.00     0.002 C 
HETATM    6  C6  UNL     1      -1.084  -0.789   0.310  1.00  0.00     0.030 C 
HETATM    7  C7  UNL     1       0.303  -1.645  -1.604  1.00  0.00     0.000 C 
HETATM    8  C8  UNL     1      -0.223  -3.137   0.312  1.00  0.00     0.000 C 
HETATM    9  C13 UNL     1       2.932   0.725   1.201  1.00  0.00     0.000 C 
ENDROOT
BRANCH   1  10
HETATM   10  O3  UNL     1      -1.885   1.477   0.486  1.00  0.00    -0.332 OA
BRANCH  10  11
HETATM   11  C14 UNL     1      -1.922   2.770  -0.096  1.00  0.00     0.270 C 
HETATM   12  C15 UNL     1      -2.988   3.678   0.570  1.00  0.00     0.241 C 
HETATM   13  O4  UNL     1      -2.787   3.731   1.975  1.00  0.00    -0.215 OA
HETATM   14  C16 UNL     1      -4.424   3.217   0.238  1.00  0.00     0.220 C 
HETATM   15  O5  UNL     1      -5.360   4.174   0.707  1.00  0.00    -0.218 OA
HETATM   16  C17 UNL     1      -4.565   3.057  -1.293  1.00  0.00     0.215 C 
HETATM   17  O6  UNL     1      -5.813   2.461  -1.602  1.00  0.00    -0.218 OA
HETATM   18  C18 UNL     1      -3.436   2.182  -1.887  1.00  0.00     0.184 C 
HETATM   19  O7  UNL     1      -2.164   2.697  -1.498  1.00  0.00    -0.326 OA
BRANCH  18  20
HETATM   20  C19 UNL     1      -3.451   2.152  -3.418  1.00  0.00     0.214 C 
HETATM   21  O8  UNL     1      -2.518   1.189  -3.850  1.00  0.00    -0.218 OA
ENDBRANCH  18  20
ENDBRANCH  10  11
ENDBRANCH   1  10
BRANCH   4  22
HETATM   22  C9  UNL     1       2.598  -2.092   0.262  1.00  0.00     0.003 C 
BRANCH  22  23
HETATM   23  C10 UNL     1       3.418  -2.535   1.475  1.00  0.00     0.036 C 
BRANCH  23  24
HETATM   24  C11 UNL     1       4.695  -3.279   1.084  1.00  0.00     0.185 C 
HETATM   25  O1  UNL     1       4.330  -4.529   0.545  1.00  0.00    -0.221 OA
BRANCH  24  26
HETATM   26  C12 UNL     1       5.623  -3.523   2.273  1.00  0.00     0.215 C 
HETATM   27  O2  UNL     1       6.844  -4.031   1.783  1.00  0.00    -0.218 OA
ENDBRANCH  24  26
ENDBRANCH  23  24
ENDBRANCH  22  23
ENDBRANCH   4  22
TORSDOF 7
