REMARK  1 active torsions:
REMARK  status: ('A' for Active; 'I' for Inactive)
REMARK    1  A    between atoms: C9_10  and  C10_11 
ROOT
HETATM    1  C1  UNL     1      -3.303  -0.928  -1.072  1.00  0.00     0.036 C 
HETATM    2  C2  UNL     1      -3.748   0.256  -0.189  1.00  0.00     0.012 C 
HETATM    3  C3  UNL     1      -2.580   0.885   0.596  1.00  0.00     0.081 C 
HETATM    4  C4  UNL     1      -1.264   0.670  -0.170  1.00  0.00     0.047 C 
HETATM    5  C5  UNL     1      -1.064  -0.811   0.221  1.00  0.00     0.130 C 
HETATM    6  C6  UNL     1      -2.102  -1.730  -0.502  1.00  0.00     0.177 C 
HETATM    7  O1  UNL     1      -1.535  -2.473  -1.566  1.00  0.00    -0.221 OA
HETATM    8  C7  UNL     1       0.445  -1.043   0.016  1.00  0.00     0.029 C 
HETATM    9  C8  UNL     1       1.106   0.371   0.031  1.00  0.00     0.018 C 
HETATM   10  C9  UNL     1      -0.010   1.365   0.383  1.00  0.00     0.091 C 
HETATM   11  C11 UNL     1       2.326   0.447   0.981  1.00  0.00     0.035 C 
HETATM   12  C12 UNL     1       3.209  -0.631   0.334  1.00  0.00     0.142 C 
HETATM   13  C13 UNL     1       2.662  -2.018   0.754  1.00  0.00     0.035 C 
HETATM   14  C14 UNL     1       1.131  -2.008   0.994  1.00  0.00     0.005 C 
HETATM   15  C15 UNL     1       3.035  -0.316  -1.133  1.00  0.00    -0.017 C 
HETATM   16  C16 UNL     1       1.824   0.553  -1.322  1.00  0.00     0.025 C 
HETATM   17  C17 UNL     1       3.828  -0.744  -2.131  1.00  0.00    -0.007 C 
HETATM   18  O4  UNL     1       4.555  -0.477   0.746  1.00  0.00    -0.222 OA
HETATM   19  O5  UNL     1      -1.373  -0.854   1.615  1.00  0.00    -0.304 OA
HETATM   20  C18 UNL     1      -2.312   0.059   1.824  1.00  0.00     0.271 C 
HETATM   21  O6  UNL     1      -2.887   0.229   2.873  1.00  0.00    -0.264 OA
HETATM   22  C19 UNL     1      -2.826   2.356   0.920  1.00  0.00     0.010 C 
ENDROOT
BRANCH  10  23
HETATM   23  C10 UNL     1       0.191   2.770  -0.135  1.00  0.00     0.185 C 
HETATM   24  O2  UNL     1      -0.154   3.074  -1.252  1.00  0.00    -0.647 OA
HETATM   25  O3  UNL     1       0.764   3.611   0.721  1.00  0.00    -0.647 OA
ENDBRANCH  10  23
TORSDOF 1
