REMARK  10 active torsions:
REMARK  status: ('A' for Active; 'I' for Inactive)
REMARK    1  A    between atoms: C3_3  and  O7_32 
REMARK    2  A    between atoms: C4_4  and  C17_19 
REMARK    3  A    between atoms: C6_6  and  C7_7 
REMARK    4  A    between atoms: C7_7  and  C8_8 
REMARK    5  A    between atoms: C8_8  and  C9_9 
REMARK    6  A    between atoms: C8_8  and  C12_12 
REMARK    7  A    between atoms: C12_12  and  C13_13 
REMARK    8  A    between atoms: C13_13  and  C14_14 
REMARK    9  A    between atoms: C17_19  and  C18_20 
REMARK   10  A    between atoms: C19_21  and  C20_22 
ROOT
HETATM    1  C1  UNL     1       1.147  -1.571  -1.035  1.00  0.00     0.131 A 
HETATM    2  C2  UNL     1       1.869  -0.366  -1.034  1.00  0.00     0.051 A 
HETATM    3  C3  UNL     1       1.197   0.868  -1.034  1.00  0.00     0.101 A 
HETATM    4  C4  UNL     1      -0.211   0.897  -1.035  1.00  0.00     0.088 A 
HETATM    5  C5  UNL     1      -0.942  -0.308  -1.036  1.00  0.00     0.134 A 
HETATM    6  C6  UNL     1      -0.261  -1.540  -1.036  1.00  0.00     0.029 A 
HETATM    7  O2  UNL     1      -2.261  -0.284  -1.037  1.00  0.00    -0.190 OA
HETATM    8  O8  UNL     1       1.792  -2.721  -1.035  1.00  0.00    -0.190 OA
ENDROOT
BRANCH   4   9
HETATM    9  C17 UNL     1      -0.931   2.208  -1.035  1.00  0.00     0.225 C 
HETATM   10  O6  UNL     1      -2.031   2.313  -0.544  1.00  0.00    -0.284 OA
BRANCH   9  11
HETATM   11  C18 UNL     1      -0.275   3.371  -1.644  1.00  0.00     0.170 C 
HETATM   12  C19 UNL     1      -0.244   4.552  -1.005  1.00  0.00     0.033 C 
HETATM   13  O5  UNL     1       0.290   3.238  -2.841  1.00  0.00    -0.187 OA
BRANCH  12  14
HETATM   14  C20 UNL     1       0.435   5.708  -1.666  1.00  0.00     0.028 A 
HETATM   15  C21 UNL     1       1.682   5.518  -2.290  1.00  0.00     0.004 A 
HETATM   16  C22 UNL     1       2.330   6.597  -2.914  1.00  0.00     0.028 A 
HETATM   17  C23 UNL     1       1.735   7.870  -2.918  1.00  0.00     0.133 A 
HETATM   18  C24 UNL     1       0.489   8.059  -2.294  1.00  0.00     0.055 A 
HETATM   19  O4  UNL     1       2.342   8.883  -3.503  1.00  0.00    -0.190 OA
HETATM   20  C25 UNL     1      -0.165   6.983  -1.668  1.00  0.00     0.133 A 
HETATM   21  O3  UNL     1      -1.333   7.177  -1.088  1.00  0.00    -0.190 OA
ENDBRANCH  12  14
ENDBRANCH   9  11
ENDBRANCH   4   9
BRANCH   3  22
HETATM   22  O7  UNL     1       1.893   1.988  -1.033  1.00  0.00    -0.328 OA
HETATM   23  C26 UNL     1       3.306   1.896  -0.919  1.00  0.00     0.181 C 
ENDBRANCH   3  22
BRANCH   6  24
HETATM   24  C7  UNL     1      -1.031  -2.814  -1.037  1.00  0.00     0.035 C 
BRANCH  24  25
HETATM   25  C8  UNL     1      -1.583  -3.140   0.351  1.00  0.00     0.023 C 
BRANCH  25  26
HETATM   26  C9  UNL     1      -2.626  -4.224   0.315  1.00  0.00    -0.044 C 
HETATM   27  C10 UNL     1      -4.024  -3.999  -0.197  1.00  0.00     0.026 C 
HETATM   28  C11 UNL     1      -2.295  -5.447   0.758  1.00  0.00    -0.009 C 
ENDBRANCH  25  26
BRANCH  25  29
HETATM   29  C12 UNL     1      -0.481  -3.425   1.372  1.00  0.00     0.007 C 
BRANCH  29  30
HETATM   30  C13 UNL     1      -1.006  -3.481   2.807  1.00  0.00     0.031 C 
BRANCH  30  31
HETATM   31  C14 UNL     1       0.116  -3.533   3.844  1.00  0.00     0.127 C 
HETATM   32  O1  UNL     1       0.610  -2.214   3.789  1.00  0.00    -0.226 OA
HETATM   33  C15 UNL     1      -0.401  -3.792   5.260  1.00  0.00     0.033 C 
HETATM   34  C16 UNL     1       1.245  -4.485   3.446  1.00  0.00     0.033 C 
ENDBRANCH  30  31
ENDBRANCH  29  30
ENDBRANCH  25  29
ENDBRANCH  24  25
ENDBRANCH   6  24
TORSDOF 10
