REMARK  1 active torsions:
REMARK  status: ('A' for Active; 'I' for Inactive)
REMARK    1  A    between atoms: C21_21  and  C24_24 
ROOT
HETATM    1  C1  UNL     1      -4.961  -0.307  -1.807  1.00  0.00     0.186 C 
HETATM    2  C2  UNL     1      -5.147  -1.434  -0.775  1.00  0.00     0.200 C 
HETATM    3  C3  UNL     1      -4.734  -0.967   0.603  1.00  0.00    -0.019 C 
HETATM    4  C4  UNL     1      -3.629  -0.207   0.762  1.00  0.00    -0.050 C 
HETATM    5  C5  UNL     1      -2.760   0.162  -0.438  1.00  0.00     0.020 C 
HETATM    6  C6  UNL     1      -3.547   0.318  -1.775  1.00  0.00     0.040 C 
HETATM    7  C7  UNL     1      -1.801   1.371  -0.160  1.00  0.00     0.004 C 
HETATM    8  C8  UNL     1      -1.022   1.264   1.211  1.00  0.00     0.001 C 
HETATM    9  C9  UNL     1      -1.664   0.291   2.225  1.00  0.00     0.004 C 
HETATM   10  C10 UNL     1      -3.191   0.283   2.125  1.00  0.00     0.021 C 
HETATM   11  C11 UNL     1       0.529   1.113   1.049  1.00  0.00     0.000 C 
HETATM   12  C12 UNL     1       0.863   0.060  -0.057  1.00  0.00     0.000 C 
HETATM   13  C13 UNL     1       0.418   0.648  -1.420  1.00  0.00     0.000 C 
HETATM   14  C14 UNL     1      -0.818   1.582  -1.354  1.00  0.00     0.000 C 
HETATM   15  C15 UNL     1       2.357  -0.432  -0.002  1.00  0.00     0.001 C 
HETATM   16  C16 UNL     1       3.352   0.482   0.754  1.00  0.00     0.000 C 
HETATM   17  C17 UNL     1       2.809   0.807   2.180  1.00  0.00     0.000 C 
HETATM   18  C18 UNL     1       1.271   0.719   2.338  1.00  0.00     0.000 C 
HETATM   19  C19 UNL     1       4.709  -0.248   0.881  1.00  0.00     0.001 C 
HETATM   20  C20 UNL     1       5.270  -0.717  -0.475  1.00  0.00     0.010 C 
HETATM   21  C21 UNL     1       4.283  -1.609  -1.252  1.00  0.00     0.078 C 
HETATM   22  C22 UNL     1       2.914  -0.904  -1.367  1.00  0.00     0.010 C 
HETATM   23  C23 UNL     1       4.836  -1.897  -2.652  1.00  0.00     0.011 C 
HETATM   24  C25 UNL     1       3.602   1.773  -0.045  1.00  0.00     0.000 C 
HETATM   25  C26 UNL     1       0.053  -1.229   0.152  1.00  0.00     0.000 C 
HETATM   26  C27 UNL     1       1.043   2.521   0.684  1.00  0.00     0.000 C 
HETATM   27  C28 UNL     1      -2.691   2.629  -0.086  1.00  0.00     0.000 C 
HETATM   28  C29 UNL     1      -5.608  -1.371   1.766  1.00  0.00     0.028 C 
HETATM   29  O3  UNL     1      -4.365  -2.551  -1.152  1.00  0.00    -0.216 OA
HETATM   30  O4  UNL     1      -5.916   0.705  -1.535  1.00  0.00    -0.220 OA
ENDROOT
BRANCH  21  31
HETATM   31  C24 UNL     1       4.129  -2.942  -0.557  1.00  0.00     0.184 C 
HETATM   32  O1  UNL     1       5.035  -3.416   0.086  1.00  0.00    -0.647 OA
HETATM   33  O2  UNL     1       2.941  -3.524  -0.707  1.00  0.00    -0.647 OA
ENDBRANCH  21  31
TORSDOF 1
