REMARK  2 active torsions:
REMARK  status: ('A' for Active; 'I' for Inactive)
REMARK    1  A    between atoms: C1_1  and  O4_20 
REMARK    2  A    between atoms: C13_13  and  O1_15 
ROOT
HETATM    1  C1  UNL     1       3.348  -0.238   0.002  1.00  0.00     0.115 A 
HETATM    2  C2  UNL     1       3.711  -1.590   0.203  1.00  0.00     0.153 A 
HETATM    3  C3  UNL     1       2.713  -2.560   0.424  1.00  0.00     0.029 A 
HETATM    4  C4  UNL     1       1.350  -2.189   0.447  1.00  0.00     0.002 A 
HETATM    5  C5  UNL     1       0.957  -0.838   0.222  1.00  0.00    -0.000 A 
HETATM    6  C6  UNL     1       1.981   0.143   0.013  1.00  0.00     0.003 A 
HETATM    7  C7  UNL     1       1.602   1.565  -0.198  1.00  0.00     0.033 C 
HETATM    8  C8  UNL     1       0.340   1.951   0.594  1.00  0.00     0.031 C 
HETATM    9  C9  UNL     1      -0.764   0.979   0.402  1.00  0.00    -0.018 A 
HETATM   10  C10 UNL     1      -0.473  -0.410   0.209  1.00  0.00     0.021 A 
HETATM   11  C11 UNL     1      -1.566  -1.312   0.006  1.00  0.00     0.129 A 
HETATM   12  C12 UNL     1      -2.902  -0.840   0.041  1.00  0.00     0.026 A 
HETATM   13  C13 UNL     1      -3.170   0.531   0.246  1.00  0.00     0.092 A 
HETATM   14  C14 UNL     1      -2.103   1.436   0.420  1.00  0.00     0.020 A 
HETATM   15  C16 UNL     1      -4.023  -1.781  -0.143  1.00  0.00     0.035 C 
HETATM   16  O2  UNL     1      -1.379  -2.617  -0.242  1.00  0.00    -0.190 OA
HETATM   17  O3  UNL     1       5.002  -1.949   0.189  1.00  0.00    -0.188 OA
ENDROOT
BRANCH   1  18
HETATM   18  O4  UNL     1       4.307   0.676  -0.201  1.00  0.00    -0.326 OA
HETATM   19  C17 UNL     1       4.524   1.131  -1.530  1.00  0.00     0.181 C 
ENDBRANCH   1  18
BRANCH  13  20
HETATM   20  O1  UNL     1      -4.434   0.981   0.273  1.00  0.00    -0.328 OA
HETATM   21  C15 UNL     1      -4.647   2.356   0.556  1.00  0.00     0.181 C 
ENDBRANCH  13  20
TORSDOF 2
