REMARK  5 active torsions:
REMARK  status: ('A' for Active; 'I' for Inactive)
REMARK    1  A    between atoms: C2_2  and  C7_8 
REMARK    2  A    between atoms: C7_8  and  C8_9 
REMARK    3  A    between atoms: C13_15  and  C14_16 
REMARK    4  A    between atoms: C14_16  and  C15_17 
REMARK    5  A    between atoms: C15_17  and  C16_18 
ROOT
HETATM    1  C8  UNL     1       2.011  -0.355  -0.273  1.00  0.00     0.004 A 
HETATM    2  C9  UNL     1       3.418  -0.386  -0.217  1.00  0.00     0.129 A 
HETATM    3  O2  UNL     1       4.064  -1.536  -0.217  1.00  0.00    -0.190 OA
HETATM    4  C10 UNL     1       4.142   0.818  -0.160  1.00  0.00     0.054 A 
HETATM    5  C11 UNL     1       3.470   2.052  -0.159  1.00  0.00     0.133 A 
HETATM    6  C12 UNL     1       2.066   2.081  -0.215  1.00  0.00     0.023 A 
HETATM    7  C13 UNL     1       1.335   0.881  -0.272  1.00  0.00    -0.021 A 
HETATM    8  O4  UNL     1       4.154   3.177  -0.106  1.00  0.00    -0.190 OA
ENDROOT
BRANCH   7   9
HETATM    9  C14 UNL     1      -0.151   0.935  -0.331  1.00  0.00     0.031 C 
BRANCH   9  10
HETATM   10  C15 UNL     1      -0.656   0.993  -1.773  1.00  0.00     0.031 C 
BRANCH  10  11
HETATM   11  C16 UNL     1      -2.135   1.127  -1.830  1.00  0.00    -0.020 A 
HETATM   12  C17 UNL     1      -2.720   2.389  -2.038  1.00  0.00     0.023 A 
HETATM   13  C18 UNL     1      -4.119   2.520  -2.093  1.00  0.00     0.131 A 
HETATM   14  C19 UNL     1      -4.932   1.383  -1.938  1.00  0.00     0.027 A 
HETATM   15  O3  UNL     1      -4.667   3.702  -2.288  1.00  0.00    -0.190 OA
HETATM   16  C20 UNL     1      -4.350   0.121  -1.730  1.00  0.00     0.002 A 
HETATM   17  C21 UNL     1      -2.952  -0.007  -1.676  1.00  0.00    -0.004 A 
ENDBRANCH  10  11
ENDBRANCH   9  10
ENDBRANCH   7   9
BRANCH   1  18
HETATM   18  C7  UNL     1       1.245  -1.630  -0.332  1.00  0.00     0.054 C 
BRANCH  18  19
HETATM   19  C2  UNL     1       0.832  -2.025   1.039  1.00  0.00    -0.018 A 
HETATM   20  C1  UNL     1       1.803  -2.223   2.037  1.00  0.00    -0.002 A 
HETATM   21  C6  UNL     1       1.412  -2.597   3.334  1.00  0.00     0.027 A 
HETATM   22  C5  UNL     1       0.051  -2.773   3.640  1.00  0.00     0.131 A 
HETATM   23  C4  UNL     1      -0.918  -2.574   2.640  1.00  0.00     0.027 A 
HETATM   24  O1  UNL     1      -0.315  -3.123   4.856  1.00  0.00    -0.190 OA
HETATM   25  C3  UNL     1      -0.529  -2.201   1.342  1.00  0.00    -0.002 A 
ENDBRANCH  18  19
ENDBRANCH   1  18
TORSDOF 5
