REMARK  8 active torsions:
REMARK  status: ('A' for Active; 'I' for Inactive)
REMARK    1  A    between atoms: C4_4  and  O7_19 
REMARK    2  A    between atoms: C5_6  and  C6_7 
REMARK    3  A    between atoms: C6_7  and  O2_8 
REMARK    4  A    between atoms: O2_8  and  C7_9 
REMARK    5  A    between atoms: O7_19  and  C13_20 
REMARK    6  A    between atoms: C13_20  and  C14_21 
REMARK    7  A    between atoms: C14_21  and  C15_22 
REMARK    8  A    between atoms: C14_21  and  O10_30 
ROOT
HETATM    1  C1  UNL     1      -1.943   3.488  -0.943  1.00  0.00     0.215 C 
HETATM    2  C2  UNL     1      -0.904   4.557  -0.537  1.00  0.00     0.220 C 
HETATM    3  C3  UNL     1       0.518   4.072  -0.894  1.00  0.00     0.241 C 
HETATM    4  C4  UNL     1       0.770   2.641  -0.351  1.00  0.00     0.270 C 
HETATM    5  O1  UNL     1      -0.248   1.764  -0.814  1.00  0.00    -0.326 OA
HETATM    6  C5  UNL     1      -1.564   2.096  -0.392  1.00  0.00     0.180 C 
HETATM    7  O11 UNL     1       1.473   4.961  -0.334  1.00  0.00    -0.215 OA
HETATM    8  O12 UNL     1      -1.180   5.775  -1.209  1.00  0.00    -0.218 OA
HETATM    9  O13 UNL     1      -3.219   3.844  -0.437  1.00  0.00    -0.218 OA
ENDROOT
BRANCH   4  10
HETATM   10  O7  UNL     1       2.018   2.152  -0.803  1.00  0.00    -0.326 OA
BRANCH  10  11
HETATM   11  C13 UNL     1       2.397   0.943  -0.185  1.00  0.00     0.179 C 
BRANCH  11  12
HETATM   12  C14 UNL     1       3.779   0.553  -0.711  1.00  0.00     0.167 C 
BRANCH  12  13
HETATM   13  C15 UNL     1       4.152  -0.824  -0.291  1.00  0.00     0.009 A 
HETATM   14  C16 UNL     1       4.219  -1.152   1.072  1.00  0.00     0.000 A 
HETATM   15  C17 UNL     1       4.574  -2.453   1.465  1.00  0.00     0.029 A 
HETATM   16  C18 UNL     1       4.863  -3.432   0.496  1.00  0.00     0.156 A 
HETATM   17  C19 UNL     1       4.797  -3.104  -0.871  1.00  0.00     0.156 A 
HETATM   18  O9  UNL     1       5.193  -4.650   0.873  1.00  0.00    -0.188 OA
HETATM   19  C20 UNL     1       4.442  -1.801  -1.262  1.00  0.00     0.028 A 
HETATM   20  O8  UNL     1       5.065  -4.014  -1.785  1.00  0.00    -0.188 OA
ENDBRANCH  12  13
BRANCH  12  21
HETATM   21  O10 UNL     1       4.721   1.471  -0.201  1.00  0.00    -0.347 OA
HETATM   22  C21 UNL     1       6.000   1.328  -0.773  1.00  0.00     0.175 C 
ENDBRANCH  12  21
ENDBRANCH  11  12
ENDBRANCH  10  11
ENDBRANCH   4  10
BRANCH   6  23
HETATM   23  C6  UNL     1      -2.482   0.980  -0.904  1.00  0.00     0.177 C 
BRANCH  23  24
HETATM   24  O2  UNL     1      -2.158  -0.207  -0.217  1.00  0.00    -0.326 OA
BRANCH  24  25
HETATM   25  C7  UNL     1      -2.908  -1.326  -0.654  1.00  0.00     0.270 C 
HETATM   26  C8  UNL     1      -2.377  -2.613   0.025  1.00  0.00     0.241 C 
HETATM   27  C9  UNL     1      -2.771  -2.662   1.522  1.00  0.00     0.220 C 
HETATM   28  O6  UNL     1      -2.906  -3.733  -0.672  1.00  0.00    -0.215 OA
HETATM   29  C10 UNL     1      -4.283  -2.391   1.690  1.00  0.00     0.212 C 
HETATM   30  O5  UNL     1      -2.404  -3.904   2.104  1.00  0.00    -0.218 OA
HETATM   31  C11 UNL     1      -4.699  -1.092   0.959  1.00  0.00     0.151 C 
HETATM   32  O4  UNL     1      -4.602  -2.260   3.063  1.00  0.00    -0.218 OA
HETATM   33  O3  UNL     1      -4.305  -1.154  -0.410  1.00  0.00    -0.329 OA
HETATM   34  C12 UNL     1      -6.215  -0.863   0.971  1.00  0.00     0.035 C 
ENDBRANCH  24  25
ENDBRANCH  23  24
ENDBRANCH   6  23
TORSDOF 8
