REMARK  14 active torsions:
REMARK  status: ('A' for Active; 'I' for Inactive)
REMARK    1  A    between atoms: C7_7  and  C9_11 
REMARK    2  A    between atoms: C9_11  and  C10_12 
REMARK    3  A    between atoms: C9_11  and  S1_15 
REMARK    4  A    between atoms: C10_12  and  C11_13 
REMARK    5  A    between atoms: S1_15  and  C13_16 
REMARK    6  A    between atoms: C13_16  and  C14_17 
REMARK    7  A    between atoms: C14_17  and  C15_18 
REMARK    8  A    between atoms: C14_17  and  N2_25 
REMARK       I    between atoms: C15_18  and  N1_20 
REMARK    9  A    between atoms: N1_20  and  C16_21 
REMARK   10  A    between atoms: C16_21  and  C17_22 
REMARK       I    between atoms: N2_25  and  C18_26 
REMARK   11  A    between atoms: C18_26  and  C19_27 
REMARK   12  A    between atoms: C19_27  and  C20_28 
REMARK   13  A    between atoms: C20_28  and  C21_29 
REMARK   14  A    between atoms: C21_29  and  C22_31 
ROOT
HETATM    1  C14 UNL     1       0.021   0.006   1.285  1.00  0.00     0.197 C 
ENDROOT
BRANCH   1   2
HETATM    2  C13 UNL     1      -0.504   0.723   0.043  1.00  0.00     0.092 C 
BRANCH   2   3
HETATM    3  S1  UNL     1       0.674   0.590  -1.332  1.00  0.00    -0.132 SA
BRANCH   3   4
HETATM    4  C9  UNL     1      -0.313   1.402  -2.621  1.00  0.00     0.093 C 
BRANCH   4   5
HETATM    5  C7  UNL     1      -0.363   2.885  -2.354  1.00  0.00     0.087 A 
HETATM    6  C5  UNL     1      -1.502   3.533  -2.061  1.00  0.00     0.002 A 
HETATM    7  C4  UNL     1      -1.160   4.906  -1.873  1.00  0.00     0.059 A 
HETATM    8  C6  UNL     1      -2.918   3.027  -1.934  1.00  0.00     0.031 C 
HETATM    9  C3  UNL     1      -2.041   5.871  -1.559  1.00  0.00     0.011 C 
HETATM   10  C8  UNL     1       0.275   4.951  -2.098  1.00  0.00     0.299 A 
HETATM   11  C2  UNL     1      -3.500   5.492  -1.371  1.00  0.00     0.175 C 
HETATM   12  C1  UNL     1      -3.900   4.203  -2.141  1.00  0.00     0.042 C 
HETATM   13  O9  UNL     1      -3.748   5.301   0.006  1.00  0.00    -0.219 OA
HETATM   14  O1  UNL     1       0.719   3.705  -2.385  1.00  0.00    -0.277 OA
HETATM   15  O2  UNL     1       0.943   5.957  -2.035  1.00  0.00    -0.259 OA
ENDBRANCH   4   5
BRANCH   4  16
HETATM   16  C10 UNL     1       0.230   1.078  -4.012  1.00  0.00     0.017 C 
BRANCH  16  17
HETATM   17  C11 UNL     1       0.191  -0.418  -4.328  1.00  0.00     0.001 C 
HETATM   18  C12 UNL     1       0.711  -0.738  -5.729  1.00  0.00     0.000 C 
ENDBRANCH  16  17
ENDBRANCH   4  16
ENDBRANCH   3   4
ENDBRANCH   2   3
ENDBRANCH   1   2
BRANCH   1  19
HETATM   19  C15 UNL     1      -0.848   0.236   2.494  1.00  0.00     0.275 C 
HETATM   20  O3  UNL     1      -1.940   0.746   2.387  1.00  0.00    -0.268 OA
HETATM   21  N1  UNL     1      -0.381  -0.143   3.721  1.00  0.00    -0.225 NA
BRANCH  21  22
HETATM   22  C16 UNL     1      -1.217   0.076   4.910  1.00  0.00     0.226 C 
BRANCH  22  23
HETATM   23  C17 UNL     1      -0.533  -0.402   6.162  1.00  0.00     0.211 C 
HETATM   24  O4  UNL     1      -1.229  -0.238   7.283  1.00  0.00    -0.646 OA
HETATM   25  O5  UNL     1       0.568  -0.898   6.119  1.00  0.00    -0.646 OA
ENDBRANCH  22  23
ENDBRANCH  21  22
ENDBRANCH   1  19
BRANCH   1  26
HETATM   26  N2  UNL     1       0.213  -1.430   1.025  1.00  0.00    -0.229 NA
HETATM   27  C18 UNL     1       1.373  -2.033   1.422  1.00  0.00     0.252 C 
HETATM   28  O8  UNL     1       2.232  -1.395   1.981  1.00  0.00    -0.271 OA
BRANCH  27  29
HETATM   29  C19 UNL     1       1.553  -3.502   1.145  1.00  0.00     0.092 C 
BRANCH  29  30
HETATM   30  C20 UNL     1       2.885  -4.035   1.674  1.00  0.00     0.060 C 
BRANCH  30  31
HETATM   31  C21 UNL     1       3.078  -5.526   1.391  1.00  0.00     0.388 C 
HETATM   32  N3  UNL     1       2.070  -6.309   2.086  1.00  0.00     0.628 N 
BRANCH  31  33
HETATM   33  C22 UNL     1       4.455  -6.006   1.758  1.00  0.00     0.224 C 
HETATM   34  O6  UNL     1       4.852  -7.115   1.141  1.00  0.00    -0.646 OA
HETATM   35  O7  UNL     1       5.131  -5.406   2.563  1.00  0.00    -0.646 OA
ENDBRANCH  31  33
ENDBRANCH  30  31
ENDBRANCH  29  30
ENDBRANCH  27  29
ENDBRANCH   1  26
TORSDOF 14
