REMARK  11 active torsions:
REMARK  status: ('A' for Active; 'I' for Inactive)
REMARK    1  A    between atoms: C1_1  and  C2_2 
REMARK    2  A    between atoms: C1_1  and  C7_11 
REMARK    3  A    between atoms: C2_2  and  C3_3 
REMARK    4  A    between atoms: C3_3  and  C4_4 
REMARK    5  A    between atoms: C4_4  and  C5_5 
REMARK    6  A    between atoms: C5_5  and  S1_6 
REMARK    7  A    between atoms: C7_11  and  S2_12 
REMARK    8  A    between atoms: S2_12  and  C8_13 
REMARK    9  A    between atoms: C12_17  and  C13_19 
REMARK   10  A    between atoms: N1_24  and  O9_25 
REMARK   11  A    between atoms: O9_25  and  S3_26 
ROOT
HETATM    1  C7  UNL     1       0.279   0.721   0.770  1.00  0.00     0.114 C 
HETATM    2  N1  UNL     1       0.457   1.254   1.922  1.00  0.00    -0.110 NA
ENDROOT
BRANCH   1   3
HETATM    3  C1  UNL     1       0.561  -0.748   0.602  1.00  0.00     0.057 C 
BRANCH   3   4
HETATM    4  C2  UNL     1       2.043  -1.033   0.356  1.00  0.00     0.040 C 
BRANCH   4   5
HETATM    5  C3  UNL     1       2.328  -2.518   0.129  1.00  0.00     0.154 C 
HETATM    6  O3  UNL     1       2.121  -3.197   1.348  1.00  0.00    -0.223 OA
BRANCH   5   7
HETATM    7  C4  UNL     1       3.766  -2.779  -0.326  1.00  0.00     0.050 C 
BRANCH   7   8
HETATM    8  C5  UNL     1       3.992  -4.228  -0.758  1.00  0.00     0.125 C 
BRANCH   8   9
HETATM    9  S1  UNL     1       5.660  -4.447  -1.363  1.00  0.00     0.171 S 
HETATM   10  O1  UNL     1       5.848  -3.605  -2.531  1.00  0.00    -0.226 OA
HETATM   11  O2  UNL     1       6.592  -4.152  -0.289  1.00  0.00    -0.226 OA
HETATM   12  C6  UNL     1       5.860  -6.156  -1.846  1.00  0.00     0.140 C 
ENDBRANCH   8   9
ENDBRANCH   7   8
ENDBRANCH   5   7
ENDBRANCH   4   5
ENDBRANCH   3   4
ENDBRANCH   1   3
BRANCH   1  13
HETATM   13  S2  UNL     1      -0.258   1.570  -0.586  1.00  0.00    -0.066 SA
BRANCH  13  14
HETATM   14  C8  UNL     1      -1.818   2.178  -0.064  1.00  0.00     0.201 C 
HETATM   15  C9  UNL     1      -2.076   3.596  -0.617  1.00  0.00     0.223 C 
HETATM   16  C10 UNL     1      -3.496   4.086  -0.258  1.00  0.00     0.218 C 
HETATM   17  O8  UNL     1      -1.105   4.473  -0.072  1.00  0.00    -0.217 OA
HETATM   18  C11 UNL     1      -4.533   3.018  -0.668  1.00  0.00     0.215 C 
HETATM   19  O7  UNL     1      -3.768   5.307  -0.926  1.00  0.00    -0.218 OA
HETATM   20  C12 UNL     1      -4.152   1.623  -0.119  1.00  0.00     0.182 C 
HETATM   21  O6  UNL     1      -5.811   3.371  -0.170  1.00  0.00    -0.218 OA
HETATM   22  O4  UNL     1      -2.832   1.295  -0.531  1.00  0.00    -0.340 OA
BRANCH  20  23
HETATM   23  C13 UNL     1      -5.066   0.510  -0.637  1.00  0.00     0.214 C 
HETATM   24  O5  UNL     1      -4.746  -0.680   0.049  1.00  0.00    -0.218 OA
ENDBRANCH  20  23
ENDBRANCH  13  14
ENDBRANCH   1  13
BRANCH   2  25
HETATM   25  O9  UNL     1       0.197   2.651   2.113  1.00  0.00    -0.106 OA
BRANCH  25  26
HETATM   26  S3  UNL     1       0.373   3.414   3.440  1.00  0.00     0.275 S 
HETATM   27  O10 UNL     1      -0.033   4.820   2.975  1.00  0.00    -0.571 OA
HETATM   28  O11 UNL     1      -0.555   2.988   4.473  1.00  0.00    -0.571 OA
HETATM   29  O12 UNL     1       1.752   3.465   3.893  1.00  0.00    -0.571 OA
ENDBRANCH  25  26
ENDBRANCH   2  25
TORSDOF 11
