REMARK  1 active torsions:
REMARK  status: ('A' for Active; 'I' for Inactive)
REMARK    1  A    between atoms: C4_5  and  O2_6 
ROOT
HETATM    1  C1  UNL     1      -4.496   1.522  -0.328  1.00  0.00     0.066 A 
HETATM    2  C2  UNL     1      -4.164   2.053   0.990  1.00  0.00     0.298 A 
HETATM    3  O1  UNL     1      -2.932   1.660   1.365  1.00  0.00    -0.270 OA
HETATM    4  C3  UNL     1      -2.465   0.906   0.350  1.00  0.00     0.143 A 
HETATM    5  C4  UNL     1      -3.449   0.809  -0.732  1.00  0.00     0.120 A 
HETATM    6  C6  UNL     1      -1.252   0.320   0.340  1.00  0.00     0.099 C 
HETATM    7  O3  UNL     1      -0.807  -0.412  -0.674  1.00  0.00    -0.313 OA
HETATM    8  C7  UNL     1       0.557  -0.748  -0.426  1.00  0.00     0.194 C 
HETATM    9  C8  UNL     1       0.867  -0.459   1.059  1.00  0.00     0.092 C 
HETATM   10  C9  UNL     1      -0.293   0.455   1.488  1.00  0.00     0.054 C 
HETATM   11  C10 UNL     1      -0.881  -0.002   2.820  1.00  0.00     0.007 C 
HETATM   12  C11 UNL     1       2.248   0.199   0.943  1.00  0.00     0.251 C 
HETATM   13  N1  UNL     1       3.389  -0.756   0.807  1.00  0.00     0.138 N 
HETATM   14  C12 UNL     1       3.320  -1.904  -0.145  1.00  0.00     0.251 C 
HETATM   15  C13 UNL     1       2.070  -2.799  -0.066  1.00  0.00     0.040 C 
HETATM   16  C14 UNL     1       0.828  -2.217  -0.773  1.00  0.00     0.059 C 
HETATM   17  C15 UNL     1       4.625   0.010   0.576  1.00  0.00     0.250 C 
HETATM   18  C16 UNL     1       4.568   0.778  -0.762  1.00  0.00     0.038 C 
HETATM   19  C17 UNL     1       3.320   1.670  -0.881  1.00  0.00     0.034 C 
HETATM   20  C18 UNL     1       2.041   1.033  -0.318  1.00  0.00     0.149 C 
HETATM   21  O4  UNL     1       1.418   0.104  -1.176  1.00  0.00    -0.335 OA
HETATM   22  O5  UNL     1      -4.912   2.748   1.637  1.00  0.00    -0.259 OA
HETATM   23  C19 UNL     1      -5.781   1.737  -1.084  1.00  0.00     0.039 C 
ENDROOT
BRANCH   5  24
HETATM   24  O2  UNL     1      -3.324   0.151  -1.883  1.00  0.00    -0.326 OA
HETATM   25  C5  UNL     1      -4.193  -0.971  -1.959  1.00  0.00     0.181 C 
ENDBRANCH   5  24
TORSDOF 1
