REMARK  1 active torsions:
REMARK  status: ('A' for Active; 'I' for Inactive)
REMARK    1  A    between atoms: C15_17  and  C17_20 
ROOT
HETATM    1  C1  UNL     1      -3.102   0.561  -1.873  1.00  0.00     0.005 C 
HETATM    2  C2  UNL     1      -3.865   0.092  -0.643  1.00  0.00     0.004 C 
HETATM    3  C3  UNL     1      -3.193   0.603   0.648  1.00  0.00     0.019 C 
HETATM    4  C4  UNL     1      -1.713   0.365   0.656  1.00  0.00    -0.027 A 
HETATM    5  C5  UNL     1      -0.981   0.053  -0.539  1.00  0.00    -0.023 A 
HETATM    6  C6  UNL     1      -1.672   0.010  -1.861  1.00  0.00     0.026 C 
HETATM    7  C7  UNL     1       0.424  -0.223  -0.455  1.00  0.00     0.040 A 
HETATM    8  C8  UNL     1       1.086  -0.117   0.810  1.00  0.00     0.026 A 
HETATM    9  C9  UNL     1       0.365   0.230   1.973  1.00  0.00     0.002 A 
HETATM   10  C10 UNL     1      -1.020   0.463   1.892  1.00  0.00    -0.004 A 
HETATM   11  C11 UNL     1       2.549  -0.381   0.898  1.00  0.00     0.103 A 
HETATM   12  C12 UNL     1       3.277  -0.723  -0.207  1.00  0.00     0.065 A 
HETATM   13  C13 UNL     1       2.680  -0.861  -1.551  1.00  0.00     0.236 A 
HETATM   14  C14 UNL     1       1.215  -0.625  -1.688  1.00  0.00     0.234 A 
HETATM   15  O1  UNL     1       0.785  -0.789  -2.807  1.00  0.00    -0.283 OA
HETATM   16  O2  UNL     1       3.363  -1.156  -2.504  1.00  0.00    -0.283 OA
HETATM   17  C15 UNL     1       4.561  -0.885   0.228  1.00  0.00     0.041 A 
HETATM   18  C16 UNL     1       4.598  -0.641   1.611  1.00  0.00     0.121 A 
HETATM   19  O3  UNL     1       3.303  -0.313   2.057  1.00  0.00    -0.305 OA
HETATM   20  C18 UNL     1      -3.873  -0.109   1.830  1.00  0.00     0.004 C 
HETATM   21  C19 UNL     1      -3.445   2.111   0.785  1.00  0.00     0.004 C 
ENDROOT
BRANCH  17  22
HETATM   22  C17 UNL     1       5.750  -1.266  -0.627  1.00  0.00     0.211 C 
HETATM   23  O4  UNL     1       6.141  -0.158  -1.406  1.00  0.00    -0.215 OA
ENDBRANCH  17  22
TORSDOF 1
