REMARK  6 active torsions:
REMARK  status: ('A' for Active; 'I' for Inactive)
REMARK    1  A    between atoms: C5_5  and  C7_7 
REMARK    2  A    between atoms: C7_7  and  C8_8 
REMARK    3  A    between atoms: C8_8  and  C9_9 
REMARK    4  A    between atoms: C10_11  and  C13_14 
REMARK    5  A    between atoms: C13_14  and  C14_15 
REMARK    6  A    between atoms: C16_17  and  O3_22 
ROOT
HETATM    1  C9  UNL     1      -1.365   0.201  -0.029  1.00  0.00     0.077 A 
HETATM    2  O1  UNL     1      -0.023   0.020   0.145  1.00  0.00    -0.315 OA
HETATM    3  C10 UNL     1       0.338  -0.812  -0.877  1.00  0.00     0.082 A 
HETATM    4  C11 UNL     1      -0.748  -1.154  -1.685  1.00  0.00     0.022 A 
HETATM    5  C12 UNL     1      -1.850  -0.498  -1.139  1.00  0.00     0.022 A 
ENDROOT
BRANCH   3   6
HETATM    6  C13 UNL     1       1.768  -1.275  -1.060  1.00  0.00     0.078 C 
BRANCH   6   7
HETATM    7  C14 UNL     1       2.572  -0.178  -1.656  1.00  0.00    -0.014 A 
HETATM    8  C15 UNL     1       2.844   0.983  -0.908  1.00  0.00     0.022 A 
HETATM    9  C16 UNL     1       3.604   2.024  -1.467  1.00  0.00     0.119 A 
HETATM   10  C17 UNL     1       4.098   1.904  -2.781  1.00  0.00     0.153 A 
HETATM   11  C18 UNL     1       3.826   0.744  -3.527  1.00  0.00     0.029 A 
HETATM   12  O2  UNL     1       4.811   2.875  -3.312  1.00  0.00    -0.188 OA
HETATM   13  C19 UNL     1       3.064  -0.297  -2.967  1.00  0.00    -0.002 A 
BRANCH   9  14
HETATM   14  O3  UNL     1       3.854   3.108  -0.760  1.00  0.00    -0.326 OA
HETATM   15  C20 UNL     1       3.213   3.244   0.498  1.00  0.00     0.181 C 
ENDBRANCH   9  14
ENDBRANCH   6   7
ENDBRANCH   3   6
BRANCH   1  16
HETATM   16  C8  UNL     1      -2.180   1.072   0.902  1.00  0.00     0.056 C 
BRANCH  16  17
HETATM   17  C7  UNL     1      -2.244   0.471   2.307  1.00  0.00     0.033 C 
BRANCH  17  18
HETATM   18  C5  UNL     1      -2.941  -0.844   2.307  1.00  0.00    -0.022 A 
HETATM   19  C4  UNL     1      -2.195  -2.035   2.307  1.00  0.00    -0.004 A 
HETATM   20  C3  UNL     1      -2.854  -3.277   2.307  1.00  0.00    -0.000 A 
HETATM   21  C2  UNL     1      -4.258  -3.328   2.307  1.00  0.00    -0.000 A 
HETATM   22  C1  UNL     1      -5.004  -2.137   2.307  1.00  0.00    -0.000 A 
HETATM   23  C6  UNL     1      -4.346  -0.894   2.307  1.00  0.00    -0.004 A 
ENDBRANCH  17  18
ENDBRANCH  16  17
ENDBRANCH   1  16
TORSDOF 6
