REMARK  5 active torsions:
REMARK  status: ('A' for Active; 'I' for Inactive)
REMARK    1  A    between atoms: C1_1  and  C17_23 
REMARK    2  A    between atoms: C7_8  and  O4_14 
REMARK    3  A    between atoms: C13_18  and  C19_25 
REMARK    4  A    between atoms: C19_25  and  C20_26 
REMARK    5  A    between atoms: C20_26  and  C21_27 
ROOT
HETATM    1  C1  UNL     1       0.068   0.021  -1.293  1.00  0.00     0.089 C 
HETATM    2  C2  UNL     1      -0.295  -0.016   0.211  1.00  0.00     0.196 C 
HETATM    3  O1  UNL     1      -1.647   0.408   0.307  1.00  0.00    -0.312 OA
HETATM    4  C3  UNL     1      -2.217  -0.012  -0.830  1.00  0.00     0.099 C 
HETATM    5  C4  UNL     1      -1.234  -0.566  -1.844  1.00  0.00     0.054 C 
HETATM    6  C5  UNL     1      -1.453  -0.109  -3.283  1.00  0.00     0.007 C 
HETATM    7  C6  UNL     1      -3.543   0.053  -1.063  1.00  0.00     0.143 A 
HETATM    8  C7  UNL     1      -4.531   0.588  -0.123  1.00  0.00     0.120 A 
HETATM    9  C8  UNL     1      -5.705   0.471  -0.734  1.00  0.00     0.066 A 
HETATM   10  C9  UNL     1      -5.447  -0.133  -2.039  1.00  0.00     0.298 A 
HETATM   11  O2  UNL     1      -4.133  -0.371  -2.199  1.00  0.00    -0.270 OA
HETATM   12  O3  UNL     1      -6.315  -0.373  -2.846  1.00  0.00    -0.259 OA
HETATM   13  C10 UNL     1      -7.047   0.883  -0.186  1.00  0.00     0.039 C 
HETATM   14  O5  UNL     1      -0.115  -1.322   0.721  1.00  0.00    -0.335 OA
HETATM   15  C12 UNL     1       1.250  -1.635   0.619  1.00  0.00     0.149 C 
HETATM   16  C13 UNL     1       1.910  -0.250   0.797  1.00  0.00     0.221 C 
HETATM   17  N1  UNL     1       2.422   0.139  -0.518  1.00  0.00     0.134 N 
HETATM   18  C14 UNL     1       2.353   1.602  -0.553  1.00  0.00     0.250 C 
HETATM   19  C15 UNL     1       1.297   2.049   0.467  1.00  0.00     0.042 C 
HETATM   20  C16 UNL     1       0.748   0.742   1.047  1.00  0.00     0.086 C 
HETATM   21  C17 UNL     1       1.500  -0.568  -1.430  1.00  0.00     0.227 C 
HETATM   22  C18 UNL     1       1.519  -1.984  -0.854  1.00  0.00     0.065 C 
ENDROOT
BRANCH   8  23
HETATM   23  O4  UNL     1      -4.305   1.088   1.090  1.00  0.00    -0.326 OA
HETATM   24  C11 UNL     1      -4.022   2.479   1.059  1.00  0.00     0.181 C 
ENDBRANCH   8  23
BRANCH  16  25
HETATM   25  C19 UNL     1       3.004  -0.211   1.861  1.00  0.00     0.034 C 
BRANCH  25  26
HETATM   26  C20 UNL     1       4.146  -1.141   1.453  1.00  0.00     0.002 C 
BRANCH  26  27
HETATM   27  C21 UNL     1       5.256  -1.211   2.502  1.00  0.00     0.000 C 
HETATM   28  C22 UNL     1       6.398  -2.141   2.092  1.00  0.00     0.000 C 
ENDBRANCH  26  27
ENDBRANCH  25  26
ENDBRANCH  16  25
TORSDOF 5
