REMARK  5 active torsions:
REMARK  status: ('A' for Active; 'I' for Inactive)
REMARK    1  A    between atoms: C1_1  and  C18_23 
REMARK    2  A    between atoms: C2_2  and  O5_21 
REMARK    3  A    between atoms: C6_6  and  O1_7 
REMARK    4  A    between atoms: C9_10  and  C11_13 
REMARK    5  A    between atoms: C18_23  and  C19_24 
ROOT
HETATM    1  C1  UNL     1       1.795  -0.346   0.174  1.00  0.00     0.027 A 
HETATM    2  C2  UNL     1       1.486  -1.701  -0.100  1.00  0.00     0.094 A 
HETATM    3  C3  UNL     1       0.143  -2.141  -0.068  1.00  0.00     0.048 A 
HETATM    4  C4  UNL     1      -0.898  -1.234   0.236  1.00  0.00     0.094 A 
HETATM    5  C5  UNL     1      -0.594   0.133   0.498  1.00  0.00     0.023 A 
HETATM    6  C6  UNL     1       0.758   0.570   0.473  1.00  0.00     0.090 A 
HETATM    7  C8  UNL     1      -1.689   1.092   0.797  1.00  0.00     0.037 C 
HETATM    8  C9  UNL     1      -3.076   0.578   0.353  1.00  0.00     0.059 C 
HETATM    9  C10 UNL     1      -3.230  -0.889   0.793  1.00  0.00     0.153 C 
HETATM   10  O2  UNL     1      -2.170  -1.693   0.262  1.00  0.00    -0.331 OA
ENDROOT
BRANCH   8  11
HETATM   11  C11 UNL     1      -3.295   0.736  -1.115  1.00  0.00     0.006 A 
HETATM   12  C12 UNL     1      -3.406   2.022  -1.682  1.00  0.00     0.129 A 
HETATM   13  C13 UNL     1      -3.611   2.154  -3.066  1.00  0.00     0.054 A 
HETATM   14  O4  UNL     1      -3.318   3.098  -0.928  1.00  0.00    -0.190 OA
HETATM   15  C14 UNL     1      -3.707   1.014  -3.885  1.00  0.00     0.133 A 
HETATM   16  C15 UNL     1      -3.596  -0.264  -3.315  1.00  0.00     0.027 A 
HETATM   17  O3  UNL     1      -3.900   1.147  -5.182  1.00  0.00    -0.190 OA
HETATM   18  C16 UNL     1      -3.391  -0.404  -1.932  1.00  0.00    -0.000 A 
ENDBRANCH   8  11
BRANCH   6  19
HETATM   19  O1  UNL     1       1.051   1.854   0.730  1.00  0.00    -0.329 OA
HETATM   20  C7  UNL     1       1.225   2.733  -0.371  1.00  0.00     0.181 C 
ENDBRANCH   6  19
BRANCH   1  21
HETATM   21  C18 UNL     1       3.197   0.109   0.146  1.00  0.00     0.056 C 
BRANCH  21  22
HETATM   22  C19 UNL     1       3.606   0.762   1.439  1.00  0.00    -0.030 C 
HETATM   23  C20 UNL     1       3.688   0.002   2.543  1.00  0.00    -0.048 C 
HETATM   24  C21 UNL     1       3.432  -1.480   2.598  1.00  0.00     0.026 C 
HETATM   25  C22 UNL     1       4.065   0.660   3.842  1.00  0.00     0.026 C 
ENDBRANCH  21  22
ENDBRANCH   1  21
BRANCH   2  26
HETATM   26  O5  UNL     1       2.461  -2.574  -0.387  1.00  0.00    -0.328 OA
HETATM   27  C17 UNL     1       2.098  -3.930  -0.604  1.00  0.00     0.181 C 
ENDBRANCH   2  26
TORSDOF 5
