REMARK  4 active torsions:
REMARK  status: ('A' for Active; 'I' for Inactive)
REMARK    1  A    between atoms: C1_1  and  O9_24 
REMARK    2  A    between atoms: C2_2  and  O8_22 
REMARK    3  A    between atoms: C3_3  and  O7_20 
REMARK    4  A    between atoms: C10_12  and  C13_17 
ROOT
HETATM    1  C1  UNL     1       3.346   0.430   0.219  1.00  0.00     0.118 A 
HETATM    2  C2  UNL     1       2.684  -0.814   0.107  1.00  0.00     0.138 A 
HETATM    3  C3  UNL     1       1.287  -0.863  -0.125  1.00  0.00     0.117 A 
HETATM    4  C4  UNL     1       0.537   0.346  -0.236  1.00  0.00     0.037 A 
HETATM    5  C5  UNL     1       1.219   1.588  -0.135  1.00  0.00     0.066 A 
HETATM    6  C6  UNL     1       2.615   1.631   0.094  1.00  0.00     0.031 A 
HETATM    7  C7  UNL     1       0.434   2.846  -0.281  1.00  0.00     0.296 C 
HETATM    8  O1  UNL     1      -0.906   2.848  -0.371  1.00  0.00    -0.295 OA
HETATM    9  C8  UNL     1      -1.572   1.674   0.117  1.00  0.00     0.189 C 
HETATM   10  C9  UNL     1      -0.937   0.389  -0.483  1.00  0.00     0.170 C 
HETATM   11  O2  UNL     1      -1.637  -0.727   0.070  1.00  0.00    -0.347 OA
HETATM   12  C10 UNL     1      -3.016  -0.805  -0.277  1.00  0.00     0.181 C 
HETATM   13  C11 UNL     1      -3.760   0.443   0.250  1.00  0.00     0.214 C 
HETATM   14  C12 UNL     1      -3.072   1.750  -0.203  1.00  0.00     0.215 C 
HETATM   15  O3  UNL     1      -3.639   2.861   0.469  1.00  0.00    -0.218 OA
HETATM   16  O4  UNL     1      -5.094   0.414  -0.231  1.00  0.00    -0.218 OA
HETATM   17  O6  UNL     1       0.959   3.936  -0.336  1.00  0.00    -0.259 OA
ENDROOT
BRANCH   1  18
HETATM   18  O9  UNL     1       4.666   0.473   0.441  1.00  0.00    -0.326 OA
HETATM   19  C16 UNL     1       5.293   1.746   0.498  1.00  0.00     0.181 C 
ENDBRANCH   1  18
BRANCH   2  20
HETATM   20  O8  UNL     1       3.383  -1.953   0.221  1.00  0.00    -0.324 OA
HETATM   21  C15 UNL     1       4.401  -2.016   1.207  1.00  0.00     0.182 C 
ENDBRANCH   2  20
BRANCH   3  22
HETATM   22  O7  UNL     1       0.697  -2.061  -0.248  1.00  0.00    -0.326 OA
HETATM   23  C14 UNL     1       0.414  -2.533  -1.557  1.00  0.00     0.181 C 
ENDBRANCH   3  22
BRANCH  12  24
HETATM   24  C13 UNL     1      -3.549  -2.111   0.320  1.00  0.00     0.214 C 
HETATM   25  O5  UNL     1      -4.699  -2.488  -0.404  1.00  0.00    -0.218 OA
ENDBRANCH  12  24
TORSDOF 4
