REMARK  8 active torsions:
REMARK  status: ('A' for Active; 'I' for Inactive)
REMARK    1  A    between atoms: C4_4  and  C7_7 
REMARK    2  A    between atoms: C7_7  and  C8_8 
REMARK    3  A    between atoms: C8_8  and  C9_9 
REMARK    4  A    between atoms: C9_9  and  C10_10 
REMARK    5  A    between atoms: C10_10  and  C11_11 
REMARK    6  A    between atoms: C11_11  and  C12_12 
REMARK    7  A    between atoms: C12_12  and  C13_13 
REMARK    8  A    between atoms: C13_13  and  C14_14 
ROOT
HETATM    1  C9  UNL     1      -0.963   1.066   0.207  1.00  0.00     0.155 C 
HETATM    2  O2  UNL     1      -2.145   0.578   0.797  1.00  0.00    -0.223 OA
ENDROOT
BRANCH   1   3
HETATM    3  C8  UNL     1      -1.297   1.549  -1.207  1.00  0.00     0.038 C 
BRANCH   3   4
HETATM    4  C7  UNL     1      -2.154   2.814  -1.211  1.00  0.00     0.029 C 
BRANCH   4   5
HETATM    5  C4  UNL     1      -2.402   3.301  -2.592  1.00  0.00    -0.022 A 
HETATM    6  C3  UNL     1      -1.520   4.221  -3.186  1.00  0.00    -0.002 A 
HETATM    7  C2  UNL     1      -1.756   4.682  -4.492  1.00  0.00     0.027 A 
HETATM    8  C1  UNL     1      -2.875   4.225  -5.211  1.00  0.00     0.131 A 
HETATM    9  C6  UNL     1      -3.756   3.305  -4.615  1.00  0.00     0.027 A 
HETATM   10  O3  UNL     1      -3.096   4.656  -6.436  1.00  0.00    -0.190 OA
HETATM   11  C5  UNL     1      -3.521   2.844  -3.309  1.00  0.00    -0.002 A 
ENDBRANCH   4   5
ENDBRANCH   3   4
ENDBRANCH   1   3
BRANCH   1  12
HETATM   12  C10 UNL     1       0.076  -0.055   0.217  1.00  0.00     0.066 C 
BRANCH  12  13
HETATM   13  C11 UNL     1       0.547  -0.410   1.627  1.00  0.00     0.155 C 
HETATM   14  O1  UNL     1       1.299   0.672   2.129  1.00  0.00    -0.223 OA
BRANCH  13  15
HETATM   15  C12 UNL     1       1.428  -1.658   1.658  1.00  0.00     0.038 C 
BRANCH  15  16
HETATM   16  C13 UNL     1       1.711  -2.145   3.080  1.00  0.00     0.029 C 
BRANCH  16  17
HETATM   17  C14 UNL     1       2.500  -3.404   3.080  1.00  0.00    -0.022 A 
HETATM   18  C15 UNL     1       1.844  -4.649   3.080  1.00  0.00    -0.004 A 
HETATM   19  C16 UNL     1       2.590  -5.838   3.080  1.00  0.00    -0.000 A 
HETATM   20  C17 UNL     1       3.994  -5.787   3.080  1.00  0.00    -0.000 A 
HETATM   21  C18 UNL     1       4.652  -4.547   3.080  1.00  0.00    -0.000 A 
HETATM   22  C19 UNL     1       3.906  -3.356   3.080  1.00  0.00    -0.004 A 
ENDBRANCH  16  17
ENDBRANCH  15  16
ENDBRANCH  13  15
ENDBRANCH  12  13
ENDBRANCH   1  12
TORSDOF 8
