REMARK  16 active torsions:
REMARK  status: ('A' for Active; 'I' for Inactive)
REMARK    1  A    between atoms: C1_1  and  C2_2 
REMARK    2  A    between atoms: C1_1  and  C18_18 
REMARK    3  A    between atoms: C2_2  and  C3_3 
REMARK    4  A    between atoms: C3_3  and  C4_4 
REMARK    5  A    between atoms: C4_4  and  C5_5 
REMARK    6  A    between atoms: C5_5  and  C6_6 
REMARK    7  A    between atoms: C6_6  and  C7_7 
REMARK    8  A    between atoms: C8_8  and  C9_9 
REMARK    9  A    between atoms: C9_9  and  C10_10 
REMARK   10  A    between atoms: C10_10  and  C11_11 
REMARK   11  A    between atoms: C11_11  and  C12_12 
REMARK   12  A    between atoms: C12_12  and  C13_13 
REMARK   13  A    between atoms: C13_13  and  C14_14 
REMARK   14  A    between atoms: C14_14  and  C15_15 
REMARK   15  A    between atoms: C18_18  and  C19_19 
REMARK   16  A    between atoms: C19_19  and  O2_21 
ROOT
HETATM    1  C7  UNL     1       1.650  -0.096   3.170  1.00  0.00    -0.048 A 
HETATM    2  C8  UNL     1       1.832  -1.418   3.213  1.00  0.00    -0.048 A 
HETATM    3  C17 UNL     1       3.094  -0.572   3.303  1.00  0.00     0.043 A 
ENDROOT
BRANCH   1   4
HETATM    4  C6  UNL     1       0.244   0.451   3.037  1.00  0.00     0.022 C 
BRANCH   4   5
HETATM    5  C5  UNL     1       0.227   1.916   2.602  1.00  0.00     0.004 C 
BRANCH   5   6
HETATM    6  C4  UNL     1       0.811   2.125   1.203  1.00  0.00     0.000 C 
BRANCH   6   7
HETATM    7  C3  UNL     1       0.756   3.584   0.752  1.00  0.00     0.000 C 
BRANCH   7   8
HETATM    8  C2  UNL     1       1.342   3.793  -0.645  1.00  0.00     0.001 C 
BRANCH   8   9
HETATM    9  C1  UNL     1       1.287   5.252  -1.096  1.00  0.00     0.010 C 
BRANCH   9  10
HETATM   10  C18 UNL     1       1.875   5.461  -2.492  1.00  0.00     0.096 C 
BRANCH  10  11
HETATM   11  C19 UNL     1       1.809   6.899  -2.934  1.00  0.00     0.272 C 
HETATM   12  O1  UNL     1       1.358   7.752  -2.207  1.00  0.00    -0.264 OA
BRANCH  11  13
HETATM   13  O2  UNL     1       2.275   7.135  -4.156  1.00  0.00    -0.299 OA
HETATM   14  C20 UNL     1       2.186   8.508  -4.512  1.00  0.00     0.184 C 
ENDBRANCH  11  13
ENDBRANCH  10  11
ENDBRANCH   9  10
ENDBRANCH   8   9
ENDBRANCH   7   8
ENDBRANCH   6   7
ENDBRANCH   5   6
ENDBRANCH   4   5
ENDBRANCH   1   4
BRANCH   2  15
HETATM   15  C9  UNL     1       0.615  -2.328   3.131  1.00  0.00     0.022 C 
BRANCH  15  16
HETATM   16  C10 UNL     1       0.361  -2.836   1.711  1.00  0.00     0.004 C 
BRANCH  16  17
HETATM   17  C11 UNL     1      -0.859  -3.752   1.621  1.00  0.00     0.000 C 
BRANCH  17  18
HETATM   18  C12 UNL     1      -1.115  -4.258   0.199  1.00  0.00     0.000 C 
BRANCH  18  19
HETATM   19  C13 UNL     1      -2.336  -5.174   0.109  1.00  0.00     0.000 C 
BRANCH  19  20
HETATM   20  C14 UNL     1      -2.590  -5.678  -1.311  1.00  0.00     0.000 C 
BRANCH  20  21
HETATM   21  C15 UNL     1      -3.812  -6.594  -1.400  1.00  0.00     0.000 C 
HETATM   22  C16 UNL     1      -4.066  -7.100  -2.822  1.00  0.00     0.000 C 
ENDBRANCH  20  21
ENDBRANCH  19  20
ENDBRANCH  18  19
ENDBRANCH  17  18
ENDBRANCH  16  17
ENDBRANCH  15  16
ENDBRANCH   2  15
TORSDOF 16
