REMARK  4 active torsions:
REMARK  status: ('A' for Active; 'I' for Inactive)
REMARK    1  A    between atoms: C9_11  and  C22_26 
REMARK    2  A    between atoms: C16_20  and  C17_21 
REMARK    3  A    between atoms: C17_21  and  C18_22 
REMARK    4  A    between atoms: C22_26  and  C23_27 
ROOT
HETATM    1  C1  UNL     1       3.209   1.240   0.385  1.00  0.00     0.005 A 
HETATM    2  C2  UNL     1       2.008   0.725  -0.160  1.00  0.00     0.061 A 
HETATM    3  C3  UNL     1       1.258  -0.236   0.494  1.00  0.00     0.008 A 
HETATM    4  C4  UNL     1       1.715  -0.721   1.746  1.00  0.00    -0.002 A 
HETATM    5  C5  UNL     1       2.912  -0.227   2.318  1.00  0.00    -0.000 A 
HETATM    6  C6  UNL     1       3.662   0.760   1.635  1.00  0.00     0.000 A 
HETATM    7  C7  UNL     1       0.045  -0.533  -0.387  1.00  0.00     0.129 A 
HETATM    8  O1  UNL     1       0.248   0.346  -1.543  1.00  0.00    -0.298 OA
HETATM    9  C8  UNL     1       1.379   1.078  -1.414  1.00  0.00     0.296 A 
HETATM   10  O2  UNL     1       1.816   1.894  -2.189  1.00  0.00    -0.259 OA
HETATM   11  C9  UNL     1       0.008  -2.041  -0.836  1.00  0.00     0.034 C 
HETATM   12  C10 UNL     1      -1.400  -2.631  -0.541  1.00  0.00     0.025 C 
HETATM   13  C11 UNL     1      -1.656  -2.477   0.949  1.00  0.00    -0.025 C 
HETATM   14  C12 UNL     1      -1.604  -1.190   1.334  1.00  0.00     0.045 A 
HETATM   15  C13 UNL     1      -1.313  -0.168   0.291  1.00  0.00     0.090 A 
HETATM   16  C14 UNL     1      -1.391   1.043   1.199  1.00  0.00     0.082 A 
HETATM   17  O3  UNL     1      -1.645   0.789   2.502  1.00  0.00    -0.278 OA
HETATM   18  C15 UNL     1      -1.779  -0.541   2.623  1.00  0.00     0.296 A 
HETATM   19  O4  UNL     1      -2.012  -1.139   3.647  1.00  0.00    -0.259 OA
HETATM   20  C16 UNL     1      -1.217   2.289   0.719  1.00  0.00    -0.005 C 
HETATM   21  C20 UNL     1      -2.420  -0.295  -0.783  1.00  0.00     0.013 C 
HETATM   22  C21 UNL     1      -2.457  -1.770  -1.279  1.00  0.00     0.005 C 
ENDROOT
BRANCH  11  23
HETATM   23  C22 UNL     1       0.408  -2.223  -2.307  1.00  0.00     0.003 C 
BRANCH  23  24
HETATM   24  C23 UNL     1       0.494  -3.694  -2.717  1.00  0.00     0.000 C 
HETATM   25  C24 UNL     1       1.090  -3.883  -4.113  1.00  0.00     0.000 C 
ENDBRANCH  23  24
ENDBRANCH  11  23
BRANCH  20  26
HETATM   26  C17 UNL     1      -1.287   3.488   1.627  1.00  0.00     0.028 C 
BRANCH  26  27
HETATM   27  C18 UNL     1      -0.049   4.379   1.516  1.00  0.00     0.005 C 
HETATM   28  C19 UNL     1      -0.119   5.603   2.426  1.00  0.00     0.000 C 
ENDBRANCH  26  27
ENDBRANCH  20  26
TORSDOF 4
