REMARK  4 active torsions:
REMARK  status: ('A' for Active; 'I' for Inactive)
REMARK    1  A    between atoms: C4_5  and  C5_6 
REMARK    2  A    between atoms: C9_10  and  O2_12 
REMARK    3  A    between atoms: C13_17  and  C14_18 
REMARK    4  A    between atoms: C18_22  and  O5_24 
ROOT
HETATM    1  O1  UNL     1      -2.106   0.494   0.074  1.00  0.00    -0.349 OA
HETATM    2  C1  UNL     1      -1.156   1.410  -0.420  1.00  0.00     0.148 C 
HETATM    3  C2  UNL     1       0.115   1.084   0.375  1.00  0.00     0.094 C 
HETATM    4  C3  UNL     1      -0.172  -0.275   1.065  1.00  0.00     0.187 C 
HETATM    5  C4  UNL     1      -1.473  -0.729   0.367  1.00  0.00     0.168 C 
HETATM    6  C12 UNL     1       1.068  -1.139   0.785  1.00  0.00     0.176 C 
HETATM    7  O4  UNL     1       2.008  -0.213   0.291  1.00  0.00    -0.349 OA
HETATM    8  C13 UNL     1       1.350   0.762  -0.478  1.00  0.00     0.143 C 
HETATM    9  O7  UNL     1      -0.330  -0.068   2.463  1.00  0.00    -0.220 OA
ENDROOT
BRANCH   5  10
HETATM   10  C5  UNL     1      -2.373  -1.623   1.149  1.00  0.00     0.009 A 
HETATM   11  C6  UNL     1      -3.158  -1.098   2.190  1.00  0.00     0.000 A 
HETATM   12  C7  UNL     1      -4.006  -1.945   2.924  1.00  0.00     0.029 A 
HETATM   13  C8  UNL     1      -4.074  -3.316   2.621  1.00  0.00     0.153 A 
HETATM   14  C9  UNL     1      -3.287  -3.842   1.578  1.00  0.00     0.119 A 
HETATM   15  O3  UNL     1      -4.871  -4.104   3.315  1.00  0.00    -0.188 OA
HETATM   16  C10 UNL     1      -2.440  -2.994   0.846  1.00  0.00     0.025 A 
BRANCH  14  17
HETATM   17  O2  UNL     1      -3.344  -5.127   1.289  1.00  0.00    -0.326 OA
HETATM   18  C11 UNL     1      -2.531  -5.608   0.227  1.00  0.00     0.181 C 
ENDBRANCH  14  17
ENDBRANCH   5  10
BRANCH   8  19
HETATM   19  C14 UNL     1       2.242   1.928  -0.723  1.00  0.00     0.007 A 
HETATM   20  C15 UNL     1       2.830   2.604   0.361  1.00  0.00     0.000 A 
HETATM   21  C16 UNL     1       3.672   3.703   0.129  1.00  0.00     0.029 A 
HETATM   22  C17 UNL     1       3.932   4.131  -1.185  1.00  0.00     0.153 A 
HETATM   23  C18 UNL     1       3.344   3.455  -2.271  1.00  0.00     0.119 A 
HETATM   24  O6  UNL     1       4.723   5.164  -1.396  1.00  0.00    -0.188 OA
HETATM   25  C19 UNL     1       2.500   2.354  -2.037  1.00  0.00     0.024 A 
BRANCH  23  26
HETATM   26  O5  UNL     1       3.580   3.848  -3.506  1.00  0.00    -0.326 OA
HETATM   27  C20 UNL     1       3.031   3.082  -4.568  1.00  0.00     0.181 C 
ENDBRANCH  23  26
ENDBRANCH   8  19
TORSDOF 4
