REMARK  3 active torsions:
REMARK  status: ('A' for Active; 'I' for Inactive)
REMARK    1  A    between atoms: C7_7  and  C12_12 
REMARK    2  A    between atoms: C12_12  and  C13_13 
REMARK    3  A    between atoms: C13_13  and  C14_14 
ROOT
HETATM    1  C1  UNL     1      -2.891  -1.697   0.271  1.00  0.00    -0.026 C 
HETATM    2  C2  UNL     1      -2.574  -3.006   0.215  1.00  0.00    -0.009 C 
HETATM    3  C3  UNL     1      -1.193  -3.492   0.400  1.00  0.00    -0.023 C 
HETATM    4  C4  UNL     1      -0.066  -2.482   0.584  1.00  0.00     0.023 C 
HETATM    5  C5  UNL     1      -0.430  -1.080   0.025  1.00  0.00     0.011 C 
HETATM    6  C6  UNL     1      -1.826  -0.662   0.545  1.00  0.00     0.027 C 
HETATM    7  C7  UNL     1       0.635  -0.055   0.502  1.00  0.00     0.019 C 
HETATM    8  C8  UNL     1       2.055  -0.563   0.346  1.00  0.00    -0.044 C 
HETATM    9  C9  UNL     1       2.276  -1.867  -0.385  1.00  0.00     0.022 C 
HETATM   10  C10 UNL     1       1.309  -2.981   0.060  1.00  0.00     0.009 C 
HETATM   11  C11 UNL     1       3.096   0.125   0.851  1.00  0.00    -0.009 C 
HETATM   12  C18 UNL     1      -0.474  -1.127  -1.516  1.00  0.00     0.001 C 
HETATM   13  C19 UNL     1      -0.935  -4.815   0.412  1.00  0.00    -0.005 C 
ENDROOT
BRANCH   7  14
HETATM   14  C12 UNL     1       0.469   1.311  -0.176  1.00  0.00     0.009 C 
BRANCH  14  15
HETATM   15  C13 UNL     1       0.096   2.418   0.810  1.00  0.00     0.032 C 
BRANCH  15  16
HETATM   16  C14 UNL     1      -0.185   3.729   0.123  1.00  0.00     0.039 A 
HETATM   17  C15 UNL     1      -1.482   4.375   0.025  1.00  0.00     0.292 A 
HETATM   18  O1  UNL     1      -1.371   5.524  -0.653  1.00  0.00    -0.294 OA
HETATM   19  O2  UNL     1      -2.498   3.924   0.498  1.00  0.00    -0.260 OA
HETATM   20  C16 UNL     1       0.004   5.701  -1.039  1.00  0.00     0.178 A 
HETATM   21  C17 UNL     1       0.717   4.486  -0.498  1.00  0.00     0.007 A 
ENDBRANCH  15  16
ENDBRANCH  14  15
ENDBRANCH   7  14
TORSDOF 3
