REMARK  2 active torsions:
REMARK  status: ('A' for Active; 'I' for Inactive)
REMARK    1  A    between atoms: C3_3  and  C20_23 
REMARK    2  A    between atoms: C9_9  and  C10_10 
ROOT
HETATM    1  C1  UNL     1      -3.258   0.793   1.182  1.00  0.00     0.153 C 
HETATM    2  C2  UNL     1      -3.393   0.725  -0.354  1.00  0.00     0.043 C 
HETATM    3  C3  UNL     1      -2.451  -0.305  -1.043  1.00  0.00     0.081 C 
HETATM    4  C4  UNL     1      -1.190  -0.539  -0.166  1.00  0.00     0.020 C 
HETATM    5  C5  UNL     1      -0.750   0.734   0.576  1.00  0.00     0.004 C 
HETATM    6  C6  UNL     1      -1.803   1.063   1.656  1.00  0.00     0.033 C 
HETATM    7  C7  UNL     1       0.582   0.232   1.150  1.00  0.00     0.001 C 
HETATM    8  C8  UNL     1       1.254  -0.523  -0.024  1.00  0.00     0.016 C 
HETATM    9  C9  UNL     1       0.078  -1.121  -0.828  1.00  0.00     0.088 C 
HETATM   10  C11 UNL     1       2.111   0.404  -0.916  1.00  0.00     0.035 C 
HETATM   11  C12 UNL     1       3.205   0.828   0.064  1.00  0.00     0.142 C 
HETATM   12  C13 UNL     1       2.584   1.885   0.996  1.00  0.00     0.034 C 
HETATM   13  C14 UNL     1       1.473   1.268   1.867  1.00  0.00     0.003 C 
HETATM   14  C15 UNL     1       3.520  -0.482   0.734  1.00  0.00    -0.017 C 
HETATM   15  C16 UNL     1       2.375  -1.437   0.523  1.00  0.00     0.025 C 
HETATM   16  C17 UNL     1       4.639  -0.770   1.422  1.00  0.00    -0.007 C 
HETATM   17  O3  UNL     1       4.307   1.371  -0.641  1.00  0.00    -0.222 OA
HETATM   18  C18 UNL     1      -0.549   1.922  -0.367  1.00  0.00     0.000 C 
HETATM   19  C19 UNL     1      -3.131  -1.674  -1.174  1.00  0.00     0.011 C 
HETATM   20  O6  UNL     1      -3.731  -0.422   1.734  1.00  0.00    -0.223 OA
ENDROOT
BRANCH   3  21
HETATM   21  C20 UNL     1      -2.133   0.174  -2.442  1.00  0.00     0.184 C 
HETATM   22  O4  UNL     1      -2.268   1.336  -2.746  1.00  0.00    -0.647 OA
HETATM   23  O5  UNL     1      -1.703  -0.768  -3.278  1.00  0.00    -0.647 OA
ENDBRANCH   3  21
BRANCH   9  24
HETATM   24  C10 UNL     1       0.060  -2.631  -0.873  1.00  0.00     0.185 C 
HETATM   25  O1  UNL     1      -0.031  -3.283   0.140  1.00  0.00    -0.647 OA
HETATM   26  O2  UNL     1       0.152  -3.162  -2.088  1.00  0.00    -0.647 OA
ENDBRANCH   9  24
TORSDOF 2
