REMARK  5 active torsions:
REMARK  status: ('A' for Active; 'I' for Inactive)
REMARK    1  A    between atoms: C4_4  and  C13_17 
REMARK    2  A    between atoms: C5_6  and  C6_7 
REMARK    3  A    between atoms: C10_11  and  O2_13 
REMARK    4  A    between atoms: C13_17  and  C14_18 
REMARK    5  A    between atoms: C14_18  and  C15_19 
ROOT
HETATM    1  C1  UNL     1       0.637   2.900  -0.799  1.00  0.00     0.067 C 
HETATM    2  C2  UNL     1      -0.805   3.223  -1.229  1.00  0.00     0.157 C 
HETATM    3  C3  UNL     1      -1.775   2.187  -0.637  1.00  0.00     0.063 C 
HETATM    4  C4  UNL     1      -1.303   0.740  -0.883  1.00  0.00     0.119 C 
HETATM    5  O1  UNL     1       0.029   0.584  -0.403  1.00  0.00    -0.355 OA
HETATM    6  C5  UNL     1       0.996   1.416  -1.031  1.00  0.00     0.140 C 
HETATM    7  O7  UNL     1      -0.891   3.193  -2.641  1.00  0.00    -0.223 OA
ENDROOT
BRANCH   4   8
HETATM    8  C13 UNL     1      -2.174  -0.285  -0.153  1.00  0.00     0.034 C 
BRANCH   8   9
HETATM    9  C14 UNL     1      -1.867  -1.723  -0.571  1.00  0.00     0.029 C 
BRANCH   9  10
HETATM   10  C15 UNL     1      -2.729  -2.697   0.152  1.00  0.00    -0.020 A 
HETATM   11  C16 UNL     1      -2.459  -3.018   1.494  1.00  0.00    -0.002 A 
HETATM   12  C17 UNL     1      -3.273  -3.938   2.174  1.00  0.00     0.029 A 
HETATM   13  C18 UNL     1      -4.359  -4.541   1.515  1.00  0.00     0.156 A 
HETATM   14  C19 UNL     1      -4.631  -4.221   0.172  1.00  0.00     0.156 A 
HETATM   15  O6  UNL     1      -5.119  -5.404   2.160  1.00  0.00    -0.188 OA
HETATM   16  C20 UNL     1      -3.814  -3.301  -0.506  1.00  0.00     0.025 A 
HETATM   17  O5  UNL     1      -5.647  -4.783  -0.451  1.00  0.00    -0.188 OA
ENDBRANCH   9  10
ENDBRANCH   8   9
ENDBRANCH   4   8
BRANCH   6  18
HETATM   18  C6  UNL     1       2.340   1.078  -0.494  1.00  0.00     0.009 A 
HETATM   19  C7  UNL     1       2.795  -0.252  -0.518  1.00  0.00     0.028 A 
HETATM   20  C8  UNL     1       4.065  -0.574  -0.010  1.00  0.00     0.158 A 
HETATM   21  C9  UNL     1       4.885   0.439   0.523  1.00  0.00     0.178 A 
HETATM   22  O4  UNL     1       4.486  -1.822  -0.035  1.00  0.00    -0.188 OA
HETATM   23  C10 UNL     1       4.430   1.771   0.549  1.00  0.00     0.121 A 
HETATM   24  O3  UNL     1       6.076   0.141   1.002  1.00  0.00    -0.186 OA
HETATM   25  C11 UNL     1       3.158   2.088   0.039  1.00  0.00     0.025 A 
BRANCH  23  26
HETATM   26  O2  UNL     1       5.193   2.723   1.047  1.00  0.00    -0.326 OA
HETATM   27  C12 UNL     1       4.754   4.066   0.920  1.00  0.00     0.181 C 
ENDBRANCH  23  26
ENDBRANCH   6  18
TORSDOF 5
