REMARK  2 active torsions:
REMARK  status: ('A' for Active; 'I' for Inactive)
REMARK    1  A    between atoms: C12_12  and  C16_16 
REMARK    2  A    between atoms: C16_16  and  C17_17 
ROOT
HETATM    1  C1  UNL     1       3.352   1.557  -0.922  1.00  0.00     0.033 C 
HETATM    2  C2  UNL     1       3.941   0.272  -0.326  1.00  0.00     0.152 C 
HETATM    3  C3  UNL     1       3.113  -0.990  -0.727  1.00  0.00     0.028 C 
HETATM    4  C4  UNL     1       1.641  -0.633  -1.125  1.00  0.00     0.005 C 
HETATM    5  C5  UNL     1       1.021   0.551  -0.318  1.00  0.00     0.029 C 
HETATM    6  C6  UNL     1       1.922   1.824  -0.426  1.00  0.00     0.005 C 
HETATM    7  C7  UNL     1      -0.443   0.865  -0.793  1.00  0.00     0.141 C 
HETATM    8  C8  UNL     1      -1.299  -0.394  -0.863  1.00  0.00    -0.021 C 
HETATM    9  C9  UNL     1      -0.697  -1.586  -1.578  1.00  0.00     0.024 C 
HETATM   10  C10 UNL     1       0.723  -1.879  -1.100  1.00  0.00     0.005 C 
HETATM   11  C11 UNL     1      -2.543  -0.478  -0.340  1.00  0.00    -0.030 C 
HETATM   12  C12 UNL     1      -3.231   0.676   0.357  1.00  0.00     0.049 C 
HETATM   13  C13 UNL     1      -2.617   2.018  -0.070  1.00  0.00     0.009 C 
HETATM   14  C14 UNL     1      -1.092   1.988   0.064  1.00  0.00     0.035 C 
HETATM   15  C15 UNL     1      -4.721   0.652   0.002  1.00  0.00     0.007 C 
HETATM   16  O3  UNL     1      -0.406   1.356  -2.125  1.00  0.00    -0.222 OA
HETATM   17  C18 UNL     1       0.973   0.111   1.158  1.00  0.00     0.003 C 
HETATM   18  C19 UNL     1       3.781  -1.625  -1.955  1.00  0.00     0.003 C 
HETATM   19  C20 UNL     1       3.162  -2.060   0.381  1.00  0.00     0.003 C 
HETATM   20  O4  UNL     1       4.022   0.443   1.080  1.00  0.00    -0.224 OA
ENDROOT
BRANCH  12  21
HETATM   21  C16 UNL     1      -3.078   0.475   1.869  1.00  0.00     0.189 C 
HETATM   22  O2  UNL     1      -3.635   1.594   2.522  1.00  0.00    -0.220 OA
BRANCH  21  23
HETATM   23  C17 UNL     1      -3.797  -0.777   2.373  1.00  0.00     0.215 C 
HETATM   24  O1  UNL     1      -3.375  -1.025   3.695  1.00  0.00    -0.218 OA
ENDBRANCH  21  23
ENDBRANCH  12  21
TORSDOF 2
