REMARK  0 active torsions:
REMARK  status: ('A' for Active; 'I' for Inactive)
ROOT
HETATM    1  C1  UNL     1      -6.074  -0.312   1.238  1.00  0.00     0.033 C 
HETATM    2  C2  UNL     1      -6.871   0.580   0.269  1.00  0.00     0.153 C 
HETATM    3  C3  UNL     1      -6.160   0.744  -1.088  1.00  0.00     0.040 C 
HETATM    4  C4  UNL     1      -4.719   1.252  -0.899  1.00  0.00     0.060 C 
HETATM    5  C5  UNL     1      -3.916   0.305   0.035  1.00  0.00     0.007 C 
HETATM    6  C6  UNL     1      -4.629   0.186   1.398  1.00  0.00     0.003 C 
HETATM    7  C7  UNL     1      -2.525   0.949   0.225  1.00  0.00     0.005 C 
HETATM    8  C8  UNL     1      -1.781   1.076  -1.127  1.00  0.00     0.011 C 
HETATM    9  C9  UNL     1      -2.559   1.992  -2.076  1.00  0.00     0.065 C 
HETATM   10  C10 UNL     1      -3.990   1.522  -2.203  1.00  0.00     0.150 C 
HETATM   11  O1  UNL     1      -4.512   1.365  -3.283  1.00  0.00    -0.296 OA
HETATM   12  C11 UNL     1      -0.363   1.479  -0.693  1.00  0.00     0.015 C 
HETATM   13  C12 UNL     1      -0.184   0.568   0.488  1.00  0.00    -0.051 C 
HETATM   14  C13 UNL     1      -1.508   0.229   1.117  1.00  0.00     0.021 C 
HETATM   15  C14 UNL     1       1.014   0.092   0.891  1.00  0.00    -0.028 C 
HETATM   16  C15 UNL     1       2.279   0.340   0.076  1.00  0.00     0.109 C 
HETATM   17  C16 UNL     1       2.082   1.379  -1.059  1.00  0.00     0.032 C 
HETATM   18  C17 UNL     1       0.713   1.231  -1.752  1.00  0.00     0.006 C 
HETATM   19  C18 UNL     1       3.527   0.650   0.967  1.00  0.00     0.065 C 
HETATM   20  C19 UNL     1       4.195  -0.734   1.041  1.00  0.00     0.286 C 
HETATM   21  C20 UNL     1       3.951  -1.201  -0.381  1.00  0.00     0.149 C 
HETATM   22  C21 UNL     1       4.277  -2.688  -0.488  1.00  0.00     0.034 C 
HETATM   23  C22 UNL     1       5.768  -2.832  -0.102  1.00  0.00     0.039 C 
HETATM   24  C23 UNL     1       6.090  -2.191   1.273  1.00  0.00     0.290 C 
HETATM   25  N1  UNL     1       5.623  -0.799   1.367  1.00  0.00     0.340 N 
HETATM   26  C24 UNL     1       6.201  -4.299  -0.137  1.00  0.00     0.002 C 
HETATM   27  O2  UNL     1       2.588  -0.900  -0.545  1.00  0.00    -0.356 OA
HETATM   28  C25 UNL     1       4.477   1.705   0.385  1.00  0.00     0.005 C 
HETATM   29  C26 UNL     1       1.104  -0.732   2.154  1.00  0.00     0.028 C 
HETATM   30  C27 UNL     1      -0.361   2.940  -0.233  1.00  0.00     0.004 C 
HETATM   31  C28 UNL     1      -3.742  -1.092  -0.588  1.00  0.00     0.000 C 
HETATM   32  O3  UNL     1      -8.150   0.018   0.062  1.00  0.00    -0.223 OA
ENDROOT
TORSDOF 0
