REMARK  2 active torsions:
REMARK  status: ('A' for Active; 'I' for Inactive)
REMARK    1  A    between atoms: C1_1  and  O5_24 
REMARK    2  A    between atoms: C13_16  and  C14_17 
ROOT
HETATM    1  C1  UNL     1       1.631  -1.973  -1.496  1.00  0.00     0.143 C 
HETATM    2  C2  UNL     1       0.748  -2.807  -0.543  1.00  0.00     0.034 C 
HETATM    3  C3  UNL     1      -0.775  -2.617  -0.664  1.00  0.00     0.038 C 
HETATM    4  C4  UNL     1      -1.328  -1.180  -0.594  1.00  0.00     0.250 C 
HETATM    5  N1  UNL     1      -0.398  -0.199   0.004  1.00  0.00     0.138 N 
HETATM    6  C5  UNL     1       0.600   0.322  -0.951  1.00  0.00     0.247 C 
HETATM    7  C6  UNL     1       1.897  -0.522  -1.031  1.00  0.00     0.156 C 
HETATM    8  C7  UNL     1       2.682  -0.551   0.307  1.00  0.00     0.042 C 
HETATM    9  C8  UNL     1       3.813   0.453   0.099  1.00  0.00     0.089 C 
HETATM   10  C9  UNL     1       3.791   0.656  -1.383  1.00  0.00     0.271 C 
HETATM   11  O1  UNL     1       2.760   0.088  -1.994  1.00  0.00    -0.302 OA
HETATM   12  O2  UNL     1       4.652   1.285  -1.951  1.00  0.00    -0.264 OA
HETATM   13  C10 UNL     1       5.149  -0.084   0.609  1.00  0.00     0.011 C 
HETATM   14  C11 UNL     1       0.840   1.783  -0.567  1.00  0.00     0.038 C 
HETATM   15  C12 UNL     1      -0.564   2.205  -0.168  1.00  0.00     0.038 C 
HETATM   16  C13 UNL     1      -0.982   0.990   0.656  1.00  0.00     0.247 C 
ENDROOT
BRANCH  16  17
HETATM   17  C14 UNL     1      -2.504   1.002   0.812  1.00  0.00     0.156 C 
HETATM   18  O3  UNL     1      -2.908   0.000   1.740  1.00  0.00    -0.302 OA
HETATM   19  C15 UNL     1      -3.998   0.447   2.353  1.00  0.00     0.271 C 
HETATM   20  C16 UNL     1      -4.338   1.865   1.996  1.00  0.00     0.089 C 
HETATM   21  O4  UNL     1      -4.660  -0.201   3.131  1.00  0.00    -0.264 OA
HETATM   22  C17 UNL     1      -3.039   2.336   1.344  1.00  0.00     0.042 C 
HETATM   23  C18 UNL     1      -4.707   2.732   3.195  1.00  0.00     0.011 C 
ENDBRANCH  16  17
BRANCH   1  24
HETATM   24  O5  UNL     1       1.086  -1.994  -2.805  1.00  0.00    -0.352 OA
HETATM   25  C19 UNL     1       1.123  -3.272  -3.401  1.00  0.00     0.174 C 
ENDBRANCH   1  24
TORSDOF 2
