REMARK  8 active torsions:
REMARK  status: ('A' for Active; 'I' for Inactive)
REMARK    1  A    between atoms: C1_1  and  O8_35 
REMARK    2  A    between atoms: C2_2  and  O7_33 
REMARK    3  A    between atoms: C3_3  and  O5_26 
REMARK    4  A    between atoms: C13_13  and  O3_21 
REMARK    5  A    between atoms: C14_14  and  O2_19 
REMARK    6  A    between atoms: C15_15  and  O1_17 
REMARK    7  A    between atoms: O5_26  and  C22_27 
REMARK    8  A    between atoms: C22_27  and  C23_28 
ROOT
HETATM    1  C1  UNL     1      -3.150   2.167  -0.731  1.00  0.00     0.118 A 
HETATM    2  C2  UNL     1      -1.848   2.627  -0.985  1.00  0.00     0.139 A 
HETATM    3  C3  UNL     1      -0.737   1.851  -0.607  1.00  0.00     0.127 A 
HETATM    4  C4  UNL     1      -0.923   0.606   0.032  1.00  0.00     0.023 A 
HETATM    5  C5  UNL     1      -2.252   0.149   0.305  1.00  0.00    -0.018 A 
HETATM    6  C6  UNL     1      -3.346   0.935  -0.090  1.00  0.00     0.022 A 
HETATM    7  C7  UNL     1      -2.537  -1.139   1.003  1.00  0.00     0.029 C 
HETATM    8  C8  UNL     1      -2.869  -2.296   0.031  1.00  0.00     0.033 C 
HETATM    9  C9  UNL     1      -1.619  -3.052  -0.505  1.00  0.00     0.131 C 
HETATM   10  C10 UNL     1      -0.528  -2.126  -1.120  1.00  0.00     0.057 C 
HETATM   11  C11 UNL     1       0.417  -1.526  -0.129  1.00  0.00    -0.016 A 
HETATM   12  C12 UNL     1       0.241  -0.215   0.422  1.00  0.00     0.022 A 
HETATM   13  C13 UNL     1       1.193   0.286   1.334  1.00  0.00     0.118 A 
HETATM   14  C14 UNL     1       2.302  -0.495   1.703  1.00  0.00     0.138 A 
HETATM   15  C15 UNL     1       2.467  -1.783   1.170  1.00  0.00     0.118 A 
HETATM   16  C16 UNL     1       1.529  -2.291   0.260  1.00  0.00     0.022 A 
HETATM   17  O4  UNL     1      -2.074  -3.887  -1.556  1.00  0.00    -0.226 OA
HETATM   18  C20 UNL     1      -1.049  -4.020   0.544  1.00  0.00     0.033 C 
HETATM   19  C21 UNL     1      -3.863  -3.264   0.694  1.00  0.00     0.003 C 
ENDROOT
BRANCH   3  20
HETATM   20  O5  UNL     1       0.478   2.296  -0.864  1.00  0.00    -0.271 OA
BRANCH  20  21
HETATM   21  C22 UNL     1       1.277   1.577  -1.647  1.00  0.00     0.296 C 
HETATM   22  O6  UNL     1       0.913   0.608  -2.272  1.00  0.00    -0.259 OA
BRANCH  21  23
HETATM   23  C23 UNL     1       2.671   2.029  -1.723  1.00  0.00     0.037 C 
HETATM   24  C24 UNL     1       3.101   3.052  -0.967  1.00  0.00    -0.025 C 
HETATM   25  C25 UNL     1       4.541   3.475  -1.084  1.00  0.00     0.030 C 
HETATM   26  C26 UNL     1       3.651   1.358  -2.649  1.00  0.00     0.036 C 
ENDBRANCH  21  23
ENDBRANCH  20  21
ENDBRANCH   3  20
BRANCH   2  27
HETATM   27  O7  UNL     1      -1.666   3.789  -1.581  1.00  0.00    -0.324 OA
HETATM   28  C27 UNL     1      -2.478   4.881  -1.174  1.00  0.00     0.182 C 
ENDBRANCH   2  27
BRANCH   1  29
HETATM   29  O8  UNL     1      -4.190   2.890  -1.094  1.00  0.00    -0.326 OA
HETATM   30  C28 UNL     1      -5.479   2.305  -0.986  1.00  0.00     0.181 C 
ENDBRANCH   1  29
BRANCH  13  31
HETATM   31  O3  UNL     1       1.050   1.490   1.856  1.00  0.00    -0.326 OA
HETATM   32  C19 UNL     1       0.055   1.671   2.853  1.00  0.00     0.181 C 
ENDBRANCH  13  31
BRANCH  14  33
HETATM   33  O2  UNL     1       3.191  -0.017   2.552  1.00  0.00    -0.324 OA
HETATM   34  C18 UNL     1       4.565  -0.236   2.273  1.00  0.00     0.182 C 
ENDBRANCH  14  33
BRANCH  15  35
HETATM   35  O1  UNL     1       3.503  -2.518   1.522  1.00  0.00    -0.326 OA
HETATM   36  C17 UNL     1       3.603  -3.829   0.985  1.00  0.00     0.181 C 
ENDBRANCH  15  35
TORSDOF 8
