REMARK  5 active torsions:
REMARK  status: ('A' for Active; 'I' for Inactive)
REMARK    1  A    between atoms: C4_4  and  C7_8 
REMARK    2  A    between atoms: C7_8  and  C8_9 
REMARK    3  A    between atoms: C8_9  and  C9_10 
REMARK    4  A    between atoms: C12_13  and  O3_18 
REMARK    5  A    between atoms: C13_14  and  O2_16 
ROOT
HETATM    1  C9  UNL     1       0.503   0.646  -0.539  1.00  0.00    -0.018 A 
HETATM    2  C10 UNL     1       0.967   0.425  -1.848  1.00  0.00     0.025 A 
HETATM    3  C11 UNL     1       2.348   0.384  -2.109  1.00  0.00     0.155 A 
HETATM    4  C12 UNL     1       3.267   0.563  -1.058  1.00  0.00     0.141 A 
HETATM    5  C13 UNL     1       2.803   0.784   0.252  1.00  0.00     0.118 A 
HETATM    6  C14 UNL     1       1.422   0.825   0.509  1.00  0.00     0.022 A 
HETATM    7  O4  UNL     1       2.777   0.177  -3.338  1.00  0.00    -0.188 OA
ENDROOT
BRANCH   1   8
HETATM    8  C8  UNL     1      -0.958   0.689  -0.265  1.00  0.00     0.031 C 
BRANCH   8   9
HETATM    9  C7  UNL     1      -1.502  -0.690   0.108  1.00  0.00     0.033 C 
BRANCH   9  10
HETATM   10  C4  UNL     1      -2.987  -0.695   0.192  1.00  0.00     0.004 A 
HETATM   11  C3  UNL     1      -3.687   0.525   0.193  1.00  0.00    -0.002 A 
HETATM   12  C2  UNL     1      -5.090   0.531   0.272  1.00  0.00    -0.000 A 
HETATM   13  C1  UNL     1      -5.794  -0.682   0.350  1.00  0.00     0.002 A 
HETATM   14  C6  UNL     1      -5.095  -1.901   0.349  1.00  0.00     0.027 A 
HETATM   15  C5  UNL     1      -3.691  -1.912   0.270  1.00  0.00     0.127 A 
HETATM   16  O1  UNL     1      -3.046  -3.062   0.270  1.00  0.00    -0.191 OA
ENDBRANCH   9  10
ENDBRANCH   8   9
ENDBRANCH   1   8
BRANCH   5  17
HETATM   17  O2  UNL     1       3.660   0.953   1.240  1.00  0.00    -0.326 OA
HETATM   18  C15 UNL     1       3.146   1.309   2.515  1.00  0.00     0.181 C 
ENDBRANCH   5  17
BRANCH   4  19
HETATM   19  O3  UNL     1       4.562   0.525  -1.302  1.00  0.00    -0.324 OA
HETATM   20  C16 UNL     1       5.393  -0.167  -0.381  1.00  0.00     0.182 C 
ENDBRANCH   4  19
TORSDOF 5
