REMARK  7 active torsions:
REMARK  status: ('A' for Active; 'I' for Inactive)
REMARK    1  A    between atoms: O1_1  and  C1_2 
REMARK    2  A    between atoms: O1_1  and  C7_12 
REMARK    3  A    between atoms: C7_12  and  C8_13 
REMARK    4  A    between atoms: C11_18  and  C12_19 
REMARK    5  A    between atoms: C20_30  and  C21_31 
REMARK    6  A    between atoms: C21_31  and  C22_32 
REMARK    7  A    between atoms: C23_33  and  C24_34 
ROOT
HETATM    1  C8  UNL     1      -1.209  -0.561   1.730  1.00  0.00     0.157 C 
HETATM    2  O6  UNL     1      -0.221  -1.154   2.578  1.00  0.00    -0.329 OA
HETATM    3  C9  UNL     1       0.877  -1.787   1.932  1.00  0.00     0.266 C 
HETATM    4  O7  UNL     1       1.584  -0.875   1.094  1.00  0.00    -0.326 OA
HETATM    5  C10 UNL     1       2.604  -1.473   0.314  1.00  0.00     0.179 C 
HETATM    6  C11 UNL     1       1.980  -2.584  -0.559  1.00  0.00     0.168 C 
HETATM    7  O10 UNL     1       1.369  -3.541   0.293  1.00  0.00    -0.344 OA
HETATM    8  C18 UNL     1       0.348  -3.027   1.150  1.00  0.00     0.203 C 
HETATM    9  C19 UNL     1      -1.033  -2.777   0.459  1.00  0.00     0.194 C 
HETATM   10  C20 UNL     1      -1.350  -1.271   0.353  1.00  0.00     0.125 C 
HETATM   11  O14 UNL     1      -1.147  -3.406  -0.809  1.00  0.00    -0.220 OA
ENDROOT
BRANCH   1  12
HETATM   12  C7  UNL     1      -0.875   0.930   1.588  1.00  0.00     0.175 C 
BRANCH  12  13
HETATM   13  O1  UNL     1      -1.014   1.535   2.854  1.00  0.00    -0.326 OA
BRANCH  13  14
HETATM   14  C1  UNL     1      -0.787   2.932   2.830  1.00  0.00     0.270 C 
HETATM   15  C2  UNL     1      -1.119   3.541   4.217  1.00  0.00     0.241 C 
HETATM   16  C3  UNL     1      -0.045   3.168   5.266  1.00  0.00     0.220 C 
HETATM   17  O5  UNL     1      -1.211   4.951   4.070  1.00  0.00    -0.215 OA
HETATM   18  C4  UNL     1       1.369   3.473   4.721  1.00  0.00     0.212 C 
HETATM   19  O4  UNL     1      -0.277   3.840   6.494  1.00  0.00    -0.218 OA
HETATM   20  C5  UNL     1       1.580   2.826   3.332  1.00  0.00     0.151 C 
HETATM   21  O3  UNL     1       2.348   2.965   5.609  1.00  0.00    -0.218 OA
HETATM   22  O2  UNL     1       0.551   3.244   2.438  1.00  0.00    -0.329 OA
HETATM   23  C6  UNL     1       2.910   3.229   2.688  1.00  0.00     0.035 C 
ENDBRANCH  13  14
ENDBRANCH  12  13
ENDBRANCH   1  12
BRANCH  10  24
HETATM   24  C21 UNL     1      -2.715  -1.000  -0.236  1.00  0.00     0.178 C 
HETATM   25  O13 UNL     1      -3.719  -1.385   0.318  1.00  0.00    -0.291 OA
BRANCH  24  26
HETATM   26  C22 UNL     1      -2.803  -0.258  -1.498  1.00  0.00     0.038 C 
HETATM   27  C23 UNL     1      -3.996   0.033  -2.043  1.00  0.00     0.003 C 
BRANCH  27  28
HETATM   28  C24 UNL     1      -4.033   0.791  -3.328  1.00  0.00     0.002 A 
HETATM   29  C25 UNL     1      -5.115   1.641  -3.613  1.00  0.00     0.029 A 
HETATM   30  C26 UNL     1      -5.154   2.358  -4.822  1.00  0.00     0.156 A 
HETATM   31  O11 UNL     1      -6.172   3.152  -5.082  1.00  0.00    -0.188 OA
HETATM   32  C27 UNL     1      -4.106   2.221  -5.752  1.00  0.00     0.156 A 
HETATM   33  O12 UNL     1      -4.133   2.889  -6.889  1.00  0.00    -0.188 OA
HETATM   34  C28 UNL     1      -3.024   1.369  -5.467  1.00  0.00     0.029 A 
HETATM   35  C29 UNL     1      -2.986   0.654  -4.256  1.00  0.00     0.002 A 
ENDBRANCH  27  28
ENDBRANCH  24  26
ENDBRANCH  10  24
BRANCH   6  36
HETATM   36  C12 UNL     1       3.000  -3.270  -1.393  1.00  0.00     0.009 A 
HETATM   37  C13 UNL     1       4.357  -2.918  -1.279  1.00  0.00     0.000 A 
HETATM   38  C14 UNL     1       5.318  -3.568  -2.070  1.00  0.00     0.029 A 
HETATM   39  C15 UNL     1       4.932  -4.570  -2.977  1.00  0.00     0.156 A 
HETATM   40  C16 UNL     1       3.572  -4.924  -3.092  1.00  0.00     0.156 A 
HETATM   41  O9  UNL     1       5.840  -5.176  -3.715  1.00  0.00    -0.188 OA
HETATM   42  C17 UNL     1       2.611  -4.271  -2.299  1.00  0.00     0.028 A 
HETATM   43  O8  UNL     1       3.201  -5.861  -3.938  1.00  0.00    -0.188 OA
ENDBRANCH   6  36
TORSDOF 7
