REMARK  4 active torsions:
REMARK  status: ('A' for Active; 'I' for Inactive)
REMARK    1  A    between atoms: C15_16  and  C18_19 
REMARK    2  A    between atoms: C18_19  and  C19_20 
REMARK    3  A    between atoms: C19_20  and  C20_21 
REMARK    4  A    between atoms: C21_22  and  C22_23 
ROOT
HETATM    1  C1  UNL     1       4.703   0.363  -0.340  1.00  0.00     0.033 C 
HETATM    2  C2  UNL     1       3.809  -0.217  -1.442  1.00  0.00     0.152 C 
HETATM    3  C3  UNL     1       3.619   0.762  -2.635  1.00  0.00     0.029 C 
HETATM    4  C4  UNL     1       3.410   2.240  -2.137  1.00  0.00     0.013 C 
HETATM    5  C5  UNL     1       3.053   2.367  -0.631  1.00  0.00     0.015 C 
HETATM    6  C6  UNL     1       4.168   1.693   0.217  1.00  0.00     0.006 C 
HETATM    7  C7  UNL     1       1.641   1.834  -0.400  1.00  0.00    -0.046 C 
HETATM    8  C8  UNL     1       0.684   1.994  -1.354  1.00  0.00     0.004 C 
HETATM    9  C9  UNL     1       0.973   2.682  -2.639  1.00  0.00     0.169 C 
HETATM   10  C10 UNL     1       2.400   3.035  -2.986  1.00  0.00     0.069 C 
HETATM   11  O1  UNL     1       0.086   2.957  -3.412  1.00  0.00    -0.292 OA
HETATM   12  C11 UNL     1      -0.717   1.467  -1.092  1.00  0.00     0.021 C 
HETATM   13  C12 UNL     1      -0.709   0.232  -0.166  1.00  0.00     0.004 C 
HETATM   14  C13 UNL     1      -0.115   0.693   1.166  1.00  0.00     0.005 C 
HETATM   15  C14 UNL     1       1.346   1.127   0.920  1.00  0.00     0.022 C 
HETATM   16  C15 UNL     1      -2.189  -0.162  -0.160  1.00  0.00     0.001 C 
HETATM   17  C16 UNL     1      -2.566  -0.029  -1.643  1.00  0.00     0.000 C 
HETATM   18  C17 UNL     1      -1.512   0.891  -2.276  1.00  0.00     0.004 C 
HETATM   19  C26 UNL     1       0.105  -0.932  -0.754  1.00  0.00     0.000 C 
HETATM   20  C27 UNL     1      -1.553   2.635  -0.549  1.00  0.00     0.004 C 
HETATM   21  C28 UNL     1       3.002   3.848  -0.217  1.00  0.00     0.004 C 
HETATM   22  C29 UNL     1       2.430   0.244  -3.461  1.00  0.00     0.003 C 
HETATM   23  C30 UNL     1       4.846   0.746  -3.565  1.00  0.00     0.003 C 
HETATM   24  O3  UNL     1       4.350  -1.453  -1.873  1.00  0.00    -0.224 OA
ENDROOT
BRANCH  16  25
HETATM   25  C18 UNL     1      -2.471  -1.555   0.400  1.00  0.00     0.004 C 
HETATM   26  C25 UNL     1      -3.951  -1.891   0.219  1.00  0.00     0.000 C 
BRANCH  25  27
HETATM   27  C19 UNL     1      -2.027  -1.613   1.863  1.00  0.00     0.026 C 
BRANCH  27  28
HETATM   28  C20 UNL     1      -2.818  -2.615   2.662  1.00  0.00    -0.028 C 
HETATM   29  C21 UNL     1      -3.604  -2.164   3.654  1.00  0.00    -0.001 C 
BRANCH  29  30
HETATM   30  C22 UNL     1      -4.395  -3.166   4.455  1.00  0.00     0.145 C 
HETATM   31  C23 UNL     1      -3.805  -3.397   5.846  1.00  0.00     0.038 C 
HETATM   32  C24 UNL     1      -4.629  -4.469   3.689  1.00  0.00     0.038 C 
HETATM   33  O2  UNL     1      -5.633  -2.512   4.603  1.00  0.00    -0.222 OA
ENDBRANCH  29  30
ENDBRANCH  27  28
ENDBRANCH  25  27
ENDBRANCH  16  25
TORSDOF 4
