REMARK  4 active torsions:
REMARK  status: ('A' for Active; 'I' for Inactive)
REMARK    1  A    between atoms: C3_3  and  C13_15 
REMARK    2  A    between atoms: C4_4  and  O1_8 
REMARK    3  A    between atoms: O1_8  and  C8_9 
REMARK    4  A    between atoms: C8_9  and  C9_10 
ROOT
HETATM    1  C1  UNL     1       2.068  -3.131   0.088  1.00  0.00    -0.004 A 
HETATM    2  C2  UNL     1       2.725  -1.889   0.088  1.00  0.00     0.001 A 
HETATM    3  C3  UNL     1       1.980  -0.695   0.088  1.00  0.00     0.019 A 
HETATM    4  C4  UNL     1       0.570  -0.744   0.088  1.00  0.00     0.103 A 
HETATM    5  C5  UNL     1      -0.082  -1.990   0.088  1.00  0.00     0.021 A 
HETATM    6  C6  UNL     1       0.664  -3.182   0.088  1.00  0.00    -0.020 A 
HETATM    7  C7  UNL     1      -0.033  -4.496   0.088  1.00  0.00     0.031 C 
ENDROOT
BRANCH   4   8
HETATM    8  O1  UNL     1      -0.141   0.365   0.088  1.00  0.00    -0.273 OA
BRANCH   8   9
HETATM    9  C8  UNL     1      -1.254   0.418  -0.639  1.00  0.00     0.296 C 
HETATM   10  O2  UNL     1      -1.508  -0.350  -1.537  1.00  0.00    -0.259 OA
BRANCH   9  11
HETATM   11  C9  UNL     1      -2.193   1.490  -0.289  1.00  0.00     0.037 C 
HETATM   12  C10 UNL     1      -3.170   1.957  -1.336  1.00  0.00     0.036 C 
HETATM   13  C11 UNL     1      -2.221   2.072   0.920  1.00  0.00    -0.025 C 
HETATM   14  C12 UNL     1      -3.229   3.162   1.168  1.00  0.00     0.030 C 
ENDBRANCH   9  11
ENDBRANCH   8   9
ENDBRANCH   4   8
BRANCH   3  15
HETATM   15  C13 UNL     1       2.689   0.619   0.088  1.00  0.00    -0.020 C 
HETATM   16  C14 UNL     1       3.920   0.687   0.621  1.00  0.00    -0.004 C 
HETATM   17  C15 UNL     1       2.086   1.873  -0.484  1.00  0.00     0.031 C 
ENDBRANCH   3  15
TORSDOF 4
