REMARK  3 active torsions:
REMARK  status: ('A' for Active; 'I' for Inactive)
REMARK    1  A    between atoms: C1_1  and  O5_22 
REMARK    2  A    between atoms: C3_3  and  O4_20 
REMARK    3  A    between atoms: C7_8  and  C10_11 
ROOT
HETATM    1  C1  UNL     1       3.524  -0.725   0.408  1.00  0.00     0.098 A 
HETATM    2  C2  UNL     1       3.871   0.637   0.563  1.00  0.00     0.048 A 
HETATM    3  C3  UNL     1       2.861   1.623   0.649  1.00  0.00     0.094 A 
HETATM    4  C4  UNL     1       1.494   1.248   0.580  1.00  0.00     0.023 A 
HETATM    5  C5  UNL     1       1.145  -0.125   0.436  1.00  0.00     0.094 A 
HETATM    6  C6  UNL     1       2.162  -1.104   0.346  1.00  0.00     0.048 A 
HETATM    7  O1  UNL     1      -0.144  -0.527   0.371  1.00  0.00    -0.329 OA
HETATM    8  C7  UNL     1      -1.215   0.373   0.695  1.00  0.00     0.144 C 
HETATM    9  C8  UNL     1      -0.918   1.768   0.119  1.00  0.00     0.040 C 
HETATM   10  C9  UNL     1       0.428   2.279   0.656  1.00  0.00     0.033 C 
ENDROOT
BRANCH   8  11
HETATM   11  C10 UNL     1      -2.482  -0.188   0.199  1.00  0.00     0.007 A 
HETATM   12  C11 UNL     1      -2.598  -0.615  -1.143  1.00  0.00     0.024 A 
HETATM   13  C12 UNL     1      -3.811  -1.158  -1.641  1.00  0.00     0.119 A 
HETATM   14  C13 UNL     1      -4.914  -1.270  -0.789  1.00  0.00     0.119 A 
HETATM   15  O3  UNL     1      -4.143  -1.619  -2.848  1.00  0.00    -0.300 OA
HETATM   16  C14 UNL     1      -4.801  -0.840   0.559  1.00  0.00     0.026 A 
HETATM   17  O2  UNL     1      -5.932  -1.801  -1.465  1.00  0.00    -0.300 OA
HETATM   18  C15 UNL     1      -3.596  -0.301   1.057  1.00  0.00     0.000 A 
HETATM   19  C16 UNL     1      -5.516  -2.066  -2.822  1.00  0.00     0.304 A 
ENDBRANCH   8  11
BRANCH   3  20
HETATM   20  O4  UNL     1       3.205   2.910   0.795  1.00  0.00    -0.328 OA
HETATM   21  C17 UNL     1       4.588   3.227   0.861  1.00  0.00     0.181 C 
ENDBRANCH   3  20
BRANCH   1  22
HETATM   22  O5  UNL     1       4.483  -1.654   0.324  1.00  0.00    -0.328 OA
HETATM   23  C18 UNL     1       4.086  -3.014   0.213  1.00  0.00     0.181 C 
ENDBRANCH   1  22
TORSDOF 3
