REMARK  9 active torsions:
REMARK  status: ('A' for Active; 'I' for Inactive)
REMARK    1  A    between atoms: C4_4  and  O7_18 
REMARK    2  A    between atoms: C5_6  and  C6_7 
REMARK    3  A    between atoms: C6_7  and  O2_8 
REMARK    4  A    between atoms: O2_8  and  C7_9 
REMARK    5  A    between atoms: C9_11  and  C11_14 
REMARK    6  A    between atoms: O7_18  and  C12_19 
REMARK    7  A    between atoms: C15_22  and  C19_26 
REMARK    8  A    between atoms: C19_26  and  C20_27 
REMARK    9  A    between atoms: C20_27  and  C21_28 
ROOT
HETATM    1  C1  UNL     1      -3.268   2.315  -0.508  1.00  0.00     0.215 C 
HETATM    2  C2  UNL     1      -2.229   3.383  -0.102  1.00  0.00     0.220 C 
HETATM    3  C3  UNL     1      -0.807   2.897  -0.459  1.00  0.00     0.241 C 
HETATM    4  C4  UNL     1      -0.555   1.467   0.082  1.00  0.00     0.270 C 
HETATM    5  O1  UNL     1      -1.572   0.590  -0.379  1.00  0.00    -0.326 OA
HETATM    6  C5  UNL     1      -2.889   0.920   0.043  1.00  0.00     0.180 C 
HETATM    7  O9  UNL     1       0.148   3.785   0.100  1.00  0.00    -0.215 OA
HETATM    8  O10 UNL     1      -2.504   4.602  -0.775  1.00  0.00    -0.218 OA
HETATM    9  O11 UNL     1      -4.543   2.668  -0.004  1.00  0.00    -0.218 OA
ENDROOT
BRANCH   4  10
HETATM   10  O7  UNL     1       0.693   0.979  -0.369  1.00  0.00    -0.331 OA
BRANCH  10  11
HETATM   11  C12 UNL     1       1.127  -0.174   0.328  1.00  0.00     0.122 C 
HETATM   12  C13 UNL     1       2.156  -0.947  -0.510  1.00  0.00     0.034 C 
HETATM   13  C14 UNL     1       3.473  -0.166  -0.738  1.00  0.00     0.017 C 
HETATM   14  C15 UNL     1       3.930   0.592   0.502  1.00  0.00    -0.052 C 
HETATM   15  C23 UNL     1       3.289   0.856  -1.865  1.00  0.00     0.004 C 
HETATM   16  C24 UNL     1       4.564  -1.154  -1.162  1.00  0.00     0.004 C 
HETATM   17  C16 UNL     1       3.143   0.781   1.586  1.00  0.00    -0.049 C 
HETATM   18  C17 UNL     1       1.734   0.234   1.680  1.00  0.00     0.051 C 
HETATM   19  C18 UNL     1       3.643   1.565   2.775  1.00  0.00     0.026 C 
BRANCH  14  20
HETATM   20  C19 UNL     1       5.334   1.152   0.486  1.00  0.00     0.029 C 
BRANCH  20  21
HETATM   21  C20 UNL     1       5.393   2.563  -0.102  1.00  0.00     0.069 C 
BRANCH  21  22
HETATM   22  C21 UNL     1       6.381   2.676  -1.231  1.00  0.00     0.151 C 
HETATM   23  C22 UNL     1       6.400   3.949  -2.031  1.00  0.00     0.072 C 
HETATM   24  O8  UNL     1       7.137   1.768  -1.488  1.00  0.00    -0.296 OA
ENDBRANCH  21  22
ENDBRANCH  20  21
ENDBRANCH  14  20
ENDBRANCH  10  11
ENDBRANCH   4  10
BRANCH   6  25
HETATM   25  C6  UNL     1      -3.807  -0.193  -0.469  1.00  0.00     0.177 C 
BRANCH  25  26
HETATM   26  O2  UNL     1      -3.484  -1.381   0.221  1.00  0.00    -0.326 OA
BRANCH  26  27
HETATM   27  C7  UNL     1      -4.254  -2.490  -0.195  1.00  0.00     0.270 C 
HETATM   28  C8  UNL     1      -3.826  -3.777   0.514  1.00  0.00     0.241 C 
HETATM   29  C9  UNL     1      -5.110  -4.652   0.408  1.00  0.00     0.217 C 
HETATM   30  O6  UNL     1      -2.674  -4.340  -0.090  1.00  0.00    -0.215 OA
HETATM   31  C10 UNL     1      -6.229  -3.629   0.121  1.00  0.00     0.181 C 
HETATM   32  O5  UNL     1      -5.065  -5.594  -0.650  1.00  0.00    -0.218 OA
HETATM   33  O3  UNL     1      -5.594  -2.375   0.211  1.00  0.00    -0.326 OA
BRANCH  29  34
HETATM   34  C11 UNL     1      -5.360  -5.424   1.701  1.00  0.00     0.218 C 
HETATM   35  O4  UNL     1      -6.611  -6.063   1.600  1.00  0.00    -0.218 OA
ENDBRANCH  29  34
ENDBRANCH  26  27
ENDBRANCH  25  26
ENDBRANCH   6  25
TORSDOF 9
