REMARK  3 active torsions:
REMARK  status: ('A' for Active; 'I' for Inactive)
REMARK    1  A    between atoms: C1_1  and  O6_22 
REMARK    2  A    between atoms: C6_6  and  O1_7 
REMARK    3  A    between atoms: C8_10  and  C11_14 
ROOT
HETATM    1  C1  UNL     1      -3.049   0.211  -0.600  1.00  0.00     0.120 A 
HETATM    2  C2  UNL     1      -2.947   1.369  -1.406  1.00  0.00     0.054 A 
HETATM    3  C3  UNL     1      -1.684   1.953  -1.654  1.00  0.00     0.138 A 
HETATM    4  C4  UNL     1      -0.514   1.377  -1.092  1.00  0.00     0.085 A 
HETATM    5  C5  UNL     1      -0.611   0.189  -0.313  1.00  0.00     0.123 A 
HETATM    6  C6  UNL     1      -1.883  -0.377  -0.055  1.00  0.00     0.139 A 
HETATM    7  O2  UNL     1       0.488  -0.412   0.187  1.00  0.00    -0.326 OA
HETATM    8  C8  UNL     1       1.781  -0.131  -0.357  1.00  0.00     0.153 C 
HETATM    9  C9  UNL     1       1.973   1.389  -0.535  1.00  0.00     0.104 C 
HETATM   10  C10 UNL     1       0.820   2.010  -1.297  1.00  0.00     0.180 C 
HETATM   11  O3  UNL     1       1.070   2.963  -1.998  1.00  0.00    -0.291 OA
HETATM   12  O5  UNL     1      -1.609   3.055  -2.416  1.00  0.00    -0.190 OA
ENDROOT
BRANCH   8  13
HETATM   13  C11 UNL     1       2.822  -0.731   0.521  1.00  0.00     0.031 A 
HETATM   14  C12 UNL     1       4.100  -1.033   0.010  1.00  0.00     0.129 A 
HETATM   15  C13 UNL     1       5.070  -1.600   0.853  1.00  0.00     0.027 A 
HETATM   16  O4  UNL     1       4.391  -0.787  -1.252  1.00  0.00    -0.190 OA
HETATM   17  C14 UNL     1       4.771  -1.867   2.199  1.00  0.00     0.002 A 
HETATM   18  C15 UNL     1       3.498  -1.565   2.709  1.00  0.00    -0.000 A 
HETATM   19  C16 UNL     1       2.523  -0.998   1.871  1.00  0.00     0.000 A 
ENDBRANCH   8  13
BRANCH   6  20
HETATM   20  O1  UNL     1      -1.983  -1.479   0.703  1.00  0.00    -0.324 OA
HETATM   21  C7  UNL     1      -3.045  -1.547   1.645  1.00  0.00     0.182 C 
ENDBRANCH   6  20
BRANCH   1  22
HETATM   22  O6  UNL     1      -4.252  -0.326  -0.357  1.00  0.00    -0.326 OA
HETATM   23  C17 UNL     1      -5.397   0.336  -0.877  1.00  0.00     0.181 C 
ENDBRANCH   1  22
TORSDOF 3
