REMARK  9 active torsions:
REMARK  status: ('A' for Active; 'I' for Inactive)
REMARK    1  A    between atoms: C1_1  and  O6_27 
REMARK    2  A    between atoms: O6_27  and  C22_28 
REMARK    3  A    between atoms: C24_30  and  O16_57 
REMARK    4  A    between atoms: C25_31  and  O8_35 
REMARK    5  A    between atoms: O8_35  and  C28_36 
REMARK    6  A    between atoms: C30_39  and  O11_44 
REMARK    7  A    between atoms: C31_40  and  O10_42 
REMARK    8  A    between atoms: O11_44  and  C34_45 
REMARK    9  A    between atoms: C36_47  and  O14_53 
ROOT
HETATM    1  C22 UNL     1       0.554  -0.795   3.909  1.00  0.00     0.270 C 
HETATM    2  C23 UNL     1       0.246   0.712   3.705  1.00  0.00     0.237 C 
HETATM    3  C24 UNL     1       1.388   1.412   2.934  1.00  0.00     0.180 C 
HETATM    4  C25 UNL     1       1.727   0.612   1.656  1.00  0.00     0.175 C 
HETATM    5  C26 UNL     1       1.968  -0.881   1.974  1.00  0.00     0.148 C 
HETATM    6  O7  UNL     1       0.836  -1.403   2.657  1.00  0.00    -0.329 OA
HETATM    7  C27 UNL     1       2.159  -1.733   0.717  1.00  0.00     0.035 C 
HETATM    8  O17 UNL     1       0.086   1.332   4.973  1.00  0.00    -0.215 OA
ENDROOT
BRANCH   1   9
HETATM    9  O6  UNL     1      -0.558  -1.451   4.484  1.00  0.00    -0.331 OA
BRANCH   9  10
HETATM   10  C1  UNL     1      -0.240  -2.724   5.017  1.00  0.00     0.122 C 
HETATM   11  C2  UNL     1      -1.279  -3.093   6.097  1.00  0.00     0.051 C 
HETATM   12  C3  UNL     1      -2.531  -3.674   5.475  1.00  0.00    -0.047 C 
HETATM   13  C4  UNL     1      -2.384  -4.857   4.529  1.00  0.00     0.016 C 
HETATM   14  C10 UNL     1      -3.747  -3.143   5.718  1.00  0.00    -0.034 C 
HETATM   15  C5  UNL     1      -0.883  -5.066   4.201  1.00  0.00     0.006 C 
HETATM   16  C7  UNL     1      -3.234  -4.509   3.273  1.00  0.00     0.018 C 
HETATM   17  C21 UNL     1      -2.915  -6.127   5.207  1.00  0.00     0.004 C 
HETATM   18  C6  UNL     1      -0.155  -3.755   3.863  1.00  0.00     0.030 C 
HETATM   19  C8  UNL     1      -4.755  -4.237   3.615  1.00  0.00     0.091 C 
HETATM   20  C16 UNL     1      -2.947  -5.431   2.044  1.00  0.00     0.027 C 
HETATM   21  C9  UNL     1      -4.971  -3.744   5.071  1.00  0.00     0.035 C 
HETATM   22  C11 UNL     1      -5.719  -5.389   3.325  1.00  0.00     0.272 C 
HETATM   23  O1  UNL     1      -6.684  -5.420   2.366  1.00  0.00    -0.301 OA
HETATM   24  O5  UNL     1      -5.591  -6.363   4.030  1.00  0.00    -0.264 OA
HETATM   25  C12 UNL     1      -7.040  -4.369   1.440  1.00  0.00     0.163 C 
HETATM   26  C13 UNL     1      -6.034  -4.060   0.306  1.00  0.00     0.110 C 
HETATM   27  C19 UNL     1      -7.432  -3.047   2.093  1.00  0.00     0.175 C 
HETATM   28  C14 UNL     1      -4.590  -4.236   0.624  1.00  0.00     0.044 C 
HETATM   29  C18 UNL     1      -6.105  -2.521   0.239  1.00  0.00     0.202 C 
HETATM   30  C15 UNL     1      -4.109  -5.401   1.092  1.00  0.00    -0.025 C 
HETATM   31  C17 UNL     1      -3.904  -2.963   0.422  1.00  0.00     0.293 C 
HETATM   32  O2  UNL     1      -4.774  -2.018   0.060  1.00  0.00    -0.277 OA
HETATM   33  O4  UNL     1      -2.711  -2.808   0.556  1.00  0.00    -0.259 OA
HETATM   34  O3  UNL     1      -6.569  -2.100   1.511  1.00  0.00    -0.331 OA
HETATM   35  C20 UNL     1      -7.045  -1.982  -0.835  1.00  0.00     0.062 C 
ENDBRANCH   9  10
ENDBRANCH   1   9
BRANCH   3  36
HETATM   36  O16 UNL     1       0.998   2.731   2.588  1.00  0.00    -0.349 OA
HETATM   37  C42 UNL     1       2.062   3.656   2.637  1.00  0.00     0.174 C 
ENDBRANCH   3  36
BRANCH   4  38
HETATM   38  O8  UNL     1       2.895   1.143   1.055  1.00  0.00    -0.328 OA
BRANCH  38  39
HETATM   39  C28 UNL     1       2.809   1.228  -0.352  1.00  0.00     0.238 C 
HETATM   40  O9  UNL     1       4.115   1.280  -0.910  1.00  0.00    -0.331 OA
HETATM   41  C29 UNL     1       4.159   1.328  -2.331  1.00  0.00     0.147 C 
HETATM   42  C30 UNL     1       3.428   2.597  -2.827  1.00  0.00     0.172 C 
HETATM   43  C41 UNL     1       5.636   1.294  -2.731  1.00  0.00     0.035 C 
HETATM   44  C31 UNL     1       1.992   2.675  -2.263  1.00  0.00     0.150 C 
HETATM   45  C32 UNL     1       2.021   2.497  -0.739  1.00  0.00     0.094 C 
BRANCH  42  46
HETATM   46  O11 UNL     1       3.387   2.575  -4.243  1.00  0.00    -0.327 OA
BRANCH  46  47
HETATM   47  C34 UNL     1       3.567   3.852  -4.825  1.00  0.00     0.270 C 
HETATM   48  C35 UNL     1       3.124   3.838  -6.311  1.00  0.00     0.238 C 
HETATM   49  C36 UNL     1       3.460   5.178  -7.003  1.00  0.00     0.183 C 
HETATM   50  O15 UNL     1       1.724   3.610  -6.382  1.00  0.00    -0.215 OA
HETATM   51  C37 UNL     1       4.936   5.551  -6.742  1.00  0.00     0.209 C 
HETATM   52  C38 UNL     1       5.272   5.487  -5.235  1.00  0.00     0.151 C 
HETATM   53  O13 UNL     1       5.191   6.863  -7.208  1.00  0.00    -0.218 OA
HETATM   54  O12 UNL     1       4.941   4.199  -4.733  1.00  0.00    -0.329 OA
HETATM   55  C39 UNL     1       6.761   5.703  -4.944  1.00  0.00     0.035 C 
BRANCH  49  56
HETATM   56  O14 UNL     1       3.231   5.069  -8.399  1.00  0.00    -0.349 OA
HETATM   57  C40 UNL     1       3.193   6.317  -9.055  1.00  0.00     0.174 C 
ENDBRANCH  49  56
ENDBRANCH  46  47
ENDBRANCH  42  46
BRANCH  44  58
HETATM   58  O10 UNL     1       1.404   3.925  -2.569  1.00  0.00    -0.351 OA
HETATM   59  C33 UNL     1       0.047   4.008  -2.193  1.00  0.00     0.174 C 
ENDBRANCH  44  58
ENDBRANCH  38  39
ENDBRANCH   4  38
TORSDOF 9
