REMARK  2 active torsions:
REMARK  status: ('A' for Active; 'I' for Inactive)
REMARK    1  A    between atoms: C1_1  and  C10_10 
REMARK    2  A    between atoms: C4_4  and  C7_7 
ROOT
HETATM    1  C1  UNL     1       1.328   1.601  -0.240  1.00  0.00    -0.011 C 
HETATM    2  C2  UNL     1       1.727   0.318  -0.150  1.00  0.00    -0.027 C 
HETATM    3  C3  UNL     1       0.775  -0.815  -0.477  1.00  0.00     0.047 C 
HETATM    4  C4  UNL     1      -0.668  -0.430  -0.225  1.00  0.00    -0.044 C 
HETATM    5  C5  UNL     1      -1.066   0.855  -0.314  1.00  0.00    -0.030 C 
HETATM    6  C6  UNL     1      -0.084   1.951  -0.666  1.00  0.00     0.050 C 
ENDROOT
BRANCH   4   7
HETATM    7  C7  UNL     1      -1.648  -1.516   0.133  1.00  0.00     0.018 C 
HETATM    8  C8  UNL     1      -1.385  -2.106   1.520  1.00  0.00     0.004 C 
HETATM    9  C9  UNL     1      -1.754  -2.588  -0.953  1.00  0.00     0.004 C 
ENDBRANCH   4   7
BRANCH   1  10
HETATM   10  C10 UNL     1       2.275   2.726   0.090  1.00  0.00     0.205 C 
HETATM   11  O1  UNL     1       2.170   3.043   1.459  1.00  0.00    -0.216 OA
ENDBRANCH   1  10
TORSDOF 2
