REMARK  1 active torsions:
REMARK  status: ('A' for Active; 'I' for Inactive)
REMARK    1  A    between atoms: C8_8  and  C9_9 
ROOT
HETATM    1  C1  UNL     1       1.940   1.977   0.322  1.00  0.00     0.000 C 
HETATM    2  C2  UNL     1       3.090   1.049   0.754  1.00  0.00     0.003 C 
HETATM    3  C3  UNL     1       3.129  -0.228  -0.086  1.00  0.00     0.030 C 
HETATM    4  C4  UNL     1       1.842  -1.070   0.102  1.00  0.00     0.127 C 
HETATM    5  C5  UNL     1       2.031  -2.125   1.197  1.00  0.00     0.033 C 
HETATM    6  C6  UNL     1       0.588  -0.187   0.408  1.00  0.00     0.028 C 
HETATM    7  C7  UNL     1      -0.760  -0.887   0.100  1.00  0.00     0.006 C 
HETATM    8  C8  UNL     1      -1.973  -0.025   0.478  1.00  0.00     0.018 C 
HETATM    9  C12 UNL     1      -1.889   1.350  -0.201  1.00  0.00     0.004 C 
HETATM   10  C13 UNL     1      -0.574   2.061   0.150  1.00  0.00     0.000 C 
HETATM   11  C14 UNL     1       0.682   1.234  -0.213  1.00  0.00     0.002 C 
HETATM   12  C15 UNL     1       0.768   1.121  -1.744  1.00  0.00     0.000 C 
HETATM   13  O1  UNL     1       1.654  -1.801  -1.098  1.00  0.00    -0.226 OA
ENDROOT
BRANCH   8  14
HETATM   14  C9  UNL     1      -3.268  -0.723   0.139  1.00  0.00    -0.044 C 
HETATM   15  C10 UNL     1      -4.150  -0.949   1.123  1.00  0.00    -0.009 C 
HETATM   16  C11 UNL     1      -3.611  -1.178  -1.256  1.00  0.00     0.026 C 
ENDBRANCH   8  14
TORSDOF 1
