REMARK  5 active torsions:
REMARK  status: ('A' for Active; 'I' for Inactive)
REMARK    1  A    between atoms: C15_16  and  C18_19 
REMARK    2  A    between atoms: C18_19  and  C19_20 
REMARK    3  A    between atoms: C20_21  and  C21_22 
REMARK    4  A    between atoms: C21_22  and  C22_23 
REMARK    5  A    between atoms: C21_22  and  C25_26 
ROOT
HETATM    1  C1  UNL     1      -5.949  -0.119   2.602  1.00  0.00     0.070 C 
HETATM    2  C2  UNL     1      -6.379   0.779   1.473  1.00  0.00     0.172 C 
HETATM    3  C3  UNL     1      -5.449   0.977   0.350  1.00  0.00     0.031 C 
HETATM    4  C4  UNL     1      -4.201   0.459   0.322  1.00  0.00    -0.012 C 
HETATM    5  C5  UNL     1      -3.633  -0.348   1.494  1.00  0.00     0.018 C 
HETATM    6  C6  UNL     1      -4.430  -0.058   2.793  1.00  0.00     0.012 C 
HETATM    7  C7  UNL     1      -2.125  -0.019   1.734  1.00  0.00     0.004 C 
HETATM    8  C8  UNL     1      -1.301  -0.051   0.428  1.00  0.00     0.003 C 
HETATM    9  C9  UNL     1      -1.869   0.951  -0.588  1.00  0.00     0.037 C 
HETATM   10  C10 UNL     1      -3.342   0.672  -0.912  1.00  0.00     0.171 C 
HETATM   11  O1  UNL     1      -3.426  -0.471  -1.740  1.00  0.00    -0.219 OA
HETATM   12  C11 UNL     1       0.199   0.231   0.648  1.00  0.00     0.000 C 
HETATM   13  C12 UNL     1       0.816  -0.646   1.748  1.00  0.00     0.000 C 
HETATM   14  C13 UNL     1       0.002  -0.553   3.051  1.00  0.00     0.000 C 
HETATM   15  C14 UNL     1      -1.469  -0.916   2.807  1.00  0.00     0.000 C 
HETATM   16  C15 UNL     1       2.193   0.014   1.924  1.00  0.00     0.004 C 
HETATM   17  C16 UNL     1       1.904   1.516   1.826  1.00  0.00     0.000 C 
HETATM   18  C17 UNL     1       0.568   1.651   1.092  1.00  0.00     0.000 C 
HETATM   19  C28 UNL     1       0.939  -2.098   1.277  1.00  0.00     0.000 C 
HETATM   20  C29 UNL     1      -3.799  -1.828   1.125  1.00  0.00     0.004 C 
HETATM   21  O2  UNL     1      -7.457   1.330   1.482  1.00  0.00    -0.291 OA
ENDROOT
BRANCH  16  22
HETATM   22  C18 UNL     1       3.176  -0.369   0.813  1.00  0.00     0.022 C 
HETATM   23  C27 UNL     1       4.492   0.098   1.434  1.00  0.00     0.005 C 
BRANCH  22  24
HETATM   24  C19 UNL     1       2.875   0.330  -0.486  1.00  0.00    -0.031 C 
HETATM   25  C20 UNL     1       2.895  -0.391  -1.619  1.00  0.00    -0.031 C 
BRANCH  25  26
HETATM   26  C21 UNL     1       2.594   0.309  -2.918  1.00  0.00     0.022 C 
BRANCH  26  27
HETATM   27  C22 UNL     1       3.857   0.795  -3.627  1.00  0.00     0.004 C 
HETATM   28  C23 UNL     1       4.656   1.795  -2.789  1.00  0.00     0.000 C 
HETATM   29  C24 UNL     1       4.719  -0.355  -4.150  1.00  0.00     0.000 C 
ENDBRANCH  26  27
BRANCH  26  30
HETATM   30  C25 UNL     1       1.687  -0.519  -3.830  1.00  0.00     0.004 C 
HETATM   31  C26 UNL     1       0.254  -0.619  -3.309  1.00  0.00     0.000 C 
ENDBRANCH  26  30
ENDBRANCH  25  26
ENDBRANCH  22  24
ENDBRANCH  16  22
TORSDOF 5
