REMARK  6 active torsions:
REMARK  status: ('A' for Active; 'I' for Inactive)
REMARK    1  A    between atoms: C1_1  and  O7_26 
REMARK    2  A    between atoms: C3_3  and  O6_24 
REMARK    3  A    between atoms: C6_6  and  O1_7 
REMARK    4  A    between atoms: C8_10  and  C11_14 
REMARK    5  A    between atoms: C14_17  and  O5_22 
REMARK    6  A    between atoms: C15_18  and  O4_20 
ROOT
HETATM    1  C1  UNL     1      -3.776  -0.727   0.228  1.00  0.00     0.120 A 
HETATM    2  C2  UNL     1      -3.617  -2.033   0.746  1.00  0.00     0.051 A 
HETATM    3  C3  UNL     1      -2.324  -2.569   0.953  1.00  0.00     0.101 A 
HETATM    4  C4  UNL     1      -1.184  -1.783   0.639  1.00  0.00     0.086 A 
HETATM    5  C5  UNL     1      -1.340  -0.471   0.119  1.00  0.00     0.129 A 
HETATM    6  C6  UNL     1      -2.637   0.055  -0.084  1.00  0.00     0.139 A 
HETATM    7  O2  UNL     1      -0.254   0.279  -0.178  1.00  0.00    -0.305 OA
HETATM    8  C8  UNL     1       1.015  -0.149  -0.014  1.00  0.00     0.103 A 
HETATM    9  C9  UNL     1       1.285  -1.381   0.471  1.00  0.00     0.067 A 
HETATM   10  C10 UNL     1       0.195  -2.311   0.840  1.00  0.00     0.202 A 
HETATM   11  O3  UNL     1       0.515  -3.397   1.266  1.00  0.00    -0.286 OA
ENDROOT
BRANCH   8  12
HETATM   12  C11 UNL     1       2.154   0.752  -0.369  1.00  0.00     0.025 A 
HETATM   13  C12 UNL     1       2.033   1.650  -1.444  1.00  0.00     0.004 A 
HETATM   14  C13 UNL     1       3.105   2.496  -1.777  1.00  0.00     0.026 A 
HETATM   15  C14 UNL     1       4.301   2.445  -1.039  1.00  0.00     0.116 A 
HETATM   16  C15 UNL     1       4.424   1.547   0.037  1.00  0.00     0.116 A 
HETATM   17  C16 UNL     1       3.349   0.701   0.369  1.00  0.00     0.028 A 
BRANCH  15  18
HETATM   18  O5  UNL     1       5.303   3.242  -1.358  1.00  0.00    -0.326 OA
HETATM   19  C18 UNL     1       5.016   4.400  -2.127  1.00  0.00     0.181 C 
ENDBRANCH  15  18
BRANCH  16  20
HETATM   20  O4  UNL     1       5.541   1.492   0.734  1.00  0.00    -0.326 OA
HETATM   21  C17 UNL     1       5.613   0.568   1.808  1.00  0.00     0.181 C 
ENDBRANCH  16  20
ENDBRANCH   8  12
BRANCH   6  22
HETATM   22  O1  UNL     1      -2.789   1.295  -0.574  1.00  0.00    -0.324 OA
HETATM   23  C7  UNL     1      -3.740   1.490  -1.610  1.00  0.00     0.182 C 
ENDBRANCH   6  22
BRANCH   3  24
HETATM   24  O6  UNL     1      -2.194  -3.809   1.443  1.00  0.00    -0.328 OA
HETATM   25  C19 UNL     1      -3.377  -4.539   1.734  1.00  0.00     0.181 C 
ENDBRANCH   3  24
BRANCH   1  26
HETATM   26  O7  UNL     1      -5.004  -0.231   0.037  1.00  0.00    -0.326 OA
HETATM   27  C20 UNL     1      -6.115  -1.051   0.371  1.00  0.00     0.181 C 
ENDBRANCH   1  26
TORSDOF 6
