REMARK  3 active torsions:
REMARK  status: ('A' for Active; 'I' for Inactive)
REMARK    1  A    between atoms: C4_4  and  O2_7 
REMARK    2  A    between atoms: O2_7  and  C6_8 
REMARK    3  A    between atoms: C27_29  and  C28_31 
ROOT
HETATM    1  C6  UNL     1       4.531  -0.111   0.166  1.00  0.00     0.118 C 
HETATM    2  C7  UNL     1       4.406  -1.369  -0.715  1.00  0.00     0.030 C 
HETATM    3  C8  UNL     1       2.949  -1.645  -1.142  1.00  0.00     0.003 C 
HETATM    4  C9  UNL     1       1.971  -1.223  -0.033  1.00  0.00     0.000 A 
HETATM    5  C10 UNL     1       2.557  -1.260   1.389  1.00  0.00     0.002 C 
HETATM    6  C11 UNL     1       3.762  -0.272   1.518  1.00  0.00     0.025 C 
HETATM    7  C12 UNL     1       3.322   1.101   2.067  1.00  0.00     0.002 C 
HETATM    8  C13 UNL     1       4.731  -0.854   2.555  1.00  0.00     0.002 C 
HETATM    9  C14 UNL     1       1.475  -1.067   2.481  1.00  0.00     0.000 C 
HETATM   10  C15 UNL     1       0.303  -2.027   2.309  1.00  0.00     0.000 C 
HETATM   11  C16 UNL     1      -0.381  -1.975   0.924  1.00  0.00     0.003 C 
HETATM   12  C17 UNL     1       0.477  -1.451  -0.258  1.00  0.00     0.003 A 
HETATM   13  C18 UNL     1      -0.111  -1.848  -1.619  1.00  0.00     0.033 C 
HETATM   14  C19 UNL     1      -1.500  -1.168  -1.709  1.00  0.00     0.152 C 
HETATM   15  C20 UNL     1      -2.391  -1.647  -0.537  1.00  0.00     0.035 C 
HETATM   16  C21 UNL     1      -1.736  -1.229   0.826  1.00  0.00     0.035 C 
HETATM   17  C22 UNL     1      -2.857  -1.608   1.828  1.00  0.00     0.206 C 
HETATM   18  C23 UNL     1      -4.199  -1.383   1.061  1.00  0.00     0.247 C 
HETATM   19  C24 UNL     1      -3.744  -0.943  -0.351  1.00  0.00     0.060 C 
HETATM   20  C25 UNL     1      -4.926  -1.000  -1.324  1.00  0.00     0.008 C 
HETATM   21  C26 UNL     1      -5.936   0.023  -0.744  1.00  0.00     0.032 C 
HETATM   22  C27 UNL     1      -6.244  -0.147   0.772  1.00  0.00     0.146 C 
HETATM   23  O3  UNL     1      -5.055  -0.346   1.541  1.00  0.00    -0.331 OA
HETATM   24  O5  UNL     1      -4.893  -2.627   1.053  1.00  0.00    -0.193 OA
HETATM   25  O6  UNL     1      -2.795  -0.902   3.061  1.00  0.00    -0.218 OA
HETATM   26  C31 UNL     1      -1.519   0.293   0.949  1.00  0.00     0.003 C 
HETATM   27  C32 UNL     1      -2.646  -3.160  -0.658  1.00  0.00     0.003 C 
HETATM   28  O7  UNL     1      -2.090  -1.496  -2.951  1.00  0.00    -0.224 OA
HETATM   29  C33 UNL     1       1.067  -0.047  -0.301  1.00  0.00     0.000 A 
ENDROOT
BRANCH   1  30
HETATM   30  O2  UNL     1       4.053   0.992  -0.586  1.00  0.00    -0.332 OA
BRANCH  30  31
HETATM   31  C4  UNL     1       4.998   1.486  -1.514  1.00  0.00     0.270 C 
HETATM   32  C3  UNL     1       4.311   2.414  -2.551  1.00  0.00     0.241 C 
HETATM   33  C2  UNL     1       5.350   3.088  -3.475  1.00  0.00     0.220 C 
HETATM   34  O8  UNL     1       3.406   1.652  -3.334  1.00  0.00    -0.215 OA
HETATM   35  C1  UNL     1       6.463   3.734  -2.623  1.00  0.00     0.215 C 
HETATM   36  O9  UNL     1       4.719   4.076  -4.271  1.00  0.00    -0.218 OA
HETATM   37  C5  UNL     1       7.039   2.734  -1.603  1.00  0.00     0.181 C 
HETATM   38  O10 UNL     1       7.520   4.180  -3.453  1.00  0.00    -0.218 OA
HETATM   39  O1  UNL     1       5.990   2.213  -0.801  1.00  0.00    -0.326 OA
ENDBRANCH  30  31
ENDBRANCH   1  30
BRANCH  22  40
HETATM   40  C28 UNL     1      -6.963   1.070   1.358  1.00  0.00     0.152 C 
HETATM   41  C29 UNL     1      -7.506   0.814   2.764  1.00  0.00     0.035 C 
HETATM   42  C30 UNL     1      -6.127   2.348   1.272  1.00  0.00     0.035 C 
HETATM   43  O4  UNL     1      -8.152   1.273   0.631  1.00  0.00    -0.224 OA
ENDBRANCH  22  40
TORSDOF 3
