REMARK  1 active torsions:
REMARK  status: ('A' for Active; 'I' for Inactive)
REMARK    1  A    between atoms: C2_2  and  O3_17 
ROOT
HETATM    1  C1  UNL     1      -1.535   1.379  -0.301  1.00  0.00     0.028 A 
HETATM    2  C2  UNL     1      -2.778   0.714  -0.389  1.00  0.00     0.094 A 
HETATM    3  C3  UNL     1      -2.835  -0.690  -0.263  1.00  0.00     0.024 A 
HETATM    4  C4  UNL     1      -1.650  -1.427  -0.047  1.00  0.00     0.005 A 
HETATM    5  C5  UNL     1      -0.394  -0.769   0.042  1.00  0.00     0.042 A 
HETATM    6  C6  UNL     1       0.836  -1.591   0.270  1.00  0.00     0.196 A 
HETATM    7  O1  UNL     1       0.785  -2.796   0.390  1.00  0.00    -0.287 OA
HETATM    8  C7  UNL     1       2.131  -0.845   0.341  1.00  0.00     0.042 A 
HETATM    9  C8  UNL     1       3.332  -1.577   0.542  1.00  0.00     0.003 A 
HETATM   10  C9  UNL     1       4.577  -0.914   0.612  1.00  0.00     0.000 A 
HETATM   11  C10 UNL     1       4.635   0.490   0.482  1.00  0.00     0.000 A 
HETATM   12  C11 UNL     1       3.448   1.229   0.283  1.00  0.00     0.003 A 
HETATM   13  C12 UNL     1       2.189   0.574   0.210  1.00  0.00     0.042 A 
HETATM   14  C13 UNL     1       0.958   1.397  -0.002  1.00  0.00     0.196 A 
HETATM   15  O2  UNL     1       1.006   2.604  -0.102  1.00  0.00    -0.287 OA
HETATM   16  C14 UNL     1      -0.336   0.650  -0.086  1.00  0.00     0.044 A 
ENDROOT
BRANCH   2  17
HETATM   17  O3  UNL     1      -3.902   1.415  -0.594  1.00  0.00    -0.328 OA
HETATM   18  C15 UNL     1      -5.122   0.699  -0.713  1.00  0.00     0.181 C 
ENDBRANCH   2  17
TORSDOF 1
