REMARK  8 active torsions:
REMARK  status: ('A' for Active; 'I' for Inactive)
REMARK    1  A    between atoms: C5_5  and  C7_7 
REMARK    2  A    between atoms: C7_7  and  C8_8 
REMARK    3  A    between atoms: C8_8  and  C9_9 
REMARK    4  A    between atoms: C9_9  and  C10_10 
REMARK    5  A    between atoms: C11_11  and  C12_12 
REMARK    6  A    between atoms: C12_12  and  C13_13 
REMARK    7  A    between atoms: C13_13  and  C14_14 
REMARK    8  A    between atoms: C18_18  and  O1_20 
ROOT
HETATM    1  C10 UNL     1       0.553  -0.033   0.539  1.00  0.00     0.060 C 
HETATM    2  C11 UNL     1       0.473  -0.996  -0.395  1.00  0.00     0.112 C 
HETATM    3  O3  UNL     1       1.518  -1.781  -0.641  1.00  0.00    -0.195 OA
ENDROOT
BRANCH   2   4
HETATM    4  C12 UNL     1      -0.820  -1.160  -1.147  1.00  0.00     0.059 C 
BRANCH   4   5
HETATM    5  C13 UNL     1      -1.652  -2.334  -0.629  1.00  0.00     0.033 C 
BRANCH   5   6
HETATM    6  C14 UNL     1      -2.908  -2.500  -1.406  1.00  0.00    -0.020 A 
HETATM    7  C15 UNL     1      -3.912  -1.520  -1.342  1.00  0.00    -0.002 A 
HETATM    8  C16 UNL     1      -5.098  -1.680  -2.078  1.00  0.00     0.029 A 
HETATM    9  C17 UNL     1      -5.285  -2.820  -2.881  1.00  0.00     0.153 A 
HETATM   10  C18 UNL     1      -4.279  -3.803  -2.945  1.00  0.00     0.119 A 
HETATM   11  O2  UNL     1      -6.398  -2.963  -3.568  1.00  0.00    -0.188 OA
HETATM   12  C19 UNL     1      -3.094  -3.641  -2.207  1.00  0.00     0.022 A 
BRANCH  10  13
HETATM   13  O1  UNL     1      -4.445  -4.875  -3.693  1.00  0.00    -0.326 OA
HETATM   14  C20 UNL     1      -3.445  -5.881  -3.649  1.00  0.00     0.181 C 
ENDBRANCH  10  13
ENDBRANCH   5   6
ENDBRANCH   4   5
ENDBRANCH   2   4
BRANCH   1  15
HETATM   15  C9  UNL     1       1.791   0.170   1.301  1.00  0.00     0.175 C 
HETATM   16  O4  UNL     1       2.303  -0.752   1.893  1.00  0.00    -0.291 OA
BRANCH  15  17
HETATM   17  C8  UNL     1       2.404   1.543   1.328  1.00  0.00     0.074 C 
BRANCH  17  18
HETATM   18  C7  UNL     1       2.723   2.012   2.750  1.00  0.00     0.035 C 
BRANCH  18  19
HETATM   19  C5  UNL     1       3.418   3.326   2.750  1.00  0.00    -0.022 A 
HETATM   20  C4  UNL     1       4.822   3.377   2.750  1.00  0.00    -0.002 A 
HETATM   21  C3  UNL     1       5.479   4.619   2.750  1.00  0.00     0.027 A 
HETATM   22  C2  UNL     1       4.736   5.815   2.750  1.00  0.00     0.131 A 
HETATM   23  C1  UNL     1       3.330   5.758   2.750  1.00  0.00     0.027 A 
HETATM   24  O5  UNL     1       5.354   6.979   2.750  1.00  0.00    -0.190 OA
HETATM   25  C6  UNL     1       2.672   4.518   2.750  1.00  0.00    -0.002 A 
ENDBRANCH  18  19
ENDBRANCH  17  18
ENDBRANCH  15  17
ENDBRANCH   1  15
TORSDOF 8
