REMARK  3 active torsions:
REMARK  status: ('A' for Active; 'I' for Inactive)
REMARK    1  A    between atoms: C8_9  and  C9_10 
REMARK    2  A    between atoms: C11_12  and  O3_20 
REMARK    3  A    between atoms: C13_14  and  O2_17 
ROOT
HETATM    1  C9  UNL     1       0.293   0.100   0.166  1.00  0.00     0.023 A 
HETATM    2  C10 UNL     1       1.035  -0.807   0.945  1.00  0.00     0.026 A 
HETATM    3  C11 UNL     1       2.440  -0.766   0.944  1.00  0.00     0.092 A 
HETATM    4  C12 UNL     1       3.108   0.190   0.156  1.00  0.00     0.022 A 
HETATM    5  C13 UNL     1       2.375   1.102  -0.627  1.00  0.00     0.088 A 
HETATM    6  C14 UNL     1       0.967   1.059  -0.623  1.00  0.00     0.002 A 
HETATM    7  C15 UNL     1       0.205   2.029  -1.457  1.00  0.00     0.033 C 
HETATM    8  C17 UNL     1       4.596   0.236   0.152  1.00  0.00     0.035 C 
ENDROOT
BRANCH   1   9
HETATM    9  C8  UNL     1      -1.189   0.031   0.188  1.00  0.00     0.100 A 
HETATM   10  C7  UNL     1      -2.025  -1.105   0.293  1.00  0.00     0.029 A 
HETATM   11  C5  UNL     1      -3.295  -0.637   0.270  1.00  0.00     0.050 A 
HETATM   12  C4  UNL     1      -3.301   0.721   0.154  1.00  0.00     0.102 A 
HETATM   13  C6  UNL     1      -4.492  -1.391   0.346  1.00  0.00     0.133 A 
HETATM   14  C3  UNL     1      -4.484   1.482   0.106  1.00  0.00     0.025 A 
HETATM   15  O4  UNL     1      -2.006   1.201   0.100  1.00  0.00    -0.307 OA
HETATM   16  C2  UNL     1      -5.709   0.772   0.180  1.00  0.00     0.004 A 
HETATM   17  C1  UNL     1      -5.709  -0.646   0.299  1.00  0.00     0.028 A 
HETATM   18  O1  UNL     1      -4.637  -2.719   0.459  1.00  0.00    -0.190 OA
ENDBRANCH   1   9
BRANCH   3  19
HETATM   19  O3  UNL     1       3.119  -1.623   1.680  1.00  0.00    -0.328 OA
HETATM   20  C18 UNL     1       2.397  -2.449   2.578  1.00  0.00     0.181 C 
ENDBRANCH   3  19
BRANCH   5  21
HETATM   21  O2  UNL     1       3.008   1.996  -1.363  1.00  0.00    -0.329 OA
HETATM   22  C16 UNL     1       3.524   1.582  -2.619  1.00  0.00     0.181 C 
ENDBRANCH   5  21
TORSDOF 3
