REMARK  6 active torsions:
REMARK  status: ('A' for Active; 'I' for Inactive)
REMARK    1  A    between atoms: C2_2  and  O3_23 
REMARK    2  A    between atoms: C7_7  and  C12_12 
REMARK    3  A    between atoms: C12_12  and  C13_13 
REMARK    4  A    between atoms: C13_13  and  C14_14 
REMARK    5  A    between atoms: O3_23  and  C21_24 
REMARK    6  A    between atoms: C25_28  and  C26_30 
ROOT
HETATM    1  C1  UNL     1       0.586   0.166   1.678  1.00  0.00     0.030 C 
HETATM    2  C2  UNL     1       1.348   1.100   0.723  1.00  0.00     0.118 C 
HETATM    3  C3  UNL     1       0.447   2.242   0.139  1.00  0.00     0.025 C 
HETATM    4  C4  UNL     1      -1.080   1.867   0.125  1.00  0.00     0.003 C 
HETATM    5  C5  UNL     1      -1.322   0.346  -0.100  1.00  0.00     0.004 C 
HETATM    6  C6  UNL     1      -0.676  -0.471   1.055  1.00  0.00     0.003 C 
HETATM    7  C7  UNL     1      -2.844   0.029  -0.191  1.00  0.00     0.019 C 
HETATM    8  C8  UNL     1      -3.611   0.607   0.977  1.00  0.00    -0.044 C 
HETATM    9  C9  UNL     1      -3.369   2.063   1.293  1.00  0.00     0.022 C 
HETATM   10  C10 UNL     1      -1.869   2.375   1.363  1.00  0.00     0.004 C 
HETATM   11  C11 UNL     1      -4.467  -0.139   1.699  1.00  0.00    -0.009 C 
HETATM   12  C18 UNL     1      -0.688  -0.090  -1.432  1.00  0.00     0.000 C 
HETATM   13  C19 UNL     1       0.881   2.629  -1.287  1.00  0.00     0.002 C 
HETATM   14  C20 UNL     1       0.688   3.504   0.980  1.00  0.00     0.002 C 
ENDROOT
BRANCH   2  15
HETATM   15  O3  UNL     1       1.941   0.301  -0.287  1.00  0.00    -0.332 OA
BRANCH  15  16
HETATM   16  C21 UNL     1       3.324   0.090  -0.088  1.00  0.00     0.270 C 
HETATM   17  C22 UNL     1       3.949  -0.609  -1.324  1.00  0.00     0.241 C 
HETATM   18  C23 UNL     1       5.428  -1.004  -1.080  1.00  0.00     0.220 C 
HETATM   19  O8  UNL     1       3.838   0.213  -2.475  1.00  0.00    -0.215 OA
HETATM   20  C24 UNL     1       5.555  -1.768   0.256  1.00  0.00     0.215 C 
HETATM   21  O7  UNL     1       6.248   0.150  -1.000  1.00  0.00    -0.218 OA
HETATM   22  C25 UNL     1       4.840  -1.020   1.412  1.00  0.00     0.184 C 
HETATM   23  O6  UNL     1       5.000  -3.063   0.094  1.00  0.00    -0.218 OA
HETATM   24  O4  UNL     1       3.490  -0.731   1.064  1.00  0.00    -0.326 OA
BRANCH  22  25
HETATM   25  C26 UNL     1       4.820  -1.805   2.729  1.00  0.00     0.214 C 
HETATM   26  O5  UNL     1       4.402  -0.936   3.756  1.00  0.00    -0.218 OA
ENDBRANCH  22  25
ENDBRANCH  15  16
ENDBRANCH   2  15
BRANCH   7  27
HETATM   27  C12 UNL     1      -3.481   0.549  -1.488  1.00  0.00     0.009 C 
BRANCH  27  28
HETATM   28  C13 UNL     1      -4.918   0.064  -1.676  1.00  0.00     0.032 C 
BRANCH  28  29
HETATM   29  C14 UNL     1      -5.000  -1.428  -1.859  1.00  0.00     0.039 A 
HETATM   30  C15 UNL     1      -4.377  -2.190  -2.928  1.00  0.00     0.292 A 
HETATM   31  O1  UNL     1      -4.656  -3.492  -2.787  1.00  0.00    -0.294 OA
HETATM   32  O2  UNL     1      -3.707  -1.697  -3.805  1.00  0.00    -0.260 OA
HETATM   33  C16 UNL     1      -5.479  -3.662  -1.617  1.00  0.00     0.178 A 
HETATM   34  C17 UNL     1      -5.660  -2.272  -1.064  1.00  0.00     0.007 A 
ENDBRANCH  28  29
ENDBRANCH  27  28
ENDBRANCH   7  27
TORSDOF 6
