REMARK  1 active torsions:
REMARK  status: ('A' for Active; 'I' for Inactive)
REMARK    1  A    between atoms: C12_16  and  C13_17 
ROOT
HETATM    1  C1  UNL     1       0.711  -0.990   0.324  1.00  0.00     0.016 C 
HETATM    2  C2  UNL     1       0.629   0.521   0.721  1.00  0.00     0.053 C 
HETATM    3  C3  UNL     1      -0.543   1.314   0.074  1.00  0.00     0.179 C 
HETATM    4  C4  UNL     1      -1.793   0.465  -0.023  1.00  0.00     0.041 C 
HETATM    5  C5  UNL     1      -1.824  -0.949   0.480  1.00  0.00     0.244 C 
HETATM    6  C6  UNL     1      -0.609  -1.684  -0.090  1.00  0.00     0.065 C 
HETATM    7  O1  UNL     1      -3.066  -1.473  -0.027  1.00  0.00    -0.271 OA
HETATM    8  C7  UNL     1      -3.768  -0.467  -0.582  1.00  0.00     0.293 C 
HETATM    9  C8  UNL     1      -2.971   0.752  -0.584  1.00  0.00     0.040 C 
HETATM   10  C9  UNL     1      -3.398   2.086  -1.147  1.00  0.00     0.036 C 
HETATM   11  O2  UNL     1      -4.889  -0.543  -1.027  1.00  0.00    -0.259 OA
HETATM   12  O3  UNL     1      -1.836  -0.990   1.897  1.00  0.00    -0.191 OA
HETATM   13  O4  UNL     1      -0.197   1.738  -1.236  1.00  0.00    -0.218 OA
HETATM   14  C10 UNL     1       2.008   1.025   0.367  1.00  0.00    -0.046 C 
HETATM   15  C11 UNL     1       2.627   0.213  -0.494  1.00  0.00    -0.034 C 
HETATM   16  C12 UNL     1       1.752  -0.965  -0.824  1.00  0.00     0.038 C 
HETATM   17  C14 UNL     1       2.598   2.289   0.932  1.00  0.00     0.026 C 
HETATM   18  C15 UNL     1       1.326  -1.709   1.535  1.00  0.00     0.001 C 
ENDROOT
BRANCH  16  19
HETATM   19  C13 UNL     1       2.531  -2.266  -1.004  1.00  0.00     0.099 C 
HETATM   20 CL1  UNL     1       3.504  -2.174  -2.496  1.00  0.00    -0.114 Cl
ENDBRANCH  16  19
TORSDOF 1
