REMARK  4 active torsions:
REMARK  status: ('A' for Active; 'I' for Inactive)
REMARK    1  A    between atoms: C16_16  and  C17_17 
REMARK    2  A    between atoms: C17_17  and  C18_18 
REMARK    3  A    between atoms: C18_18  and  C19_19 
REMARK    4  A    between atoms: C19_19  and  C20_20 
ROOT
HETATM    1  C1  UNL     1       5.818  -0.883  -0.217  1.00  0.00     0.152 C 
HETATM    2  C2  UNL     1       5.137  -0.096   0.914  1.00  0.00     0.033 C 
HETATM    3  C3  UNL     1       4.631   1.270   0.430  1.00  0.00     0.006 C 
HETATM    4  C4  UNL     1       3.647   1.172  -0.764  1.00  0.00     0.018 C 
HETATM    5  C5  UNL     1       4.315   0.338  -1.897  1.00  0.00     0.014 C 
HETATM    6  C6  UNL     1       4.887  -1.047  -1.443  1.00  0.00     0.029 C 
HETATM    7  C7  UNL     1       5.656  -1.701  -2.602  1.00  0.00     0.003 C 
HETATM    8  C8  UNL     1       3.774  -2.025  -1.053  1.00  0.00     0.003 C 
HETATM    9  C9  UNL     1       3.358   0.236  -3.098  1.00  0.00     0.069 C 
HETATM   10  C10 UNL     1       2.000  -0.283  -2.697  1.00  0.00     0.169 C 
HETATM   11  C11 UNL     1       1.522  -0.068  -1.307  1.00  0.00     0.006 C 
HETATM   12  C12 UNL     1       0.184  -0.662  -0.885  1.00  0.00     0.021 C 
HETATM   13  C13 UNL     1       0.459  -2.092  -0.395  1.00  0.00     0.004 C 
HETATM   14  C14 UNL     1      -0.941  -0.799  -1.924  1.00  0.00     0.004 C 
HETATM   15  C15 UNL     1      -2.238  -0.902  -1.109  1.00  0.00     0.000 C 
HETATM   16  C16 UNL     1      -1.869  -0.537   0.334  1.00  0.00     0.000 C 
HETATM   17  C25 UNL     1      -0.541   0.211   0.156  1.00  0.00     0.006 C 
HETATM   18  C26 UNL     1      -0.840   1.621  -0.383  1.00  0.00     0.000 C 
HETATM   19  C27 UNL     1       0.365   0.262   1.389  1.00  0.00     0.037 C 
HETATM   20  C28 UNL     1       1.727   0.898   1.016  1.00  0.00     0.170 C 
HETATM   21  C29 UNL     1       2.260   0.627  -0.395  1.00  0.00    -0.016 C 
HETATM   22  O1  UNL     1       1.615   2.297   1.205  1.00  0.00    -0.219 OA
HETATM   23  O2  UNL     1       1.332  -0.879  -3.510  1.00  0.00    -0.292 OA
HETATM   24  C30 UNL     1       3.408   2.602  -1.275  1.00  0.00     0.004 C 
HETATM   25  O3  UNL     1       7.016  -0.215  -0.580  1.00  0.00    -0.224 OA
ENDROOT
BRANCH  16  26
HETATM   26  C17 UNL     1      -2.961   0.262   1.041  1.00  0.00     0.000 C 
HETATM   27  C24 UNL     1      -2.502   0.611   2.457  1.00  0.00     0.000 C 
BRANCH  26  28
HETATM   28  C18 UNL     1      -4.266  -0.537   1.025  1.00  0.00     0.005 C 
BRANCH  28  29
HETATM   29  C19 UNL     1      -5.484   0.320   1.367  1.00  0.00     0.025 C 
BRANCH  29  30
HETATM   30  C20 UNL     1      -6.773  -0.453   1.275  1.00  0.00    -0.035 C 
HETATM   31  C21 UNL     1      -7.857   0.031   1.902  1.00  0.00    -0.048 C 
HETATM   32  C22 UNL     1      -9.199  -0.646   1.967  1.00  0.00     0.026 C 
HETATM   33  C23 UNL     1      -7.748   1.359   2.604  1.00  0.00     0.026 C 
ENDBRANCH  29  30
ENDBRANCH  28  29
ENDBRANCH  26  28
ENDBRANCH  16  26
TORSDOF 4
