REMARK  4 active torsions:
REMARK  status: ('A' for Active; 'I' for Inactive)
REMARK    1  A    between atoms: C6_6  and  C7_7 
REMARK    2  A    between atoms: C7_7  and  C8_8 
REMARK    3  A    between atoms: C8_8  and  N1_9 
REMARK    4  A    between atoms: N1_9  and  C9_10 
ROOT
HETATM    1  C1  UNL     1       0.043   1.723   1.650  1.00  0.00     0.026 A 
HETATM    2  C2  UNL     1      -0.701   2.916   1.650  1.00  0.00     0.133 A 
HETATM    3  C3  UNL     1      -2.106   2.859   1.650  1.00  0.00     0.055 A 
HETATM    4  C4  UNL     1      -2.768   1.619   1.650  1.00  0.00     0.133 A 
HETATM    5  C5  UNL     1      -2.018   0.430   1.650  1.00  0.00     0.026 A 
HETATM    6  C6  UNL     1      -0.613   0.480   1.650  1.00  0.00     0.014 A 
HETATM    7  O2  UNL     1      -4.084   1.572   1.650  1.00  0.00    -0.190 OA
HETATM    8  O3  UNL     1      -0.084   4.080   1.650  1.00  0.00    -0.190 OA
ENDROOT
BRANCH   6   9
HETATM    9  C7  UNL     1       0.176  -0.779   1.650  1.00  0.00     0.211 C 
HETATM   10  O1  UNL     1       1.016  -0.807   2.783  1.00  0.00    -0.216 OA
BRANCH   9  11
HETATM   11  C8  UNL     1       1.051  -0.895   0.402  1.00  0.00     0.327 C 
BRANCH  11  12
HETATM   12  N1  UNL     1       0.228  -0.932  -0.795  1.00  0.00     0.338 N 
BRANCH  12  13
HETATM   13  C9  UNL     1       1.045  -1.221  -1.963  1.00  0.00     0.227 C 
HETATM   14  C10 UNL     1       1.504  -2.678  -1.947  1.00  0.00     0.036 C 
HETATM   15  C11 UNL     1       2.209  -0.234  -2.059  1.00  0.00     0.036 C 
HETATM   16  C12 UNL     1      -0.041  -0.953  -3.006  1.00  0.00     0.036 C 
ENDBRANCH  12  13
ENDBRANCH  11  12
ENDBRANCH   9  11
ENDBRANCH   6   9
TORSDOF 4
