REMARK  1 active torsions:
REMARK  status: ('A' for Active; 'I' for Inactive)
REMARK    1  A    between atoms: C9_10  and  C11_13 
ROOT
HETATM    1  C1  UNL     1      -2.515   0.145   2.699  1.00  0.00     0.037 C 
HETATM    2  C2  UNL     1      -1.826  -1.219   2.836  1.00  0.00     0.025 C 
HETATM    3  C3  UNL     1      -0.484  -1.196   2.141  1.00  0.00    -0.042 C 
HETATM    4  C4  UNL     1      -0.524  -0.789   0.671  1.00  0.00     0.051 C 
HETATM    5  C5  UNL     1      -1.151   0.631   0.559  1.00  0.00     0.034 C 
HETATM    6  C6  UNL     1      -2.556   0.618   1.232  1.00  0.00     0.153 C 
HETATM    7  O1  UNL     1      -3.147   1.905   1.194  1.00  0.00    -0.223 OA
HETATM    8  C7  UNL     1      -1.282   1.017  -0.932  1.00  0.00     0.003 C 
HETATM    9  C8  UNL     1       0.052   0.937  -1.684  1.00  0.00     0.003 C 
HETATM   10  C9  UNL     1       0.667  -0.464  -1.594  1.00  0.00     0.031 C 
HETATM   11  C10 UNL     1       0.807  -0.915  -0.123  1.00  0.00     0.156 C 
HETATM   12  O2  UNL     1       1.225  -2.270  -0.123  1.00  0.00    -0.223 OA
HETATM   13  C14 UNL     1      -0.236   1.653   1.262  1.00  0.00     0.003 C 
HETATM   14  C15 UNL     1       0.644  -1.504   2.815  1.00  0.00    -0.009 C 
ENDROOT
BRANCH  10  15
HETATM   15  C11 UNL     1       2.008  -0.507  -2.338  1.00  0.00     0.003 C 
HETATM   16  C12 UNL     1       1.870  -0.167  -3.823  1.00  0.00     0.000 C 
HETATM   17  C13 UNL     1       3.096   0.313  -1.644  1.00  0.00     0.000 C 
ENDBRANCH  10  15
TORSDOF 1
