REMARK  0 active torsions:
REMARK  status: ('A' for Active; 'I' for Inactive)
ROOT
HETATM    1  C1  UNL     1      -2.407   0.296  -1.151  1.00  0.00     0.000 C 
HETATM    2  C2  UNL     1      -1.942  -0.499   0.085  1.00  0.00     0.000 C 
HETATM    3  C3  UNL     1      -1.377  -1.907  -0.261  1.00  0.00     0.000 C 
HETATM    4  C4  UNL     1      -0.147  -1.593  -1.154  1.00  0.00     0.000 C 
HETATM    5  C5  UNL     1       0.480  -0.618  -0.140  1.00  0.00     0.000 A 
HETATM    6  C6  UNL     1      -0.634  -0.004   0.672  1.00  0.00     0.000 A 
HETATM    7  C7  UNL     1       0.105  -1.166   1.277  1.00  0.00     0.000 A 
HETATM    8  C8  UNL     1      -0.776  -2.414   1.108  1.00  0.00     0.000 C 
HETATM    9  C9  UNL     1       1.057  -0.839   2.440  1.00  0.00     0.000 C 
HETATM   10  C10 UNL     1      -3.072  -0.579   1.131  1.00  0.00     0.000 C 
ENDROOT
TORSDOF 0
