REMARK  4 active torsions:
REMARK  status: ('A' for Active; 'I' for Inactive)
REMARK    1  A    between atoms: C2_2  and  C3_3 
REMARK    2  A    between atoms: C3_3  and  C4_4 
REMARK    3  A    between atoms: C4_4  and  C5_5 
REMARK    4  A    between atoms: C6_6  and  C7_7 
ROOT
HETATM    1  C4  UNL     1       1.631   0.084  -0.736  1.00  0.00     0.060 C 
ENDROOT
BRANCH   1   2
HETATM    2  C3  UNL     1       2.215   0.512   0.611  1.00  0.00     0.149 C 
HETATM    3  O2  UNL     1       3.619   0.400   0.539  1.00  0.00    -0.221 OA
HETATM    4  C10 UNL     1       1.725  -0.360   1.770  1.00  0.00     0.038 C 
BRANCH   2   5
HETATM    5  C2  UNL     1       2.027   1.980   0.879  1.00  0.00     0.004 C 
HETATM    6  C1  UNL     1       1.004   2.365   1.658  1.00  0.00    -0.002 C 
ENDBRANCH   2   5
ENDBRANCH   1   2
BRANCH   1   7
HETATM    7  C5  UNL     1       0.127   0.084  -0.736  1.00  0.00    -0.025 C 
HETATM    8  C6  UNL     1      -0.514  -1.096  -0.736  1.00  0.00    -0.001 C 
BRANCH   8   9
HETATM    9  C7  UNL     1      -2.020  -1.096  -0.736  1.00  0.00     0.145 C 
HETATM   10  C8  UNL     1      -2.604  -1.715  -2.008  1.00  0.00     0.038 C 
HETATM   11  O1  UNL     1      -2.315  -1.951   0.346  1.00  0.00    -0.222 OA
HETATM   12  C9  UNL     1      -2.604   0.283  -0.430  1.00  0.00     0.038 C 
ENDBRANCH   8   9
ENDBRANCH   1   7
TORSDOF 4
