REMARK  4 active torsions:
REMARK  status: ('A' for Active; 'I' for Inactive)
REMARK    1  A    between atoms: C4_4  and  C8_9 
REMARK    2  A    between atoms: C6_6  and  O1_7 
REMARK    3  A    between atoms: C8_9  and  C9_10 
REMARK    4  A    between atoms: C9_10  and  C10_11 
ROOT
HETATM    1  C8  UNL     1      -0.396  -0.193   0.664  1.00  0.00     0.031 C 
ENDROOT
BRANCH   1   2
HETATM    2  C4  UNL     1       0.395  -1.453   0.664  1.00  0.00    -0.020 A 
HETATM    3  C3  UNL     1      -0.262  -2.695   0.670  1.00  0.00    -0.002 A 
HETATM    4  C2  UNL     1       0.486  -3.885   0.670  1.00  0.00     0.029 A 
HETATM    5  C1  UNL     1       1.893  -3.836   0.664  1.00  0.00     0.153 A 
HETATM    6  C6  UNL     1       2.549  -2.592   0.661  1.00  0.00     0.119 A 
HETATM    7  O4  UNL     1       2.588  -4.955   0.664  1.00  0.00    -0.188 OA
HETATM    8  C5  UNL     1       1.799  -1.402   0.661  1.00  0.00     0.022 A 
BRANCH   6   9
HETATM    9  O1  UNL     1       3.867  -2.537   0.655  1.00  0.00    -0.326 OA
HETATM   10  C7  UNL     1       4.481  -1.262   0.535  1.00  0.00     0.181 C 
ENDBRANCH   6   9
ENDBRANCH   1   2
BRANCH   1  11
HETATM   11  C9  UNL     1      -0.695   0.283  -0.757  1.00  0.00     0.031 C 
BRANCH  11  12
HETATM   12  C10 UNL     1      -1.484   1.543  -0.757  1.00  0.00    -0.018 A 
HETATM   13  C11 UNL     1      -2.889   1.492  -0.757  1.00  0.00     0.023 A 
HETATM   14  C12 UNL     1      -3.639   2.682  -0.757  1.00  0.00     0.133 A 
HETATM   15  C13 UNL     1      -2.975   3.922  -0.757  1.00  0.00     0.055 A 
HETATM   16  O3  UNL     1      -4.955   2.635  -0.757  1.00  0.00    -0.190 OA
HETATM   17  C14 UNL     1      -1.570   3.979  -0.757  1.00  0.00     0.133 A 
HETATM   18  C15 UNL     1      -0.826   2.785  -0.757  1.00  0.00     0.023 A 
HETATM   19  O2  UNL     1      -0.955   5.143  -0.757  1.00  0.00    -0.190 OA
ENDBRANCH  11  12
ENDBRANCH   1  11
TORSDOF 4
