REMARK  7 active torsions:
REMARK  status: ('A' for Active; 'I' for Inactive)
REMARK    1  A    between atoms: C7_7  and  C9_10 
REMARK    2  A    between atoms: C9_10  and  O1_11 
REMARK    3  A    between atoms: O1_11  and  C10_12 
REMARK    4  A    between atoms: C11_14  and  C21_32 
REMARK    5  A    between atoms: C14_17  and  O3_18 
REMARK    6  A    between atoms: O3_18  and  C15_19 
REMARK    7  A    between atoms: C16_21  and  C20_28 
ROOT
HETATM    1  C10 UNL     1      -0.730  -1.393   0.514  1.00  0.00     0.273 C 
HETATM    2  O2  UNL     1      -1.047  -1.832   1.826  1.00  0.00    -0.326 OA
HETATM    3  C11 UNL     1      -0.824  -3.215   2.066  1.00  0.00     0.184 C 
HETATM    4  C12 UNL     1       0.676  -3.535   1.873  1.00  0.00     0.215 C 
HETATM    5  C13 UNL     1       1.172  -3.088   0.482  1.00  0.00     0.217 C 
HETATM    6  C14 UNL     1       0.772  -1.615   0.236  1.00  0.00     0.207 C 
HETATM    7  O9  UNL     1       2.584  -3.219   0.408  1.00  0.00    -0.218 OA
HETATM    8  O10 UNL     1       0.863  -4.932   2.023  1.00  0.00    -0.218 OA
ENDROOT
BRANCH   1   9
HETATM    9  O1  UNL     1      -1.047  -0.012   0.402  1.00  0.00    -0.270 OA
BRANCH   9  10
HETATM   10  C9  UNL     1      -2.359   0.207   0.383  1.00  0.00     0.299 C 
HETATM   11  O12 UNL     1      -3.187  -0.670   0.432  1.00  0.00    -0.259 OA
BRANCH  10  12
HETATM   12  C7  UNL     1      -2.779   1.623   0.293  1.00  0.00     0.084 A 
HETATM   13  C2  UNL     1      -4.041   2.109   0.258  1.00  0.00     0.024 A 
HETATM   14  C1  UNL     1      -4.066   3.480   0.174  1.00  0.00     0.082 A 
HETATM   15  C3  UNL     1      -5.242   1.357   0.297  1.00  0.00     0.002 A 
HETATM   16  C6  UNL     1      -5.283   4.199   0.123  1.00  0.00     0.019 A 
HETATM   17  N1  UNL     1      -2.746   3.904   0.154  1.00  0.00    -0.244 NA
HETATM   18  C5  UNL     1      -6.500   3.469   0.162  1.00  0.00     0.002 A 
HETATM   19  C4  UNL     1      -6.478   2.051   0.250  1.00  0.00     0.000 A 
HETATM   20  C8  UNL     1      -1.933   2.746   0.228  1.00  0.00     0.104 A 
ENDBRANCH  10  12
ENDBRANCH   9  10
ENDBRANCH   1   9
BRANCH   6  21
HETATM   21  O3  UNL     1       1.041  -1.258  -1.108  1.00  0.00    -0.324 OA
BRANCH  21  22
HETATM   22  C15 UNL     1       2.291  -0.617  -1.272  1.00  0.00     0.270 C 
HETATM   23  O4  UNL     1       2.184   0.709  -0.770  1.00  0.00    -0.326 OA
HETATM   24  C16 UNL     1       3.383   1.469  -0.820  1.00  0.00     0.184 C 
HETATM   25  C17 UNL     1       3.832   1.623  -2.291  1.00  0.00     0.215 C 
HETATM   26  C18 UNL     1       3.975   0.250  -2.983  1.00  0.00     0.220 C 
HETATM   27  O7  UNL     1       5.074   2.305  -2.317  1.00  0.00    -0.218 OA
HETATM   28  C19 UNL     1       2.690  -0.584  -2.770  1.00  0.00     0.241 C 
HETATM   29  O6  UNL     1       4.203   0.432  -4.371  1.00  0.00    -0.218 OA
HETATM   30  O5  UNL     1       2.908  -1.908  -3.227  1.00  0.00    -0.215 OA
BRANCH  24  31
HETATM   31  C20 UNL     1       3.082   2.809  -0.143  1.00  0.00     0.214 C 
HETATM   32  O8  UNL     1       2.850   2.570   1.227  1.00  0.00    -0.218 OA
ENDBRANCH  24  31
ENDBRANCH  21  22
ENDBRANCH   6  21
BRANCH   3  33
HETATM   33  C21 UNL     1      -1.320  -3.500   3.488  1.00  0.00     0.214 C 
HETATM   34  O11 UNL     1      -2.723  -3.360   3.504  1.00  0.00    -0.218 OA
ENDBRANCH   3  33
TORSDOF 7
