REMARK  12 active torsions:
REMARK  status: ('A' for Active; 'I' for Inactive)
REMARK    1  A    between atoms: C6_8  and  C38_61 
REMARK    2  A    between atoms: C8_11  and  C37_58 
REMARK    3  A    between atoms: C12_17  and  C35_53 
REMARK    4  A    between atoms: C14_20  and  C28_44 
REMARK    5  A    between atoms: C16_23  and  C27_41 
REMARK    6  A    between atoms: C18_26  and  C26_38 
REMARK    7  A    between atoms: C20_29  and  C22_32 
REMARK    8  A    between atoms: C22_32  and  C23_33 
REMARK    9  A    between atoms: C23_33  and  C24_34 
REMARK   10  A    between atoms: C24_34  and  C25_35 
REMARK   11  A    between atoms: C28_44  and  C29_45 
REMARK   12  A    between atoms: C38_61  and  C39_62 
ROOT
HETATM    1  C1  UNL     1       5.367   0.004  -3.195  1.00  0.00     0.027 C 
HETATM    2  C2  UNL     1       5.078   0.891  -1.986  1.00  0.00     0.105 C 
HETATM    3  N1  UNL     1       3.951   0.248  -1.324  1.00  0.00    -0.312 N 
HETATM    4  C3  UNL     1       3.719  -1.111  -1.812  1.00  0.00     0.165 C 
HETATM    5  C4  UNL     1       4.932  -1.385  -2.715  1.00  0.00     0.034 C 
HETATM    6  C5  UNL     1       3.570  -2.186  -0.746  1.00  0.00     0.272 C 
HETATM    7  N2  UNL     1       3.072  -3.414  -1.123  1.00  0.00    -0.228 NA
HETATM    8  C6  UNL     1       2.887  -4.547  -0.180  1.00  0.00     0.191 C 
HETATM    9  C7  UNL     1       1.658  -4.377   0.697  1.00  0.00     0.275 C 
HETATM   10  N3  UNL     1       0.879  -5.479   0.977  1.00  0.00    -0.226 NA
HETATM   11  C8  UNL     1      -0.346  -5.410   1.811  1.00  0.00     0.219 C 
HETATM   12  C9  UNL     1      -1.445  -4.637   1.109  1.00  0.00     0.277 C 
HETATM   13  N4  UNL     1      -2.399  -5.315   0.383  1.00  0.00    -0.229 NA
HETATM   14  C10 UNL     1      -3.496  -4.629  -0.344  1.00  0.00     0.186 C 
HETATM   15  C11 UNL     1      -2.951  -3.736  -1.457  1.00  0.00     0.274 C 
HETATM   16  N5  UNL     1      -3.170  -2.377  -1.594  1.00  0.00    -0.226 NA
HETATM   17  C12 UNL     1      -3.988  -1.510  -0.705  1.00  0.00     0.219 C 
HETATM   18  C13 UNL     1      -4.168  -0.113  -1.275  1.00  0.00     0.277 C 
HETATM   19  N6  UNL     1      -5.402   0.496  -1.207  1.00  0.00    -0.228 NA
HETATM   20  C14 UNL     1      -5.610   1.879  -1.703  1.00  0.00     0.191 C 
HETATM   21  C15 UNL     1      -4.787   2.861  -0.891  1.00  0.00     0.275 C 
HETATM   22  N7  UNL     1      -3.875   3.676  -1.525  1.00  0.00    -0.226 NA
HETATM   23  C16 UNL     1      -2.988   4.613  -0.785  1.00  0.00     0.219 C 
HETATM   24  C17 UNL     1      -1.881   3.893  -0.029  1.00  0.00     0.277 C 
HETATM   25  N8  UNL     1      -0.863   4.639   0.525  1.00  0.00    -0.226 NA
HETATM   26  C18 UNL     1       0.269   4.027   1.270  1.00  0.00     0.219 C 
HETATM   27  C19 UNL     1       1.268   3.318   0.369  1.00  0.00     0.277 C 
HETATM   28  N9  UNL     1       2.486   2.953   0.897  1.00  0.00    -0.229 NA
HETATM   29  C20 UNL     1       3.529   2.281   0.080  1.00  0.00     0.184 C 
HETATM   30  C21 UNL     1       3.146   0.863  -0.324  1.00  0.00     0.256 C 
HETATM   31  O1  UNL     1       2.211   0.271   0.166  1.00  0.00    -0.270 OA
HETATM   32  O2  UNL     1       1.014   3.074  -0.791  1.00  0.00    -0.268 OA
HETATM   33  O4  UNL     1      -1.877   2.688   0.088  1.00  0.00    -0.268 OA
HETATM   34  O6  UNL     1      -4.924   2.918   0.311  1.00  0.00    -0.268 OA
HETATM   35  O8  UNL     1      -3.234   0.469  -1.779  1.00  0.00    -0.268 OA
HETATM   36  O10 UNL     1      -2.266  -4.272  -2.299  1.00  0.00    -0.268 OA
HETATM   37  C36 UNL     1      -4.490  -4.043   0.664  1.00  0.00     0.037 C 
HETATM   38  O11 UNL     1      -1.481  -3.430   1.191  1.00  0.00    -0.268 OA
HETATM   39  O13 UNL     1       1.365  -3.291   1.147  1.00  0.00    -0.268 OA
HETATM   40  O14 UNL     1       3.881  -1.977   0.406  1.00  0.00    -0.269 OA
ENDROOT
BRANCH  20  41
HETATM   41  C28 UNL     1      -7.094   2.252  -1.654  1.00  0.00     0.060 C 
BRANCH  41  42
HETATM   42  C29 UNL     1      -7.346   3.582  -2.268  1.00  0.00    -0.020 A 
HETATM   43  C30 UNL     1      -7.795   4.650  -1.471  1.00  0.00    -0.002 A 
HETATM   44  C31 UNL     1      -8.031   5.908  -2.053  1.00  0.00     0.027 A 
HETATM   45  C32 UNL     1      -7.820   6.102  -3.428  1.00  0.00     0.131 A 
HETATM   46  C33 UNL     1      -7.371   5.031  -4.223  1.00  0.00     0.027 A 
HETATM   47  O7  UNL     1      -8.043   7.281  -3.973  1.00  0.00    -0.190 OA
HETATM   48  C34 UNL     1      -7.133   3.773  -3.643  1.00  0.00    -0.002 A 
ENDBRANCH  41  42
ENDBRANCH  20  41
BRANCH  17  49
HETATM   49  C35 UNL     1      -3.334  -1.361   0.670  1.00  0.00     0.216 C 
HETATM   50  O9  UNL     1      -4.348  -1.111   1.617  1.00  0.00    -0.218 OA
ENDBRANCH  17  49
BRANCH  23  51
HETATM   51  C27 UNL     1      -3.809   5.535   0.127  1.00  0.00     0.216 C 
HETATM   52  O5  UNL     1      -3.108   6.752   0.268  1.00  0.00    -0.218 OA
ENDBRANCH  23  51
BRANCH  26  53
HETATM   53  C26 UNL     1      -0.242   3.111   2.389  1.00  0.00     0.216 C 
HETATM   54  O3  UNL     1       0.713   3.105   3.426  1.00  0.00    -0.218 OA
ENDBRANCH  26  53
BRANCH  11  55
HETATM   55  C37 UNL     1      -0.035  -4.840   3.199  1.00  0.00     0.216 C 
HETATM   56  O12 UNL     1      -1.160  -5.049   4.024  1.00  0.00    -0.218 OA
ENDBRANCH  11  55
BRANCH  29  57
HETATM   57  C22 UNL     1       4.859   2.295   0.844  1.00  0.00     0.034 C 
BRANCH  57  58
HETATM   58  C23 UNL     1       5.660   3.578   0.611  1.00  0.00     0.005 C 
BRANCH  58  59
HETATM   59  C24 UNL     1       6.990   3.588   1.367  1.00  0.00     0.041 C 
BRANCH  59  60
HETATM   60  C25 UNL     1       7.807   4.854   1.107  1.00  0.00     0.338 C 
HETATM   61  N10 UNL     1       9.059   4.811   1.842  1.00  0.00     0.618 N 
ENDBRANCH  59  60
ENDBRANCH  58  59
ENDBRANCH  57  58
ENDBRANCH  29  57
BRANCH   8  62
HETATM   62  C38 UNL     1       4.143  -4.789   0.664  1.00  0.00     0.060 C 
BRANCH  62  63
HETATM   63  C39 UNL     1       4.131  -6.137   1.291  1.00  0.00    -0.020 A 
HETATM   64  C40 UNL     1       3.725  -6.287   2.629  1.00  0.00    -0.004 A 
HETATM   65  C41 UNL     1       3.713  -7.563   3.221  1.00  0.00    -0.000 A 
HETATM   66  C42 UNL     1       4.105  -8.688   2.475  1.00  0.00    -0.000 A 
HETATM   67  C43 UNL     1       4.512  -8.537   1.137  1.00  0.00    -0.000 A 
HETATM   68  C44 UNL     1       4.523  -7.262   0.545  1.00  0.00    -0.004 A 
ENDBRANCH  62  63
ENDBRANCH   8  62
TORSDOF 12
