REMARK  1 active torsions:
REMARK  status: ('A' for Active; 'I' for Inactive)
REMARK    1  A    between atoms: C14_14  and  C15_15 
ROOT
HETATM    1  C1  UNL     1       1.375  -2.057  -1.008  1.00  0.00    -0.027 C 
HETATM    2  C2  UNL     1       1.766  -0.842  -1.449  1.00  0.00    -0.009 C 
HETATM    3  C3  UNL     1       1.633   0.461  -0.760  1.00  0.00    -0.026 C 
HETATM    4  C4  UNL     1       1.371   1.574  -1.475  1.00  0.00    -0.026 C 
HETATM    5  C5  UNL     1       1.094   2.932  -0.865  1.00  0.00     0.051 C 
HETATM    6  C6  UNL     1      -0.400   3.158  -0.881  1.00  0.00    -0.030 C 
HETATM    7  C7  UNL     1      -1.211   2.818   0.145  1.00  0.00    -0.047 C 
HETATM    8  C8  UNL     1      -2.713   2.945   0.016  1.00  0.00     0.026 C 
HETATM    9  C9  UNL     1      -3.320   1.846  -0.877  1.00  0.00     0.029 C 
HETATM   10  C10 UNL     1      -2.941   0.451  -0.422  1.00  0.00    -0.034 C 
HETATM   11  C11 UNL     1      -2.072  -0.342  -1.088  1.00  0.00    -0.048 C 
HETATM   12  C12 UNL     1      -1.695  -1.705  -0.543  1.00  0.00     0.022 C 
HETATM   13  C13 UNL     1      -0.641  -1.627   0.582  1.00  0.00     0.009 C 
HETATM   14  C14 UNL     1       0.678  -2.387   0.299  1.00  0.00     0.022 C 
HETATM   15  C18 UNL     1      -1.434   0.086  -2.385  1.00  0.00     0.026 C 
HETATM   16  C19 UNL     1      -0.666   2.289   1.447  1.00  0.00     0.026 C 
HETATM   17  C20 UNL     1       1.793   0.547   0.738  1.00  0.00     0.030 C 
ENDROOT
BRANCH  14  18
HETATM   18  C15 UNL     1       1.650  -2.309   1.479  1.00  0.00     0.004 C 
HETATM   19  C16 UNL     1       1.326  -3.316   2.580  1.00  0.00     0.000 C 
HETATM   20  C17 UNL     1       3.115  -2.365   1.041  1.00  0.00     0.000 C 
ENDBRANCH  14  18
TORSDOF 1
