REMARK  3 active torsions:
REMARK  status: ('A' for Active; 'I' for Inactive)
REMARK    1  A    between atoms: C1_1  and  C6_6 
REMARK    2  A    between atoms: C2_2  and  C3_3 
REMARK    3  A    between atoms: C3_3  and  C4_4 
ROOT
HETATM    1  C6  UNL     1       0.063  -1.703  -0.119  1.00  0.00    -0.000 A 
HETATM    2  C7  UNL     1      -1.342  -1.756  -0.119  1.00  0.00    -0.000 A 
HETATM    3  C8  UNL     1      -2.000  -2.998  -0.119  1.00  0.00     0.000 A 
HETATM    4  C9  UNL     1      -1.254  -4.190  -0.119  1.00  0.00     0.000 A 
HETATM    5  C10 UNL     1       0.150  -4.139  -0.119  1.00  0.00     0.000 A 
HETATM    6  C11 UNL     1       0.809  -2.897  -0.119  1.00  0.00    -0.000 A 
ENDROOT
BRANCH   1   7
HETATM    7  C1  UNL     1       0.762  -0.385  -0.119  1.00  0.00    -0.004 C 
HETATM    8  C2  UNL     1       0.160   0.664   0.465  1.00  0.00    -0.026 C 
BRANCH   8   9
HETATM    9  C3  UNL     1       0.869   1.992   0.463  1.00  0.00     0.026 C 
BRANCH   9  10
HETATM   10  C4  UNL     1       0.000   3.115  -0.104  1.00  0.00     0.004 C 
HETATM   11  C5  UNL     1       0.711   4.471  -0.100  1.00  0.00     0.000 C 
ENDBRANCH   9  10
ENDBRANCH   8   9
ENDBRANCH   1   7
TORSDOF 3
