REMARK  5 active torsions:
REMARK  status: ('A' for Active; 'I' for Inactive)
REMARK    1  A    between atoms: C5_5  and  C7_7 
REMARK    2  A    between atoms: C8_8  and  C9_9 
REMARK    3  A    between atoms: C9_9  and  C10_10 
REMARK    4  A    between atoms: C11_11  and  C12_13 
REMARK    5  A    between atoms: C13_14  and  C14_15 
ROOT
HETATM    1  C10 UNL     1       0.371   0.715  -1.998  1.00  0.00     0.069 C 
HETATM    2  C11 UNL     1      -0.969   0.611  -1.969  1.00  0.00     0.134 C 
HETATM    3  O1  UNL     1      -1.727   1.705  -1.965  1.00  0.00    -0.190 OA
ENDROOT
BRANCH   1   4
HETATM    4  C9  UNL     1       1.019   2.031  -2.026  1.00  0.00     0.198 C 
HETATM    5  O3  UNL     1       1.254   2.576  -3.078  1.00  0.00    -0.286 OA
BRANCH   4   6
HETATM    6  C8  UNL     1       1.381   2.676  -0.758  1.00  0.00     0.042 C 
HETATM    7  C7  UNL     1       1.670   1.939   0.328  1.00  0.00     0.003 C 
BRANCH   7   8
HETATM    8  C5  UNL     1       2.033   2.641   1.594  1.00  0.00     0.000 A 
HETATM    9  C4  UNL     1       2.715   3.871   1.549  1.00  0.00     0.002 A 
HETATM   10  C3  UNL     1       3.055   4.531   2.742  1.00  0.00     0.027 A 
HETATM   11  C2  UNL     1       2.717   3.965   3.984  1.00  0.00     0.131 A 
HETATM   12  C1  UNL     1       2.035   2.736   4.027  1.00  0.00     0.027 A 
HETATM   13  O4  UNL     1       3.037   4.586   5.102  1.00  0.00    -0.190 OA
HETATM   14  C6  UNL     1       1.693   2.074   2.836  1.00  0.00     0.002 A 
ENDBRANCH   7   8
ENDBRANCH   4   6
ENDBRANCH   1   4
BRANCH   2  15
HETATM   15  C12 UNL     1      -1.617  -0.705  -1.943  1.00  0.00     0.028 C 
HETATM   16  C13 UNL     1      -1.039  -1.740  -1.315  1.00  0.00     0.002 C 
BRANCH  16  17
HETATM   17  C14 UNL     1      -1.738  -3.061  -1.315  1.00  0.00     0.000 A 
HETATM   18  C15 UNL     1      -3.143  -3.111  -1.315  1.00  0.00     0.002 A 
HETATM   19  C16 UNL     1      -3.801  -4.356  -1.315  1.00  0.00     0.027 A 
HETATM   20  C17 UNL     1      -3.057  -5.549  -1.315  1.00  0.00     0.131 A 
HETATM   21  C18 UNL     1      -1.653  -5.494  -1.315  1.00  0.00     0.027 A 
HETATM   22  O2  UNL     1      -3.674  -6.713  -1.315  1.00  0.00    -0.190 OA
HETATM   23  C19 UNL     1      -0.992  -4.252  -1.315  1.00  0.00     0.002 A 
ENDBRANCH  16  17
ENDBRANCH   2  15
TORSDOF 5
