REMARK  2 active torsions:
REMARK  status: ('A' for Active; 'I' for Inactive)
REMARK    1  A    between atoms: C2_2  and  C10_12 
REMARK    2  A    between atoms: C10_12  and  C11_13 
ROOT
HETATM    1  C1  UNL     1      -1.482  -1.142   0.558  1.00  0.00     0.031 C 
HETATM    2  C2  UNL     1      -0.594   0.030   0.100  1.00  0.00     0.039 C 
HETATM    3  C3  UNL     1       0.764  -0.047   0.814  1.00  0.00     0.149 C 
HETATM    4  O1  UNL     1       1.390  -1.312   0.567  1.00  0.00    -0.331 OA
HETATM    5  C4  UNL     1       0.669  -2.454   0.569  1.00  0.00     0.092 A 
HETATM    6  C5  UNL     1      -0.755  -2.435   0.564  1.00  0.00     0.000 A 
HETATM    7  C6  UNL     1      -1.474  -3.657   0.565  1.00  0.00    -0.000 A 
HETATM    8  C7  UNL     1      -0.782  -4.890   0.567  1.00  0.00     0.027 A 
HETATM    9  C8  UNL     1       0.632  -4.908   0.567  1.00  0.00     0.133 A 
HETATM   10  C9  UNL     1       1.355  -3.692   0.567  1.00  0.00     0.051 A 
HETATM   11  O2  UNL     1       1.288  -6.077   0.567  1.00  0.00    -0.190 OA
ENDROOT
BRANCH   2  12
HETATM   12  C10 UNL     1      -1.279   1.379   0.338  1.00  0.00     0.029 C 
BRANCH  12  13
HETATM   13  C11 UNL     1      -0.500   2.499  -0.251  1.00  0.00    -0.022 A 
HETATM   14  C12 UNL     1       0.206   3.381   0.586  1.00  0.00    -0.002 A 
HETATM   15  C13 UNL     1       0.942   4.440   0.028  1.00  0.00     0.027 A 
HETATM   16  C14 UNL     1       0.976   4.623  -1.366  1.00  0.00     0.131 A 
HETATM   17  C15 UNL     1       0.269   3.739  -2.200  1.00  0.00     0.027 A 
HETATM   18  O3  UNL     1       1.667   5.616  -1.888  1.00  0.00    -0.190 OA
HETATM   19  C16 UNL     1      -0.468   2.679  -1.645  1.00  0.00    -0.002 A 
ENDBRANCH  12  13
ENDBRANCH   2  12
TORSDOF 2
