REMARK  2 active torsions:
REMARK  status: ('A' for Active; 'I' for Inactive)
REMARK    1  A    between atoms: C1_2  and  C2_3 
REMARK    2  A    between atoms: C2_3  and  C3_4 
ROOT
HETATM    1  C3  UNL     1      -1.147  -0.750   0.600  1.00  0.00     0.014 C 
HETATM    2  C4  UNL     1       0.305  -0.221   0.608  1.00  0.00     0.022 C 
HETATM    3  C5  UNL     1       0.336   1.326   0.664  1.00  0.00     0.004 C 
HETATM    4  C6  UNL     1      -0.537   1.975  -0.439  1.00  0.00     0.000 C 
HETATM    5  C7  UNL     1      -1.965   1.408  -0.437  1.00  0.00     0.000 C 
HETATM    6  C8  UNL     1      -1.969  -0.123  -0.535  1.00  0.00     0.001 C 
HETATM    7  C9  UNL     1      -0.565   3.502  -0.312  1.00  0.00     0.000 C 
HETATM    8  C10 UNL     1       1.799   1.795   0.613  1.00  0.00     0.005 C 
HETATM    9  C11 UNL     1       2.492   1.348  -0.682  1.00  0.00     0.022 C 
HETATM   10  C12 UNL     1       2.152  -0.068  -1.100  1.00  0.00    -0.048 C 
HETATM   11  C13 UNL     1       1.152  -0.771  -0.529  1.00  0.00    -0.035 C 
HETATM   12  C14 UNL     1       2.977  -0.686  -2.199  1.00  0.00     0.026 C 
ENDROOT
BRANCH   1  13
HETATM   13  C2  UNL     1      -1.217  -2.281   0.570  1.00  0.00     0.088 C 
HETATM   14  C15 UNL     1      -2.631  -2.811   0.807  1.00  0.00     0.011 C 
BRANCH  13  15
HETATM   15  C1  UNL     1      -0.203  -2.920   1.481  1.00  0.00     0.185 C 
HETATM   16  O1  UNL     1      -0.356  -2.650   2.774  1.00  0.00    -0.647 OA
HETATM   17  O2  UNL     1       0.674  -3.623   1.037  1.00  0.00    -0.647 OA
ENDBRANCH  13  15
ENDBRANCH   1  13
TORSDOF 2
