REMARK  8 active torsions:
REMARK  status: ('A' for Active; 'I' for Inactive)
REMARK    1  A    between atoms: C2_2  and  O1_30 
REMARK    2  A    between atoms: C13_13  and  C16_16 
REMARK    3  A    between atoms: C16_16  and  C17_17 
REMARK    4  A    between atoms: C17_17  and  C18_18 
REMARK    5  A    between atoms: C18_18  and  C19_19 
REMARK    6  A    between atoms: C19_19  and  C20_20 
REMARK    7  A    between atoms: C19_19  and  C23_23 
REMARK    8  A    between atoms: O1_30  and  C30_31 
ROOT
HETATM    1  C1  UNL     1       4.336  -0.742   2.402  1.00  0.00     0.030 C 
HETATM    2  C2  UNL     1       5.059  -1.412   1.227  1.00  0.00     0.122 C 
HETATM    3  C3  UNL     1       4.488  -0.945  -0.121  1.00  0.00     0.051 C 
HETATM    4  C4  UNL     1       2.978  -1.086  -0.180  1.00  0.00    -0.047 C 
HETATM    5  C5  UNL     1       2.172  -0.557   1.006  1.00  0.00     0.015 C 
HETATM    6  C6  UNL     1       2.826  -1.014   2.332  1.00  0.00     0.006 C 
HETATM    7  C7  UNL     1       0.687  -1.027   0.967  1.00  0.00     0.004 C 
HETATM    8  C8  UNL     1       0.119  -0.908  -0.463  1.00  0.00     0.005 C 
HETATM    9  C9  UNL     1      -1.361  -1.320  -0.461  1.00  0.00     0.000 C 
HETATM   10  C10 UNL     1      -2.188  -0.443   0.486  1.00  0.00     0.000 C 
HETATM   11  C11 UNL     1      -1.693  -0.721   1.912  1.00  0.00     0.000 C 
HETATM   12  C12 UNL     1      -0.209  -0.330   2.022  1.00  0.00     0.000 C 
HETATM   13  C13 UNL     1      -3.582  -0.992   0.168  1.00  0.00     0.000 C 
HETATM   14  C14 UNL     1      -3.584  -1.057  -1.365  1.00  0.00     0.000 C 
HETATM   15  C15 UNL     1      -2.117  -1.193  -1.783  1.00  0.00     0.000 C 
HETATM   16  C26 UNL     1      -2.111   1.049   0.133  1.00  0.00     0.000 C 
HETATM   17  C27 UNL     1       0.910  -1.820  -1.408  1.00  0.00     0.025 C 
HETATM   18  C28 UNL     1       2.404  -1.654  -1.264  1.00  0.00    -0.035 C 
HETATM   19  C29 UNL     1       2.238   0.976   0.906  1.00  0.00     0.004 C 
ENDROOT
BRANCH   2  20
HETATM   20  O1  UNL     1       6.436  -1.098   1.285  1.00  0.00    -0.331 OA
BRANCH  20  21
HETATM   21  C30 UNL     1       7.217  -1.848   0.375  1.00  0.00     0.272 C 
HETATM   22  C31 UNL     1       8.602  -2.168   0.994  1.00  0.00     0.241 C 
HETATM   23  C32 UNL     1       9.545  -2.832  -0.035  1.00  0.00     0.223 C 
HETATM   24  O6  UNL     1       8.432  -3.035   2.104  1.00  0.00    -0.215 OA
HETATM   25  C33 UNL     1       9.566  -1.990  -1.330  1.00  0.00     0.244 C 
HETATM   26  O5  UNL     1      10.856  -2.922   0.504  1.00  0.00    -0.218 OA
HETATM   27  C34 UNL     1       8.137  -1.697  -1.851  1.00  0.00     0.304 C 
HETATM   28  O4  UNL     1      10.338  -2.631  -2.334  1.00  0.00    -0.215 OA
HETATM   29  O2  UNL     1       7.371  -1.084  -0.818  1.00  0.00    -0.300 OA
HETATM   30  O3  UNL     1       7.500  -2.871  -2.334  1.00  0.00    -0.187 OA
ENDBRANCH  20  21
ENDBRANCH   2  20
BRANCH  13  31
HETATM   31  C16 UNL     1      -4.727  -0.149   0.723  1.00  0.00     0.000 C 
HETATM   32  C25 UNL     1      -5.895  -1.059   1.102  1.00  0.00     0.000 C 
BRANCH  31  33
HETATM   33  C17 UNL     1      -5.117   0.918  -0.301  1.00  0.00     0.000 C 
BRANCH  33  34
HETATM   34  C18 UNL     1      -5.988   2.021   0.299  1.00  0.00     0.000 C 
BRANCH  34  35
HETATM   35  C19 UNL     1      -6.295   3.141  -0.697  1.00  0.00     0.000 C 
BRANCH  35  36
HETATM   36  C20 UNL     1      -6.031   4.533  -0.121  1.00  0.00     0.000 C 
HETATM   37  C21 UNL     1      -6.051   5.627  -1.187  1.00  0.00     0.000 C 
HETATM   38  C22 UNL     1      -6.932   4.855   1.072  1.00  0.00     0.000 C 
ENDBRANCH  35  36
BRANCH  35  39
HETATM   39  C23 UNL     1      -7.684   3.014  -1.320  1.00  0.00     0.000 C 
HETATM   40  C24 UNL     1      -7.883   1.685  -2.055  1.00  0.00     0.000 C 
ENDBRANCH  35  39
ENDBRANCH  34  35
ENDBRANCH  33  34
ENDBRANCH  31  33
ENDBRANCH  13  31
TORSDOF 8
