REMARK  7 active torsions:
REMARK  status: ('A' for Active; 'I' for Inactive)
REMARK    1  A    between atoms: C2_2  and  C19_31 
REMARK    2  A    between atoms: C4_4  and  O2_6 
REMARK    3  A    between atoms: O2_6  and  C5_7 
REMARK    4  A    between atoms: C5_7  and  C6_8 
REMARK    5  A    between atoms: C10_12  and  O4_14 
REMARK    6  A    between atoms: O4_14  and  C11_15 
REMARK    7  A    between atoms: C15_19  and  O5_21 
ROOT
HETATM    1  C6  UNL     1      -0.856   2.203  -0.189  1.00  0.00     0.180 C 
HETATM    2  C7  UNL     1      -1.236   3.600  -0.736  1.00  0.00     0.215 C 
HETATM    3  C8  UNL     1      -0.197   4.668  -0.328  1.00  0.00     0.220 C 
HETATM    4  C9  UNL     1       1.221   4.178  -0.689  1.00  0.00     0.241 C 
HETATM    5  C10 UNL     1       1.477   2.756  -0.143  1.00  0.00     0.274 C 
HETATM    6  O3  UNL     1       0.463   1.875  -0.609  1.00  0.00    -0.326 OA
HETATM    7  O6  UNL     1       2.191   5.053  -0.141  1.00  0.00    -0.215 OA
HETATM    8  O7  UNL     1      -0.471   5.887  -1.000  1.00  0.00    -0.218 OA
HETATM    9  O8  UNL     1      -2.512   3.953  -0.230  1.00  0.00    -0.218 OA
ENDROOT
BRANCH   5  10
HETATM   10  O4  UNL     1       2.738   2.281  -0.592  1.00  0.00    -0.303 OA
BRANCH  10  11
HETATM   11  C11 UNL     1       3.035   1.014  -0.377  1.00  0.00     0.109 A 
HETATM   12  C12 UNL     1       3.838   0.291  -1.283  1.00  0.00     0.077 A 
HETATM   13  C13 UNL     1       4.143  -1.066  -1.025  1.00  0.00     0.003 A 
HETATM   14 CL2  UNL     1       4.439   1.076  -2.695  1.00  0.00    -0.081 Cl
HETATM   15  C14 UNL     1       3.641  -1.693   0.137  1.00  0.00     0.077 A 
HETATM   16  C18 UNL     1       4.996  -1.834  -1.980  1.00  0.00     0.033 C 
HETATM   17  C15 UNL     1       2.836  -0.965   1.037  1.00  0.00     0.106 A 
HETATM   18 CL1  UNL     1       4.002  -3.346   0.471  1.00  0.00    -0.081 Cl
HETATM   19  C16 UNL     1       2.539   0.381   0.774  1.00  0.00     0.050 A 
BRANCH  17  20
HETATM   20  O5  UNL     1       2.352  -1.527   2.127  1.00  0.00    -0.327 OA
HETATM   21  C17 UNL     1       1.758  -0.686   3.106  1.00  0.00     0.181 C 
ENDBRANCH  17  20
ENDBRANCH  10  11
ENDBRANCH   5  10
BRANCH   1  22
HETATM   22  C5  UNL     1      -1.772   1.090  -0.705  1.00  0.00     0.177 C 
BRANCH  22  23
HETATM   23  O2  UNL     1      -1.457  -0.096  -0.012  1.00  0.00    -0.326 OA
BRANCH  23  24
HETATM   24  C4  UNL     1      -2.211  -1.209  -0.443  1.00  0.00     0.270 C 
HETATM   25  C3  UNL     1      -1.748  -2.514   0.244  1.00  0.00     0.241 C 
HETATM   26  C2  UNL     1      -3.055  -3.168   0.772  1.00  0.00     0.217 C 
HETATM   27  O9  UNL     1      -1.107  -3.340  -0.711  1.00  0.00    -0.215 OA
HETATM   28  C1  UNL     1      -4.139  -2.359   0.049  1.00  0.00     0.181 C 
HETATM   29  O10 UNL     1      -3.162  -2.938   2.166  1.00  0.00    -0.218 OA
HETATM   30  O1  UNL     1      -3.561  -1.082  -0.072  1.00  0.00    -0.326 OA
BRANCH  26  31
HETATM   31  C19 UNL     1      -3.242  -4.670   0.561  1.00  0.00     0.218 C 
HETATM   32  O11 UNL     1      -4.551  -5.012   0.957  1.00  0.00    -0.218 OA
ENDBRANCH  26  31
ENDBRANCH  23  24
ENDBRANCH  22  23
ENDBRANCH   1  22
TORSDOF 7
