REMARK  6 active torsions:
REMARK  status: ('A' for Active; 'I' for Inactive)
REMARK    1  A    between atoms: C5_5  and  C7_7 
REMARK    2  A    between atoms: C7_7  and  C8_8 
REMARK    3  A    between atoms: C8_8  and  C9_9 
REMARK    4  A    between atoms: C9_9  and  C10_11 
REMARK    5  A    between atoms: C11_12  and  C12_13 
REMARK    6  A    between atoms: C13_14  and  C14_15 
ROOT
HETATM    1  C9  UNL     1      -0.408   2.016  -1.931  1.00  0.00     0.173 C 
HETATM    2  O1  UNL     1      -0.637   2.793  -2.828  1.00  0.00    -0.291 OA
ENDROOT
BRANCH   1   3
HETATM    3  C8  UNL     1       0.543   2.371  -0.820  1.00  0.00     0.074 C 
BRANCH   3   4
HETATM    4  C7  UNL     1       0.312   3.785  -0.285  1.00  0.00     0.035 C 
BRANCH   4   5
HETATM    5  C5  UNL     1       1.254   4.113   0.817  1.00  0.00    -0.022 A 
HETATM    6  C4  UNL     1       0.900   3.838   2.149  1.00  0.00    -0.002 A 
HETATM    7  C3  UNL     1       1.793   4.150   3.190  1.00  0.00     0.027 A 
HETATM    8  C2  UNL     1       3.039   4.736   2.905  1.00  0.00     0.131 A 
HETATM    9  C1  UNL     1       3.387   5.012   1.569  1.00  0.00     0.027 A 
HETATM   10  O3  UNL     1       3.873   5.029   3.881  1.00  0.00    -0.190 OA
HETATM   11  C6  UNL     1       2.498   4.701   0.528  1.00  0.00    -0.002 A 
ENDBRANCH   4   5
ENDBRANCH   3   4
ENDBRANCH   1   3
BRANCH   1  12
HETATM   12  C10 UNL     1      -1.057   0.699  -1.906  1.00  0.00     0.037 C 
HETATM   13  C11 UNL     1      -0.449  -0.352  -1.332  1.00  0.00     0.003 C 
BRANCH  13  14
HETATM   14  C12 UNL     1      -1.098  -1.670  -1.306  1.00  0.00     0.000 C 
HETATM   15  C13 UNL     1      -0.492  -2.721  -0.732  1.00  0.00     0.000 C 
BRANCH  15  16
HETATM   16  C14 UNL     1      -1.191  -4.039  -0.732  1.00  0.00     0.000 A 
HETATM   17  C15 UNL     1      -2.596  -4.092  -0.732  1.00  0.00     0.002 A 
HETATM   18  C16 UNL     1      -3.252  -5.334  -0.732  1.00  0.00     0.027 A 
HETATM   19  C17 UNL     1      -2.510  -6.529  -0.732  1.00  0.00     0.131 A 
HETATM   20  C18 UNL     1      -1.104  -6.473  -0.732  1.00  0.00     0.027 A 
HETATM   21  O2  UNL     1      -3.127  -7.693  -0.732  1.00  0.00    -0.190 OA
HETATM   22  C19 UNL     1      -0.445  -5.233  -0.732  1.00  0.00     0.002 A 
ENDBRANCH  15  16
ENDBRANCH  13  14
ENDBRANCH   1  12
TORSDOF 6
