REMARK  2 active torsions:
REMARK  status: ('A' for Active; 'I' for Inactive)
REMARK    1  A    between atoms: C1_1  and  O5_29 
REMARK    2  A    between atoms: C2_2  and  O4_27 
ROOT
HETATM    1  C1  UNL     1       1.496   1.570   2.346  1.00  0.00     0.116 C 
HETATM    2  C2  UNL     1       1.004   2.844   1.973  1.00  0.00     0.118 C 
HETATM    3  C3  UNL     1       0.387   3.012   0.717  1.00  0.00     0.043 C 
HETATM    4  C4  UNL     1       0.330   1.887  -0.135  1.00  0.00     0.060 C 
HETATM    5  C5  UNL     1       0.996   0.647   0.074  1.00  0.00     0.001 C 
HETATM    6  C6  UNL     1       1.471   0.496   1.418  1.00  0.00     0.024 C 
HETATM    7  C7  UNL     1       1.117  -0.244  -1.233  1.00  0.00     0.096 C 
HETATM    8  C8  UNL     1      -0.195   0.363  -1.895  1.00  0.00     0.099 C 
HETATM    9  N1  UNL     1      -0.490   1.662  -1.318  1.00  0.00    -0.301 N 
HETATM   10  C9  UNL     1      -1.725   2.365  -1.467  1.00  0.00     0.240 C 
HETATM   11  C10 UNL     1      -2.844   1.428  -1.959  1.00  0.00     0.118 C 
HETATM   12  C11 UNL     1      -2.762   0.199  -0.992  1.00  0.00     0.133 C 
HETATM   13  C12 UNL     1      -1.379  -0.441  -1.225  1.00  0.00     0.053 C 
HETATM   14  C13 UNL     1      -1.402  -1.943  -1.543  1.00  0.00     0.029 C 
HETATM   15  C14 UNL     1      -0.336  -2.307  -2.479  1.00  0.00     0.068 C 
HETATM   16  C15 UNL     1       0.916  -1.766  -1.789  1.00  0.00     0.320 C 
HETATM   17  O1  UNL     1       1.738  -2.055  -2.940  1.00  0.00    -0.192 OA
HETATM   18  N2  UNL     1       1.324  -2.639  -0.736  1.00  0.00     0.165 N 
HETATM   19  C16 UNL     1       2.582  -1.939  -0.350  1.00  0.00     0.254 C 
HETATM   20  C17 UNL     1       2.658  -0.531  -1.082  1.00  0.00     0.046 C 
HETATM   21  C18 UNL     1       0.201  -2.980   0.238  1.00  0.00     0.276 C 
HETATM   22  C19 UNL     1      -1.227  -2.543  -0.191  1.00  0.00    -0.009 C 
HETATM   23  C20 UNL     1      -2.356  -2.500   0.560  1.00  0.00     0.020 C 
HETATM   24  C21 UNL     1      -3.684  -1.787   0.143  1.00  0.00     0.116 C 
HETATM   25  O2  UNL     1      -3.768  -0.824  -0.961  1.00  0.00    -0.331 OA
HETATM   26  O3  UNL     1      -1.895   3.518  -1.141  1.00  0.00    -0.272 OA
ENDROOT
BRANCH   1  27
HETATM   27  O5  UNL     1       2.000   1.379   3.572  1.00  0.00    -0.326 OA
HETATM   28  C23 UNL     1       2.510   0.092   3.889  1.00  0.00     0.181 C 
ENDBRANCH   1  27
BRANCH   2  29
HETATM   29  O4  UNL     1       1.094   3.881   2.818  1.00  0.00    -0.326 OA
HETATM   30  C22 UNL     1       0.646   5.151   2.367  1.00  0.00     0.181 C 
ENDBRANCH   2  29
TORSDOF 2
