REMARK  2 active torsions:
REMARK  status: ('A' for Active; 'I' for Inactive)
REMARK    1  A    between atoms: C8_9  and  C9_10 
REMARK    2  A    between atoms: C11_12  and  O3_19 
ROOT
HETATM    1  C1  UNL     1      -4.853  -0.478   0.008  1.00  0.00     0.004 A 
HETATM    2  C2  UNL     1      -4.848   0.941  -0.109  1.00  0.00    -0.000 A 
HETATM    3  C3  UNL     1      -3.621   1.650  -0.186  1.00  0.00     0.025 A 
HETATM    4  C4  UNL     1      -2.439   0.887  -0.135  1.00  0.00     0.102 A 
HETATM    5  C5  UNL     1      -2.435  -0.471  -0.021  1.00  0.00     0.050 A 
HETATM    6  C6  UNL     1      -3.635  -1.225   0.057  1.00  0.00     0.129 A 
HETATM    7  O1  UNL     1      -3.764  -2.557   0.168  1.00  0.00    -0.190 OA
HETATM    8  C7  UNL     1      -1.168  -0.941   0.004  1.00  0.00     0.029 A 
HETATM    9  C8  UNL     1      -0.330   0.195  -0.102  1.00  0.00     0.100 A 
HETATM   10  O4  UNL     1      -1.144   1.365  -0.189  1.00  0.00    -0.307 OA
HETATM   11  C18 UNL     1      -6.148  -1.178   0.082  1.00  0.00     0.033 C 
ENDROOT
BRANCH   9  12
HETATM   12  C9  UNL     1       1.154   0.262  -0.123  1.00  0.00     0.023 A 
HETATM   13  C10 UNL     1       1.881  -0.285   0.949  1.00  0.00     0.026 A 
HETATM   14  C11 UNL     1       3.285  -0.236   0.955  1.00  0.00     0.092 A 
HETATM   15  C12 UNL     1       3.967   0.361  -0.119  1.00  0.00     0.025 A 
HETATM   16  C13 UNL     1       3.248   0.910  -1.199  1.00  0.00     0.125 A 
HETATM   17  C16 UNL     1       5.455   0.414  -0.117  1.00  0.00     0.035 C 
HETATM   18  C14 UNL     1       1.840   0.861  -1.201  1.00  0.00     0.005 A 
HETATM   19  O2  UNL     1       3.893   1.471  -2.205  1.00  0.00    -0.191 OA
HETATM   20  C15 UNL     1       1.092   1.445  -2.350  1.00  0.00     0.033 C 
BRANCH  14  21
HETATM   21  O3  UNL     1       3.953  -0.752   1.969  1.00  0.00    -0.328 OA
HETATM   22  C17 UNL     1       3.219  -1.158   3.113  1.00  0.00     0.181 C 
ENDBRANCH  14  21
ENDBRANCH   9  12
TORSDOF 2
