REMARK  3 active torsions:
REMARK  status: ('A' for Active; 'I' for Inactive)
REMARK    1  A    between atoms: C2_2  and  O1_11 
REMARK    2  A    between atoms: C3_3  and  C8_8 
REMARK    3  A    between atoms: O1_11  and  C11_12 
ROOT
HETATM    1  C1  UNL     1      -0.984   1.539   0.852  1.00  0.00     0.030 C 
HETATM    2  C2  UNL     1       0.297   0.777   0.461  1.00  0.00     0.124 C 
HETATM    3  C3  UNL     1       0.281  -0.678   0.965  1.00  0.00     0.028 C 
HETATM    4  C4  UNL     1      -1.002  -1.406   0.531  1.00  0.00     0.002 C 
HETATM    5  C5  UNL     1      -2.266  -0.641   0.955  1.00  0.00     0.000 C 
HETATM    6  C6  UNL     1      -2.270   0.803   0.430  1.00  0.00     0.002 C 
HETATM    7  C7  UNL     1      -2.475   0.846  -1.090  1.00  0.00     0.000 C 
ENDROOT
BRANCH   2   8
HETATM    8  O1  UNL     1       0.435   0.787  -0.953  1.00  0.00    -0.304 OA
BRANCH   8   9
HETATM    9  C11 UNL     1       0.816   1.975  -1.416  1.00  0.00     0.272 C 
HETATM   10  O2  UNL     1       1.103   2.912  -0.709  1.00  0.00    -0.264 OA
HETATM   11  C12 UNL     1       0.869   2.092  -2.916  1.00  0.00     0.106 C 
ENDBRANCH   8   9
ENDBRANCH   2   8
BRANCH   3  12
HETATM   12  C8  UNL     1       1.531  -1.441   0.520  1.00  0.00     0.002 C 
HETATM   13  C9  UNL     1       2.828  -0.760   0.961  1.00  0.00     0.000 C 
HETATM   14  C10 UNL     1       1.486  -2.922   0.898  1.00  0.00     0.000 C 
ENDBRANCH   3  12
TORSDOF 3
