REMARK  1 active torsions:
REMARK  status: ('A' for Active; 'I' for Inactive)
REMARK    1  A    between atoms: C4_4  and  C7_7 
ROOT
HETATM    1  C1  UNL     1      -0.865  -2.082  -0.186  1.00  0.00     0.004 C 
HETATM    2  C2  UNL     1       0.107  -1.213   0.654  1.00  0.00     0.018 C 
HETATM    3  C3  UNL     1      -0.053   0.275   0.391  1.00  0.00    -0.049 C 
HETATM    4  C4  UNL     1      -1.293   0.803   0.291  1.00  0.00    -0.034 C 
HETATM    5  C5  UNL     1      -2.469  -0.146   0.383  1.00  0.00     0.025 C 
HETATM    6  C6  UNL     1      -2.211  -1.381  -0.494  1.00  0.00     0.005 C 
HETATM    7  C10 UNL     1       1.221   1.088   0.250  1.00  0.00     0.022 C 
HETATM    8  C11 UNL     1       2.162   0.488  -0.815  1.00  0.00     0.004 C 
HETATM    9  C12 UNL     1       2.232  -1.059  -0.766  1.00  0.00     0.001 C 
HETATM   10  C13 UNL     1       1.576  -1.656   0.490  1.00  0.00     0.004 C 
HETATM   11  C14 UNL     1       3.553   1.123  -0.729  1.00  0.00     0.000 C 
HETATM   12  C15 UNL     1      -1.092  -3.441   0.490  1.00  0.00     0.000 C 
ENDROOT
BRANCH   4  13
HETATM   13  C7  UNL     1      -1.549   2.238   0.086  1.00  0.00    -0.026 C 
HETATM   14  C8  UNL     1      -1.025   3.262   1.057  1.00  0.00     0.030 C 
HETATM   15  C9  UNL     1      -2.254   2.664  -0.975  1.00  0.00    -0.005 C 
ENDBRANCH   4  13
TORSDOF 1
