REMARK  2 active torsions:
REMARK  status: ('A' for Active; 'I' for Inactive)
REMARK    1  A    between atoms: C1_1  and  C10_10 
REMARK    2  A    between atoms: C4_4  and  C7_7 
ROOT
HETATM    1  C1  UNL     1      -0.236  -1.258  -0.006  1.00  0.00    -0.026 A 
HETATM    2  C2  UNL     1      -0.984  -0.063  -0.006  1.00  0.00    -0.026 A 
HETATM    3  C3  UNL     1      -0.322   1.178  -0.006  1.00  0.00    -0.009 A 
HETATM    4  C4  UNL     1       1.082   1.230  -0.006  1.00  0.00    -0.022 A 
HETATM    5  C5  UNL     1       1.828   0.039  -0.006  1.00  0.00    -0.004 A 
HETATM    6  C6  UNL     1       1.170  -1.203  -0.006  1.00  0.00    -0.005 A 
HETATM    7  C9  UNL     1      -2.472  -0.100  -0.006  1.00  0.00     0.030 C 
ENDROOT
BRANCH   1   8
HETATM    8  C10 UNL     1      -0.916  -2.580  -0.006  1.00  0.00     0.026 C 
HETATM    9  C11 UNL     1      -1.513  -2.906  -1.375  1.00  0.00     0.005 C 
ENDBRANCH   1   8
BRANCH   4  10
HETATM   10  C7  UNL     1       1.780   2.543  -0.006  1.00  0.00     0.026 C 
HETATM   11  C8  UNL     1       2.051   3.037   1.416  1.00  0.00     0.005 C 
ENDBRANCH   4  10
TORSDOF 2
