REMARK  8 active torsions:
REMARK  status: ('A' for Active; 'I' for Inactive)
REMARK    1  A    between atoms: C7_8  and  C24_37 
REMARK    2  A    between atoms: C8_9  and  O3_12 
REMARK    3  A    between atoms: O3_12  and  C10_13 
REMARK    4  A    between atoms: C11_14  and  O12_33 
REMARK    5  A    between atoms: C14_17  and  C15_19 
REMARK    6  A    between atoms: C15_19  and  O5_20 
REMARK    7  A    between atoms: O5_20  and  C16_21 
REMARK    8  A    between atoms: O12_33  and  C22_34 
ROOT
HETATM    1  C10 UNL     1      -0.470   1.008  -0.021  1.00  0.00     0.272 C 
HETATM    2  C11 UNL     1       0.333   1.974   0.868  1.00  0.00     0.214 C 
HETATM    3  C12 UNL     1       1.803   2.037   0.420  1.00  0.00     0.217 C 
HETATM    4  C13 UNL     1       2.379   0.608   0.323  1.00  0.00     0.214 C 
HETATM    5  C14 UNL     1       1.470  -0.306  -0.532  1.00  0.00     0.180 C 
HETATM    6  O4  UNL     1       0.144  -0.275  -0.016  1.00  0.00    -0.326 OA
HETATM    7  O10 UNL     1       3.666   0.649  -0.267  1.00  0.00    -0.218 OA
HETATM    8  O11 UNL     1       2.541   2.807   1.352  1.00  0.00    -0.218 OA
ENDROOT
BRANCH   1   9
HETATM    9  O3  UNL     1      -1.797   0.894   0.475  1.00  0.00    -0.298 OA
BRANCH   9  10
HETATM   10  C8  UNL     1      -2.625   1.779  -0.084  1.00  0.00     0.158 A 
HETATM   11  C7  UNL     1      -3.030   1.645  -1.372  1.00  0.00     0.125 A 
HETATM   12  O1  UNL     1      -3.868   2.533  -1.947  1.00  0.00    -0.305 OA
HETATM   13  C5  UNL     1      -4.369   3.614  -1.310  1.00  0.00     0.107 A 
HETATM   14  C4  UNL     1      -4.022   3.869   0.041  1.00  0.00     0.089 A 
HETATM   15  C6  UNL     1      -5.241   4.495  -1.990  1.00  0.00     0.052 A 
HETATM   16  C3  UNL     1      -4.545   5.005   0.711  1.00  0.00     0.138 A 
HETATM   17  C9  UNL     1      -3.103   2.922   0.730  1.00  0.00     0.224 A 
HETATM   18  C2  UNL     1      -5.417   5.882   0.024  1.00  0.00     0.055 A 
HETATM   19  O16 UNL     1      -4.226   5.262   1.988  1.00  0.00    -0.190 OA
HETATM   20  C1  UNL     1      -5.765   5.628  -1.324  1.00  0.00     0.135 A 
HETATM   21  O17 UNL     1      -6.591   6.462  -1.971  1.00  0.00    -0.190 OA
HETATM   22  O2  UNL     1      -2.709   2.988   1.872  1.00  0.00    -0.284 OA
BRANCH  11  23
HETATM   23  C24 UNL     1      -2.540   0.489  -2.179  1.00  0.00     0.027 A 
HETATM   24  C25 UNL     1      -2.148   0.677  -3.515  1.00  0.00     0.004 A 
HETATM   25  C26 UNL     1      -1.686  -0.414  -4.272  1.00  0.00     0.030 A 
HETATM   26  C27 UNL     1      -1.615  -1.695  -3.697  1.00  0.00     0.156 A 
HETATM   27  C28 UNL     1      -2.008  -1.885  -2.358  1.00  0.00     0.156 A 
HETATM   28  O15 UNL     1      -1.182  -2.713  -4.413  1.00  0.00    -0.188 OA
HETATM   29  C29 UNL     1      -2.469  -0.792  -1.602  1.00  0.00     0.032 A 
HETATM   30  O14 UNL     1      -1.944  -3.082  -1.812  1.00  0.00    -0.188 OA
ENDBRANCH  11  23
ENDBRANCH   9  10
ENDBRANCH   1   9
BRANCH   2  31
HETATM   31  O12 UNL     1      -0.248   3.270   0.793  1.00  0.00    -0.296 OA
BRANCH  31  32
HETATM   32  C22 UNL     1       0.050   4.020   1.849  1.00  0.00     0.273 C 
HETATM   33  O13 UNL     1       0.431   3.574   2.906  1.00  0.00    -0.264 OA
HETATM   34  C23 UNL     1      -0.119   5.503   1.649  1.00  0.00     0.106 C 
ENDBRANCH  31  32
ENDBRANCH   2  31
BRANCH   5  35
HETATM   35  C15 UNL     1       1.916  -1.771  -0.521  1.00  0.00     0.177 C 
BRANCH  35  36
HETATM   36  O5  UNL     1       1.952  -2.211   0.818  1.00  0.00    -0.326 OA
BRANCH  36  37
HETATM   37  C16 UNL     1       2.312  -3.573   0.948  1.00  0.00     0.270 C 
HETATM   38  O6  UNL     1       3.676  -3.713   0.576  1.00  0.00    -0.329 OA
HETATM   39  C17 UNL     1       4.174  -5.044   0.607  1.00  0.00     0.151 C 
HETATM   40  C18 UNL     1       4.086  -5.589   2.051  1.00  0.00     0.212 C 
HETATM   41  C21 UNL     1       5.610  -4.990   0.076  1.00  0.00     0.035 C 
HETATM   42  C19 UNL     1       2.648  -5.485   2.603  1.00  0.00     0.220 C 
HETATM   43  O9  UNL     1       4.505  -6.943   2.051  1.00  0.00    -0.218 OA
HETATM   44  C20 UNL     1       2.110  -4.049   2.409  1.00  0.00     0.241 C 
HETATM   45  O8  UNL     1       2.636  -5.822   3.982  1.00  0.00    -0.218 OA
HETATM   46  O7  UNL     1       0.728  -4.018   2.727  1.00  0.00    -0.215 OA
ENDBRANCH  36  37
ENDBRANCH  35  36
ENDBRANCH   5  35
TORSDOF 8
