REMARK  10 active torsions:
REMARK  status: ('A' for Active; 'I' for Inactive)
REMARK    1  A    between atoms: C3_3  and  O2_7 
REMARK    2  A    between atoms: O2_7  and  C6_8 
REMARK    3  A    between atoms: C10_12  and  C11_14 
REMARK    4  A    between atoms: C11_14  and  O4_15 
REMARK    5  A    between atoms: O4_15  and  C12_16 
REMARK    6  A    between atoms: C16_20  and  C17_22 
REMARK    7  A    between atoms: C18_30  and  C27_46 
REMARK    8  A    between atoms: C20_32  and  O13_33 
REMARK    9  A    between atoms: O13_33  and  C21_34 
REMARK   10  A    between atoms: C25_38  and  C26_40 
ROOT
HETATM    1  C1  UNL     1      -2.555   0.420  -1.203  1.00  0.00     0.061 C 
HETATM    2  C2  UNL     1      -2.346  -1.113  -1.088  1.00  0.00     0.093 C 
HETATM    3  C3  UNL     1      -0.842  -1.414  -1.043  1.00  0.00     0.244 C 
HETATM    4  O1  UNL     1      -0.213  -0.750   0.057  1.00  0.00    -0.304 OA
HETATM    5  C4  UNL     1      -0.479   0.557   0.201  1.00  0.00     0.115 C 
HETATM    6  C5  UNL     1      -1.529   1.178  -0.371  1.00  0.00     0.003 C 
HETATM    7  C18 UNL     1      -3.131  -1.434   0.191  1.00  0.00     0.156 A 
HETATM    8  C19 UNL     1      -4.186  -0.312   0.387  1.00  0.00     0.170 A 
HETATM    9  C20 UNL     1      -4.027   0.664  -0.770  1.00  0.00     0.152 C 
HETATM   10  O19 UNL     1      -4.488  -1.590  -0.082  1.00  0.00    -0.351 OA
ENDROOT
BRANCH   3  11
HETATM   11  O2  UNL     1      -0.625  -2.807  -0.949  1.00  0.00    -0.304 OA
BRANCH  11  12
HETATM   12  C6  UNL     1       0.727  -3.174  -1.150  1.00  0.00     0.272 C 
HETATM   13  C7  UNL     1       0.840  -4.699  -1.402  1.00  0.00     0.241 C 
HETATM   14  C8  UNL     1       2.318  -5.143  -1.465  1.00  0.00     0.220 C 
HETATM   15  O12 UNL     1       0.201  -5.021  -2.629  1.00  0.00    -0.215 OA
HETATM   16  C9  UNL     1       3.082  -4.603  -0.236  1.00  0.00     0.215 C 
HETATM   17  O11 UNL     1       2.396  -6.559  -1.496  1.00  0.00    -0.218 OA
HETATM   18  C10 UNL     1       2.859  -3.084  -0.059  1.00  0.00     0.180 C 
HETATM   19  O10 UNL     1       4.471  -4.842  -0.391  1.00  0.00    -0.218 OA
HETATM   20  O3  UNL     1       1.465  -2.820   0.012  1.00  0.00    -0.326 OA
BRANCH  18  21
HETATM   21  C11 UNL     1       3.477  -2.537   1.232  1.00  0.00     0.177 C 
BRANCH  21  22
HETATM   22  O4  UNL     1       3.621  -1.143   1.096  1.00  0.00    -0.326 OA
BRANCH  22  23
HETATM   23  C12 UNL     1       4.088  -0.512   2.272  1.00  0.00     0.270 C 
HETATM   24  C13 UNL     1       4.088   1.029   2.098  1.00  0.00     0.241 C 
HETATM   25  C14 UNL     1       4.742   1.725   3.313  1.00  0.00     0.220 C 
HETATM   26  O9  UNL     1       2.752   1.486   1.957  1.00  0.00    -0.215 OA
HETATM   27  C15 UNL     1       6.113   1.078   3.615  1.00  0.00     0.215 C 
HETATM   28  O8  UNL     1       4.912   3.108   3.043  1.00  0.00    -0.218 OA
HETATM   29  C16 UNL     1       5.998  -0.459   3.721  1.00  0.00     0.184 C 
HETATM   30  O7  UNL     1       6.621   1.580   4.838  1.00  0.00    -0.218 OA
HETATM   31  O5  UNL     1       5.408  -0.971   2.533  1.00  0.00    -0.326 OA
BRANCH  29  32
HETATM   32  C17 UNL     1       7.356  -1.150   3.871  1.00  0.00     0.214 C 
HETATM   33  O6  UNL     1       7.129  -2.521   4.115  1.00  0.00    -0.218 OA
ENDBRANCH  29  32
ENDBRANCH  22  23
ENDBRANCH  21  22
ENDBRANCH  18  21
ENDBRANCH  11  12
ENDBRANCH   3  11
BRANCH   7  34
HETATM   34  C27 UNL     1      -2.729  -2.422   1.277  1.00  0.00     0.212 C 
HETATM   35  O20 UNL     1      -3.357  -2.037   2.479  1.00  0.00    -0.218 OA
ENDBRANCH   7  34
BRANCH   9  36
HETATM   36  O13 UNL     1      -4.268   1.988  -0.336  1.00  0.00    -0.329 OA
BRANCH  36  37
HETATM   37  C21 UNL     1      -4.184   2.940  -1.379  1.00  0.00     0.270 C 
HETATM   38  C22 UNL     1      -4.242   4.379  -0.803  1.00  0.00     0.241 C 
HETATM   39  C23 UNL     1      -4.311   5.426  -1.938  1.00  0.00     0.220 C 
HETATM   40  O18 UNL     1      -3.088   4.617  -0.014  1.00  0.00    -0.215 OA
HETATM   41  C24 UNL     1      -5.428   5.051  -2.936  1.00  0.00     0.215 C 
HETATM   42  O17 UNL     1      -4.566   6.711  -1.393  1.00  0.00    -0.218 OA
HETATM   43  C25 UNL     1      -5.293   3.584  -3.404  1.00  0.00     0.184 C 
HETATM   44  O16 UNL     1      -5.363   5.897  -4.070  1.00  0.00    -0.218 OA
HETATM   45  O14 UNL     1      -5.270   2.729  -2.270  1.00  0.00    -0.326 OA
BRANCH  43  46
HETATM   46  C26 UNL     1      -6.465   3.125  -4.277  1.00  0.00     0.214 C 
HETATM   47  O15 UNL     1      -6.170   1.840  -4.774  1.00  0.00    -0.218 OA
ENDBRANCH  43  46
ENDBRANCH  36  37
ENDBRANCH   9  36
TORSDOF 10
