REMARK  2 active torsions:
REMARK  status: ('A' for Active; 'I' for Inactive)
REMARK    1  A    between atoms: C9_10  and  C10_11 
REMARK    2  A    between atoms: C16_20  and  C17_21 
ROOT
HETATM    1  C1  UNL     1      -0.982  -0.492   0.059  1.00  0.00     0.071 C 
HETATM    2  C2  UNL     1      -1.107  -1.672  -0.914  1.00  0.00     0.124 C 
HETATM    3  C3  UNL     1      -0.215  -2.873  -0.586  1.00  0.00     0.032 C 
HETATM    4  C4  UNL     1       1.283  -2.598  -0.818  1.00  0.00     0.027 C 
HETATM    5  C5  UNL     1       1.910  -1.568   0.143  1.00  0.00     0.106 C 
HETATM    6  N1  UNL     1       1.557  -0.164  -0.168  1.00  0.00    -0.332 N 
HETATM    7  C6  UNL     1       0.258   0.352  -0.209  1.00  0.00     0.039 A 
HETATM    8  C7  UNL     1       0.377   1.697  -0.523  1.00  0.00     0.014 A 
HETATM    9  C8  UNL     1       1.686   2.006  -0.680  1.00  0.00     0.016 A 
HETATM   10  C9  UNL     1       2.449   0.869  -0.469  1.00  0.00     0.065 A 
HETATM   11  O3  UNL     1      -2.469  -2.043  -0.832  1.00  0.00    -0.333 OA
HETATM   12  C15 UNL     1      -3.244  -1.008  -0.264  1.00  0.00     0.215 A 
HETATM   13  C16 UNL     1      -2.318   0.211  -0.221  1.00  0.00     0.064 C 
HETATM   14  C19 UNL     1      -4.547  -0.818  -1.006  1.00  0.00     0.030 A 
HETATM   15  C20 UNL     1      -5.543  -1.063  -0.156  1.00  0.00     0.042 A 
HETATM   16  C21 UNL     1      -4.977  -1.416   1.133  1.00  0.00     0.294 A 
HETATM   17  O4  UNL     1      -3.641  -1.391   1.068  1.00  0.00    -0.274 OA
HETATM   18  O5  UNL     1      -5.637  -1.691   2.107  1.00  0.00    -0.259 OA
HETATM   19  C22 UNL     1      -7.010  -0.982  -0.482  1.00  0.00     0.036 C 
ENDROOT
BRANCH  10  20
HETATM   20  C10 UNL     1       3.955   0.717  -0.535  1.00  0.00     0.163 C 
HETATM   21  O1  UNL     1       4.541   1.850  -1.168  1.00  0.00    -0.298 OA
HETATM   22  C11 UNL     1       5.752   2.008  -0.648  1.00  0.00     0.272 C 
HETATM   23  C12 UNL     1       6.025   1.084   0.502  1.00  0.00     0.089 C 
HETATM   24  O2  UNL     1       6.567   2.811  -1.041  1.00  0.00    -0.264 OA
HETATM   25  C13 UNL     1       4.621   0.590   0.842  1.00  0.00     0.046 C 
HETATM   26  C14 UNL     1       6.690   1.762   1.695  1.00  0.00     0.011 C 
ENDBRANCH  10  20
BRANCH  13  27
HETATM   27  C17 UNL     1      -2.699   1.227   0.856  1.00  0.00     0.006 C 
HETATM   28  C18 UNL     1      -3.846   2.102   0.346  1.00  0.00     0.000 C 
ENDBRANCH  13  27
TORSDOF 2
