REMARK  4 active torsions:
REMARK  status: ('A' for Active; 'I' for Inactive)
REMARK    1  A    between atoms: C15_15  and  C18_18 
REMARK    2  A    between atoms: C18_18  and  C20_20 
REMARK    3  A    between atoms: C20_20  and  C21_21 
REMARK    4  A    between atoms: C21_21  and  C22_22 
ROOT
HETATM    1  C1  UNL     1      -4.100   1.840   1.379  1.00  0.00     0.033 C 
HETATM    2  C2  UNL     1      -4.125   1.344  -0.086  1.00  0.00     0.152 C 
HETATM    3  C3  UNL     1      -4.854  -0.010  -0.277  1.00  0.00     0.029 C 
HETATM    4  C4  UNL     1      -4.309  -1.113   0.707  1.00  0.00     0.007 C 
HETATM    5  C5  UNL     1      -3.432  -0.604   1.891  1.00  0.00     0.004 C 
HETATM    6  C6  UNL     1      -4.055   0.703   2.418  1.00  0.00     0.003 C 
HETATM    7  C7  UNL     1      -1.940  -0.383   1.477  1.00  0.00     0.018 C 
HETATM    8  C8  UNL     1      -1.391  -1.387   0.473  1.00  0.00    -0.049 C 
HETATM    9  C9  UNL     1      -2.182  -2.236  -0.213  1.00  0.00    -0.035 C 
HETATM   10  C10 UNL     1      -3.660  -2.356   0.059  1.00  0.00     0.025 C 
HETATM   11  C11 UNL     1       0.115  -1.408   0.293  1.00  0.00     0.015 C 
HETATM   12  C12 UNL     1       0.771  -0.092   0.758  1.00  0.00     0.003 C 
HETATM   13  C13 UNL     1       0.500   0.107   2.262  1.00  0.00     0.001 C 
HETATM   14  C14 UNL     1      -0.955  -0.252   2.666  1.00  0.00     0.004 C 
HETATM   15  C15 UNL     1       2.234  -0.334   0.353  1.00  0.00     0.000 C 
HETATM   16  C16 UNL     1       2.100  -0.967  -1.041  1.00  0.00     0.000 C 
HETATM   17  C17 UNL     1       0.668  -1.518  -1.135  1.00  0.00     0.004 C 
HETATM   18  C26 UNL     1       0.275   1.121  -0.049  1.00  0.00     0.000 C 
HETATM   19  C27 UNL     1       0.648  -2.619   1.070  1.00  0.00     0.004 C 
HETATM   20  C28 UNL     1      -3.488  -1.654   3.016  1.00  0.00     0.000 C 
HETATM   21  C29 UNL     1      -4.711  -0.436  -1.748  1.00  0.00     0.003 C 
HETATM   22  C30 UNL     1      -6.358   0.191  -0.016  1.00  0.00     0.003 C 
HETATM   23  O1  UNL     1      -4.703   2.355  -0.895  1.00  0.00    -0.224 OA
ENDROOT
BRANCH  15  24
HETATM   24  C18 UNL     1       3.119   0.910   0.357  1.00  0.00     0.000 C 
HETATM   25  C19 UNL     1       3.100   1.547   1.748  1.00  0.00     0.000 C 
BRANCH  24  26
HETATM   26  C20 UNL     1       4.529   0.533  -0.100  1.00  0.00     0.005 C 
BRANCH  26  27
HETATM   27  C21 UNL     1       4.932   1.225  -1.402  1.00  0.00     0.025 C 
BRANCH  27  28
HETATM   28  C22 UNL     1       6.324   0.855  -1.842  1.00  0.00    -0.035 C 
HETATM   29  C23 UNL     1       6.680   1.096  -3.113  1.00  0.00    -0.048 C 
HETATM   30  C24 UNL     1       8.010   0.748  -3.725  1.00  0.00     0.026 C 
HETATM   31  C25 UNL     1       5.686   1.768  -4.022  1.00  0.00     0.026 C 
ENDBRANCH  27  28
ENDBRANCH  26  27
ENDBRANCH  24  26
ENDBRANCH  15  24
TORSDOF 4
