REMARK  4 active torsions:
REMARK  status: ('A' for Active; 'I' for Inactive)
REMARK    1  A    between atoms: C1_1  and  C2_2 
REMARK    2  A    between atoms: C1_1  and  C8_8 
REMARK    3  A    between atoms: C2_2  and  C3_3 
REMARK    4  A    between atoms: C3_3  and  C4_4 
ROOT
HETATM    1  C2  UNL     1      -0.967  -0.006  -0.451  1.00  0.00     0.039 C 
ENDROOT
BRANCH   1   2
HETATM    2  C1  UNL     1      -1.838   0.777   0.531  1.00  0.00     0.146 C 
HETATM    3  C10 UNL     1      -1.801   0.195   1.945  1.00  0.00     0.038 C 
HETATM    4  O1  UNL     1      -1.358   2.102   0.588  1.00  0.00    -0.222 OA
BRANCH   2   5
HETATM    5  C8  UNL     1      -3.242   0.971   0.027  1.00  0.00     0.003 C 
HETATM    6  C9  UNL     1      -4.201   0.141   0.467  1.00  0.00    -0.002 C 
ENDBRANCH   2   5
ENDBRANCH   1   2
BRANCH   1   7
HETATM    7  C3  UNL     1       0.457  -0.219   0.061  1.00  0.00     0.028 C 
BRANCH   7   8
HETATM    8  C4  UNL     1       1.367  -0.793  -0.992  1.00  0.00    -0.035 C 
HETATM    9  C5  UNL     1       2.693  -0.639  -0.848  1.00  0.00    -0.048 C 
HETATM   10  C6  UNL     1       3.205   0.063   0.381  1.00  0.00     0.026 C 
HETATM   11  C7  UNL     1       3.600  -1.174  -1.924  1.00  0.00     0.026 C 
ENDBRANCH   7   8
ENDBRANCH   1   7
TORSDOF 4
