REMARK  4 active torsions:
REMARK  status: ('A' for Active; 'I' for Inactive)
REMARK    1  A    between atoms: C7_8  and  O6_44 
REMARK    2  A    between atoms: C8_9  and  O5_42 
REMARK    3  A    between atoms: C11_13  and  O4_40 
REMARK    4  A    between atoms: C28_32  and  O3_38 
ROOT
HETATM    1  C1  UNL     1      -5.205  -0.049  -0.361  1.00  0.00     0.291 C 
HETATM    2  N1  UNL     1      -4.512  -1.324  -0.853  1.00  0.00     0.069 N 
HETATM    3  C2  UNL     1      -2.965  -1.170  -0.850  1.00  0.00     0.277 C 
HETATM    4  C3  UNL     1      -2.443  -0.686   0.473  1.00  0.00     0.036 A 
HETATM    5  C4  UNL     1      -3.283   0.084   1.338  1.00  0.00    -0.017 A 
HETATM    6  C5  UNL     1      -4.695   0.424   1.008  1.00  0.00     0.070 C 
HETATM    7  C6  UNL     1      -2.783   0.537   2.582  1.00  0.00     0.022 A 
HETATM    8  C7  UNL     1      -1.494   0.174   3.010  1.00  0.00     0.118 A 
HETATM    9  C8  UNL     1      -0.678  -0.633   2.190  1.00  0.00     0.139 A 
HETATM   10  C9  UNL     1      -1.107  -1.002   0.877  1.00  0.00     0.122 A 
HETATM   11  O1  UNL     1      -0.328  -1.668  -0.018  1.00  0.00    -0.303 OA
HETATM   12  C10 UNL     1       1.018  -1.807  -0.127  1.00  0.00     0.122 A 
HETATM   13  C11 UNL     1       1.498  -2.936  -0.838  1.00  0.00     0.116 A 
HETATM   14  C12 UNL     1       2.885  -3.193  -0.930  1.00  0.00     0.022 A 
HETATM   15  C13 UNL     1       3.820  -2.330  -0.307  1.00  0.00    -0.020 A 
HETATM   16  C14 UNL     1       3.361  -1.154   0.354  1.00  0.00     0.007 A 
HETATM   17  C15 UNL     1       1.965  -0.895   0.412  1.00  0.00     0.024 A 
HETATM   18  C16 UNL     1       4.334  -0.209   1.000  1.00  0.00     0.246 C 
HETATM   19  N2  UNL     1       5.609  -0.869   1.356  1.00  0.00     0.142 N 
HETATM   20  C17 UNL     1       6.205  -1.586   0.219  1.00  0.00     0.255 C 
HETATM   21  C18 UNL     1       5.266  -2.678  -0.334  1.00  0.00     0.061 C 
HETATM   22  C19 UNL     1       5.498  -1.723   2.537  1.00  0.00     0.286 C 
HETATM   23  C20 UNL     1       4.637   1.064   0.156  1.00  0.00     0.064 C 
HETATM   24  C21 UNL     1       3.426   1.895  -0.139  1.00  0.00    -0.020 A 
HETATM   25  C22 UNL     1       2.861   1.871  -1.426  1.00  0.00    -0.002 A 
HETATM   26  C23 UNL     1       1.662   2.553  -1.680  1.00  0.00     0.024 A 
HETATM   27  C24 UNL     1       1.002   3.254  -0.644  1.00  0.00     0.100 A 
HETATM   28  C25 UNL     1       1.627   3.361   0.611  1.00  0.00     0.024 A 
HETATM   29  C26 UNL     1       2.832   2.682   0.867  1.00  0.00    -0.002 A 
HETATM   30  O2  UNL     1      -0.199   3.807  -0.824  1.00  0.00    -0.305 OA
HETATM   31  C27 UNL     1      -1.219   3.152  -1.393  1.00  0.00     0.122 A 
HETATM   32  C28 UNL     1      -2.256   3.897  -1.986  1.00  0.00     0.117 A 
HETATM   33  C29 UNL     1      -3.324   3.240  -2.625  1.00  0.00     0.026 A 
HETATM   34  C30 UNL     1      -3.371   1.836  -2.672  1.00  0.00    -0.002 A 
HETATM   35  C31 UNL     1      -2.361   1.074  -2.059  1.00  0.00    -0.017 A 
HETATM   36  C32 UNL     1      -1.303   1.736  -1.416  1.00  0.00     0.022 A 
HETATM   37  C33 UNL     1      -2.375  -0.430  -2.092  1.00  0.00     0.072 C 
HETATM   38  C38 UNL     1      -5.065  -1.766  -2.215  1.00  0.00     0.330 C 
HETATM   39  O7  UNL     1      -4.857  -2.365   0.055  1.00  0.00    -0.061 OA
ENDROOT
BRANCH   9  40
HETATM   40  O5  UNL     1       0.488  -1.055   2.699  1.00  0.00    -0.324 OA
HETATM   41  C36 UNL     1       0.645  -2.445   2.945  1.00  0.00     0.182 C 
ENDBRANCH   9  40
BRANCH   8  42
HETATM   42  O6  UNL     1      -1.053   0.582   4.209  1.00  0.00    -0.326 OA
HETATM   43  C37 UNL     1      -1.920   1.377   5.006  1.00  0.00     0.181 C 
ENDBRANCH   8  42
BRANCH  13  44
HETATM   44  O4  UNL     1       0.631  -3.775  -1.420  1.00  0.00    -0.326 OA
HETATM   45  C35 UNL     1       1.156  -4.893  -2.121  1.00  0.00     0.181 C 
ENDBRANCH  13  44
BRANCH  32  46
HETATM   46  O3  UNL     1      -2.229   5.213  -1.951  1.00  0.00    -0.326 OA
HETATM   47  C34 UNL     1      -3.260   5.926  -2.619  1.00  0.00     0.181 C 
ENDBRANCH  32  46
TORSDOF 4
