REMARK  3 active torsions:
REMARK  status: ('A' for Active; 'I' for Inactive)
REMARK    1  A    between atoms: C3_3  and  C15_16 
REMARK    2  A    between atoms: C7_7  and  C12_12 
REMARK    3  A    between atoms: C12_12  and  C13_13 
ROOT
HETATM    1  C1  UNL     1      -2.568   0.768  -0.133  1.00  0.00     0.033 C 
HETATM    2  C2  UNL     1      -2.613  -0.773  -0.293  1.00  0.00     0.154 C 
HETATM    3  C3  UNL     1      -1.555  -1.510   0.564  1.00  0.00     0.059 C 
HETATM    4  C4  UNL     1      -0.103  -0.955   0.334  1.00  0.00     0.005 C 
HETATM    5  C5  UNL     1      -0.021   0.486  -0.246  1.00  0.00     0.004 C 
HETATM    6  C6  UNL     1      -1.193   1.318   0.303  1.00  0.00     0.003 C 
HETATM    7  C7  UNL     1       1.352   1.074   0.180  1.00  0.00     0.021 C 
HETATM    8  C8  UNL     1       2.488   0.092  -0.065  1.00  0.00    -0.044 C 
HETATM    9  C9  UNL     1       2.203  -1.203  -0.805  1.00  0.00     0.022 C 
HETATM   10  C10 UNL     1       0.867  -1.885  -0.428  1.00  0.00     0.004 C 
HETATM   11  C11 UNL     1       3.729   0.361   0.383  1.00  0.00    -0.009 C 
HETATM   12  C14 UNL     1      -0.100   0.494  -1.785  1.00  0.00     0.000 C 
HETATM   13  C16 UNL     1      -1.945  -1.295   2.035  1.00  0.00     0.005 C 
HETATM   14  O3  UNL     1      -2.465  -1.121  -1.658  1.00  0.00    -0.223 OA
ENDROOT
BRANCH   3  15
HETATM   15  C15 UNL     1      -1.629  -3.027   0.328  1.00  0.00     0.185 C 
HETATM   16  O2  UNL     1      -2.949  -3.449   0.586  1.00  0.00    -0.221 OA
ENDBRANCH   3  15
BRANCH   7  17
HETATM   17  C12 UNL     1       1.643   2.428  -0.484  1.00  0.00     0.040 C 
BRANCH  17  18
HETATM   18  C13 UNL     1       2.166   3.469   0.504  1.00  0.00     0.183 C 
HETATM   19  O1  UNL     1       2.346   4.684  -0.190  1.00  0.00    -0.221 OA
ENDBRANCH  17  18
ENDBRANCH   7  17
TORSDOF 3
