REMARK  7 active torsions:
REMARK  status: ('A' for Active; 'I' for Inactive)
REMARK    1  A    between atoms: C3_3  and  C7_8 
REMARK    2  A    between atoms: C7_8  and  C8_9 
REMARK    3  A    between atoms: C14_18  and  C22_31 
REMARK    4  A    between atoms: C16_21  and  C18_25 
REMARK    5  A    between atoms: C18_25  and  C19_26 
REMARK    6  A    between atoms: C19_26  and  C20_27 
REMARK    7  A    between atoms: C20_27  and  C21_28 
ROOT
HETATM    1  C8  UNL     1      -0.439   1.979  -0.473  1.00  0.00     0.191 C 
HETATM    2  C9  UNL     1       0.865   2.754  -0.387  1.00  0.00     0.275 C 
HETATM    3  N1  UNL     1       1.920   2.231   0.332  1.00  0.00    -0.229 NA
HETATM    4  C10 UNL     1       3.229   2.922   0.443  1.00  0.00     0.186 C 
HETATM    5  C11 UNL     1       4.233   2.404  -0.576  1.00  0.00     0.274 C 
HETATM    6  N2  UNL     1       4.799   1.145  -0.529  1.00  0.00    -0.226 NA
HETATM    7  C12 UNL     1       4.529   0.117   0.508  1.00  0.00     0.218 C 
HETATM    8  C13 UNL     1       3.346  -0.785   0.211  1.00  0.00     0.277 C 
HETATM    9  N3  UNL     1       2.867  -1.582   1.225  1.00  0.00    -0.229 NA
HETATM   10  C14 UNL     1       1.733  -2.516   1.029  1.00  0.00     0.186 C 
HETATM   11  C15 UNL     1       0.404  -1.830   1.287  1.00  0.00     0.274 C 
HETATM   12  N4  UNL     1      -0.316  -1.340   0.221  1.00  0.00    -0.229 NA
HETATM   13  C16 UNL     1      -1.633  -0.666   0.371  1.00  0.00     0.186 C 
HETATM   14  C17 UNL     1      -1.574   0.549   1.285  1.00  0.00     0.274 C 
HETATM   15  N5  UNL     1      -1.035   1.750   0.871  1.00  0.00    -0.228 NA
HETATM   16  O2  UNL     1      -2.016   0.471   2.408  1.00  0.00    -0.268 OA
HETATM   17  O3  UNL     1      -0.019  -1.723   2.416  1.00  0.00    -0.268 OA
HETATM   18  O4  UNL     1       2.830  -0.811  -0.885  1.00  0.00    -0.268 OA
HETATM   19  O5  UNL     1       4.551   3.141  -1.482  1.00  0.00    -0.268 OA
HETATM   20  C25 UNL     1       3.738   2.904   1.887  1.00  0.00     0.037 C 
HETATM   21  O6  UNL     1       0.983   3.818  -0.951  1.00  0.00    -0.268 OA
ENDROOT
BRANCH   1  22
HETATM   22  C7  UNL     1      -1.471   2.676  -1.365  1.00  0.00     0.060 C 
BRANCH  22  23
HETATM   23  C3  UNL     1      -1.021   2.727  -2.781  1.00  0.00    -0.020 A 
HETATM   24  C2  UNL     1      -0.697   3.959  -3.375  1.00  0.00    -0.002 A 
HETATM   25  C1  UNL     1      -0.273   4.004  -4.713  1.00  0.00     0.027 A 
HETATM   26  C6  UNL     1      -0.172   2.820  -5.465  1.00  0.00     0.131 A 
HETATM   27  C5  UNL     1      -0.498   1.590  -4.869  1.00  0.00     0.027 A 
HETATM   28  O1  UNL     1       0.225   2.865  -6.721  1.00  0.00    -0.190 OA
HETATM   29  C4  UNL     1      -0.922   1.541  -3.531  1.00  0.00    -0.002 A 
ENDBRANCH  22  23
ENDBRANCH   1  22
BRANCH  13  30
HETATM   30  C18 UNL     1      -2.685  -1.682   0.828  1.00  0.00     0.034 C 
BRANCH  30  31
HETATM   31  C19 UNL     1      -4.113  -1.143   0.719  1.00  0.00     0.005 C 
BRANCH  31  32
HETATM   32  C20 UNL     1      -5.166  -2.166   1.143  1.00  0.00     0.041 C 
BRANCH  32  33
HETATM   33  C21 UNL     1      -6.592  -1.627   1.033  1.00  0.00     0.338 C 
HETATM   34  N6  UNL     1      -7.551  -2.633   1.453  1.00  0.00     0.618 N 
ENDBRANCH  32  33
ENDBRANCH  31  32
ENDBRANCH  30  31
ENDBRANCH  13  30
BRANCH  10  35
HETATM   35  C22 UNL     1       1.901  -3.742   1.934  1.00  0.00     0.032 C 
HETATM   36  C23 UNL     1       3.158  -4.547   1.607  1.00  0.00     0.003 C 
HETATM   37  C24 UNL     1       1.791  -3.398   3.420  1.00  0.00     0.003 C 
ENDBRANCH  10  35
TORSDOF 7
