REMARK  7 active torsions:
REMARK  status: ('A' for Active; 'I' for Inactive)
REMARK    1  A    between atoms: C1_1  and  C23_28 
REMARK    2  A    between atoms: C2_2  and  O5_26 
REMARK    3  A    between atoms: C6_6  and  O1_7 
REMARK    4  A    between atoms: C9_10  and  C11_13 
REMARK    5  A    between atoms: C13_15  and  C17_20 
REMARK    6  A    between atoms: C17_20  and  C18_21 
REMARK    7  A    between atoms: C23_28  and  C24_29 
ROOT
HETATM    1  C1  UNL     1       3.535   0.711   0.740  1.00  0.00     0.027 A 
HETATM    2  C2  UNL     1       3.830   2.092   0.848  1.00  0.00     0.094 A 
HETATM    3  C3  UNL     1       2.781   3.037   0.910  1.00  0.00     0.048 A 
HETATM    4  C4  UNL     1       1.432   2.613   0.869  1.00  0.00     0.094 A 
HETATM    5  C5  UNL     1       1.131   1.225   0.758  1.00  0.00     0.023 A 
HETATM    6  C6  UNL     1       2.186   0.279   0.697  1.00  0.00     0.090 A 
HETATM    7  C8  UNL     1      -0.285   0.777   0.705  1.00  0.00     0.037 C 
HETATM    8  C9  UNL     1      -1.250   1.922   0.324  1.00  0.00     0.059 C 
HETATM    9  C10 UNL     1      -0.906   3.176   1.145  1.00  0.00     0.153 C 
HETATM   10  O2  UNL     1       0.461   3.549   0.932  1.00  0.00    -0.331 OA
ENDROOT
BRANCH   8  11
HETATM   11  C11 UNL     1      -2.674   1.522   0.500  1.00  0.00     0.005 A 
HETATM   12  C12 UNL     1      -3.293   0.662  -0.428  1.00  0.00     0.125 A 
HETATM   13  C13 UNL     1      -4.641   0.293  -0.248  1.00  0.00     0.033 A 
HETATM   14  O4  UNL     1      -2.613   0.205  -1.463  1.00  0.00    -0.191 OA
HETATM   15  C14 UNL     1      -5.367   0.781   0.855  1.00  0.00     0.129 A 
HETATM   16  C15 UNL     1      -4.742   1.639   1.777  1.00  0.00     0.027 A 
HETATM   17  O3  UNL     1      -6.629   0.441   1.031  1.00  0.00    -0.190 OA
HETATM   18  C16 UNL     1      -3.398   2.008   1.602  1.00  0.00    -0.000 A 
BRANCH  13  19
HETATM   19  C17 UNL     1      -5.299  -0.615  -1.227  1.00  0.00     0.056 C 
BRANCH  19  20
HETATM   20  C18 UNL     1      -4.857  -2.043  -1.061  1.00  0.00    -0.030 C 
HETATM   21  C19 UNL     1      -5.500  -2.998  -1.754  1.00  0.00    -0.048 C 
HETATM   22  C20 UNL     1      -6.656  -2.764  -2.689  1.00  0.00     0.026 C 
HETATM   23  C21 UNL     1      -5.049  -4.426  -1.600  1.00  0.00     0.026 C 
ENDBRANCH  19  20
ENDBRANCH  13  19
ENDBRANCH   8  11
BRANCH   6  24
HETATM   24  O1  UNL     1       1.908  -1.029   0.598  1.00  0.00    -0.329 OA
HETATM   25  C7  UNL     1       1.227  -1.650   1.678  1.00  0.00     0.181 C 
ENDBRANCH   6  24
BRANCH   1  26
HETATM   26  C23 UNL     1       4.629  -0.273   0.676  1.00  0.00     0.056 C 
BRANCH  26  27
HETATM   27  C24 UNL     1       5.037  -0.572  -0.740  1.00  0.00    -0.030 C 
HETATM   28  C25 UNL     1       6.092  -1.379  -0.945  1.00  0.00    -0.048 C 
HETATM   29  C26 UNL     1       6.912  -2.029   0.135  1.00  0.00     0.026 C 
HETATM   30  C27 UNL     1       6.510  -1.668  -2.363  1.00  0.00     0.026 C 
ENDBRANCH  26  27
ENDBRANCH   1  26
BRANCH   2  31
HETATM   31  O5  UNL     1       5.102   2.512   0.889  1.00  0.00    -0.328 OA
HETATM   32  C22 UNL     1       5.340   3.906   1.018  1.00  0.00     0.181 C 
ENDBRANCH   2  31
TORSDOF 7
