REMARK  1 active torsions:
REMARK  status: ('A' for Active; 'I' for Inactive)
REMARK    1  A    between atoms: C2_2  and  O4_18 
ROOT
HETATM    1  C1  UNL     1      -1.695   1.311  -0.310  1.00  0.00     0.156 A 
HETATM    2  C2  UNL     1      -2.932   0.631  -0.396  1.00  0.00     0.119 A 
HETATM    3  C3  UNL     1      -2.979  -0.771  -0.269  1.00  0.00     0.026 A 
HETATM    4  C4  UNL     1      -1.789  -1.498  -0.055  1.00  0.00     0.005 A 
HETATM    5  C5  UNL     1      -0.537  -0.834   0.033  1.00  0.00     0.044 A 
HETATM    6  C6  UNL     1       0.695  -1.652   0.262  1.00  0.00     0.196 A 
HETATM    7  O1  UNL     1       0.648  -2.857   0.381  1.00  0.00    -0.287 OA
HETATM    8  C7  UNL     1       1.988  -0.906   0.332  1.00  0.00     0.044 A 
HETATM    9  C8  UNL     1       3.191  -1.635   0.533  1.00  0.00     0.031 A 
HETATM   10  C9  UNL     1       4.436  -0.969   0.604  1.00  0.00     0.131 A 
HETATM   11  C10 UNL     1       4.490   0.436   0.473  1.00  0.00     0.028 A 
HETATM   12  C11 UNL     1       3.303   1.170   0.274  1.00  0.00     0.005 A 
HETATM   13  C12 UNL     1       2.045   0.512   0.201  1.00  0.00     0.042 A 
HETATM   14  C13 UNL     1       0.813   1.334  -0.012  1.00  0.00     0.198 A 
HETATM   15  O2  UNL     1       0.871   2.541  -0.109  1.00  0.00    -0.286 OA
HETATM   16  C14 UNL     1      -0.486   0.588  -0.096  1.00  0.00     0.069 A 
HETATM   17  O3  UNL     1       5.563  -1.670   0.793  1.00  0.00    -0.190 OA
HETATM   18  O5  UNL     1      -1.688   2.647  -0.435  1.00  0.00    -0.188 OA
ENDROOT
BRANCH   2  19
HETATM   19  O4  UNL     1      -4.066   1.319  -0.601  1.00  0.00    -0.326 OA
HETATM   20  C15 UNL     1      -5.275   0.586  -0.728  1.00  0.00     0.181 C 
ENDBRANCH   2  19
TORSDOF 1
