REMARK  8 active torsions:
REMARK  status: ('A' for Active; 'I' for Inactive)
REMARK    1  A    between atoms: C2_2  and  O8_29 
REMARK    2  A    between atoms: C4_4  and  O6_26 
REMARK    3  A    between atoms: C6_6  and  C7_7 
REMARK    4  A    between atoms: C7_7  and  C8_8 
REMARK    5  A    between atoms: C11_12  and  C12_13 
REMARK    6  A    between atoms: C12_13  and  C13_14 
REMARK    7  A    between atoms: C15_16  and  O4_23 
REMARK    8  A    between atoms: C17_18  and  O2_20 
ROOT
HETATM    1  C8  UNL     1      -0.523  -1.264   0.508  1.00  0.00     0.039 C 
HETATM    2  C9  UNL     1      -0.043  -2.654   0.088  1.00  0.00     0.143 C 
HETATM    3  O1  UNL     1      -1.045  -3.553   0.516  1.00  0.00    -0.354 OA
HETATM    4  C10 UNL     1      -2.186  -2.863   0.984  1.00  0.00     0.145 C 
HETATM    5  C11 UNL     1      -2.045  -1.439   0.449  1.00  0.00     0.067 C 
ENDROOT
BRANCH   5   6
HETATM    6  C12 UNL     1      -2.555  -1.344  -0.988  1.00  0.00     0.177 C 
HETATM    7  O5  UNL     1      -3.955  -1.508  -0.973  1.00  0.00    -0.218 OA
BRANCH   6   8
HETATM    8  C13 UNL     1      -2.219  -0.031  -1.604  1.00  0.00     0.012 A 
HETATM    9  C14 UNL     1      -1.643   0.020  -2.885  1.00  0.00     0.025 A 
HETATM   10  C15 UNL     1      -1.322   1.258  -3.467  1.00  0.00     0.121 A 
HETATM   11  C16 UNL     1      -1.580   2.451  -2.764  1.00  0.00     0.175 A 
HETATM   12  C17 UNL     1      -2.156   2.400  -1.480  1.00  0.00     0.121 A 
HETATM   13  O3  UNL     1      -1.281   3.613  -3.309  1.00  0.00    -0.186 OA
HETATM   14  C18 UNL     1      -2.475   1.160  -0.902  1.00  0.00     0.025 A 
BRANCH  10  15
HETATM   15  O4  UNL     1      -0.783   1.299  -4.668  1.00  0.00    -0.326 OA
HETATM   16  C20 UNL     1      -1.281   2.258  -5.590  1.00  0.00     0.181 C 
ENDBRANCH  10  15
BRANCH  12  17
HETATM   17  O2  UNL     1      -2.399   3.516  -0.820  1.00  0.00    -0.326 OA
HETATM   18  C19 UNL     1      -2.856   3.408   0.521  1.00  0.00     0.181 C 
ENDBRANCH  12  17
ENDBRANCH   6   8
ENDBRANCH   5   6
BRANCH   1  19
HETATM   19  C7  UNL     1      -0.066  -0.939   1.930  1.00  0.00     0.029 C 
BRANCH  19  20
HETATM   20  C6  UNL     1       1.406  -0.746   2.000  1.00  0.00    -0.018 A 
HETATM   21  C1  UNL     1       1.980   0.453   1.543  1.00  0.00     0.022 A 
HETATM   22  C2  UNL     1       3.373   0.639   1.609  1.00  0.00     0.121 A 
HETATM   23  C3  UNL     1       4.191  -0.379   2.135  1.00  0.00     0.175 A 
HETATM   24  C4  UNL     1       3.617  -1.578   2.594  1.00  0.00     0.121 A 
HETATM   25  O7  UNL     1       5.498  -0.207   2.197  1.00  0.00    -0.186 OA
HETATM   26  C5  UNL     1       2.225  -1.760   2.525  1.00  0.00     0.022 A 
BRANCH  22  27
HETATM   27  O8  UNL     1       3.906   1.764   1.178  1.00  0.00    -0.326 OA
HETATM   28  C22 UNL     1       3.045   2.727   0.586  1.00  0.00     0.181 C 
ENDBRANCH  22  27
BRANCH  24  29
HETATM   29  O6  UNL     1       4.381  -2.533   3.086  1.00  0.00    -0.326 OA
HETATM   30  C21 UNL     1       3.764  -3.762   3.443  1.00  0.00     0.181 C 
ENDBRANCH  24  29
ENDBRANCH  19  20
ENDBRANCH   1  19
TORSDOF 8
