REMARK  5 active torsions:
REMARK  status: ('A' for Active; 'I' for Inactive)
REMARK    1  A    between atoms: C1_2  and  O2_3 
REMARK    2  A    between atoms: C3_5  and  O3_6 
REMARK    3  A    between atoms: C6_9  and  C7_10 
REMARK    4  A    between atoms: C16_21  and  C19_24 
REMARK    5  A    between atoms: C19_24  and  C20_25 
ROOT
HETATM    1  O1  UNL     1      -0.354  -1.734   1.006  1.00  0.00    -0.330 OA
HETATM    2  C1  UNL     1       0.736  -0.941   0.567  1.00  0.00     0.214 C 
HETATM    3  C3  UNL     1       0.203   0.522   0.442  1.00  0.00     0.160 C 
HETATM    4  C5  UNL     1      -0.996   0.482   1.414  1.00  0.00     0.065 C 
HETATM    5  C6  UNL     1      -1.504  -0.963   1.283  1.00  0.00     0.143 C 
HETATM    6  C14 UNL     1      -0.584   0.731   2.867  1.00  0.00     0.006 C 
HETATM    7  C15 UNL     1       1.205   1.623   0.746  1.00  0.00    -0.003 C 
HETATM    8  C16 UNL     1       2.473   1.369   1.131  1.00  0.00    -0.042 C 
HETATM    9  C17 UNL     1       2.980  -0.045   1.301  1.00  0.00     0.027 C 
HETATM   10  C18 UNL     1       1.855  -1.043   1.619  1.00  0.00     0.064 C 
ENDROOT
BRANCH   5  11
HETATM   11  C7  UNL     1      -2.488  -1.146   0.197  1.00  0.00     0.007 A 
HETATM   12  C8  UNL     1      -2.057  -1.467  -1.109  1.00  0.00     0.024 A 
HETATM   13  C9  UNL     1      -2.986  -1.648  -2.168  1.00  0.00     0.119 A 
HETATM   14  O4  UNL     1      -2.813  -1.949  -3.455  1.00  0.00    -0.300 OA
HETATM   15  C11 UNL     1      -4.354  -1.510  -1.912  1.00  0.00     0.119 A 
HETATM   16  C10 UNL     1      -4.102  -2.023  -4.103  1.00  0.00     0.304 A 
HETATM   17  O5  UNL     1      -5.031  -1.723  -3.039  1.00  0.00    -0.300 OA
HETATM   18  C12 UNL     1      -4.787  -1.187  -0.599  1.00  0.00     0.026 A 
HETATM   19  C13 UNL     1      -3.865  -1.006   0.453  1.00  0.00     0.000 A 
ENDBRANCH   5  11
BRANCH   2  20
HETATM   20  O2  UNL     1       1.236  -1.465  -0.656  1.00  0.00    -0.330 OA
HETATM   21  C2  UNL     1       1.246  -2.875  -0.691  1.00  0.00     0.177 C 
ENDBRANCH   2  20
BRANCH   3  22
HETATM   22  O3  UNL     1      -0.309   0.787  -0.859  1.00  0.00    -0.347 OA
HETATM   23  C4  UNL     1       0.689   1.148  -1.787  1.00  0.00     0.175 C 
ENDBRANCH   3  22
BRANCH   8  24
HETATM   24  C19 UNL     1       3.424   2.502   1.416  1.00  0.00     0.048 C 
BRANCH  24  25
HETATM   25  C20 UNL     1       3.904   3.121   0.131  1.00  0.00    -0.022 C 
HETATM   26  C21 UNL     1       3.701   4.436  -0.062  1.00  0.00    -0.005 C 
ENDBRANCH  24  25
ENDBRANCH   8  24
TORSDOF 5
