REMARK  4 active torsions:
REMARK  status: ('A' for Active; 'I' for Inactive)
REMARK    1  A    between atoms: C1_1  and  O8_25 
REMARK    2  A    between atoms: C2_2  and  O7_23 
REMARK    3  A    between atoms: C7_8  and  C11_14 
REMARK    4  A    between atoms: C8_9  and  O3_12 
ROOT
HETATM    1  C1  UNL     1      -3.520  -0.443   0.020  1.00  0.00     0.120 A 
HETATM    2  C2  UNL     1      -3.367  -1.748   0.549  1.00  0.00     0.142 A 
HETATM    3  C3  UNL     1      -2.074  -2.289   0.744  1.00  0.00     0.160 A 
HETATM    4  C4  UNL     1      -0.934  -1.518   0.406  1.00  0.00     0.091 A 
HETATM    5  C5  UNL     1      -1.084  -0.211  -0.123  1.00  0.00     0.107 A 
HETATM    6  C6  UNL     1      -2.381   0.324  -0.316  1.00  0.00     0.051 A 
HETATM    7  O1  UNL     1       0.002   0.523  -0.443  1.00  0.00    -0.305 OA
HETATM    8  C7  UNL     1       1.272   0.090  -0.291  1.00  0.00     0.125 A 
HETATM    9  C8  UNL     1       1.549  -1.143   0.205  1.00  0.00     0.156 A 
HETATM   10  C9  UNL     1       0.443  -2.051   0.596  1.00  0.00     0.224 A 
HETATM   11  O2  UNL     1       0.754  -3.137   1.029  1.00  0.00    -0.284 OA
HETATM   12  O6  UNL     1      -1.943  -3.527   1.248  1.00  0.00    -0.188 OA
ENDROOT
BRANCH   8  13
HETATM   13  C11 UNL     1       2.395   0.994  -0.678  1.00  0.00     0.027 A 
HETATM   14  C12 UNL     1       2.316   2.373  -0.408  1.00  0.00     0.004 A 
HETATM   15  C13 UNL     1       3.375   3.221  -0.775  1.00  0.00     0.030 A 
HETATM   16  C14 UNL     1       4.516   2.697  -1.410  1.00  0.00     0.156 A 
HETATM   17  C15 UNL     1       4.596   1.316  -1.680  1.00  0.00     0.156 A 
HETATM   18  O5  UNL     1       5.504   3.498  -1.750  1.00  0.00    -0.188 OA
HETATM   19  C16 UNL     1       3.535   0.469  -1.312  1.00  0.00     0.032 A 
HETATM   20  O4  UNL     1       5.660   0.818  -2.273  1.00  0.00    -0.188 OA
ENDBRANCH   8  13
BRANCH   9  21
HETATM   21  O3  UNL     1       2.807  -1.559   0.352  1.00  0.00    -0.323 OA
HETATM   22  C10 UNL     1       3.250  -1.482   1.699  1.00  0.00     0.182 C 
ENDBRANCH   9  21
BRANCH   1  23
HETATM   23  O8  UNL     1      -4.746   0.066  -0.164  1.00  0.00    -0.326 OA
HETATM   24  C18 UNL     1      -4.848   1.379  -0.699  1.00  0.00     0.181 C 
ENDBRANCH   1  23
BRANCH   2  25
HETATM   25  O7  UNL     1      -4.451  -2.473   0.867  1.00  0.00    -0.324 OA
HETATM   26  C17 UNL     1      -5.543  -1.805   1.483  1.00  0.00     0.182 C 
ENDBRANCH   2  25
TORSDOF 4
