REMARK  4 active torsions:
REMARK  status: ('A' for Active; 'I' for Inactive)
REMARK    1  A    between atoms: C1_1  and  O6_23 
REMARK    2  A    between atoms: C2_2  and  O5_21 
REMARK    3  A    between atoms: C8_9  and  C10_12 
REMARK    4  A    between atoms: C13_15  and  O3_18 
ROOT
HETATM    1  C1  UNL     1       3.527   1.881  -0.268  1.00  0.00     0.120 A 
HETATM    2  C2  UNL     1       3.674   0.475  -0.266  1.00  0.00     0.142 A 
HETATM    3  C3  UNL     1       2.531  -0.361  -0.240  1.00  0.00     0.160 A 
HETATM    4  C4  UNL     1       1.236   0.221  -0.213  1.00  0.00     0.089 A 
HETATM    5  C5  UNL     1       1.088   1.635  -0.211  1.00  0.00     0.107 A 
HETATM    6  C6  UNL     1       2.236   2.461  -0.238  1.00  0.00     0.051 A 
HETATM    7  O1  UNL     1      -0.141   2.191  -0.180  1.00  0.00    -0.305 OA
HETATM    8  C7  UNL     1      -1.279   1.469  -0.152  1.00  0.00     0.126 A 
HETATM    9  C8  UNL     1      -1.275   0.115  -0.154  1.00  0.00     0.064 A 
HETATM   10  C9  UNL     1       0.010  -0.627  -0.188  1.00  0.00     0.202 A 
HETATM   11  O2  UNL     1      -0.033  -1.838  -0.191  1.00  0.00    -0.286 OA
HETATM   12  O4  UNL     1       2.686  -1.693  -0.242  1.00  0.00    -0.188 OA
ENDROOT
BRANCH   9  13
HETATM   13  C10 UNL     1      -2.574  -0.621  -0.123  1.00  0.00     0.005 A 
HETATM   14  C11 UNL     1      -3.680  -0.133  -0.844  1.00  0.00     0.002 A 
HETATM   15  C12 UNL     1      -4.901  -0.826  -0.813  1.00  0.00     0.024 A 
HETATM   16  C13 UNL     1      -5.024  -2.012  -0.064  1.00  0.00     0.094 A 
HETATM   17  C14 UNL     1      -3.918  -2.498   0.654  1.00  0.00     0.024 A 
HETATM   18  C15 UNL     1      -2.695  -1.805   0.625  1.00  0.00     0.002 A 
BRANCH  16  19
HETATM   19  O3  UNL     1      -6.170  -2.662  -0.037  1.00  0.00    -0.328 OA
HETATM   20  C16 UNL     1      -6.223  -3.887   0.678  1.00  0.00     0.181 C 
ENDBRANCH  16  19
ENDBRANCH   9  13
BRANCH   2  21
HETATM   21  O5  UNL     1       4.900  -0.070  -0.291  1.00  0.00    -0.324 OA
HETATM   22  C17 UNL     1       5.918   0.543   0.488  1.00  0.00     0.182 C 
ENDBRANCH   2  21
BRANCH   1  23
HETATM   23  O6  UNL     1       4.611   2.670  -0.293  1.00  0.00    -0.326 OA
HETATM   24  C18 UNL     1       4.412   4.076  -0.293  1.00  0.00     0.181 C 
ENDBRANCH   1  23
TORSDOF 4
