REMARK  2 active torsions:
REMARK  status: ('A' for Active; 'I' for Inactive)
REMARK    1  A    between atoms: C2_2  and  C5_7 
REMARK    2  A    between atoms: C6_8  and  C7_9 
ROOT
HETATM    1  C5  UNL     1       1.133   2.017  -0.184  1.00  0.00     0.002 C 
HETATM    2  C6  UNL     1       1.442   1.123  -1.137  1.00  0.00     0.000 C 
ENDROOT
BRANCH   1   3
HETATM    3  C2  UNL     1       0.104   1.652   0.834  1.00  0.00     0.023 A 
HETATM    4  C1  UNL     1      -1.000   2.484   1.080  1.00  0.00     0.122 A 
HETATM    5  N2  UNL     1      -1.963   2.176   2.009  1.00  0.00    -0.146 NA
HETATM    6  N1  UNL     1      -1.859   1.025   2.726  1.00  0.00    -0.146 NA
HETATM    7  C4  UNL     1      -0.793   0.187   2.509  1.00  0.00     0.122 A 
HETATM    8  C3  UNL     1       0.211   0.469   1.570  1.00  0.00     0.024 A 
ENDBRANCH   1   3
BRANCH   2   9
HETATM    9  C7  UNL     1       0.742  -0.195  -1.137  1.00  0.00     0.000 A 
HETATM   10  C8  UNL     1      -0.664  -0.248  -1.137  1.00  0.00     0.000 A 
HETATM   11  C9  UNL     1      -1.320  -1.490  -1.137  1.00  0.00     0.000 A 
HETATM   12  C10 UNL     1      -0.574  -2.682  -1.137  1.00  0.00     0.000 A 
HETATM   13  C11 UNL     1       0.830  -2.631  -1.137  1.00  0.00     0.000 A 
HETATM   14  C12 UNL     1       1.488  -1.389  -1.137  1.00  0.00     0.000 A 
ENDBRANCH   2   9
TORSDOF 2
