REMARK  6 active torsions:
REMARK  status: ('A' for Active; 'I' for Inactive)
REMARK    1  A    between atoms: C2_2  and  C3_3 
REMARK    2  A    between atoms: C7_8  and  C9_11 
REMARK    3  A    between atoms: C9_11  and  C10_12 
REMARK    4  A    between atoms: C14_16  and  C16_19 
REMARK    5  A    between atoms: C16_19  and  C17_20 
REMARK    6  A    between atoms: C17_20  and  C18_21 
ROOT
HETATM    1  C10 UNL     1      -0.791  -0.738   0.018  1.00  0.00     0.033 A 
HETATM    2  C11 UNL     1      -0.473  -1.199  -1.274  1.00  0.00     0.127 A 
HETATM    3  C12 UNL     1      -1.066  -0.594  -2.397  1.00  0.00     0.029 A 
HETATM    4  C13 UNL     1      -1.976   0.469  -2.233  1.00  0.00     0.134 A 
HETATM    5  C14 UNL     1      -2.291   0.926  -0.938  1.00  0.00     0.085 A 
HETATM    6  C15 UNL     1      -1.699   0.324   0.189  1.00  0.00     0.134 A 
HETATM    7  O3  UNL     1      -1.994   0.750   1.402  1.00  0.00    -0.190 OA
HETATM    8  O5  UNL     1      -2.529   1.031  -3.289  1.00  0.00    -0.190 OA
HETATM    9  C20 UNL     1      -0.730  -1.078  -3.764  1.00  0.00     0.035 C 
HETATM   10  O6  UNL     1       0.381  -2.193  -1.430  1.00  0.00    -0.191 OA
ENDROOT
BRANCH   1  11
HETATM   11  C9  UNL     1      -0.164  -1.377   1.209  1.00  0.00     0.062 C 
BRANCH  11  12
HETATM   12  C7  UNL     1       1.305  -1.047   1.322  1.00  0.00     0.043 A 
HETATM   13  C6  UNL     1       1.701   0.242   1.330  1.00  0.00     0.113 A 
HETATM   14  C5  UNL     1       3.172   0.621   1.445  1.00  0.00     0.085 A 
HETATM   15  O7  UNL     1       0.787   1.209   1.236  1.00  0.00    -0.195 OA
HETATM   16  C4  UNL     1       4.139  -0.553   1.535  1.00  0.00     0.119 A 
HETATM   17  C21 UNL     1       3.342   1.475   2.705  1.00  0.00     0.013 C 
HETATM   18  C22 UNL     1       3.543   1.451   0.213  1.00  0.00     0.013 C 
HETATM   19  C3  UNL     1       3.715  -1.836   1.525  1.00  0.00     0.095 A 
HETATM   20  O1  UNL     1       5.446  -0.295   1.625  1.00  0.00    -0.194 OA
HETATM   21  C8  UNL     1       2.278  -2.145   1.424  1.00  0.00     0.198 A 
HETATM   22  O2  UNL     1       1.897  -3.293   1.422  1.00  0.00    -0.287 OA
BRANCH  19  23
HETATM   23  C2  UNL     1       4.688  -2.939   1.615  1.00  0.00     0.178 C 
HETATM   24  C1  UNL     1       4.668  -4.006   0.553  1.00  0.00     0.077 C 
HETATM   25  O8  UNL     1       5.481  -2.981   2.525  1.00  0.00    -0.291 OA
ENDBRANCH  19  23
ENDBRANCH  11  12
ENDBRANCH   1  11
BRANCH   5  26
HETATM   26  C16 UNL     1      -3.258   2.055  -0.760  1.00  0.00     0.177 C 
HETATM   27  O4  UNL     1      -2.930   3.068  -0.191  1.00  0.00    -0.291 OA
BRANCH  26  28
HETATM   28  C17 UNL     1      -4.648   1.889  -1.311  1.00  0.00     0.069 C 
BRANCH  28  29
HETATM   29  C18 UNL     1      -5.723   2.022  -0.231  1.00  0.00     0.008 C 
HETATM   30  C19 UNL     1      -7.141   1.865  -0.785  1.00  0.00     0.001 C 
ENDBRANCH  28  29
ENDBRANCH  26  28
ENDBRANCH   5  26
TORSDOF 6
