REMARK  9 active torsions:
REMARK  status: ('A' for Active; 'I' for Inactive)
REMARK    1  A    between atoms: C1_1  and  O7_25 
REMARK    2  A    between atoms: C4_4  and  C9_9 
REMARK    3  A    between atoms: C9_9  and  C10_10 
REMARK    4  A    between atoms: C10_10  and  C11_11 
REMARK    5  A    between atoms: C11_11  and  O1_12 
REMARK    6  A    between atoms: C11_11  and  C17_22 
REMARK    7  A    between atoms: O1_12  and  C12_13 
REMARK    8  A    between atoms: O7_25  and  C19_26 
REMARK    9  A    between atoms: C23_33  and  C24_35 
ROOT
HETATM    1  C1  UNL     1      -1.680   2.213  -0.088  1.00  0.00     0.118 C 
HETATM    2  C2  UNL     1      -0.410   2.666   0.652  1.00  0.00     0.030 C 
HETATM    3  C3  UNL     1       0.799   1.789   0.283  1.00  0.00     0.002 C 
HETATM    4  C4  UNL     1       0.500   0.289   0.508  1.00  0.00     0.000 C 
HETATM    5  C5  UNL     1      -0.787  -0.176  -0.221  1.00  0.00     0.002 C 
HETATM    6  C6  UNL     1      -1.975   0.727   0.172  1.00  0.00     0.030 C 
HETATM    7  C7  UNL     1      -0.588  -0.129  -1.740  1.00  0.00     0.000 C 
HETATM    8  C8  UNL     1      -1.113  -1.623   0.174  1.00  0.00     0.000 C 
HETATM    9  C18 UNL     1       2.041   2.240   1.062  1.00  0.00     0.000 C 
ENDROOT
BRANCH   4  10
HETATM   10  C9  UNL     1       1.707  -0.576   0.123  1.00  0.00     0.003 C 
BRANCH  10  11
HETATM   11  C10 UNL     1       2.516  -1.035   1.336  1.00  0.00     0.032 C 
BRANCH  11  12
HETATM   12  C11 UNL     1       3.732  -1.879   0.951  1.00  0.00     0.151 C 
BRANCH  12  13
HETATM   13  O1  UNL     1       3.535  -3.186   1.441  1.00  0.00    -0.329 OA
BRANCH  13  14
HETATM   14  C12 UNL     1       2.541  -3.904   0.727  1.00  0.00     0.270 C 
HETATM   15  C13 UNL     1       2.172  -5.238   1.432  1.00  0.00     0.241 C 
HETATM   16  O2  UNL     1       1.793  -4.996   2.777  1.00  0.00    -0.215 OA
HETATM   17  C14 UNL     1       3.326  -6.264   1.361  1.00  0.00     0.220 C 
HETATM   18  O3  UNL     1       2.891  -7.520   1.857  1.00  0.00    -0.218 OA
HETATM   19  C15 UNL     1       3.783  -6.408  -0.106  1.00  0.00     0.215 C 
HETATM   20  O4  UNL     1       4.951  -7.203  -0.182  1.00  0.00    -0.218 OA
HETATM   21  C16 UNL     1       4.086  -5.035  -0.740  1.00  0.00     0.181 C 
HETATM   22  O5  UNL     1       2.959  -4.172  -0.609  1.00  0.00    -0.326 OA
ENDBRANCH  13  14
ENDBRANCH  12  13
BRANCH  12  23
HETATM   23  C17 UNL     1       5.035  -1.338   1.541  1.00  0.00     0.212 C 
HETATM   24  O6  UNL     1       6.106  -2.066   0.984  1.00  0.00    -0.218 OA
ENDBRANCH  12  23
ENDBRANCH  11  12
ENDBRANCH  10  11
ENDBRANCH   4  10
BRANCH   1  25
HETATM   25  O7  UNL     1      -2.775   2.990   0.350  1.00  0.00    -0.332 OA
BRANCH  25  26
HETATM   26  C19 UNL     1      -2.805   4.289  -0.223  1.00  0.00     0.270 C 
HETATM   27  C20 UNL     1      -3.867   5.197   0.449  1.00  0.00     0.241 C 
HETATM   28  O8  UNL     1      -3.666   5.238   1.853  1.00  0.00    -0.215 OA
HETATM   29  C21 UNL     1      -5.305   4.748   0.111  1.00  0.00     0.220 C 
HETATM   30  O9  UNL     1      -6.236   5.705   0.588  1.00  0.00    -0.218 OA
HETATM   31  C22 UNL     1      -5.443   4.602  -1.422  1.00  0.00     0.215 C 
HETATM   32  O10 UNL     1      -6.694   4.016  -1.736  1.00  0.00    -0.218 OA
HETATM   33  C23 UNL     1      -4.320   3.725  -2.022  1.00  0.00     0.184 C 
HETATM   34  O11 UNL     1      -3.045   4.232  -1.627  1.00  0.00    -0.326 OA
BRANCH  33  35
HETATM   35  C24 UNL     1      -4.332   3.709  -3.553  1.00  0.00     0.214 C 
HETATM   36  O12 UNL     1      -3.400   2.748  -3.992  1.00  0.00    -0.218 OA
ENDBRANCH  33  35
ENDBRANCH  25  26
ENDBRANCH   1  25
TORSDOF 9
