REMARK  1 active torsions:
REMARK  status: ('A' for Active; 'I' for Inactive)
REMARK    1  A    between atoms: C1_1  and  C2_2 
ROOT
HETATM    1  C2  UNL     1      -0.184   0.389  -0.065  1.00  0.00     0.115 A 
HETATM    2  C3  UNL     1      -0.844  -0.857  -0.065  1.00  0.00     0.139 A 
HETATM    3  C4  UNL     1      -0.092  -2.045  -0.065  1.00  0.00     0.028 A 
HETATM    4  C5  UNL     1       1.310  -1.994  -0.065  1.00  0.00     0.004 A 
HETATM    5  C6  UNL     1       1.969  -0.754  -0.065  1.00  0.00     0.028 A 
HETATM    6  C7  UNL     1       1.226   0.442  -0.065  1.00  0.00     0.139 A 
HETATM    7  O1  UNL     1       1.857   1.600  -0.065  1.00  0.00    -0.190 OA
HETATM    8  O2  UNL     1      -2.160  -0.920  -0.065  1.00  0.00    -0.190 OA
ENDROOT
BRANCH   1   9
HETATM    9  C1  UNL     1      -0.977   1.656  -0.065  1.00  0.00     0.215 C 
HETATM   10  O3  UNL     1      -0.772   2.518  -0.887  1.00  0.00    -0.644 OA
HETATM   11  O4  UNL     1      -1.899   1.748   0.888  1.00  0.00    -0.644 OA
ENDBRANCH   1   9
TORSDOF 1
