REMARK  3 active torsions:
REMARK  status: ('A' for Active; 'I' for Inactive)
REMARK    1  A    between atoms: C3_3  and  C20_22 
REMARK    2  A    between atoms: C12_12  and  C15_15 
REMARK    3  A    between atoms: C15_15  and  C16_17 
ROOT
HETATM    1  C1  UNL     1      -2.631  -2.019   0.297  1.00  0.00     0.033 C 
HETATM    2  C2  UNL     1      -3.643  -0.875   0.051  1.00  0.00     0.154 C 
HETATM    3  C3  UNL     1      -2.973   0.461  -0.354  1.00  0.00     0.059 C 
HETATM    4  C4  UNL     1      -1.928   0.889   0.725  1.00  0.00     0.005 C 
HETATM    5  C5  UNL     1      -0.963  -0.260   1.207  1.00  0.00     0.004 C 
HETATM    6  C6  UNL     1      -1.168  -1.551   0.379  1.00  0.00     0.003 C 
HETATM    7  C7  UNL     1       0.535   0.186   1.150  1.00  0.00     0.018 C 
HETATM    8  C8  UNL     1       0.871   0.867  -0.168  1.00  0.00    -0.049 C 
HETATM    9  C9  UNL     1      -0.012   2.020  -0.584  1.00  0.00     0.022 C 
HETATM   10  C10 UNL     1      -1.189   2.207   0.379  1.00  0.00     0.004 C 
HETATM   11  C11 UNL     1       1.893   0.486  -0.965  1.00  0.00    -0.033 C 
HETATM   12  C12 UNL     1       2.832  -0.650  -0.627  1.00  0.00     0.049 C 
HETATM   13  C13 UNL     1       2.156  -1.641   0.336  1.00  0.00     0.007 C 
HETATM   14  C14 UNL     1       1.553  -0.914   1.547  1.00  0.00     0.004 C 
HETATM   15  C17 UNL     1       3.223  -1.373  -1.920  1.00  0.00     0.007 C 
HETATM   16  C18 UNL     1      -1.295  -0.603   2.670  1.00  0.00     0.000 C 
HETATM   17  C19 UNL     1      -2.326   0.285  -1.734  1.00  0.00     0.005 C 
HETATM   18  O4  UNL     1      -4.418  -0.691   1.223  1.00  0.00    -0.223 OA
ENDROOT
BRANCH  12  19
HETATM   19  C15 UNL     1       4.094  -0.062   0.012  1.00  0.00     0.189 C 
HETATM   20  O1  UNL     1       4.940  -1.127   0.381  1.00  0.00    -0.220 OA
BRANCH  19  21
HETATM   21  C16 UNL     1       4.863   0.854  -0.939  1.00  0.00     0.215 C 
HETATM   22  O2  UNL     1       5.832   1.553  -0.191  1.00  0.00    -0.218 OA
ENDBRANCH  19  21
ENDBRANCH  12  19
BRANCH   3  23
HETATM   23  C20 UNL     1      -4.039   1.557  -0.514  1.00  0.00     0.185 C 
HETATM   24  O3  UNL     1      -5.025   1.086  -1.404  1.00  0.00    -0.221 OA
ENDBRANCH   3  23
TORSDOF 3
