REMARK  9 active torsions:
REMARK  status: ('A' for Active; 'I' for Inactive)
REMARK    1  A    between atoms: C2_2  and  C3_3 
REMARK    2  A    between atoms: C5_5  and  C6_6 
REMARK    3  A    between atoms: C6_6  and  O2_8 
REMARK    4  A    between atoms: O2_8  and  C7_9 
REMARK    5  A    between atoms: C9_11  and  C24_29 
REMARK    6  A    between atoms: C14_16  and  O4_22 
REMARK    7  A    between atoms: O4_22  and  C19_23 
REMARK    8  A    between atoms: C19_23  and  C20_25 
REMARK    9  A    between atoms: C20_25  and  C22_27 
ROOT
HETATM    1  C7  UNL     1      -1.988  -0.479  -0.775  1.00  0.00     0.143 C 
HETATM    2  C8  UNL     1      -1.711   0.762   0.094  1.00  0.00     0.035 C 
HETATM    3  C9  UNL     1      -0.215   1.025   0.400  1.00  0.00     0.007 C 
HETATM    4  C10 UNL     1       0.725   0.297  -0.590  1.00  0.00     0.032 C 
HETATM    5  C11 UNL     1       0.465  -1.229  -0.676  1.00  0.00     0.060 C 
HETATM    6  C12 UNL     1      -0.996  -1.586  -0.514  1.00  0.00    -0.014 C 
HETATM    7  C13 UNL     1      -1.397  -2.822  -0.162  1.00  0.00    -0.007 C 
HETATM    8  C14 UNL     1       1.484  -1.879   0.289  1.00  0.00     0.189 C 
HETATM    9  C15 UNL     1       2.617  -0.893   0.346  1.00  0.00     0.197 C 
HETATM   10  C16 UNL     1       2.178   0.389  -0.197  1.00  0.00     0.011 C 
HETATM   11  C17 UNL     1       2.943   1.490  -0.334  1.00  0.00    -0.027 C 
HETATM   12  C18 UNL     1       2.389   2.768  -0.910  1.00  0.00     0.030 C 
HETATM   13  O3  UNL     1       3.721  -1.133   0.773  1.00  0.00    -0.289 OA
ENDROOT
BRANCH   1  14
HETATM   14  O2  UNL     1      -1.875  -0.111  -2.146  1.00  0.00    -0.297 OA
BRANCH  14  15
HETATM   15  C6  UNL     1      -2.947   0.541  -2.586  1.00  0.00     0.295 C 
HETATM   16  O1  UNL     1      -3.865   0.885  -1.875  1.00  0.00    -0.259 OA
BRANCH  15  17
HETATM   17  C5  UNL     1      -2.969   0.840  -4.022  1.00  0.00     0.060 C 
HETATM   18  C3  UNL     1      -2.172   1.791  -4.537  1.00  0.00    -0.039 C 
HETATM   19  C4  UNL     1      -1.260   2.543  -3.605  1.00  0.00     0.026 C 
BRANCH  18  20
HETATM   20  C2  UNL     1      -2.109   2.180  -5.988  1.00  0.00     0.022 C 
HETATM   21  C1  UNL     1      -3.232   1.547  -6.811  1.00  0.00     0.005 C 
ENDBRANCH  18  20
ENDBRANCH  15  17
ENDBRANCH  14  15
ENDBRANCH   1  14
BRANCH   3  22
HETATM   22  C24 UNL     1       0.123   0.670   1.857  1.00  0.00     0.000 C 
HETATM   23  C25 UNL     1       1.510   1.154   2.277  1.00  0.00     0.000 C 
HETATM   24  C26 UNL     1      -0.973   1.092   2.836  1.00  0.00     0.000 C 
ENDBRANCH   3  22
BRANCH   8  25
HETATM   25  O4  UNL     1       0.932  -2.051   1.588  1.00  0.00    -0.296 OA
BRANCH  25  26
HETATM   26  C19 UNL     1       1.721  -2.766   2.383  1.00  0.00     0.272 C 
HETATM   27  O5  UNL     1       2.756  -3.276   2.023  1.00  0.00    -0.264 OA
BRANCH  26  28
HETATM   28  C20 UNL     1       1.238  -2.908   3.803  1.00  0.00     0.086 C 
HETATM   29  C21 UNL     1      -0.281  -3.051   3.891  1.00  0.00     0.010 C 
BRANCH  28  30
HETATM   30  C22 UNL     1       1.781  -1.809   4.717  1.00  0.00     0.010 C 
HETATM   31  C23 UNL     1       3.311  -1.777   4.756  1.00  0.00     0.001 C 
ENDBRANCH  28  30
ENDBRANCH  26  28
ENDBRANCH  25  26
ENDBRANCH   8  25
TORSDOF 9
