REMARK  22 active torsions:
REMARK  status: ('A' for Active; 'I' for Inactive)
REMARK    1  A    between atoms: C4_4  and  C8_9 
REMARK    2  A    between atoms: C6_6  and  O1_7 
REMARK    3  A    between atoms: C9_10  and  C10_11 
REMARK    4  A    between atoms: C10_11  and  O2_12 
REMARK    5  A    between atoms: O2_12  and  C11_13 
REMARK    6  A    between atoms: C11_13  and  C12_14 
REMARK    7  A    between atoms: C13_15  and  O15_50 
REMARK    8  A    between atoms: C14_16  and  O8_33 
REMARK    9  A    between atoms: C16_18  and  O4_20 
REMARK   10  A    between atoms: O4_20  and  C17_21 
REMARK   11  A    between atoms: C17_21  and  C18_22 
REMARK   12  A    between atoms: C18_22  and  C19_23 
REMARK   13  A    between atoms: C22_26  and  O5_29 
REMARK   14  A    between atoms: O8_33  and  C26_34 
REMARK   15  A    between atoms: C29_38  and  O12_44 
REMARK   16  A    between atoms: C30_39  and  O10_40 
REMARK   17  A    between atoms: O10_40  and  C31_41 
REMARK   18  A    between atoms: O12_44  and  C33_45 
REMARK   19  A    between atoms: O15_50  and  C36_51 
REMARK   20  A    between atoms: C36_51  and  C37_53 
REMARK   21  A    between atoms: C38_54  and  C39_55 
REMARK   22  A    between atoms: C41_57  and  O18_62 
ROOT
HETATM    1  C12 UNL     1       0.186  -0.453   1.924  1.00  0.00     0.178 C 
HETATM    2  C13 UNL     1      -0.818  -1.482   1.336  1.00  0.00     0.184 C 
HETATM    3  C14 UNL     1      -2.150  -1.488   2.106  1.00  0.00     0.183 C 
HETATM    4  C15 UNL     1      -2.766  -0.059   2.170  1.00  0.00     0.238 C 
HETATM    5  C16 UNL     1      -1.682   1.070   2.152  1.00  0.00     0.270 C 
HETATM    6  O3  UNL     1      -0.463   0.565   2.691  1.00  0.00    -0.326 OA
HETATM    7  O7  UNL     1      -3.750   0.160   1.166  1.00  0.00    -0.215 OA
ENDROOT
BRANCH   3   8
HETATM    8  O8  UNL     1      -3.029  -2.467   1.576  1.00  0.00    -0.326 OA
BRANCH   8   9
HETATM    9  C26 UNL     1      -2.707  -3.781   1.979  1.00  0.00     0.267 C 
HETATM   10  O9  UNL     1      -3.113  -4.010   3.328  1.00  0.00    -0.329 OA
HETATM   11  C27 UNL     1      -4.451  -4.457   3.498  1.00  0.00     0.151 C 
HETATM   12  C28 UNL     1      -4.615  -5.877   2.875  1.00  0.00     0.209 C 
HETATM   13  C35 UNL     1      -4.795  -4.361   4.990  1.00  0.00     0.035 C 
HETATM   14  C29 UNL     1      -3.633  -6.143   1.709  1.00  0.00     0.190 C 
HETATM   15  O14 UNL     1      -4.440  -6.893   3.848  1.00  0.00    -0.218 OA
HETATM   16  C30 UNL     1      -3.301  -4.828   0.992  1.00  0.00     0.210 C 
BRANCH  14  17
HETATM   17  O12 UNL     1      -4.205  -7.066   0.791  1.00  0.00    -0.299 OA
BRANCH  17  18
HETATM   18  C33 UNL     1      -4.145  -8.320   1.232  1.00  0.00     0.273 C 
HETATM   19  O13 UNL     1      -3.428  -8.682   2.135  1.00  0.00    -0.264 OA
HETATM   20  C34 UNL     1      -5.047  -9.293   0.521  1.00  0.00     0.106 C 
ENDBRANCH  17  18
ENDBRANCH  14  17
BRANCH  16  21
HETATM   21  O10 UNL     1      -4.496  -4.342   0.389  1.00  0.00    -0.296 OA
BRANCH  21  22
HETATM   22  C31 UNL     1      -4.268  -3.760  -0.787  1.00  0.00     0.273 C 
HETATM   23  O11 UNL     1      -4.387  -2.574  -0.984  1.00  0.00    -0.264 OA
HETATM   24  C32 UNL     1      -3.840  -4.691  -1.889  1.00  0.00     0.106 C 
ENDBRANCH  21  22
ENDBRANCH  16  21
ENDBRANCH   8   9
ENDBRANCH   3   8
BRANCH   2  25
HETATM   25  O15 UNL     1      -1.070  -1.156  -0.025  1.00  0.00    -0.296 OA
BRANCH  25  26
HETATM   26  C36 UNL     1      -0.035  -1.437  -0.813  1.00  0.00     0.296 C 
HETATM   27  O16 UNL     1       0.998  -1.924  -0.418  1.00  0.00    -0.259 OA
BRANCH  26  28
HETATM   28  C37 UNL     1      -0.211  -1.123  -2.234  1.00  0.00     0.068 C 
HETATM   29  C38 UNL     1      -1.395  -0.685  -2.697  1.00  0.00     0.005 C 
BRANCH  29  30
HETATM   30  C39 UNL     1      -1.525  -0.377  -4.154  1.00  0.00     0.002 A 
HETATM   31  C40 UNL     1      -0.406   0.066  -4.883  1.00  0.00     0.026 A 
HETATM   32  C41 UNL     1      -0.525   0.357  -6.254  1.00  0.00     0.119 A 
HETATM   33  C42 UNL     1      -1.768   0.205  -6.899  1.00  0.00     0.153 A 
HETATM   34  C43 UNL     1      -2.885  -0.238  -6.168  1.00  0.00     0.029 A 
HETATM   35  O17 UNL     1      -1.887   0.475  -8.182  1.00  0.00    -0.188 OA
HETATM   36  C44 UNL     1      -2.766  -0.529  -4.799  1.00  0.00     0.002 A 
BRANCH  32  37
HETATM   37  O18 UNL     1       0.527   0.774  -6.930  1.00  0.00    -0.326 OA
HETATM   38  C45 UNL     1       0.689   0.307  -8.262  1.00  0.00     0.181 C 
ENDBRANCH  32  37
ENDBRANCH  29  30
ENDBRANCH  26  28
ENDBRANCH  25  26
ENDBRANCH   2  25
BRANCH   1  39
HETATM   39  C11 UNL     1       1.213  -1.103   2.856  1.00  0.00     0.184 C 
BRANCH  39  40
HETATM   40  O2  UNL     1       2.170  -0.133   3.256  1.00  0.00    -0.296 OA
BRANCH  40  41
HETATM   41  C10 UNL     1       3.041   0.149   2.291  1.00  0.00     0.296 C 
HETATM   42  O19 UNL     1       3.045  -0.393   1.209  1.00  0.00    -0.259 OA
BRANCH  41  43
HETATM   43  C9  UNL     1       4.033   1.182   2.609  1.00  0.00     0.068 C 
HETATM   44  C8  UNL     1       5.006   1.488   1.734  1.00  0.00     0.005 C 
BRANCH  44  45
HETATM   45  C4  UNL     1       5.992   2.547   2.104  1.00  0.00     0.002 A 
HETATM   46  C3  UNL     1       6.313   2.774   3.453  1.00  0.00     0.002 A 
HETATM   47  C2  UNL     1       7.242   3.772   3.797  1.00  0.00     0.029 A 
HETATM   48  C1  UNL     1       7.854   4.543   2.795  1.00  0.00     0.153 A 
HETATM   49  C6  UNL     1       7.535   4.318   1.443  1.00  0.00     0.119 A 
HETATM   50  O20 UNL     1       8.725   5.477   3.125  1.00  0.00    -0.188 OA
HETATM   51  C5  UNL     1       6.606   3.320   1.100  1.00  0.00     0.026 A 
BRANCH  49  52
HETATM   52  O1  UNL     1       8.104   5.037   0.496  1.00  0.00    -0.326 OA
HETATM   53  C7  UNL     1       7.611   4.906  -0.828  1.00  0.00     0.181 C 
ENDBRANCH  49  52
ENDBRANCH  44  45
ENDBRANCH  41  43
ENDBRANCH  40  41
ENDBRANCH  39  40
ENDBRANCH   1  39
BRANCH   5  54
HETATM   54  O4  UNL     1      -1.463   1.641   0.869  1.00  0.00    -0.329 OA
BRANCH  54  55
HETATM   55  C17 UNL     1      -0.629   2.777   0.904  1.00  0.00     0.150 C 
BRANCH  55  56
HETATM   56  C18 UNL     1      -0.508   3.324  -0.520  1.00  0.00     0.059 C 
BRANCH  56  57
HETATM   57  C19 UNL     1       0.391   4.508  -0.576  1.00  0.00    -0.018 A 
HETATM   58  C20 UNL     1      -0.094   5.777  -0.213  1.00  0.00     0.025 A 
HETATM   59  C21 UNL     1       0.752   6.899  -0.266  1.00  0.00     0.153 A 
HETATM   60  C22 UNL     1       2.088   6.750  -0.682  1.00  0.00     0.119 A 
HETATM   61  O6  UNL     1       0.291   8.086   0.076  1.00  0.00    -0.188 OA
HETATM   62  C23 UNL     1       2.572   5.481  -1.045  1.00  0.00     0.026 A 
HETATM   63  C24 UNL     1       1.725   4.360  -0.992  1.00  0.00    -0.002 A 
BRANCH  60  64
HETATM   64  O5  UNL     1       2.889   7.797  -0.734  1.00  0.00    -0.326 OA
HETATM   65  C25 UNL     1       4.250   7.578  -1.074  1.00  0.00     0.181 C 
ENDBRANCH  60  64
ENDBRANCH  56  57
ENDBRANCH  55  56
ENDBRANCH  54  55
ENDBRANCH   5  54
TORSDOF 22
