REMARK  4 active torsions:
REMARK  status: ('A' for Active; 'I' for Inactive)
REMARK    1  A    between atoms: C6_6  and  O1_7 
REMARK    2  A    between atoms: O1_7  and  C7_8 
REMARK    3  A    between atoms: C11_12  and  C12_14 
REMARK    4  A    between atoms: C13_20  and  C16_24 
ROOT
HETATM    1  C1  UNL     1      -1.898  -1.215   1.992  1.00  0.00     0.157 A 
HETATM    2  C2  UNL     1      -1.740  -2.524   2.510  1.00  0.00     0.057 A 
HETATM    3  C3  UNL     1      -0.447  -3.059   2.717  1.00  0.00     0.138 A 
HETATM    4  C4  UNL     1       0.693  -2.274   2.402  1.00  0.00     0.089 A 
HETATM    5  C5  UNL     1       0.537  -0.961   1.883  1.00  0.00     0.129 A 
HETATM    6  C6  UNL     1      -0.760  -0.434   1.680  1.00  0.00     0.145 A 
HETATM    7  O7  UNL     1       1.623  -0.211   1.584  1.00  0.00    -0.309 OA
HETATM    8  C13 UNL     1       2.891  -0.639   1.750  1.00  0.00     0.081 A 
HETATM    9  C14 UNL     1       3.162  -1.871   2.234  1.00  0.00     0.062 A 
HETATM   10  C15 UNL     1       2.072  -2.801   2.604  1.00  0.00     0.201 A 
HETATM   11  O8  UNL     1       2.393  -3.887   3.029  1.00  0.00    -0.286 OA
HETATM   12  O9  UNL     1      -0.318  -4.299   3.207  1.00  0.00    -0.190 OA
HETATM   13  O10 UNL     1      -3.127  -0.719   1.801  1.00  0.00    -0.188 OA
ENDROOT
BRANCH   6  14
HETATM   14  O1  UNL     1      -0.912   0.805   1.189  1.00  0.00    -0.299 OA
BRANCH  14  15
HETATM   15  C7  UNL     1      -1.525   0.947  -0.084  1.00  0.00     0.274 C 
HETATM   16  C8  UNL     1      -1.766   2.441  -0.393  1.00  0.00     0.241 C 
HETATM   17  C9  UNL     1      -2.307   2.637  -1.824  1.00  0.00     0.220 C 
HETATM   18  O6  UNL     1      -2.691   2.953   0.549  1.00  0.00    -0.215 OA
HETATM   19  C10 UNL     1      -1.402   1.885  -2.828  1.00  0.00     0.215 C 
HETATM   20  O5  UNL     1      -2.334   4.020  -2.143  1.00  0.00    -0.218 OA
HETATM   21  C11 UNL     1      -1.182   0.418  -2.397  1.00  0.00     0.184 C 
HETATM   22  O4  UNL     1      -2.000   1.894  -4.113  1.00  0.00    -0.218 OA
HETATM   23  O2  UNL     1      -0.670   0.387  -1.070  1.00  0.00    -0.326 OA
BRANCH  21  24
HETATM   24  C12 UNL     1      -0.166  -0.318  -3.277  1.00  0.00     0.214 C 
HETATM   25  O3  UNL     1      -0.172  -1.680  -2.914  1.00  0.00    -0.218 OA
ENDBRANCH  21  24
ENDBRANCH  14  15
ENDBRANCH   6  14
BRANCH   8  26
HETATM   26  C16 UNL     1       4.045   0.260   1.395  1.00  0.00     0.052 C 
HETATM   27  C17 UNL     1       3.897   0.875   0.002  1.00  0.00     0.007 C 
ENDBRANCH   8  26
TORSDOF 4
