REMARK  3 active torsions:
REMARK  status: ('A' for Active; 'I' for Inactive)
REMARK    1  A    between atoms: C6_6  and  C7_7 
REMARK    2  A    between atoms: C7_7  and  C8_8 
REMARK    3  A    between atoms: C15_17  and  C22_26 
ROOT
HETATM    1  C1  UNL     1       2.199  -3.388   1.393  1.00  0.00     0.131 A 
HETATM    2  C2  UNL     1       1.053  -4.173   1.665  1.00  0.00     0.055 A 
HETATM    3  C3  UNL     1      -0.226  -3.732   1.255  1.00  0.00     0.138 A 
HETATM    4  C4  UNL     1      -0.354  -2.496   0.570  1.00  0.00     0.087 A 
HETATM    5  C5  UNL     1       0.789  -1.710   0.292  1.00  0.00     0.103 A 
HETATM    6  C6  UNL     1       2.069  -2.155   0.706  1.00  0.00     0.030 A 
HETATM    7  O1  UNL     1       0.657  -0.540  -0.369  1.00  0.00    -0.307 OA
HETATM    8  C12 UNL     1      -0.508  -0.019  -0.818  1.00  0.00     0.103 A 
HETATM    9  C13 UNL     1      -1.675  -0.678  -0.566  1.00  0.00     0.071 A 
HETATM   10  C14 UNL     1      -1.680  -1.993   0.128  1.00  0.00     0.200 A 
HETATM   11  O2  UNL     1      -2.749  -2.541   0.280  1.00  0.00    -0.287 OA
HETATM   12  C15 UNL     1      -3.015  -0.076  -0.976  1.00  0.00     0.170 C 
HETATM   13  O3  UNL     1      -2.925   0.882  -2.036  1.00  0.00    -0.324 OA
HETATM   14  C16 UNL     1      -1.827   1.645  -2.179  1.00  0.00     0.099 A 
HETATM   15  C17 UNL     1      -0.597   1.255  -1.589  1.00  0.00     0.045 A 
HETATM   16  C18 UNL     1       0.552   2.069  -1.748  1.00  0.00     0.006 A 
HETATM   17  C19 UNL     1       0.473   3.266  -2.498  1.00  0.00     0.028 A 
HETATM   18  C20 UNL     1      -0.751   3.650  -3.093  1.00  0.00     0.133 A 
HETATM   19  C21 UNL     1      -1.899   2.838  -2.936  1.00  0.00     0.052 A 
HETATM   20  O4  UNL     1      -0.824   4.782  -3.806  1.00  0.00    -0.190 OA
HETATM   21  O5  UNL     1      -1.300  -4.489   1.521  1.00  0.00    -0.190 OA
HETATM   22  O6  UNL     1       3.405  -3.819   1.790  1.00  0.00    -0.190 OA
ENDROOT
BRANCH   6  23
HETATM   23  C7  UNL     1       3.261  -1.337   0.423  1.00  0.00     0.056 C 
BRANCH  23  24
HETATM   24  C8  UNL     1       3.773  -0.636   1.652  1.00  0.00    -0.030 C 
HETATM   25  C9  UNL     1       4.969  -0.028   1.592  1.00  0.00    -0.048 C 
HETATM   26  C10 UNL     1       5.480   0.674   2.822  1.00  0.00     0.026 C 
HETATM   27  C11 UNL     1       5.736  -0.079   0.299  1.00  0.00     0.026 C 
ENDBRANCH  23  24
ENDBRANCH   6  23
BRANCH  12  28
HETATM   28  C22 UNL     1      -3.651   0.594   0.217  1.00  0.00    -0.000 C 
HETATM   29  C23 UNL     1      -4.878   1.121   0.077  1.00  0.00    -0.045 C 
HETATM   30  C24 UNL     1      -5.692   1.104  -1.189  1.00  0.00     0.026 C 
HETATM   31  C25 UNL     1      -5.512   1.789   1.268  1.00  0.00     0.026 C 
ENDBRANCH  12  28
TORSDOF 3
