REMARK  1 active torsions:
REMARK  status: ('A' for Active; 'I' for Inactive)
REMARK    1  A    between atoms: O1_2  and  C2_3 
ROOT
HETATM    1  C2  UNL     1      -0.580   1.645   0.088  1.00  0.00     0.119 A 
HETATM    2  C3  UNL     1      -1.895   2.201   0.039  1.00  0.00     0.153 A 
HETATM    3  C4  UNL     1      -3.039   1.363   0.062  1.00  0.00     0.034 A 
HETATM    4  C5  UNL     1      -2.836  -0.029   0.135  1.00  0.00     0.061 A 
HETATM    5  C6  UNL     1      -1.590  -0.564   0.182  1.00  0.00     0.024 A 
HETATM    6  C7  UNL     1      -1.566  -1.939   0.248  1.00  0.00     0.085 A 
HETATM    7  C8  UNL     1      -0.369  -2.674   0.305  1.00  0.00     0.019 A 
HETATM    8  C9  UNL     1       0.852  -1.941   0.289  1.00  0.00     0.002 A 
HETATM    9  C10 UNL     1       2.068  -2.668   0.344  1.00  0.00     0.002 A 
HETATM   10  C11 UNL     1       3.303  -1.984   0.332  1.00  0.00     0.027 A 
HETATM   11  C12 UNL     1       3.330  -0.576   0.267  1.00  0.00     0.131 A 
HETATM   12  C13 UNL     1       2.127   0.162   0.213  1.00  0.00     0.028 A 
HETATM   13  C14 UNL     1       0.859  -0.494   0.221  1.00  0.00     0.004 A 
HETATM   14  C15 UNL     1      -0.398   0.219   0.162  1.00  0.00     0.026 A 
HETATM   15  O2  UNL     1       4.508   0.065   0.260  1.00  0.00    -0.190 OA
HETATM   16  N1  UNL     1      -3.012  -2.379   0.246  1.00  0.00    -0.208 NA
HETATM   17  C16 UNL     1      -3.779  -1.144   0.174  1.00  0.00     0.279 A 
HETATM   18  O3  UNL     1      -4.986  -1.072   0.152  1.00  0.00    -0.265 OA
HETATM   19  O4  UNL     1      -2.057   3.529  -0.029  1.00  0.00    -0.188 OA
ENDROOT
BRANCH   1  20
HETATM   20  O1  UNL     1       0.445   2.508   0.058  1.00  0.00    -0.326 OA
HETATM   21  C1  UNL     1       0.854   3.014  -1.203  1.00  0.00     0.181 C 
ENDBRANCH   1  20
TORSDOF 1
