REMARK  6 active torsions:
REMARK  status: ('A' for Active; 'I' for Inactive)
REMARK    1  A    between atoms: C1_1  and  O10_21 
REMARK    2  A    between atoms: C5_8  and  C6_10 
REMARK    3  A    between atoms: C6_10  and  O5_11 
REMARK    4  A    between atoms: O5_11  and  C7_12 
REMARK    5  A    between atoms: C9_15  and  C11_19 
REMARK    6  A    between atoms: O10_21  and  C12_22 
ROOT
HETATM    1  C1  UNL     1       1.942   2.244  -0.129  1.00  0.00     0.270 C 
HETATM    2  C2  UNL     1       1.690   3.676  -0.670  1.00  0.00     0.241 C 
HETATM    3  O1  UNL     1       2.645   4.565  -0.111  1.00  0.00    -0.215 OA
HETATM    4  C3  UNL     1       0.268   4.160  -0.312  1.00  0.00     0.220 C 
HETATM    5  O2  UNL     1      -0.008   5.379  -0.986  1.00  0.00    -0.218 OA
HETATM    6  C4  UNL     1      -0.771   3.092  -0.719  1.00  0.00     0.215 C 
HETATM    7  O3  UNL     1      -2.047   3.447  -0.215  1.00  0.00    -0.218 OA
HETATM    8  C5  UNL     1      -0.391   1.699  -0.170  1.00  0.00     0.180 C 
HETATM    9  O4  UNL     1       0.924   1.367  -0.592  1.00  0.00    -0.326 OA
ENDROOT
BRANCH   8  10
HETATM   10  C6  UNL     1      -1.310   0.584  -0.680  1.00  0.00     0.177 C 
BRANCH  10  11
HETATM   11  O5  UNL     1      -0.992  -0.602   0.014  1.00  0.00    -0.326 OA
BRANCH  11  12
HETATM   12  C7  UNL     1      -1.771  -1.709  -0.393  1.00  0.00     0.270 C 
HETATM   13  O6  UNL     1      -3.111  -1.574   0.004  1.00  0.00    -0.326 OA
HETATM   14  C8  UNL     1      -3.758  -2.822  -0.076  1.00  0.00     0.181 C 
HETATM   15  C9  UNL     1      -2.650  -3.854   0.232  1.00  0.00     0.217 C 
HETATM   16  C10 UNL     1      -1.361  -2.990   0.334  1.00  0.00     0.241 C 
HETATM   17  O8  UNL     1      -2.607  -4.811  -0.816  1.00  0.00    -0.218 OA
HETATM   18  O7  UNL     1      -0.209  -3.572  -0.256  1.00  0.00    -0.215 OA
BRANCH  15  19
HETATM   19  C11 UNL     1      -2.916  -4.607   1.531  1.00  0.00     0.218 C 
HETATM   20  O9  UNL     1      -4.182  -5.219   1.436  1.00  0.00    -0.218 OA
ENDBRANCH  15  19
ENDBRANCH  11  12
ENDBRANCH  10  11
ENDBRANCH   8  10
BRANCH   1  21
HETATM   21  O10 UNL     1       3.190   1.758  -0.580  1.00  0.00    -0.332 OA
BRANCH  21  22
HETATM   22  C12 UNL     1       3.582   0.563   0.057  1.00  0.00     0.118 C 
HETATM   23  C13 UNL     1       4.750  -0.037  -0.727  1.00  0.00     0.032 C 
HETATM   24  C14 UNL     1       3.949   0.891   1.504  1.00  0.00     0.032 C 
ENDBRANCH  21  22
ENDBRANCH   1  21
TORSDOF 6
