REMARK  3 active torsions:
REMARK  status: ('A' for Active; 'I' for Inactive)
REMARK    1  A    between atoms: C3_3  and  C22_24 
REMARK    2  A    between atoms: C7_7  and  C12_12 
REMARK    3  A    between atoms: C13_13  and  C14_14 
ROOT
HETATM    1  C1  UNL     1      -3.098  -0.787   0.492  1.00  0.00     0.033 C 
HETATM    2  C2  UNL     1      -3.141  -2.328   0.332  1.00  0.00     0.154 C 
HETATM    3  C3  UNL     1      -2.078  -3.063   1.187  1.00  0.00     0.059 C 
HETATM    4  C4  UNL     1      -0.629  -2.506   0.955  1.00  0.00     0.006 C 
HETATM    5  C5  UNL     1      -0.547  -1.063   0.377  1.00  0.00     0.007 C 
HETATM    6  C6  UNL     1      -1.723  -0.232   0.924  1.00  0.00     0.003 C 
HETATM    7  C7  UNL     1       0.826  -0.477   0.803  1.00  0.00     0.040 C 
HETATM    8  C8  UNL     1       1.963  -1.463   0.566  1.00  0.00    -0.041 C 
HETATM    9  C9  UNL     1       1.678  -2.752  -0.186  1.00  0.00     0.022 C 
HETATM   10  C10 UNL     1       0.344  -3.436   0.195  1.00  0.00     0.004 C 
HETATM   11  C11 UNL     1       3.201  -1.205   1.027  1.00  0.00    -0.009 C 
HETATM   12  C21 UNL     1      -0.631  -1.061  -1.164  1.00  0.00     0.001 C 
HETATM   13  C23 UNL     1      -2.469  -2.848   2.660  1.00  0.00     0.005 C 
HETATM   14  O4  UNL     1      -2.994  -2.678  -1.033  1.00  0.00    -0.223 OA
ENDROOT
BRANCH   7  15
HETATM   15  C12 UNL     1       1.141   0.844   0.137  1.00  0.00    -0.022 C 
HETATM   16  C13 UNL     1       1.027   1.969   0.859  1.00  0.00     0.001 C 
BRANCH  16  17
HETATM   17  C14 UNL     1       1.320   3.277   0.258  1.00  0.00     0.065 A 
HETATM   18  C15 UNL     1       1.709   3.506  -0.994  1.00  0.00     0.029 A 
HETATM   19  C16 UNL     1       1.867   4.955  -1.096  1.00  0.00     0.096 A 
HETATM   20  O1  UNL     1       1.582   5.570   0.066  1.00  0.00    -0.274 OA
HETATM   21  C18 UNL     1       2.252   5.594  -2.215  1.00  0.00    -0.021 C 
HETATM   22  C17 UNL     1       1.244   4.582   0.916  1.00  0.00     0.300 A 
HETATM   23  O2  UNL     1       0.916   4.729   2.072  1.00  0.00    -0.259 OA
HETATM   24  C19 UNL     1       2.506   4.779  -3.455  1.00  0.00     0.028 C 
HETATM   25  C20 UNL     1       2.408   7.090  -2.170  1.00  0.00     0.028 C 
ENDBRANCH  16  17
ENDBRANCH   7  15
BRANCH   3  26
HETATM   26  C22 UNL     1      -2.150  -4.580   0.951  1.00  0.00     0.185 C 
HETATM   27  O3  UNL     1      -3.469  -5.006   1.219  1.00  0.00    -0.221 OA
ENDBRANCH   3  26
TORSDOF 3
