REMARK  1 active torsions:
REMARK  status: ('A' for Active; 'I' for Inactive)
REMARK    1  A    between atoms: C1_1  and  C3_3 
ROOT
HETATM    1  C3  UNL     1       0.957   0.414   0.160  1.00  0.00     0.056 C 
HETATM    2  C4  UNL     1       1.082  -1.010   0.740  1.00  0.00     0.032 C 
HETATM    3  C5  UNL     1      -0.184  -1.838   0.648  1.00  0.00    -0.034 C 
HETATM    4  C6  UNL     1      -1.398  -1.281   0.459  1.00  0.00    -0.048 C 
HETATM    5  C7  UNL     1      -1.586   0.211   0.279  1.00  0.00     0.022 C 
HETATM    6  C8  UNL     1      -0.351   1.043   0.670  1.00  0.00     0.012 C 
HETATM    7  C9  UNL     1      -2.629  -2.152   0.416  1.00  0.00     0.026 C 
HETATM    8  C10 UNL     1       2.154   1.264   0.596  1.00  0.00     0.008 C 
ENDROOT
BRANCH   1   9
HETATM    9  C1  UNL     1       0.965   0.363  -1.350  1.00  0.00     0.151 C 
HETATM   10  C2  UNL     1       0.838   1.662  -2.102  1.00  0.00     0.072 C 
HETATM   11  O1  UNL     1       1.068  -0.688  -1.938  1.00  0.00    -0.296 OA
ENDBRANCH   1   9
TORSDOF 1
