REMARK  0 active torsions:
REMARK  status: ('A' for Active; 'I' for Inactive)
ROOT
HETATM    1  C1  UNL     1       4.908  -1.064  -2.142  1.00  0.00     0.033 C 
HETATM    2  C2  UNL     1       5.625  -0.008  -1.287  1.00  0.00     0.152 C 
HETATM    3  C3  UNL     1       5.172  -0.031   0.195  1.00  0.00     0.029 C 
HETATM    4  C4  UNL     1       3.623   0.090   0.262  1.00  0.00     0.006 C 
HETATM    5  C5  UNL     1       2.863  -0.971  -0.596  1.00  0.00     0.015 C 
HETATM    6  C6  UNL     1       3.383  -0.904  -2.053  1.00  0.00     0.006 C 
HETATM    7  C7  UNL     1       1.363  -0.697  -0.478  1.00  0.00    -0.053 C 
HETATM    8  C8  UNL     1       0.824  -0.467   0.746  1.00  0.00    -0.053 C 
HETATM    9  C9  UNL     1       1.746  -0.504   1.949  1.00  0.00     0.021 C 
HETATM   10  C10 UNL     1       3.094   0.193   1.715  1.00  0.00     0.005 C 
HETATM   11  C11 UNL     1      -0.666  -0.207   0.961  1.00  0.00     0.015 C 
HETATM   12  C12 UNL     1      -1.394   0.246  -0.336  1.00  0.00     0.004 C 
HETATM   13  C13 UNL     1      -1.000  -0.715  -1.476  1.00  0.00     0.005 C 
HETATM   14  C14 UNL     1       0.512  -0.695  -1.736  1.00  0.00     0.021 C 
HETATM   15  C15 UNL     1      -2.945   0.240  -0.117  1.00  0.00     0.000 C 
HETATM   16  C16 UNL     1      -3.396   0.736   1.303  1.00  0.00     0.000 C 
HETATM   17  C17 UNL     1      -2.287   1.572   1.967  1.00  0.00     0.000 C 
HETATM   18  C18 UNL     1      -0.939   0.830   2.088  1.00  0.00     0.004 C 
HETATM   19  C19 UNL     1      -4.689   1.582   1.217  1.00  0.00     0.000 C 
HETATM   20  C20 UNL     1      -5.730   0.936   0.293  1.00  0.00     0.000 C 
HETATM   21  C21 UNL     1      -5.236   0.811  -1.170  1.00  0.00     0.000 C 
HETATM   22  C22 UNL     1      -3.703   0.973  -1.252  1.00  0.00     0.000 C 
HETATM   23  C23 UNL     1      -5.641  -0.557  -1.734  1.00  0.00     0.000 C 
HETATM   24  C24 UNL     1      -5.893   1.891  -2.039  1.00  0.00     0.000 C 
HETATM   25  C25 UNL     1      -3.707  -0.461   2.215  1.00  0.00     0.000 C 
HETATM   26  C26 UNL     1      -0.916   1.660  -0.724  1.00  0.00     0.000 C 
HETATM   27  C27 UNL     1      -1.185  -1.588   1.404  1.00  0.00     0.004 C 
HETATM   28  C28 UNL     1       3.090  -2.396  -0.068  1.00  0.00     0.004 C 
HETATM   29  C29 UNL     1       5.803   1.156   0.936  1.00  0.00     0.003 C 
HETATM   30  C30 UNL     1       5.641  -1.322   0.891  1.00  0.00     0.003 C 
HETATM   31  O1  UNL     1       7.024  -0.215  -1.389  1.00  0.00    -0.224 OA
ENDROOT
TORSDOF 0
