REMARK  6 active torsions:
REMARK  status: ('A' for Active; 'I' for Inactive)
REMARK    1  A    between atoms: C1_1  and  C2_2 
REMARK    2  A    between atoms: C2_2  and  C3_3 
REMARK    3  A    between atoms: C3_3  and  C4_4 
REMARK    4  A    between atoms: C4_4  and  C5_5 
REMARK    5  A    between atoms: C5_5  and  C6_6 
REMARK    6  A    between atoms: C7_7  and  C8_8 
ROOT
HETATM    1  C4  UNL     1       0.233   1.344  -0.219  1.00  0.00     0.005 C 
ENDROOT
BRANCH   1   2
HETATM    2  C3  UNL     1       1.762   1.363  -0.180  1.00  0.00     0.009 C 
BRANCH   2   3
HETATM    3  C2  UNL     1       2.344   2.707  -0.621  1.00  0.00     0.072 C 
BRANCH   3   4
HETATM    4  C1  UNL     1       3.848   2.734  -0.539  1.00  0.00     0.207 C 
HETATM    5  O1  UNL     1       4.469   1.758  -0.190  1.00  0.00    -0.288 OA
ENDBRANCH   3   4
ENDBRANCH   2   3
ENDBRANCH   1   2
BRANCH   1   6
HETATM    6  C5  UNL     1      -0.351  -0.004   0.207  1.00  0.00     0.026 C 
BRANCH   6   7
HETATM    7  C6  UNL     1      -1.855  -0.004   0.207  1.00  0.00    -0.031 C 
HETATM    8  C7  UNL     1      -2.496  -1.184   0.207  1.00  0.00    -0.031 C 
BRANCH   8   9
HETATM    9  C8  UNL     1      -1.678  -2.447   0.207  1.00  0.00     0.026 C 
HETATM   10  C9  UNL     1      -2.490  -3.670   0.633  1.00  0.00     0.005 C 
ENDBRANCH   8   9
ENDBRANCH   6   7
ENDBRANCH   1   6
TORSDOF 6
