REMARK  15 active torsions:
REMARK  status: ('A' for Active; 'I' for Inactive)
REMARK    1  A    between atoms: C2_2  and  C3_3 
REMARK    2  A    between atoms: C3_3  and  C4_4 
REMARK    3  A    between atoms: C4_4  and  C5_5 
REMARK    4  A    between atoms: C5_5  and  C6_6 
REMARK    5  A    between atoms: C6_6  and  C7_7 
REMARK    6  A    between atoms: C7_7  and  C8_8 
REMARK    7  A    between atoms: C8_8  and  C9_9 
REMARK    8  A    between atoms: C10_10  and  C11_11 
REMARK    9  A    between atoms: C11_11  and  C12_12 
REMARK   10  A    between atoms: C12_12  and  C13_13 
REMARK   11  A    between atoms: C13_13  and  C14_14 
REMARK   12  A    between atoms: C14_14  and  C15_15 
REMARK   13  A    between atoms: C15_15  and  C16_16 
REMARK   14  A    between atoms: C16_16  and  C17_17 
REMARK   15  A    between atoms: C17_17  and  C18_18 
ROOT
HETATM    1  C11 UNL     1       1.769   0.830   2.166  1.00  0.00     0.174 C 
HETATM    2  O3  UNL     1       2.240   1.371   3.381  1.00  0.00    -0.219 OA
ENDROOT
BRANCH   1   3
HETATM    3  C10 UNL     1       0.264   0.830   2.166  1.00  0.00     0.002 C 
HETATM    4  C9  UNL     1      -0.377  -0.350   2.166  1.00  0.00    -0.028 C 
BRANCH   4   5
HETATM    5  C8  UNL     1      -1.881  -0.350   2.166  1.00  0.00     0.026 C 
BRANCH   5   6
HETATM    6  C7  UNL     1      -2.465  -1.293   1.115  1.00  0.00     0.005 C 
BRANCH   6   7
HETATM    7  C6  UNL     1      -3.994  -1.309   1.119  1.00  0.00     0.000 C 
BRANCH   7   8
HETATM    8  C5  UNL     1      -4.578  -2.250   0.064  1.00  0.00     0.000 C 
BRANCH   8   9
HETATM    9  C4  UNL     1      -6.106  -2.264   0.068  1.00  0.00     0.000 C 
BRANCH   9  10
HETATM   10  C3  UNL     1      -6.690  -3.205  -0.986  1.00  0.00     0.000 C 
BRANCH  10  11
HETATM   11  C2  UNL     1      -8.219  -3.221  -0.982  1.00  0.00     0.000 C 
HETATM   12  C1  UNL     1      -8.801  -4.162  -2.037  1.00  0.00     0.000 C 
ENDBRANCH  10  11
ENDBRANCH   9  10
ENDBRANCH   8   9
ENDBRANCH   7   8
ENDBRANCH   6   7
ENDBRANCH   5   6
ENDBRANCH   4   5
ENDBRANCH   1   3
BRANCH   1  13
HETATM   13  C12 UNL     1       2.353   1.656   1.020  1.00  0.00     0.037 C 
BRANCH  13  14
HETATM   14  C13 UNL     1       3.865   1.482   0.877  1.00  0.00     0.003 C 
BRANCH  14  15
HETATM   15  C14 UNL     1       4.447   2.299  -0.277  1.00  0.00     0.000 C 
BRANCH  15  16
HETATM   16  C15 UNL     1       5.961   2.131  -0.416  1.00  0.00     0.001 C 
BRANCH  16  17
HETATM   17  C16 UNL     1       6.541   2.945  -1.570  1.00  0.00     0.011 C 
BRANCH  17  18
HETATM   18  C17 UNL     1       8.057   2.783  -1.705  1.00  0.00     0.098 C 
BRANCH  18  19
HETATM   19  C18 UNL     1       8.615   3.551  -2.873  1.00  0.00     0.185 C 
HETATM   20  O1  UNL     1       8.066   4.545  -3.283  1.00  0.00    -0.647 OA
HETATM   21  O2  UNL     1       9.732   3.051  -3.395  1.00  0.00    -0.647 OA
ENDBRANCH  18  19
ENDBRANCH  17  18
ENDBRANCH  16  17
ENDBRANCH  15  16
ENDBRANCH  14  15
ENDBRANCH  13  14
ENDBRANCH   1  13
TORSDOF 15
