REMARK  2 active torsions:
REMARK  status: ('A' for Active; 'I' for Inactive)
REMARK    1  A    between atoms: C9_9  and  O1_11 
REMARK    2  A    between atoms: C12_14  and  O4_19 
ROOT
HETATM    1  C1  UNL     1      -2.381   0.322  -0.035  1.00  0.00     0.004 A 
HETATM    2  C2  UNL     1      -0.942   0.403  -0.037  1.00  0.00     0.022 A 
HETATM    3  C3  UNL     1      -0.185  -0.830  -0.034  1.00  0.00     0.004 A 
HETATM    4  C4  UNL     1      -0.890  -2.084  -0.032  1.00  0.00     0.002 A 
HETATM    5  C5  UNL     1      -2.303  -2.122  -0.031  1.00  0.00     0.000 A 
HETATM    6  C6  UNL     1      -3.043  -0.927  -0.031  1.00  0.00     0.000 A 
HETATM    7  C7  UNL     1      -0.190  -3.318  -0.031  1.00  0.00     0.029 A 
HETATM    8  C8  UNL     1       1.219  -3.334  -0.031  1.00  0.00     0.153 A 
HETATM    9  C9  UNL     1       1.934  -2.119  -0.031  1.00  0.00     0.119 A 
HETATM   10  C10 UNL     1       1.244  -0.885  -0.031  1.00  0.00     0.026 A 
HETATM   11  O2  UNL     1       1.875  -4.503  -0.031  1.00  0.00    -0.188 OA
HETATM   12  C12 UNL     1      -0.359   1.718  -0.043  1.00  0.00     0.096 A 
HETATM   13  C13 UNL     1      -1.176   2.873  -0.045  1.00  0.00     0.052 A 
HETATM   14  C14 UNL     1      -2.580   2.764  -0.040  1.00  0.00     0.133 A 
HETATM   15  C15 UNL     1      -3.183   1.492  -0.035  1.00  0.00     0.028 A 
HETATM   16  O3  UNL     1      -3.339   3.869  -0.041  1.00  0.00    -0.190 OA
ENDROOT
BRANCH   9  17
HETATM   17  O1  UNL     1       3.274  -2.132  -0.030  1.00  0.00    -0.326 OA
HETATM   18  C11 UNL     1       3.952  -0.948  -0.425  1.00  0.00     0.181 C 
ENDBRANCH   9  17
BRANCH  12  19
HETATM   19  O4  UNL     1       0.961   1.944  -0.049  1.00  0.00    -0.328 OA
HETATM   20  C16 UNL     1       1.437   3.127   0.574  1.00  0.00     0.181 C 
ENDBRANCH  12  19
TORSDOF 2
