REMARK  7 active torsions:
REMARK  status: ('A' for Active; 'I' for Inactive)
REMARK    1  A    between atoms: C15_15  and  C20_22 
REMARK    2  A    between atoms: C17_17  and  O1_18 
REMARK    3  A    between atoms: O1_18  and  C18_19 
REMARK    4  A    between atoms: C20_22  and  C22_24 
REMARK    5  A    between atoms: C22_24  and  C23_25 
REMARK    6  A    between atoms: C23_25  and  C24_26 
REMARK    7  A    between atoms: C25_27  and  C27_29 
ROOT
HETATM    1  C1  UNL     1      -6.260  -0.670  -0.234  1.00  0.00     0.065 C 
HETATM    2  C2  UNL     1      -6.619   0.281   0.881  1.00  0.00     0.150 C 
HETATM    3  C3  UNL     1      -5.686   1.455   1.107  1.00  0.00     0.052 C 
HETATM    4  C4  UNL     1      -4.205   0.955   1.164  1.00  0.00     0.014 C 
HETATM    5  C5  UNL     1      -3.811   0.098  -0.086  1.00  0.00     0.019 C 
HETATM    6  C6  UNL     1      -4.787  -1.104  -0.193  1.00  0.00     0.012 C 
HETATM    7  C7  UNL     1      -2.336  -0.315   0.000  1.00  0.00    -0.031 C 
HETATM    8  C8  UNL     1      -1.395   0.529   0.795  1.00  0.00    -0.029 C 
HETATM    9  C9  UNL     1      -1.789   1.680   1.381  1.00  0.00    -0.031 C 
HETATM   10  C10 UNL     1      -3.223   2.145   1.289  1.00  0.00     0.026 C 
HETATM   11  C11 UNL     1       0.041   0.051   0.932  1.00  0.00     0.044 C 
HETATM   12  C12 UNL     1       0.494  -0.617  -0.383  1.00  0.00     0.010 C 
HETATM   13  C13 UNL     1      -0.420  -1.824  -0.621  1.00  0.00     0.026 C 
HETATM   14  C14 UNL     1      -1.883  -1.418  -0.649  1.00  0.00    -0.031 C 
HETATM   15  C15 UNL     1       1.973  -0.910  -0.094  1.00  0.00     0.003 C 
HETATM   16  C16 UNL     1       2.439   0.359   0.635  1.00  0.00     0.031 C 
HETATM   17  C17 UNL     1       1.166   1.088   1.092  1.00  0.00     0.128 C 
HETATM   18  C28 UNL     1       0.404   0.355  -1.572  1.00  0.00     0.001 C 
HETATM   19  C29 UNL     1       0.105  -0.912   2.129  1.00  0.00     0.007 C 
HETATM   20  C30 UNL     1      -3.904   0.916  -1.383  1.00  0.00     0.004 C 
HETATM   21  C31 UNL     1      -4.053   0.086   2.434  1.00  0.00     0.001 C 
HETATM   22  C32 UNL     1      -5.920   2.459  -0.029  1.00  0.00     0.007 C 
HETATM   23  C33 UNL     1      -6.063   2.166   2.418  1.00  0.00     0.007 C 
HETATM   24  O5  UNL     1      -7.606   0.100   1.559  1.00  0.00    -0.296 OA
ENDROOT
BRANCH  15  25
HETATM   25  C20 UNL     1       2.810  -1.227  -1.330  1.00  0.00     0.000 C 
HETATM   26  C21 UNL     1       2.236  -2.455  -2.035  1.00  0.00     0.000 C 
BRANCH  25  27
HETATM   27  C22 UNL     1       4.271  -1.410  -0.920  1.00  0.00     0.005 C 
BRANCH  27  28
HETATM   28  C23 UNL     1       5.232  -1.332  -2.108  1.00  0.00     0.026 C 
BRANCH  28  29
HETATM   29  C24 UNL     1       6.672  -1.477  -1.693  1.00  0.00    -0.024 C 
HETATM   30  C25 UNL     1       7.592  -1.703  -2.645  1.00  0.00     0.038 C 
HETATM   31  C26 UNL     1       7.139  -1.803  -4.076  1.00  0.00     0.037 C 
BRANCH  30  32
HETATM   32  C27 UNL     1       9.022  -1.859  -2.352  1.00  0.00     0.206 C 
HETATM   33  O3  UNL     1       9.807  -2.098  -3.240  1.00  0.00    -0.644 OA
HETATM   34  O4  UNL     1       9.369  -1.719  -1.074  1.00  0.00    -0.644 OA
ENDBRANCH  30  32
ENDBRANCH  28  29
ENDBRANCH  27  28
ENDBRANCH  25  27
ENDBRANCH  15  25
BRANCH  17  35
HETATM   35  O1  UNL     1       1.293   1.529   2.439  1.00  0.00    -0.304 OA
BRANCH  35  36
HETATM   36  C18 UNL     1       2.166   2.523   2.564  1.00  0.00     0.272 C 
HETATM   37  O2  UNL     1       2.764   3.018   1.637  1.00  0.00    -0.264 OA
HETATM   38  C19 UNL     1       2.379   3.018   3.971  1.00  0.00     0.106 C 
ENDBRANCH  35  36
ENDBRANCH  17  35
TORSDOF 7
