REMARK  1 active torsions:
REMARK  status: ('A' for Active; 'I' for Inactive)
REMARK    1  A    between atoms: C13_13  and  O1_16 
ROOT
HETATM    1  C1  UNL     1       4.061  -0.477   0.039  1.00  0.00     0.127 A 
HETATM    2  C2  UNL     1       3.276  -1.625  -0.215  1.00  0.00     0.004 A 
HETATM    3  C3  UNL     1       1.864  -1.531  -0.229  1.00  0.00    -0.003 A 
HETATM    4  C4  UNL     1       1.211  -0.291   0.035  1.00  0.00    -0.003 A 
HETATM    5  C5  UNL     1       2.018   0.865   0.266  1.00  0.00    -0.020 A 
HETATM    6  C6  UNL     1       3.432   0.765   0.271  1.00  0.00     0.023 A 
HETATM    7  C7  UNL     1       1.371   2.178   0.504  1.00  0.00     0.031 C 
HETATM    8  C8  UNL     1       0.069   2.324  -0.301  1.00  0.00     0.031 C 
HETATM    9  C9  UNL     1      -0.838   1.154  -0.121  1.00  0.00    -0.022 A 
HETATM   10  C10 UNL     1      -0.273  -0.151   0.066  1.00  0.00     0.021 A 
HETATM   11  C11 UNL     1      -1.158  -1.254   0.281  1.00  0.00     0.133 A 
HETATM   12  C12 UNL     1      -2.556  -1.063   0.260  1.00  0.00     0.051 A 
HETATM   13  C13 UNL     1      -3.103   0.219   0.043  1.00  0.00     0.092 A 
HETATM   14  C14 UNL     1      -2.250   1.328  -0.145  1.00  0.00    -0.003 A 
HETATM   15  C15 UNL     1      -2.844   2.660  -0.363  1.00  0.00     0.033 C 
HETATM   16  O2  UNL     1      -0.715  -2.494   0.535  1.00  0.00    -0.190 OA
HETATM   17  C17 UNL     1       3.924  -2.924  -0.471  1.00  0.00     0.033 C 
HETATM   18  O3  UNL     1       5.399  -0.557   0.059  1.00  0.00    -0.191 OA
ENDROOT
BRANCH  13  19
HETATM   19  O1  UNL     1      -4.435   0.375   0.019  1.00  0.00    -0.328 OA
HETATM   20  C16 UNL     1      -5.244  -0.789   0.103  1.00  0.00     0.181 C 
ENDBRANCH  13  19
TORSDOF 1
