REMARK  2 active torsions:
REMARK  status: ('A' for Active; 'I' for Inactive)
REMARK    1  A    between atoms: C10_10  and  O1_11 
REMARK    2  A    between atoms: O1_11  and  C11_12 
ROOT
HETATM    1  C1  UNL     1      -2.414  -1.629   1.375  1.00  0.00     0.000 C 
HETATM    2  C2  UNL     1      -3.205  -0.359   1.076  1.00  0.00     0.000 C 
HETATM    3  C3  UNL     1      -2.342   0.910   1.240  1.00  0.00     0.002 C 
HETATM    4  C4  UNL     1      -0.859   0.680   0.769  1.00  0.00     0.030 C 
HETATM    5  C5  UNL     1      -0.678  -0.510  -0.225  1.00  0.00     0.025 C 
HETATM    6  C6  UNL     1      -1.248  -1.822   0.394  1.00  0.00     0.002 C 
HETATM    7  C7  UNL     1       0.832  -0.678  -0.649  1.00  0.00     0.093 C 
HETATM    8  C8  UNL     1       1.449   0.660  -1.149  1.00  0.00     0.027 C 
HETATM    9  C9  UNL     1       1.301   1.748  -0.072  1.00  0.00     0.033 C 
HETATM   10  C10 UNL     1      -0.164   1.980   0.295  1.00  0.00     0.124 C 
HETATM   11  C13 UNL     1       2.916   0.564  -1.588  1.00  0.00     0.003 C 
HETATM   12  O3  UNL     1       1.598  -1.121   0.471  1.00  0.00    -0.361 OA
HETATM   13  C14 UNL     1       2.162  -2.410   0.277  1.00  0.00     0.130 C 
HETATM   14  C15 UNL     1       1.400  -3.035  -0.887  1.00  0.00     0.033 C 
HETATM   15  C16 UNL     1       1.033  -1.797  -1.697  1.00  0.00     0.030 C 
HETATM   16  C17 UNL     1       2.166  -3.186   1.598  1.00  0.00     0.126 C 
HETATM   17  C18 UNL     1       3.469  -2.770   2.213  1.00  0.00     0.274 C 
HETATM   18  O4  UNL     1       4.287  -2.182   1.350  1.00  0.00    -0.299 OA
HETATM   19  C19 UNL     1       3.684  -2.293   0.062  1.00  0.00     0.179 C 
HETATM   20  O5  UNL     1       3.719  -2.953   3.383  1.00  0.00    -0.264 OA
HETATM   21  C20 UNL     1      -1.447  -0.189  -1.520  1.00  0.00     0.002 C 
HETATM   22  C21 UNL     1      -3.057   2.033   0.476  1.00  0.00     0.000 C 
HETATM   23  C22 UNL     1      -2.328   1.316   2.721  1.00  0.00     0.000 C 
ENDROOT
BRANCH  10  24
HETATM   24  O1  UNL     1      -0.813   2.516  -0.854  1.00  0.00    -0.304 OA
BRANCH  24  25
HETATM   25  C11 UNL     1      -0.500   3.791  -1.063  1.00  0.00     0.272 C 
HETATM   26  O2  UNL     1       0.166   4.455  -0.303  1.00  0.00    -0.264 OA
HETATM   27  C12 UNL     1      -1.035   4.381  -2.340  1.00  0.00     0.106 C 
ENDBRANCH  24  25
ENDBRANCH  10  24
TORSDOF 2
