REMARK  7 active torsions:
REMARK  status: ('A' for Active; 'I' for Inactive)
REMARK    1  A    between atoms: C1_1  and  C2_2 
REMARK    2  A    between atoms: C1_1  and  O4_8 
REMARK    3  A    between atoms: C2_2  and  C3_3 
REMARK    4  A    between atoms: C3_3  and  C4_4 
REMARK    5  A    between atoms: O4_8  and  C5_9 
REMARK    6  A    between atoms: C5_9  and  C6_10 
REMARK    7  A    between atoms: C6_10  and  C7_11 
ROOT
HETATM    1  C1  UNL     1       1.178  -0.039   0.386  1.00  0.00     0.272 C 
HETATM    2  O3  UNL     1       1.902  -0.555  -0.434  1.00  0.00    -0.264 OA
ENDROOT
BRANCH   1   3
HETATM    3  C2  UNL     1       1.748   0.695   1.570  1.00  0.00     0.107 C 
BRANCH   3   4
HETATM    4  C3  UNL     1       3.135   1.273   1.285  1.00  0.00     0.108 C 
BRANCH   4   5
HETATM    5  C4  UNL     1       3.676   2.068   2.443  1.00  0.00     0.186 C 
HETATM    6  O1  UNL     1       3.332   1.826   3.578  1.00  0.00    -0.647 OA
HETATM    7  O2  UNL     1       4.537   3.027   2.119  1.00  0.00    -0.647 OA
ENDBRANCH   4   5
ENDBRANCH   3   4
ENDBRANCH   1   3
BRANCH   1   8
HETATM    8  O4  UNL     1      -0.150  -0.070   0.328  1.00  0.00    -0.302 OA
BRANCH   8   9
HETATM    9  C5  UNL     1      -0.623  -0.777  -0.809  1.00  0.00     0.152 C 
BRANCH   9  10
HETATM   10  C6  UNL     1      -2.152  -0.774  -0.813  1.00  0.00     0.033 C 
BRANCH  10  11
HETATM   11  C7  UNL     1      -2.742  -1.518  -2.010  1.00  0.00     0.003 C 
HETATM   12  C8  UNL     1      -4.272  -1.518  -2.010  1.00  0.00     0.000 C 
ENDBRANCH  10  11
ENDBRANCH   9  10
ENDBRANCH   8   9
ENDBRANCH   1   8
TORSDOF 7
