REMARK  5 active torsions:
REMARK  status: ('A' for Active; 'I' for Inactive)
REMARK    1  A    between atoms: C1_1  and  C2_2 
REMARK    2  A    between atoms: C2_2  and  C3_3 
REMARK    3  A    between atoms: C3_3  and  C5_5 
REMARK    4  A    between atoms: C5_5  and  C6_6 
REMARK    5  A    between atoms: C6_6  and  C7_7 
ROOT
HETATM    1  C5  UNL     1      -0.705  -0.236   0.461  1.00  0.00     0.005 C 
ENDROOT
BRANCH   1   2
HETATM    2  C3  UNL     1      -0.935  -1.061  -0.807  1.00  0.00     0.003 C 
HETATM    3  C4  UNL     1      -1.556  -0.238  -1.938  1.00  0.00     0.000 C 
BRANCH   2   4
HETATM    4  C2  UNL     1      -1.695  -2.359  -0.537  1.00  0.00     0.036 C 
BRANCH   4   5
HETATM    5  C1  UNL     1      -1.656  -3.322  -1.725  1.00  0.00     0.182 C 
HETATM    6  O1  UNL     1      -2.285  -4.524  -1.338  1.00  0.00    -0.221 OA
ENDBRANCH   4   5
ENDBRANCH   2   4
ENDBRANCH   1   2
BRANCH   1   7
HETATM    7  C6  UNL     1       0.342   0.861   0.270  1.00  0.00     0.025 C 
BRANCH   7   8
HETATM    8  C7  UNL     1       0.664   1.578   1.553  1.00  0.00    -0.035 C 
HETATM    9  C8  UNL     1       1.811   2.273   1.629  1.00  0.00    -0.048 C 
HETATM   10  C9  UNL     1       2.322   2.975   2.857  1.00  0.00     0.026 C 
HETATM   11  C10 UNL     1       2.672   2.375   0.396  1.00  0.00     0.026 C 
ENDBRANCH   7   8
ENDBRANCH   1   7
TORSDOF 5
