REMARK  1 active torsions:
REMARK  status: ('A' for Active; 'I' for Inactive)
REMARK    1  A    between atoms: C9_9  and  C10_10 
ROOT
HETATM    1  C1  UNL     1      -2.508   0.199  -0.113  1.00  0.00     0.073 C 
HETATM    2  C2  UNL     1      -3.000  -1.215   0.031  1.00  0.00     0.173 C 
HETATM    3  C3  UNL     1      -2.043  -2.291  -0.252  1.00  0.00     0.033 C 
HETATM    4  C4  UNL     1      -0.721  -2.061  -0.340  1.00  0.00    -0.023 C 
HETATM    5  C5  UNL     1      -0.129  -0.717  -0.074  1.00  0.00    -0.026 C 
HETATM    6  C6  UNL     1      -1.063   0.410   0.385  1.00  0.00     0.026 C 
HETATM    7  C7  UNL     1      -1.043   0.412   1.918  1.00  0.00     0.005 C 
HETATM    8  C8  UNL     1      -0.635   1.799  -0.109  1.00  0.00     0.005 C 
HETATM    9  C9  UNL     1       1.209  -0.528  -0.221  1.00  0.00    -0.005 C 
HETATM   10  C13 UNL     1       0.164  -3.233  -0.701  1.00  0.00     0.031 C 
HETATM   11  O1  UNL     1      -4.141  -1.463   0.361  1.00  0.00    -0.291 OA
ENDROOT
BRANCH   9  12
HETATM   12  C10 UNL     1       1.943   0.709   0.088  1.00  0.00    -0.005 C 
HETATM   13  C11 UNL     1       2.760   1.265  -0.822  1.00  0.00    -0.026 C 
HETATM   14  C12 UNL     1       3.488   2.531  -0.455  1.00  0.00     0.031 C 
ENDBRANCH   9  12
TORSDOF 1
