REMARK  0 active torsions:
REMARK  status: ('A' for Active; 'I' for Inactive)
ROOT
HETATM    1  N1  UNL     1      -1.289   1.453   0.287  1.00  0.00    -0.224 NA
HETATM    2  C1  UNL     1      -2.424   0.861   0.063  1.00  0.00     0.202 A 
HETATM    3  N2  UNL     1      -2.500  -0.482  -0.285  1.00  0.00    -0.186 NA
HETATM    4  C2  UNL     1      -1.360  -1.260  -0.408  1.00  0.00     0.282 A 
HETATM    5  C3  UNL     1      -0.063  -0.558  -0.146  1.00  0.00     0.076 A 
HETATM    6  C4  UNL     1       1.170  -1.246  -0.242  1.00  0.00     0.006 A 
HETATM    7  C5  UNL     1       2.379  -0.557   0.012  1.00  0.00     0.000 A 
HETATM    8  C6  UNL     1       2.355   0.815   0.361  1.00  0.00     0.002 A 
HETATM    9  C7  UNL     1       1.125   1.506   0.457  1.00  0.00     0.019 A 
HETATM   10  C8  UNL     1      -0.088   0.822   0.205  1.00  0.00     0.088 A 
HETATM   11  O1  UNL     1      -1.500  -2.424  -0.713  1.00  0.00    -0.265 OA
ENDROOT
TORSDOF 0
