REMARK  9 active torsions:
REMARK  status: ('A' for Active; 'I' for Inactive)
REMARK    1  A    between atoms: C3_3  and  O1_30 
REMARK    2  A    between atoms: C15_15  and  C18_18 
REMARK    3  A    between atoms: C18_18  and  C19_19 
REMARK    4  A    between atoms: C19_19  and  C20_20 
REMARK    5  A    between atoms: C20_20  and  C21_21 
REMARK    6  A    between atoms: C21_21  and  C22_22 
REMARK    7  A    between atoms: C21_21  and  C25_25 
REMARK    8  A    between atoms: O1_30  and  C30_31 
REMARK    9  A    between atoms: C34_35  and  C35_37 
ROOT
HETATM    1  C1  UNL     1       3.389  -2.012  -1.209  1.00  0.00     0.003 C 
HETATM    2  C2  UNL     1       4.906  -1.893  -1.004  1.00  0.00     0.030 C 
HETATM    3  C3  UNL     1       5.387  -0.436  -1.063  1.00  0.00     0.118 C 
HETATM    4  C4  UNL     1       4.586   0.461  -0.104  1.00  0.00     0.030 C 
HETATM    5  C5  UNL     1       3.051   0.322  -0.221  1.00  0.00     0.002 C 
HETATM    6  C6  UNL     1       2.559  -1.156  -0.217  1.00  0.00     0.000 C 
HETATM    7  C7  UNL     1       1.047  -1.250  -0.631  1.00  0.00     0.000 C 
HETATM    8  C8  UNL     1       0.293   0.086  -0.424  1.00  0.00     0.000 C 
HETATM    9  C9  UNL     1       0.918   1.225  -1.266  1.00  0.00     0.000 C 
HETATM   10  C10 UNL     1       2.447   1.113  -1.391  1.00  0.00     0.000 C 
HETATM   11  C11 UNL     1      -1.180  -0.094  -0.826  1.00  0.00     0.000 C 
HETATM   12  C12 UNL     1      -1.861  -1.203  -0.022  1.00  0.00     0.000 C 
HETATM   13  C13 UNL     1      -1.184  -2.527  -0.389  1.00  0.00     0.000 C 
HETATM   14  C14 UNL     1       0.305  -2.453   0.004  1.00  0.00     0.000 C 
HETATM   15  C15 UNL     1      -3.293  -1.045  -0.549  1.00  0.00     0.000 C 
HETATM   16  C16 UNL     1      -3.506   0.475  -0.537  1.00  0.00     0.000 C 
HETATM   17  C17 UNL     1      -2.107   1.100  -0.604  1.00  0.00     0.000 C 
HETATM   18  C28 UNL     1      -1.828  -0.937   1.492  1.00  0.00     0.000 C 
HETATM   19  C29 UNL     1       2.779  -1.703   1.203  1.00  0.00     0.000 C 
ENDROOT
BRANCH   3  20
HETATM   20  O1  UNL     1       5.275   0.055  -2.385  1.00  0.00    -0.332 OA
BRANCH  20  21
HETATM   21  C30 UNL     1       6.049   1.215  -2.617  1.00  0.00     0.270 C 
HETATM   22  C31 UNL     1       6.649   1.189  -4.047  1.00  0.00     0.241 C 
HETATM   23  C32 UNL     1       7.365   2.520  -4.371  1.00  0.00     0.220 C 
HETATM   24  O6  UNL     1       7.574   0.121  -4.149  1.00  0.00    -0.215 OA
HETATM   25  C33 UNL     1       6.436   3.711  -4.049  1.00  0.00     0.215 C 
HETATM   26  O5  UNL     1       7.727   2.551  -5.742  1.00  0.00    -0.218 OA
HETATM   27  C34 UNL     1       5.857   3.604  -2.619  1.00  0.00     0.184 C 
HETATM   28  O4  UNL     1       7.156   4.926  -4.158  1.00  0.00    -0.218 OA
HETATM   29  O2  UNL     1       5.207   2.350  -2.467  1.00  0.00    -0.326 OA
BRANCH  27  30
HETATM   30  C35 UNL     1       4.813   4.682  -2.315  1.00  0.00     0.214 C 
HETATM   31  O3  UNL     1       4.432   4.559  -0.963  1.00  0.00    -0.218 OA
ENDBRANCH  27  30
ENDBRANCH  20  21
ENDBRANCH   3  20
BRANCH  15  32
HETATM   32  C18 UNL     1      -4.346  -1.793   0.266  1.00  0.00     0.000 C 
HETATM   33  C27 UNL     1      -5.455  -2.283  -0.664  1.00  0.00     0.000 C 
BRANCH  32  34
HETATM   34  C19 UNL     1      -4.867  -0.885   1.381  1.00  0.00     0.000 C 
BRANCH  34  35
HETATM   35  C20 UNL     1      -5.629  -1.654   2.459  1.00  0.00     0.000 C 
BRANCH  35  36
HETATM   36  C21 UNL     1      -5.981  -0.785   3.668  1.00  0.00     0.000 C 
BRANCH  36  37
HETATM   37  C22 UNL     1      -5.658  -1.465   4.998  1.00  0.00     0.000 C 
HETATM   38  C23 UNL     1      -5.711  -0.500   6.182  1.00  0.00     0.000 C 
HETATM   39  C24 UNL     1      -6.485  -2.730   5.231  1.00  0.00     0.000 C 
ENDBRANCH  36  37
BRANCH  36  40
HETATM   40  C25 UNL     1      -7.410  -0.248   3.611  1.00  0.00     0.000 C 
HETATM   41  C26 UNL     1      -7.674   0.600   2.365  1.00  0.00     0.000 C 
ENDBRANCH  36  40
ENDBRANCH  35  36
ENDBRANCH  34  35
ENDBRANCH  32  34
ENDBRANCH  15  32
TORSDOF 9
