REMARK  5 active torsions:
REMARK  status: ('A' for Active; 'I' for Inactive)
REMARK    1  A    between atoms: C6_8  and  C8_10 
REMARK    2  A    between atoms: C8_10  and  C9_11 
REMARK    3  A    between atoms: C9_11  and  C10_12 
REMARK    4  A    between atoms: C11_13  and  C12_14 
REMARK    5  A    between atoms: C13_15  and  C14_16 
REMARK       I    between atoms: C14_16  and  N1_17 
ROOT
HETATM    1  C10 UNL     1      -0.738   0.504   1.303  1.00  0.00    -0.026 C 
HETATM    2  C11 UNL     1      -0.424  -0.172   0.186  1.00  0.00    -0.004 C 
ENDROOT
BRANCH   1   3
HETATM    3  C9  UNL     1      -0.279   1.932   1.430  1.00  0.00     0.031 C 
BRANCH   3   4
HETATM    4  C8  UNL     1      -1.430   2.887   1.752  1.00  0.00     0.031 C 
BRANCH   4   5
HETATM    5  C6  UNL     1      -0.961   4.277   1.877  1.00  0.00    -0.020 A 
HETATM    6  C5  UNL     1      -0.561   4.781   3.131  1.00  0.00    -0.002 A 
HETATM    7  C4  UNL     1      -0.115   6.117   3.229  1.00  0.00     0.026 A 
HETATM    8  C3  UNL     1      -0.064   6.961   2.088  1.00  0.00     0.119 A 
HETATM    9  C2  UNL     1      -0.461   6.461   0.844  1.00  0.00     0.119 A 
HETATM   10  O2  UNL     1       0.313   8.233   1.947  1.00  0.00    -0.300 OA
HETATM   11  O1  UNL     1      -0.330   7.420  -0.072  1.00  0.00    -0.300 OA
HETATM   12  C7  UNL     1      -0.908   5.117   0.744  1.00  0.00     0.022 A 
HETATM   13  C1  UNL     1       0.166   8.619   0.563  1.00  0.00     0.304 A 
ENDBRANCH   4   5
ENDBRANCH   3   4
ENDBRANCH   1   3
BRANCH   2  14
HETATM   14  C12 UNL     1      -0.848  -1.566   0.012  1.00  0.00     0.005 C 
HETATM   15  C13 UNL     1      -0.533  -2.242  -1.105  1.00  0.00     0.060 C 
BRANCH  15  16
HETATM   16  C14 UNL     1      -0.955  -3.639  -1.279  1.00  0.00     0.257 C 
HETATM   17  N1  UNL     1      -0.098  -4.549  -1.838  1.00  0.00    -0.317 N 
HETATM   18  C15 UNL     1      -0.525  -5.949  -2.074  1.00  0.00     0.104 C 
HETATM   19  C19 UNL     1       1.281  -4.160  -2.223  1.00  0.00     0.104 C 
HETATM   20  C16 UNL     1       0.527  -6.951  -1.570  1.00  0.00     0.024 C 
HETATM   21  C17 UNL     1       1.936  -6.621  -2.084  1.00  0.00     0.004 C 
HETATM   22  C18 UNL     1       2.316  -5.180  -1.717  1.00  0.00     0.024 C 
HETATM   23  O3  UNL     1      -2.059  -3.990  -0.932  1.00  0.00    -0.267 OA
ENDBRANCH  15  16
ENDBRANCH   2  14
TORSDOF 5
