REMARK  7 active torsions:
REMARK  status: ('A' for Active; 'I' for Inactive)
REMARK    1  A    between atoms: C1_1  and  O7_24 
REMARK    2  A    between atoms: C2_2  and  O6_22 
REMARK    3  A    between atoms: C7_8  and  C10_12 
REMARK    4  A    between atoms: C13_15  and  O4_19 
REMARK    5  A    between atoms: O7_24  and  C18_25 
REMARK    6  A    between atoms: C22_29  and  C23_31 
REMARK    7  A    between atoms: C23_31  and  O10_33 
ROOT
HETATM    1  C1  UNL     1      -1.645  -1.293   0.172  1.00  0.00     0.123 A 
HETATM    2  C2  UNL     1      -1.494  -2.602   0.689  1.00  0.00     0.142 A 
HETATM    3  C3  UNL     1      -0.201  -3.141   0.898  1.00  0.00     0.160 A 
HETATM    4  C4  UNL     1       0.941  -2.359   0.584  1.00  0.00     0.089 A 
HETATM    5  C5  UNL     1       0.791  -1.045   0.066  1.00  0.00     0.107 A 
HETATM    6  C6  UNL     1      -0.504  -0.516  -0.139  1.00  0.00     0.051 A 
HETATM    7  O1  UNL     1       1.879  -0.299  -0.231  1.00  0.00    -0.307 OA
HETATM    8  C7  UNL     1       3.146  -0.731  -0.065  1.00  0.00     0.103 A 
HETATM    9  C8  UNL     1       3.412  -1.965   0.420  1.00  0.00     0.067 A 
HETATM   10  C9  UNL     1       2.318  -2.891   0.787  1.00  0.00     0.202 A 
HETATM   11  O2  UNL     1       2.635  -3.977   1.215  1.00  0.00    -0.286 OA
HETATM   12  O5  UNL     1      -0.070  -4.381   1.389  1.00  0.00    -0.188 OA
ENDROOT
BRANCH   1  13
HETATM   13  O7  UNL     1      -2.869  -0.785  -0.025  1.00  0.00    -0.301 OA
BRANCH  13  14
HETATM   14  C18 UNL     1      -3.004   0.301  -0.932  1.00  0.00     0.275 C 
HETATM   15  C19 UNL     1      -4.424   0.289  -1.545  1.00  0.00     0.241 C 
HETATM   16  C20 UNL     1      -5.477   0.730  -0.502  1.00  0.00     0.221 C 
HETATM   17  O13 UNL     1      -4.438   1.129  -2.690  1.00  0.00    -0.215 OA
HETATM   18  C21 UNL     1      -5.070   2.035   0.223  1.00  0.00     0.222 C 
HETATM   19  O12 UNL     1      -6.776   0.816  -1.065  1.00  0.00    -0.218 OA
HETATM   20  C22 UNL     1      -3.613   1.959   0.746  1.00  0.00     0.236 C 
HETATM   21  O11 UNL     1      -5.192   3.160  -0.635  1.00  0.00    -0.217 OA
HETATM   22  O8  UNL     1      -2.719   1.547  -0.291  1.00  0.00    -0.318 OA
BRANCH  20  23
HETATM   23  C23 UNL     1      -3.477   1.072   1.961  1.00  0.00     0.302 C 
HETATM   24  O9  UNL     1      -4.408   0.410   2.357  1.00  0.00    -0.261 OA
BRANCH  23  25
HETATM   25  O10 UNL     1      -2.277   1.082   2.535  1.00  0.00    -0.297 OA
HETATM   26  C24 UNL     1      -2.197   0.187   3.635  1.00  0.00     0.185 C 
ENDBRANCH  23  25
ENDBRANCH  20  23
ENDBRANCH  13  14
ENDBRANCH   1  13
BRANCH   2  27
HETATM   27  O6  UNL     1      -2.578  -3.334   0.984  1.00  0.00    -0.324 OA
HETATM   28  C17 UNL     1      -3.695  -3.252   0.111  1.00  0.00     0.182 C 
ENDBRANCH   2  27
BRANCH   8  29
HETATM   29  C10 UNL     1       4.291   0.164  -0.418  1.00  0.00     0.025 A 
HETATM   30  C11 UNL     1       5.533  -0.389  -0.775  1.00  0.00     0.004 A 
HETATM   31  C12 UNL     1       6.606   0.455  -1.108  1.00  0.00     0.026 A 
HETATM   32  C13 UNL     1       6.443   1.852  -1.086  1.00  0.00     0.119 A 
HETATM   33  C14 UNL     1       5.199   2.406  -0.729  1.00  0.00     0.153 A 
HETATM   34  C15 UNL     1       4.125   1.561  -0.397  1.00  0.00     0.031 A 
HETATM   35  O3  UNL     1       5.037   3.713  -0.705  1.00  0.00    -0.188 OA
BRANCH  32  36
HETATM   36  O4  UNL     1       7.453   2.637  -1.399  1.00  0.00    -0.326 OA
HETATM   37  C16 UNL     1       8.662   2.027  -1.830  1.00  0.00     0.181 C 
ENDBRANCH  32  36
ENDBRANCH   8  29
TORSDOF 7
