REMARK  2 active torsions:
REMARK  status: ('A' for Active; 'I' for Inactive)
REMARK    1  A    between atoms: C1_1  and  N1_10 
REMARK    2  A    between atoms: C2_3  and  C5_8 
ROOT
HETATM    1  N1  UNL     1      -0.180   0.789   0.016  1.00  0.00    -0.270 N 
HETATM    2  C6  UNL     1       0.744   1.797   0.119  1.00  0.00     0.182 A 
HETATM    3  N2  UNL     1       0.141   3.021   0.330  1.00  0.00    -0.219 NA
HETATM    4  C7  UNL     1      -1.195   2.787   0.361  1.00  0.00     0.155 A 
HETATM    5  C8  UNL     1      -1.342   1.436   0.168  1.00  0.00     0.172 A 
HETATM    6  N3  UNL     1      -2.711   0.846   0.146  1.00  0.00    -0.172 NA
HETATM    7  C9  UNL     1      -3.746   1.773   0.334  1.00  0.00     0.371 A 
HETATM    8  N4  UNL     1      -3.533   3.143   0.529  1.00  0.00    -0.168 NA
HETATM    9  C10 UNL     1      -2.360   3.684   0.553  1.00  0.00     0.209 A 
HETATM   10  N5  UNL     1      -2.231   5.031   0.748  1.00  0.00    -0.125 N 
HETATM   11  O5  UNL     1      -4.887   1.369   0.330  1.00  0.00    -0.242 OA
ENDROOT
BRANCH   1  12
HETATM   12  C1  UNL     1       0.058  -0.647  -0.209  1.00  0.00     0.241 C 
HETATM   13  O1  UNL     1       0.861  -1.139   0.834  1.00  0.00    -0.331 OA
HETATM   14  C2  UNL     1       1.375  -2.404   0.488  1.00  0.00     0.183 C 
HETATM   15  C3  UNL     1       1.516  -2.356  -1.049  1.00  0.00     0.216 C 
HETATM   16  C4  UNL     1       0.912  -0.981  -1.434  1.00  0.00     0.234 C 
HETATM   17  O3  UNL     1       0.826  -3.457  -1.615  1.00  0.00    -0.218 OA
HETATM   18  O2  UNL     1       0.139  -0.981  -2.623  1.00  0.00    -0.216 OA
BRANCH  14  19
HETATM   19  C5  UNL     1       2.695  -2.608   1.221  1.00  0.00     0.214 C 
HETATM   20  O4  UNL     1       3.148  -3.916   0.957  1.00  0.00    -0.218 OA
ENDBRANCH  14  19
ENDBRANCH   1  12
TORSDOF 2
