REMARK  2 active torsions:
REMARK  status: ('A' for Active; 'I' for Inactive)
REMARK    1  A    between atoms: C1_1  and  O5_26 
REMARK    2  A    between atoms: C2_2  and  O4_24 
ROOT
HETATM    1  C1  UNL     1       2.936   1.490  -2.287  1.00  0.00     0.116 A 
HETATM    2  C2  UNL     1       1.629   1.107  -2.660  1.00  0.00     0.116 A 
HETATM    3  C3  UNL     1       0.758   0.539  -1.705  1.00  0.00     0.024 A 
HETATM    4  C4  UNL     1       1.176   0.338  -0.359  1.00  0.00     0.008 A 
HETATM    5  C5  UNL     1       2.510   0.705   0.000  1.00  0.00    -0.020 A 
HETATM    6  C6  UNL     1       3.373   1.291  -0.961  1.00  0.00     0.022 A 
HETATM    7  C7  UNL     1       3.008   0.482   1.377  1.00  0.00     0.061 C 
HETATM    8  C8  UNL     1       2.215  -0.600   2.117  1.00  0.00     0.255 C 
HETATM    9  N1  UNL     1       0.791  -0.285   2.035  1.00  0.00     0.142 N 
HETATM   10  C9  UNL     1       0.223  -0.268   0.645  1.00  0.00     0.246 C 
HETATM   11  C10 UNL     1      -0.145  -1.738   0.234  1.00  0.00     0.065 C 
HETATM   12  C11 UNL     1      -1.613  -1.832   0.531  1.00  0.00    -0.019 A 
HETATM   13  C12 UNL     1      -2.236  -0.617   0.781  1.00  0.00     0.030 A 
HETATM   14  C13 UNL     1      -1.186   0.471   0.646  1.00  0.00     0.209 C 
HETATM   15  O1  UNL     1      -1.307   1.457   1.656  1.00  0.00    -0.216 OA
HETATM   16  C14 UNL     1      -3.594  -0.467   1.092  1.00  0.00     0.117 A 
HETATM   17  C15 UNL     1      -4.485  -1.523   1.184  1.00  0.00     0.119 A 
HETATM   18  C16 UNL     1      -3.893  -2.799   0.928  1.00  0.00     0.026 A 
HETATM   19  C17 UNL     1      -2.500  -2.949   0.611  1.00  0.00    -0.002 A 
HETATM   20  O2  UNL     1      -5.713  -1.117   1.492  1.00  0.00    -0.300 OA
HETATM   21  C18 UNL     1      -5.688   0.313   1.629  1.00  0.00     0.304 A 
HETATM   22  O3  UNL     1      -4.305   0.639   1.353  1.00  0.00    -0.300 OA
HETATM   23  C19 UNL     1       0.012  -1.006   3.043  1.00  0.00     0.286 C 
ENDROOT
BRANCH   2  24
HETATM   24  O4  UNL     1       1.207   1.285  -3.920  1.00  0.00    -0.326 OA
HETATM   25  C20 UNL     1      -0.115   0.885  -4.244  1.00  0.00     0.181 C 
ENDBRANCH   2  24
BRANCH   1  26
HETATM   26  O5  UNL     1       3.762   2.043  -3.188  1.00  0.00    -0.326 OA
HETATM   27  C21 UNL     1       5.047   2.455  -2.746  1.00  0.00     0.181 C 
ENDBRANCH   1  26
TORSDOF 2
