REMARK  4 active torsions:
REMARK  status: ('A' for Active; 'I' for Inactive)
REMARK    1  A    between atoms: C1_1  and  C2_2 
REMARK    2  A    between atoms: C1_1  and  C7_7 
REMARK    3  A    between atoms: C2_2  and  C3_3 
REMARK    4  A    between atoms: C7_7  and  C8_8 
ROOT
HETATM    1  C7  UNL     1       0.176   0.281   0.881  1.00  0.00     0.019 C 
HETATM    2  C15 UNL     1      -0.463  -0.410   2.086  1.00  0.00     0.004 C 
ENDROOT
BRANCH   1   3
HETATM    3  C1  UNL     1      -0.666   0.151  -0.389  1.00  0.00     0.009 C 
BRANCH   3   4
HETATM    4  C2  UNL     1      -1.975   0.936  -0.311  1.00  0.00     0.026 C 
BRANCH   4   5
HETATM    5  C3  UNL     1      -2.762   0.871  -1.594  1.00  0.00    -0.034 C 
HETATM    6  C4  UNL     1      -4.070   1.166  -1.559  1.00  0.00    -0.048 C 
HETATM    7  C5  UNL     1      -5.014   1.076  -2.729  1.00  0.00     0.026 C 
HETATM    8  C6  UNL     1      -4.668   1.627  -0.256  1.00  0.00     0.026 C 
ENDBRANCH   4   5
ENDBRANCH   3   4
ENDBRANCH   1   3
BRANCH   1   9
HETATM    9  C8  UNL     1       1.608  -0.140   0.668  1.00  0.00    -0.044 C 
HETATM   10  C9  UNL     1       2.627   0.713   0.893  1.00  0.00    -0.009 C 
HETATM   11  C10 UNL     1       4.028   0.281   0.723  1.00  0.00    -0.009 C 
HETATM   12  C11 UNL     1       4.344  -1.023   0.603  1.00  0.00    -0.044 C 
HETATM   13  C12 UNL     1       3.256  -2.072   0.691  1.00  0.00     0.026 C 
HETATM   14  C14 UNL     1       5.770  -1.463   0.385  1.00  0.00     0.026 C 
HETATM   15  C13 UNL     1       1.895  -1.549   0.189  1.00  0.00     0.026 C 
ENDBRANCH   1   9
TORSDOF 4
