REMARK  9 active torsions:
REMARK  status: ('A' for Active; 'I' for Inactive)
REMARK    1  A    between atoms: C3_3  and  O5_13 
REMARK    2  A    between atoms: C5_5  and  O2_8 
REMARK    3  A    between atoms: O2_8  and  C7_9 
REMARK    4  A    between atoms: O5_13  and  C9_14 
REMARK    5  A    between atoms: C18_23  and  O6_24 
REMARK    6  A    between atoms: O6_24  and  C19_25 
REMARK    7  A    between atoms: C23_32  and  C24_34 
REMARK    8  A    between atoms: C29_40  and  C32_44 
REMARK    9  A    between atoms: C33_46  and  C36_49 
ROOT
HETATM    1  C9  UNL     1       3.541   0.020   0.019  1.00  0.00     0.115 C 
HETATM    2  C10 UNL     1       2.338   0.623  -0.740  1.00  0.00     0.027 C 
HETATM    3  C11 UNL     1       1.422   1.500   0.189  1.00  0.00     0.030 C 
HETATM    4  C12 UNL     1       1.113   0.811   1.553  1.00  0.00     0.002 A 
HETATM    5  C13 UNL     1       2.277   0.039   2.207  1.00  0.00     0.003 C 
HETATM    6  C14 UNL     1       3.082  -0.809   1.225  1.00  0.00     0.030 C 
HETATM    7  C15 UNL     1      -0.342   0.510   1.930  1.00  0.00     0.000 A 
HETATM    8  C16 UNL     1      -1.516   0.961   1.039  1.00  0.00     0.003 C 
HETATM    9  C17 UNL     1      -1.148   2.221   0.219  1.00  0.00     0.030 C 
HETATM   10  C18 UNL     1       0.207   2.201  -0.525  1.00  0.00     0.118 C 
HETATM   11  C25 UNL     1      -2.156  -0.238   0.279  1.00  0.00     0.003 C 
HETATM   12  C26 UNL     1      -2.449  -1.478   1.195  1.00  0.00     0.005 C 
HETATM   13  C27 UNL     1      -2.084  -1.189   2.664  1.00  0.00     0.000 C 
HETATM   14  C28 UNL     1      -0.615  -0.760   2.752  1.00  0.00     0.000 C 
HETATM   15  C29 UNL     1      -3.959  -1.748   1.035  1.00  0.00     0.055 C 
HETATM   16  C30 UNL     1      -4.506  -0.340   0.828  1.00  0.00     0.154 C 
HETATM   17  C31 UNL     1      -3.549   0.168  -0.242  1.00  0.00     0.033 C 
HETATM   18  O12 UNL     1      -5.832  -0.369   0.338  1.00  0.00    -0.223 OA
HETATM   19  C40 UNL     1      -1.748  -2.768   0.746  1.00  0.00     0.000 C 
HETATM   20  C41 UNL     1      -1.342  -0.652  -0.943  1.00  0.00     0.000 C 
HETATM   21  C42 UNL     1       0.416   1.627   2.625  1.00  0.00     0.000 A 
HETATM   22  C43 UNL     1       2.867   1.467  -1.914  1.00  0.00     0.003 C 
HETATM   23  C44 UNL     1       1.559  -0.559  -1.330  1.00  0.00     0.003 C 
ENDROOT
BRANCH   1  24
HETATM   24  O5  UNL     1       4.424   1.037   0.461  1.00  0.00    -0.356 OA
BRANCH  24  25
HETATM   25  C3  UNL     1       5.781   0.783   0.131  1.00  0.00     0.148 C 
HETATM   26  C2  UNL     1       6.234  -0.475   0.894  1.00  0.00     0.035 C 
HETATM   27  C1  UNL     1       7.729  -0.764   0.672  1.00  0.00     0.038 C 
HETATM   28  C6  UNL     1       8.619   0.447   1.012  1.00  0.00     0.182 C 
HETATM   29  C5  UNL     1       8.160   1.723   0.277  1.00  0.00     0.187 C 
HETATM   30  O1  UNL     1       8.590   0.672   2.408  1.00  0.00    -0.221 OA
HETATM   31  C4  UNL     1       6.654   2.010   0.484  1.00  0.00     0.209 C 
HETATM   32  O4  UNL     1       6.285   3.121  -0.315  1.00  0.00    -0.218 OA
BRANCH  29  33
HETATM   33  O2  UNL     1       8.428   1.557  -1.111  1.00  0.00    -0.299 OA
BRANCH  33  34
HETATM   34  C7  UNL     1       9.729   1.447  -1.367  1.00  0.00     0.273 C 
HETATM   35  O3  UNL     1      10.246   0.451  -1.813  1.00  0.00    -0.264 OA
HETATM   36  C8  UNL     1      10.545   2.674  -1.059  1.00  0.00     0.106 C 
ENDBRANCH  33  34
ENDBRANCH  29  33
ENDBRANCH  24  25
ENDBRANCH   1  24
BRANCH  10  37
HETATM   37  O6  UNL     1      -0.029   1.733  -1.842  1.00  0.00    -0.332 OA
BRANCH  37  38
HETATM   38  C19 UNL     1      -0.799   2.629  -2.621  1.00  0.00     0.270 C 
HETATM   39  C20 UNL     1       0.035   3.313  -3.760  1.00  0.00     0.241 C 
HETATM   40  O7  UNL     1       1.408   3.483  -3.434  1.00  0.00    -0.215 OA
HETATM   41  C21 UNL     1      -0.129   2.617  -5.125  1.00  0.00     0.220 C 
HETATM   42  O8  UNL     1       0.459   1.322  -5.061  1.00  0.00    -0.218 OA
HETATM   43  C22 UNL     1      -1.645   2.557  -5.481  1.00  0.00     0.215 C 
HETATM   44  O9  UNL     1      -1.941   1.500  -6.383  1.00  0.00    -0.218 OA
HETATM   45  C23 UNL     1      -2.588   2.483  -4.242  1.00  0.00     0.184 C 
HETATM   46  O10 UNL     1      -1.906   1.891  -3.145  1.00  0.00    -0.326 OA
BRANCH  45  47
HETATM   47  C24 UNL     1      -3.125   3.858  -3.817  1.00  0.00     0.214 C 
HETATM   48  O11 UNL     1      -4.082   3.660  -2.799  1.00  0.00    -0.218 OA
ENDBRANCH  45  47
ENDBRANCH  37  38
ENDBRANCH  10  37
BRANCH  15  49
HETATM   49  C32 UNL     1      -4.627  -2.467   2.207  1.00  0.00     0.095 C 
HETATM   50  O13 UNL     1      -5.951  -2.791   1.861  1.00  0.00    -0.359 OA
HETATM   51  C33 UNL     1      -6.451  -3.793   2.719  1.00  0.00     0.143 C 
HETATM   52  C34 UNL     1      -5.209  -4.600   3.125  1.00  0.00     0.035 C 
HETATM   53  C35 UNL     1      -4.029  -3.836   2.514  1.00  0.00     0.030 C 
HETATM   54  C39 UNL     1      -4.635  -1.553   3.432  1.00  0.00     0.030 C 
BRANCH  51  55
HETATM   55  C36 UNL     1      -7.502  -4.598   1.965  1.00  0.00     0.152 C 
HETATM   56  C37 UNL     1      -8.694  -3.699   1.637  1.00  0.00     0.035 C 
HETATM   57  O14 UNL     1      -7.953  -5.643   2.797  1.00  0.00    -0.224 OA
HETATM   58  C38 UNL     1      -6.871  -5.219   0.719  1.00  0.00     0.035 C 
ENDBRANCH  51  55
ENDBRANCH  15  49
TORSDOF 9
