REMARK  0 active torsions:
REMARK  status: ('A' for Active; 'I' for Inactive)
ROOT
HETATM    1  C1  UNL     1      -3.172  -0.223  -2.678  1.00  0.00     0.030 C 
HETATM    2  C2  UNL     1      -4.018  -0.971  -1.680  1.00  0.00    -0.030 C 
HETATM    3  C3  UNL     1      -3.592  -1.139  -0.412  1.00  0.00    -0.026 C 
HETATM    4  C4  UNL     1      -2.234  -0.674   0.008  1.00  0.00    -0.008 A 
HETATM    5  C5  UNL     1      -1.273  -0.281  -0.975  1.00  0.00    -0.019 A 
HETATM    6  C6  UNL     1      -1.658  -0.320  -2.416  1.00  0.00     0.031 C 
HETATM    7  C7  UNL     1       0.037   0.119  -0.553  1.00  0.00     0.040 A 
HETATM    8  C8  UNL     1       0.336   0.182   0.844  1.00  0.00     0.025 A 
HETATM    9  C9  UNL     1      -0.633  -0.195   1.801  1.00  0.00     0.002 A 
HETATM   10  C10 UNL     1      -1.906  -0.631   1.387  1.00  0.00    -0.001 A 
HETATM   11  C11 UNL     1       1.674   0.639   1.318  1.00  0.00     0.093 A 
HETATM   12  C12 UNL     1       2.613   0.981   0.430  1.00  0.00     0.044 A 
HETATM   13  C13 UNL     1       2.410   0.932  -1.024  1.00  0.00     0.232 A 
HETATM   14  C14 UNL     1       1.109   0.465  -1.553  1.00  0.00     0.234 A 
HETATM   15  O1  UNL     1       1.041   0.398  -2.760  1.00  0.00    -0.283 OA
HETATM   16  O2  UNL     1       3.299   1.270  -1.772  1.00  0.00    -0.283 OA
HETATM   17  C15 UNL     1       3.879   1.412   1.102  1.00  0.00     0.058 A 
HETATM   18  C16 UNL     1       3.447   1.303   2.564  1.00  0.00     0.153 A 
HETATM   19  O3  UNL     1       2.119   0.772   2.572  1.00  0.00    -0.331 OA
HETATM   20  C17 UNL     1       5.055   0.494   0.781  1.00  0.00     0.007 C 
HETATM   21  C18 UNL     1      -4.523  -1.807   0.570  1.00  0.00     0.031 C 
ENDROOT
TORSDOF 0
