REMARK  2 active torsions:
REMARK  status: ('A' for Active; 'I' for Inactive)
REMARK    1  A    between atoms: C4_4  and  C7_7 
REMARK    2  A    between atoms: C13_14  and  C16_18 
ROOT
HETATM    1  C7  UNL     1       1.434  -0.172  -0.242  1.00  0.00     0.151 C 
HETATM    2  C8  UNL     1       1.623   1.348  -0.420  1.00  0.00     0.104 C 
HETATM    3  C9  UNL     1       0.469   1.965  -1.182  1.00  0.00     0.180 C 
HETATM    4  C10 UNL     1      -0.865   1.330  -0.975  1.00  0.00     0.082 A 
HETATM    5  C11 UNL     1      -0.959   0.143  -0.195  1.00  0.00     0.099 A 
HETATM    6  O1  UNL     1       0.141  -0.457   0.305  1.00  0.00    -0.328 OA
HETATM    7  C12 UNL     1      -2.229  -0.424   0.064  1.00  0.00     0.023 A 
HETATM    8  C13 UNL     1      -3.397   0.160  -0.481  1.00  0.00     0.015 A 
HETATM    9  C14 UNL     1      -3.297   1.318  -1.285  1.00  0.00     0.026 A 
HETATM   10  C15 UNL     1      -2.035   1.906  -1.537  1.00  0.00     0.135 A 
HETATM   11  O2  UNL     1      -1.965   3.008  -2.297  1.00  0.00    -0.190 OA
HETATM   12  O4  UNL     1       0.717   2.918  -1.883  1.00  0.00    -0.291 OA
ENDROOT
BRANCH   1  13
HETATM   13  C4  UNL     1       2.477  -0.774   0.633  1.00  0.00     0.005 A 
HETATM   14  C3  UNL     1       3.479  -1.590   0.076  1.00  0.00    -0.002 A 
HETATM   15  C2  UNL     1       4.463  -2.158   0.902  1.00  0.00    -0.000 A 
HETATM   16  C1  UNL     1       4.449  -1.908   2.285  1.00  0.00    -0.000 A 
HETATM   17  C6  UNL     1       3.449  -1.092   2.842  1.00  0.00    -0.000 A 
HETATM   18  C5  UNL     1       2.465  -0.524   2.018  1.00  0.00    -0.002 A 
ENDBRANCH   1  13
BRANCH   8  19
HETATM   19  C16 UNL     1      -4.715  -0.436  -0.209  1.00  0.00     0.209 C 
HETATM   20  O3  UNL     1      -5.168  -1.113  -1.358  1.00  0.00    -0.215 OA
ENDBRANCH   8  19
TORSDOF 2
