REMARK  7 active torsions:
REMARK  status: ('A' for Active; 'I' for Inactive)
REMARK    1  A    between atoms: C9_9  and  C10_11 
REMARK    2  A    between atoms: C13_14  and  O2_17 
REMARK    3  A    between atoms: O2_17  and  C16_18 
REMARK    4  A    between atoms: C17_19  and  O7_28 
REMARK    5  A    between atoms: C20_22  and  C21_24 
REMARK    6  A    between atoms: O7_28  and  C22_29 
REMARK    7  A    between atoms: C24_32  and  C26_36 
ROOT
HETATM    1  C16 UNL     1       2.068   0.067   1.199  1.00  0.00     0.271 C 
HETATM    2  C17 UNL     1       3.037  -0.808   2.025  1.00  0.00     0.207 C 
HETATM    3  C18 UNL     1       4.162   0.043   2.654  1.00  0.00     0.217 C 
HETATM    4  C19 UNL     1       3.547   1.248   3.400  1.00  0.00     0.215 C 
HETATM    5  C20 UNL     1       2.553   2.020   2.502  1.00  0.00     0.184 C 
HETATM    6  O3  UNL     1       1.566   1.121   2.008  1.00  0.00    -0.326 OA
HETATM    7  O5  UNL     1       4.574   2.135   3.807  1.00  0.00    -0.218 OA
HETATM    8  O6  UNL     1       4.916  -0.750   3.557  1.00  0.00    -0.218 OA
ENDROOT
BRANCH   1   9
HETATM    9  O2  UNL     1       0.977  -0.717   0.740  1.00  0.00    -0.304 OA
BRANCH   9  10
HETATM   10  C13 UNL     1       0.027  -0.113   0.053  1.00  0.00     0.097 A 
HETATM   11  C12 UNL     1      -1.246  -0.697  -0.057  1.00  0.00     0.024 A 
HETATM   12  C11 UNL     1      -2.260  -0.053  -0.789  1.00  0.00     0.000 A 
HETATM   13  C10 UNL     1      -1.998   1.178  -1.416  1.00  0.00     0.006 A 
HETATM   14  C15 UNL     1      -0.725   1.764  -1.309  1.00  0.00     0.000 A 
HETATM   15  C14 UNL     1       0.285   1.117  -0.576  1.00  0.00     0.024 A 
BRANCH  13  16
HETATM   16  C9  UNL     1      -3.068   1.860  -2.192  1.00  0.00     0.151 C 
HETATM   17  C8  UNL     1      -2.869   3.387  -2.248  1.00  0.00     0.104 C 
HETATM   18  C7  UNL     1      -4.047   4.078  -2.901  1.00  0.00     0.178 C 
HETATM   19  C5  UNL     1      -5.375   3.438  -2.690  1.00  0.00     0.057 A 
HETATM   20  O12 UNL     1      -3.824   5.088  -3.528  1.00  0.00    -0.291 OA
HETATM   21  C4  UNL     1      -5.453   2.190  -2.014  1.00  0.00     0.099 A 
HETATM   22  C6  UNL     1      -6.555   4.072  -3.153  1.00  0.00     0.007 A 
HETATM   23  C3  UNL     1      -6.719   1.613  -1.752  1.00  0.00     0.052 A 
HETATM   24  O1  UNL     1      -4.340   1.539  -1.615  1.00  0.00    -0.328 OA
HETATM   25  C2  UNL     1      -7.899   2.258  -2.195  1.00  0.00     0.133 A 
HETATM   26  C1  UNL     1      -7.815   3.481  -2.903  1.00  0.00     0.028 A 
HETATM   27  O13 UNL     1      -9.094   1.707  -1.947  1.00  0.00    -0.190 OA
ENDBRANCH  13  16
ENDBRANCH   9  10
ENDBRANCH   1   9
BRANCH   2  28
HETATM   28  O7  UNL     1       3.596  -1.791   1.170  1.00  0.00    -0.324 OA
BRANCH  28  29
HETATM   29  C22 UNL     1       2.682  -2.812   0.824  1.00  0.00     0.270 C 
HETATM   30  O8  UNL     1       2.252  -2.680  -0.516  1.00  0.00    -0.326 OA
HETATM   31  C23 UNL     1       2.647  -3.797  -1.285  1.00  0.00     0.181 C 
HETATM   32  C24 UNL     1       2.715  -4.959  -0.289  1.00  0.00     0.217 C 
HETATM   33  C25 UNL     1       3.350  -4.195   0.891  1.00  0.00     0.241 C 
HETATM   34  O10 UNL     1       1.404  -5.430  -0.010  1.00  0.00    -0.218 OA
HETATM   35  O9  UNL     1       3.135  -4.822   2.142  1.00  0.00    -0.215 OA
BRANCH  32  36
HETATM   36  C26 UNL     1       3.551  -6.133  -0.793  1.00  0.00     0.218 C 
HETATM   37  O11 UNL     1       3.012  -6.561  -2.024  1.00  0.00    -0.218 OA
ENDBRANCH  32  36
ENDBRANCH  28  29
ENDBRANCH   2  28
BRANCH   5  38
HETATM   38  C21 UNL     1       1.807   3.129   3.250  1.00  0.00     0.214 C 
HETATM   39  O4  UNL     1       1.051   3.862   2.314  1.00  0.00    -0.218 OA
ENDBRANCH   5  38
TORSDOF 7
