REMARK  1 active torsions:
REMARK  status: ('A' for Active; 'I' for Inactive)
REMARK    1  A    between atoms: C12_12  and  C15_15 
ROOT
HETATM    1  C1  UNL     1      -2.160   1.965  -0.783  1.00  0.00    -0.044 C 
HETATM    2  C2  UNL     1      -0.844   2.535  -1.273  1.00  0.00     0.026 C 
HETATM    3  C3  UNL     1       0.139   2.883  -0.135  1.00  0.00     0.029 C 
HETATM    4  C4  UNL     1       1.559   2.461  -0.451  1.00  0.00    -0.034 C 
HETATM    5  C5  UNL     1       2.395   1.932   0.467  1.00  0.00    -0.048 C 
HETATM    6  C6  UNL     1       3.781   1.471   0.080  1.00  0.00     0.026 C 
HETATM    7  C7  UNL     1       3.877  -0.055  -0.098  1.00  0.00     0.029 C 
HETATM    8  C8  UNL     1       2.988  -0.580  -1.207  1.00  0.00    -0.034 C 
HETATM    9  C9  UNL     1       1.887  -1.336  -1.008  1.00  0.00    -0.048 C 
HETATM   10  C10 UNL     1       1.410  -1.744   0.377  1.00  0.00     0.026 C 
HETATM   11  C11 UNL     1       0.008  -2.387   0.459  1.00  0.00     0.026 C 
HETATM   12  C12 UNL     1      -1.201  -1.481   0.309  1.00  0.00    -0.044 C 
HETATM   13  C13 UNL     1      -1.113  -0.209  -0.137  1.00  0.00    -0.009 C 
HETATM   14  C14 UNL     1      -2.262   0.715  -0.281  1.00  0.00    -0.009 C 
HETATM   15  C18 UNL     1       1.096  -1.795  -2.209  1.00  0.00     0.026 C 
HETATM   16  C19 UNL     1       1.994   1.775   1.912  1.00  0.00     0.026 C 
HETATM   17  C20 UNL     1      -3.385   2.840  -0.877  1.00  0.00     0.026 C 
ENDROOT
BRANCH  12  18
HETATM   18  C15 UNL     1      -2.535  -2.072   0.691  1.00  0.00     0.018 C 
HETATM   19  C16 UNL     1      -2.965  -1.674   2.104  1.00  0.00     0.004 C 
HETATM   20  C17 UNL     1      -2.590  -3.584   0.461  1.00  0.00     0.004 C 
ENDBRANCH  12  18
TORSDOF 1
