REMARK  14 active torsions:
REMARK  status: ('A' for Active; 'I' for Inactive)
REMARK    1  A    between atoms: C7_7  and  C9_11 
REMARK    2  A    between atoms: C9_11  and  C10_12 
REMARK    3  A    between atoms: C9_11  and  S1_15 
REMARK    4  A    between atoms: C10_12  and  C11_13 
REMARK    5  A    between atoms: S1_15  and  C13_16 
REMARK    6  A    between atoms: C13_16  and  C14_17 
REMARK    7  A    between atoms: C14_17  and  C15_18 
REMARK    8  A    between atoms: C14_17  and  N2_25 
REMARK       I    between atoms: C15_18  and  N1_20 
REMARK    9  A    between atoms: N1_20  and  C16_21 
REMARK   10  A    between atoms: C16_21  and  C17_22 
REMARK       I    between atoms: N2_25  and  C18_26 
REMARK   11  A    between atoms: C18_26  and  C19_27 
REMARK   12  A    between atoms: C19_27  and  C20_28 
REMARK   13  A    between atoms: C20_28  and  C21_29 
REMARK   14  A    between atoms: C21_29  and  C22_31 
ROOT
HETATM    1  C14 UNL     1       1.024   1.826  -0.084  1.00  0.00     0.197 C 
ENDROOT
BRANCH   1   2
HETATM    2  C13 UNL     1      -0.379   1.359  -0.478  1.00  0.00     0.092 C 
BRANCH   2   3
HETATM    3  S1  UNL     1      -0.365  -0.385  -0.980  1.00  0.00    -0.136 SA
BRANCH   3   4
HETATM    4  C9  UNL     1      -2.146  -0.607  -1.254  1.00  0.00     0.077 C 
BRANCH   4   5
HETATM    5  C7  UNL     1      -2.414  -1.258  -2.605  1.00  0.00     0.126 A 
HETATM    6  C5  UNL     1      -3.887  -1.463  -2.844  1.00  0.00    -0.013 A 
HETATM    7  C4  UNL     1      -4.154  -2.760  -2.916  1.00  0.00     0.057 A 
HETATM    8  C6  UNL     1      -4.957  -0.408  -2.994  1.00  0.00     0.029 C 
HETATM    9  C3  UNL     1      -5.514  -3.277  -3.127  1.00  0.00     0.000 C 
HETATM   10  C8  UNL     1      -2.904  -3.481  -2.758  1.00  0.00     0.295 A 
HETATM   11  C2  UNL     1      -6.564  -2.434  -3.039  1.00  0.00    -0.026 C 
HETATM   12  C1  UNL     1      -6.359  -0.975  -2.662  1.00  0.00     0.030 C 
HETATM   13  O1  UNL     1      -1.898  -2.608  -2.586  1.00  0.00    -0.299 OA
HETATM   14  O2  UNL     1      -2.811  -4.686  -2.779  1.00  0.00    -0.259 OA
HETATM   15  C23 UNL     1      -1.756  -0.492  -3.746  1.00  0.00     0.035 C 
ENDBRANCH   4   5
BRANCH   4  16
HETATM   16  C10 UNL     1      -2.770  -1.457  -0.146  1.00  0.00     0.013 C 
BRANCH  16  17
HETATM   17  C11 UNL     1      -2.564  -0.856   1.244  1.00  0.00     0.001 C 
HETATM   18  C12 UNL     1      -3.197  -1.701   2.352  1.00  0.00     0.000 C 
ENDBRANCH  16  17
ENDBRANCH   4  16
ENDBRANCH   3   4
ENDBRANCH   2   3
ENDBRANCH   1   2
BRANCH   1  19
HETATM   19  C15 UNL     1       1.078   3.303   0.197  1.00  0.00     0.275 C 
HETATM   20  O3  UNL     1       0.066   3.959   0.281  1.00  0.00    -0.268 OA
HETATM   21  N1  UNL     1       2.299   3.895   0.357  1.00  0.00    -0.225 NA
BRANCH  21  22
HETATM   22  C16 UNL     1       2.371   5.338   0.633  1.00  0.00     0.226 C 
BRANCH  22  23
HETATM   23  C17 UNL     1       3.795   5.803   0.777  1.00  0.00     0.211 C 
HETATM   24  O4  UNL     1       3.943   7.100   1.027  1.00  0.00    -0.646 OA
HETATM   25  O5  UNL     1       4.717   5.029   0.666  1.00  0.00    -0.646 OA
ENDBRANCH  22  23
ENDBRANCH  21  22
ENDBRANCH   1  19
BRANCH   1  26
HETATM   26  N2  UNL     1       1.541   1.039   1.045  1.00  0.00    -0.229 NA
HETATM   27  C18 UNL     1       2.801   0.514   0.975  1.00  0.00     0.252 C 
HETATM   28  O8  UNL     1       3.483   0.693  -0.008  1.00  0.00    -0.271 OA
BRANCH  27  29
HETATM   29  C19 UNL     1       3.315  -0.287   2.139  1.00  0.00     0.092 C 
BRANCH  29  30
HETATM   30  C20 UNL     1       4.748  -0.775   1.924  1.00  0.00     0.060 C 
BRANCH  30  31
HETATM   31  C21 UNL     1       5.276  -1.598   3.100  1.00  0.00     0.388 C 
HETATM   32  N3  UNL     1       5.358  -0.779   4.297  1.00  0.00     0.628 N 
BRANCH  31  33
HETATM   33  C22 UNL     1       6.610  -2.229   2.809  1.00  0.00     0.224 C 
HETATM   34  O6  UNL     1       6.836  -3.385   3.426  1.00  0.00    -0.646 OA
HETATM   35  O7  UNL     1       7.399  -1.699   2.061  1.00  0.00    -0.646 OA
ENDBRANCH  31  33
ENDBRANCH  30  31
ENDBRANCH  29  30
ENDBRANCH  27  29
ENDBRANCH   1  26
TORSDOF 14
