REMARK  3 active torsions:
REMARK  status: ('A' for Active; 'I' for Inactive)
REMARK    1  A    between atoms: C1_2  and  C5_6 
REMARK    2  A    between atoms: C5_6  and  O2_7 
REMARK    3  A    between atoms: O2_7  and  C6_8 
ROOT
HETATM    1  O1  UNL     1       0.535  -1.883  -0.711  1.00  0.00    -0.307 OA
HETATM    2  C1  UNL     1       0.895  -0.565  -0.711  1.00  0.00     0.108 A 
HETATM    3  C2  UNL     1       2.283  -0.399  -0.711  1.00  0.00     0.025 A 
HETATM    4  C3  UNL     1       2.820  -1.686  -0.711  1.00  0.00     0.029 A 
HETATM    5  C4  UNL     1       1.725  -2.555  -0.711  1.00  0.00     0.122 A 
ENDROOT
BRANCH   2   6
HETATM    6  C5  UNL     1      -0.137   0.541  -0.711  1.00  0.00     0.203 C 
BRANCH   6   7
HETATM    7  O2  UNL     1      -0.914   0.465   0.474  1.00  0.00    -0.295 OA
BRANCH   7   8
HETATM    8  C6  UNL     1      -1.844   1.414   0.535  1.00  0.00     0.273 C 
HETATM    9  C7  UNL     1      -2.703   1.391   1.769  1.00  0.00     0.106 C 
HETATM   10  O3  UNL     1      -2.008   2.250  -0.325  1.00  0.00    -0.264 OA
ENDBRANCH   7   8
ENDBRANCH   6   7
ENDBRANCH   2   6
TORSDOF 3
