REMARK  1 active torsions:
REMARK  status: ('A' for Active; 'I' for Inactive)
REMARK    1  A    between atoms: C4_4  and  C9_10 
ROOT
HETATM    1  C1  UNL     1       1.016  -1.127  -0.924  1.00  0.00     0.045 C 
HETATM    2  C2  UNL     1       1.272   0.137  -0.150  1.00  0.00    -0.018 C 
HETATM    3  C3  UNL     1       0.135   1.135  -0.016  1.00  0.00     0.195 C 
HETATM    4  C4  UNL     1      -1.236   0.406   0.033  1.00  0.00     0.124 C 
HETATM    5  C5  UNL     1      -1.381  -0.531   1.244  1.00  0.00     0.033 C 
HETATM    6  C6  UNL     1      -0.801  -1.871   0.762  1.00  0.00     0.030 C 
HETATM    7  C7  UNL     1      -0.434  -1.617  -0.711  1.00  0.00     0.096 C 
HETATM    8  O1  UNL     1      -1.287  -0.535  -1.021  1.00  0.00    -0.361 OA
HETATM    9  C8  UNL     1      -0.754  -2.793  -1.627  1.00  0.00     0.030 C 
HETATM   10  O2  UNL     1       0.274   1.957   1.129  1.00  0.00    -0.216 OA
HETATM   11  C12 UNL     1       2.520   0.170   0.334  1.00  0.00    -0.049 C 
HETATM   12  C13 UNL     1       3.262  -1.086  -0.025  1.00  0.00     0.022 C 
HETATM   13  C14 UNL     1       2.166  -2.059  -0.496  1.00  0.00     0.011 C 
HETATM   14  C15 UNL     1       3.143   1.279   1.139  1.00  0.00     0.026 C 
ENDROOT
BRANCH   4  15
HETATM   15  C9  UNL     1      -2.424   1.355  -0.111  1.00  0.00     0.028 C 
HETATM   16  C10 UNL     1      -2.228   2.230  -1.350  1.00  0.00     0.003 C 
HETATM   17  C11 UNL     1      -2.580   2.174   1.170  1.00  0.00     0.003 C 
ENDBRANCH   4  15
TORSDOF 1
