REMARK  3 active torsions:
REMARK  status: ('A' for Active; 'I' for Inactive)
REMARK    1  A    between atoms: C2_2  and  O3_33 
REMARK    2  A    between atoms: C16_16  and  C25_25 
REMARK    3  A    between atoms: O3_33  and  C31_34 
ROOT
HETATM    1  C1  UNL     1      -4.742   1.301  -0.369  1.00  0.00     0.030 C 
HETATM    2  C2  UNL     1      -5.240   0.369   0.752  1.00  0.00     0.124 C 
HETATM    3  C3  UNL     1      -4.608  -1.041   0.742  1.00  0.00     0.026 C 
HETATM    4  C4  UNL     1      -3.049  -1.022   0.539  1.00  0.00     0.002 C 
HETATM    5  C5  UNL     1      -2.408   0.365   0.260  1.00  0.00     0.001 C 
HETATM    6  C6  UNL     1      -3.277   1.088  -0.793  1.00  0.00     0.003 C 
HETATM    7  C7  UNL     1      -0.957   0.131  -0.277  1.00  0.00     0.005 C 
HETATM    8  C8  UNL     1      -0.047  -0.723   0.656  1.00  0.00     0.004 C 
HETATM    9  C9  UNL     1      -0.787  -2.008   1.121  1.00  0.00     0.000 C 
HETATM   10  C10 UNL     1      -2.225  -1.773   1.604  1.00  0.00     0.000 C 
HETATM   11  C11 UNL     1       1.273  -1.090  -0.115  1.00  0.00     0.015 C 
HETATM   12  C12 UNL     1       1.898   0.076  -0.885  1.00  0.00    -0.049 C 
HETATM   13  C13 UNL     1       1.197   1.213  -1.115  1.00  0.00    -0.035 C 
HETATM   14  C14 UNL     1      -0.215   1.437  -0.631  1.00  0.00     0.025 C 
HETATM   15  C15 UNL     1       3.318  -0.111  -1.441  1.00  0.00     0.028 C 
HETATM   16  C16 UNL     1       4.307  -0.898  -0.533  1.00  0.00     0.082 C 
HETATM   17  C17 UNL     1       3.617  -2.100   0.145  1.00  0.00     0.011 C 
HETATM   18  C18 UNL     1       2.314  -1.707   0.850  1.00  0.00     0.004 C 
HETATM   19  C19 UNL     1       5.508  -1.412  -1.383  1.00  0.00     0.011 C 
HETATM   20  C20 UNL     1       5.732  -0.639  -2.697  1.00  0.00     0.001 C 
HETATM   21  C21 UNL     1       5.463   0.861  -2.531  1.00  0.00     0.000 C 
HETATM   22  C22 UNL     1       4.012   1.145  -2.057  1.00  0.00     0.004 C 
HETATM   23  C23 UNL     1       4.021   2.361  -1.115  1.00  0.00     0.000 C 
HETATM   24  C24 UNL     1       5.805   1.641  -3.807  1.00  0.00     0.000 C 
HETATM   25  C26 UNL     1       0.961  -2.115  -1.219  1.00  0.00     0.004 C 
HETATM   26  C27 UNL     1       0.295   0.096   1.918  1.00  0.00     0.000 C 
HETATM   27  C28 UNL     1      -2.356   1.229   1.531  1.00  0.00     0.000 C 
HETATM   28  C29 UNL     1      -5.016  -1.766   2.033  1.00  0.00     0.002 C 
HETATM   29  C30 UNL     1      -5.256  -1.828  -0.410  1.00  0.00     0.002 C 
ENDROOT
BRANCH   2  30
HETATM   30  O3  UNL     1      -5.008   0.986   2.012  1.00  0.00    -0.304 OA
BRANCH  30  31
HETATM   31  C31 UNL     1      -5.860   1.980   2.252  1.00  0.00     0.272 C 
HETATM   32  C32 UNL     1      -5.608   2.746   3.524  1.00  0.00     0.106 C 
HETATM   33  O4  UNL     1      -6.778   2.271   1.522  1.00  0.00    -0.264 OA
ENDBRANCH  30  31
ENDBRANCH   2  30
BRANCH  16  34
HETATM   34  C25 UNL     1       4.822   0.012   0.565  1.00  0.00     0.184 C 
HETATM   35  O1  UNL     1       6.004   0.088   0.805  1.00  0.00    -0.647 OA
HETATM   36  O2  UNL     1       3.887   0.695   1.219  1.00  0.00    -0.647 OA
ENDBRANCH  16  34
TORSDOF 3
