REMARK  1 active torsions:
REMARK  status: ('A' for Active; 'I' for Inactive)
REMARK    1  A    between atoms: C4_4  and  C28_29 
ROOT
HETATM    1  C1  UNL     1       4.887  -1.537   0.176  1.00  0.00     0.000 C 
HETATM    2  C2  UNL     1       5.598  -0.156   0.215  1.00  0.00     0.000 C 
HETATM    3  C3  UNL     1       4.900   0.951  -0.615  1.00  0.00     0.007 C 
HETATM    4  C4  UNL     1       3.408   1.055  -0.248  1.00  0.00     0.058 C 
HETATM    5  C5  UNL     1       2.775  -0.338  -0.580  1.00  0.00     0.007 C 
HETATM    6  C6  UNL     1       3.350  -1.414   0.359  1.00  0.00     0.000 C 
HETATM    7  C7  UNL     1       1.228  -0.295  -0.836  1.00  0.00     0.000 C 
HETATM    8  C8  UNL     1       0.629   0.883  -0.014  1.00  0.00     0.000 C 
HETATM    9  C9  UNL     1       1.125   2.230  -0.594  1.00  0.00     0.000 C 
HETATM   10  C10 UNL     1       2.631   2.170  -0.998  1.00  0.00     0.007 C 
HETATM   11  C11 UNL     1      -0.879   0.723   0.385  1.00  0.00     0.000 C 
HETATM   12  C12 UNL     1      -1.676  -0.031  -0.717  1.00  0.00     0.000 C 
HETATM   13  C13 UNL     1      -1.088  -1.477  -0.797  1.00  0.00     0.000 C 
HETATM   14  C14 UNL     1       0.445  -1.592  -0.521  1.00  0.00     0.000 C 
HETATM   15  C15 UNL     1      -3.236   0.053  -0.512  1.00  0.00     0.001 C 
HETATM   16  C16 UNL     1      -3.736   0.508   0.889  1.00  0.00     0.006 C 
HETATM   17  C17 UNL     1      -2.996   1.812   1.326  1.00  0.00     0.000 C 
HETATM   18  C18 UNL     1      -1.600   2.043   0.701  1.00  0.00     0.000 C 
HETATM   19  C19 UNL     1      -5.264   0.783   0.828  1.00  0.00     0.058 C 
HETATM   20  C20 UNL     1      -6.024  -0.399   0.260  1.00  0.00     0.150 C 
HETATM   21  C21 UNL     1      -5.522  -0.945  -1.055  1.00  0.00     0.065 C 
HETATM   22  C22 UNL     1      -4.004  -1.182  -1.029  1.00  0.00     0.008 C 
HETATM   23  O1  UNL     1      -6.975  -0.889   0.822  1.00  0.00    -0.296 OA
HETATM   24  C23 UNL     1      -5.826   1.213   2.191  1.00  0.00     0.008 C 
HETATM   25  C24 UNL     1      -3.531  -0.623   1.912  1.00  0.00     0.000 C 
HETATM   26  C25 UNL     1      -1.465   0.666  -2.076  1.00  0.00     0.000 C 
HETATM   27  C26 UNL     1      -0.873  -0.092   1.699  1.00  0.00     0.000 C 
HETATM   28  C27 UNL     1       1.078  -0.069  -2.355  1.00  0.00     0.000 C 
HETATM   29  C29 UNL     1       5.457  -2.432   1.281  1.00  0.00     0.000 C 
HETATM   30  C30 UNL     1       5.188  -2.209  -1.170  1.00  0.00     0.000 C 
ENDROOT
BRANCH   4  31
HETATM   31  C28 UNL     1       3.387   1.430   1.225  1.00  0.00     0.206 C 
HETATM   32  O2  UNL     1       2.926   2.484   1.592  1.00  0.00    -0.288 OA
ENDBRANCH   4  31
TORSDOF 1
