REMARK  3 active torsions:
REMARK  status: ('A' for Active; 'I' for Inactive)
REMARK    1  A    between atoms: C5_6  and  C6_7 
REMARK    2  A    between atoms: C6_7  and  O2_9 
REMARK    3  A    between atoms: O2_9  and  C7_10 
ROOT
HETATM    1  C1  UNL     1       1.598  -0.428  -0.514  1.00  0.00     0.014 C 
HETATM    2  C2  UNL     1       2.367   0.828  -0.934  1.00  0.00     0.036 C 
HETATM    3  C3  UNL     1       1.621   2.108  -0.526  1.00  0.00     0.250 C 
HETATM    4  N1  UNL     1       0.254   2.108  -1.063  1.00  0.00     0.140 N 
HETATM    5  C4  UNL     1      -0.533   0.945  -0.625  1.00  0.00     0.260 C 
HETATM    6  C5  UNL     1       0.150  -0.375  -1.030  1.00  0.00     0.120 C 
HETATM    7  C9  UNL     1      -0.434   3.360  -0.764  1.00  0.00     0.285 C 
ENDROOT
BRANCH   6   8
HETATM    8  C6  UNL     1      -0.643  -1.566  -0.549  1.00  0.00     0.273 C 
HETATM    9  O1  UNL     1      -1.107  -2.359  -1.334  1.00  0.00    -0.264 OA
BRANCH   8  10
HETATM   10  O2  UNL     1      -0.787  -1.660   0.769  1.00  0.00    -0.302 OA
BRANCH  10  11
HETATM   11  C7  UNL     1      -1.547  -2.797   1.152  1.00  0.00     0.152 C 
HETATM   12  C8  UNL     1      -1.670  -2.838   2.676  1.00  0.00     0.035 C 
ENDBRANCH  10  11
ENDBRANCH   8  10
ENDBRANCH   6   8
TORSDOF 3
