REMARK  7 active torsions:
REMARK  status: ('A' for Active; 'I' for Inactive)
REMARK    1  A    between atoms: C3_3  and  C4_4 
REMARK    2  A    between atoms: C4_4  and  C5_5 
REMARK    3  A    between atoms: C5_5  and  C6_6 
REMARK    4  A    between atoms: C6_6  and  C7_7 
REMARK    5  A    between atoms: C7_7  and  C8_8 
REMARK    6  A    between atoms: C8_8  and  C9_9 
REMARK    7  A    between atoms: C9_9  and  C10_10 
ROOT
HETATM    1  C6  UNL     1      -0.029   0.656   0.789  1.00  0.00     0.000 C 
ENDROOT
BRANCH   1   2
HETATM    2  C5  UNL     1       1.498   0.676   0.781  1.00  0.00     0.004 C 
BRANCH   2   3
HETATM    3  C4  UNL     1       2.082   1.582   1.865  1.00  0.00     0.026 C 
BRANCH   3   4
HETATM    4  C3  UNL     1       3.588   1.582   1.865  1.00  0.00    -0.030 C 
HETATM    5  C2  UNL     1       4.229   2.762   1.865  1.00  0.00    -0.030 C 
HETATM    6  C1  UNL     1       5.733   2.762   1.865  1.00  0.00     0.030 C 
ENDBRANCH   3   4
ENDBRANCH   2   3
ENDBRANCH   1   2
BRANCH   1   7
HETATM    7  C7  UNL     1      -0.613  -0.248  -0.299  1.00  0.00     0.000 C 
BRANCH   7   8
HETATM    8  C8  UNL     1      -2.143  -0.287  -0.275  1.00  0.00     0.000 C 
BRANCH   8   9
HETATM    9  C9  UNL     1      -2.729  -1.103  -1.428  1.00  0.00     0.000 C 
HETATM   10  C12 UNL     1      -4.193  -0.764  -1.705  1.00  0.00     0.000 C 
BRANCH   9  11
HETATM   11  C10 UNL     1      -2.490  -2.605  -1.268  1.00  0.00     0.000 C 
HETATM   12  C11 UNL     1      -2.887  -3.402  -2.510  1.00  0.00     0.000 C 
ENDBRANCH   9  11
ENDBRANCH   8   9
ENDBRANCH   7   8
ENDBRANCH   1   7
TORSDOF 7
