REMARK  11 active torsions:
REMARK  status: ('A' for Active; 'I' for Inactive)
REMARK    1  A    between atoms: C16_18  and  C18_22 
REMARK    2  A    between atoms: C18_22  and  C19_23 
REMARK    3  A    between atoms: C18_22  and  O19_60 
REMARK    4  A    between atoms: C19_23  and  O5_24 
REMARK    5  A    between atoms: C19_23  and  C41_58 
REMARK    6  A    between atoms: O5_24  and  C20_25 
REMARK    7  A    between atoms: C20_25  and  C21_27 
REMARK    8  A    between atoms: C22_28  and  O10_36 
REMARK    9  A    between atoms: O10_36  and  C27_37 
REMARK   10  A    between atoms: O19_60  and  C42_61 
REMARK   11  A    between atoms: C42_61  and  C43_62 
ROOT
HETATM    1  C18 UNL     1       1.258  -0.525  -2.119  1.00  0.00     0.190 C 
ENDROOT
BRANCH   1   2
HETATM    2  C16 UNL     1       1.244  -1.367  -0.834  1.00  0.00     0.188 C 
HETATM    3  C15 UNL     1       1.496  -2.883  -1.082  1.00  0.00     0.212 C 
HETATM    4  C14 UNL     1       1.422  -3.799   0.174  1.00  0.00     0.188 C 
HETATM    5  O24 UNL     1       2.781  -3.023  -1.664  1.00  0.00    -0.218 OA
HETATM    6  O2  UNL     1       0.375  -4.770   0.016  1.00  0.00    -0.296 OA
HETATM    7  C13 UNL     1      -0.875  -4.346   0.252  1.00  0.00     0.296 C 
HETATM    8  C12 UNL     1      -1.975  -4.570  -0.744  1.00  0.00     0.067 A 
HETATM    9  O25 UNL     1      -1.047  -3.781   1.309  1.00  0.00    -0.259 OA
HETATM   10  C7  UNL     1      -3.168  -3.762  -0.773  1.00  0.00     0.035 A 
HETATM   11  C11 UNL     1      -1.813  -5.606  -1.676  1.00  0.00     0.035 A 
HETATM   12  C5  UNL     1      -3.354  -2.615   0.156  1.00  0.00     0.035 A 
HETATM   13  C8  UNL     1      -4.168  -4.066  -1.723  1.00  0.00     0.158 A 
HETATM   14  C4  UNL     1      -2.373  -1.568   0.252  1.00  0.00     0.067 A 
HETATM   15  C6  UNL     1      -4.498  -2.547   0.982  1.00  0.00     0.158 A 
HETATM   16  C3  UNL     1      -2.535  -0.537   1.188  1.00  0.00     0.035 A 
HETATM   17  C17 UNL     1      -1.154  -1.553  -0.613  1.00  0.00     0.296 C 
HETATM   18  C2  UNL     1      -3.680  -0.488   1.998  1.00  0.00     0.158 A 
HETATM   19  C1  UNL     1      -4.662  -1.484   1.887  1.00  0.00     0.181 A 
HETATM   20  O29 UNL     1      -3.826   0.496   2.863  1.00  0.00    -0.188 OA
HETATM   21  O30 UNL     1      -5.744  -1.424   2.641  1.00  0.00    -0.186 OA
HETATM   22  O3  UNL     1       0.023  -1.125  -0.115  1.00  0.00    -0.296 OA
HETATM   23  O4  UNL     1      -1.184  -1.930  -1.764  1.00  0.00    -0.259 OA
HETATM   24  O1  UNL     1      -5.422  -3.488   0.928  1.00  0.00    -0.188 OA
HETATM   25  C9  UNL     1      -4.000  -5.135  -2.621  1.00  0.00     0.181 A 
HETATM   26  O28 UNL     1      -5.272  -3.346  -1.789  1.00  0.00    -0.188 OA
HETATM   27  C10 UNL     1      -2.820  -5.895  -2.605  1.00  0.00     0.158 A 
HETATM   28  O27 UNL     1      -4.951  -5.420  -3.488  1.00  0.00    -0.186 OA
HETATM   29  O26 UNL     1      -2.658  -6.883  -3.463  1.00  0.00    -0.188 OA
ENDBRANCH   1   2
BRANCH   1  30
HETATM   30  C19 UNL     1       0.797   0.912  -1.887  1.00  0.00     0.219 C 
BRANCH  30  31
HETATM   31  O5  UNL     1       1.752   1.594  -1.088  1.00  0.00    -0.290 OA
BRANCH  31  32
HETATM   32  C20 UNL     1       1.320   2.785  -0.686  1.00  0.00     0.298 C 
HETATM   33  O6  UNL     1       0.186   3.174  -0.832  1.00  0.00    -0.259 OA
BRANCH  32  34
HETATM   34  C21 UNL     1       2.348   3.645  -0.023  1.00  0.00     0.090 A 
HETATM   35  C22 UNL     1       1.965   4.813   0.666  1.00  0.00     0.133 A 
HETATM   36  C23 UNL     1       2.943   5.611   1.285  1.00  0.00     0.181 A 
HETATM   37  C24 UNL     1       4.301   5.248   1.215  1.00  0.00     0.183 A 
HETATM   38  O9  UNL     1       2.588   6.705   1.930  1.00  0.00    -0.186 OA
HETATM   39  C25 UNL     1       4.682   4.082   0.525  1.00  0.00     0.159 A 
HETATM   40  O8  UNL     1       5.215   6.000   1.795  1.00  0.00    -0.186 OA
HETATM   41  C26 UNL     1       3.705   3.283  -0.092  1.00  0.00     0.037 A 
HETATM   42  O7  UNL     1       5.953   3.738   0.457  1.00  0.00    -0.188 OA
BRANCH  35  43
HETATM   43  O10 UNL     1       0.693   5.158   0.734  1.00  0.00    -0.303 OA
BRANCH  43  44
HETATM   44  C27 UNL     1      -0.115   4.563   1.621  1.00  0.00     0.128 A 
HETATM   45  C28 UNL     1      -1.508   4.848   1.611  1.00  0.00     0.176 A 
HETATM   46  C29 UNL     1      -2.371   4.223   2.545  1.00  0.00     0.131 A 
HETATM   47  O17 UNL     1      -2.008   5.713   0.717  1.00  0.00    -0.186 OA
HETATM   48  C30 UNL     1      -1.814   3.311   3.483  1.00  0.00     0.032 A 
HETATM   49  O12 UNL     1      -3.701   4.486   2.551  1.00  0.00    -0.271 OA
HETATM   50  C31 UNL     1      -0.434   3.022   3.496  1.00  0.00     0.068 A 
HETATM   51  C35 UNL     1      -2.680   2.648   4.461  1.00  0.00     0.032 A 
HETATM   52  C32 UNL     1       0.426   3.648   2.563  1.00  0.00     0.032 A 
HETATM   53  C33 UNL     1       0.059   2.051   4.516  1.00  0.00     0.300 A 
HETATM   54  O11 UNL     1      -0.793   1.471   5.393  1.00  0.00    -0.271 OA
HETATM   55  O16 UNL     1       1.223   1.736   4.611  1.00  0.00    -0.259 OA
HETATM   56  C34 UNL     1      -2.125   1.734   5.397  1.00  0.00     0.131 A 
HETATM   57  C40 UNL     1      -2.986   1.109   6.332  1.00  0.00     0.179 A 
HETATM   58  C39 UNL     1      -4.379   1.397   6.322  1.00  0.00     0.158 A 
HETATM   59  O14 UNL     1      -2.486   0.242   7.225  1.00  0.00    -0.186 OA
HETATM   60  C38 UNL     1      -4.920   2.311   5.383  1.00  0.00     0.035 A 
HETATM   61  O15 UNL     1      -5.188   0.801   7.209  1.00  0.00    -0.188 OA
HETATM   62  C36 UNL     1      -4.061   2.936   4.447  1.00  0.00     0.068 A 
HETATM   63  C37 UNL     1      -4.553   3.906   3.428  1.00  0.00     0.300 A 
HETATM   64  O13 UNL     1      -5.717   4.223   3.332  1.00  0.00    -0.259 OA
ENDBRANCH  43  44
ENDBRANCH  35  43
ENDBRANCH  32  34
ENDBRANCH  31  32
ENDBRANCH  30  31
BRANCH  30  65
HETATM   65  C41 UNL     1       0.592   1.666  -3.176  1.00  0.00     0.240 C 
HETATM   66  O18 UNL     1       0.820   1.147  -4.242  1.00  0.00    -0.285 OA
ENDBRANCH  30  65
ENDBRANCH   1  30
BRANCH   1  67
HETATM   67  O19 UNL     1       2.566  -0.521  -2.668  1.00  0.00    -0.295 OA
BRANCH  67  68
HETATM   68  C42 UNL     1       2.631  -1.160  -3.832  1.00  0.00     0.296 C 
HETATM   69  O23 UNL     1       1.672  -1.648  -4.385  1.00  0.00    -0.259 OA
BRANCH  68  70
HETATM   70  C43 UNL     1       3.992  -1.244  -4.438  1.00  0.00     0.067 A 
HETATM   71  C44 UNL     1       4.180  -1.908  -5.664  1.00  0.00     0.035 A 
HETATM   72  C45 UNL     1       5.461  -1.988  -6.236  1.00  0.00     0.158 A 
HETATM   73  C46 UNL     1       6.561  -1.402  -5.580  1.00  0.00     0.181 A 
HETATM   74  O22 UNL     1       5.629  -2.611  -7.385  1.00  0.00    -0.188 OA
HETATM   75  C47 UNL     1       6.375  -0.738  -4.354  1.00  0.00     0.158 A 
HETATM   76  O21 UNL     1       7.762  -1.477  -6.115  1.00  0.00    -0.186 OA
HETATM   77  C48 UNL     1       5.092  -0.660  -3.785  1.00  0.00     0.035 A 
HETATM   78  O20 UNL     1       7.402  -0.189  -3.736  1.00  0.00    -0.188 OA
ENDBRANCH  68  70
ENDBRANCH  67  68
ENDBRANCH   1  67
TORSDOF 11
