REMARK  5 active torsions:
REMARK  status: ('A' for Active; 'I' for Inactive)
REMARK    1  A    between atoms: C15_16  and  C18_20 
REMARK    2  A    between atoms: C18_20  and  C19_21 
REMARK    3  A    between atoms: C19_21  and  C20_22 
REMARK    4  A    between atoms: C20_22  and  C21_23 
REMARK    5  A    between atoms: C22_24  and  C24_26 
ROOT
HETATM    1  C1  UNL     1       5.184  -0.777  -0.516  1.00  0.00     0.065 C 
HETATM    2  C2  UNL     1       5.740   0.592  -0.822  1.00  0.00     0.150 C 
HETATM    3  C3  UNL     1       4.916   1.781  -0.363  1.00  0.00     0.052 C 
HETATM    4  C4  UNL     1       4.375   1.572   1.096  1.00  0.00     0.011 C 
HETATM    5  C5  UNL     1       3.744   0.174   1.367  1.00  0.00     0.022 C 
HETATM    6  C6  UNL     1       4.809  -0.875   0.963  1.00  0.00     0.012 C 
HETATM    7  C7  UNL     1       2.373   0.047   0.686  1.00  0.00     0.004 C 
HETATM    8  C8  UNL     1       1.639   1.166   0.424  1.00  0.00    -0.044 C 
HETATM    9  C9  UNL     1       2.045   2.563   0.871  1.00  0.00     0.022 C 
HETATM   10  C10 UNL     1       3.404   2.662   1.568  1.00  0.00     0.005 C 
HETATM   11  C11 UNL     1       0.353   1.055  -0.379  1.00  0.00     0.043 C 
HETATM   12  C12 UNL     1      -0.420  -0.221   0.006  1.00  0.00     0.013 C 
HETATM   13  C13 UNL     1       0.473  -1.412  -0.352  1.00  0.00     0.069 C 
HETATM   14  C14 UNL     1       1.828  -1.301   0.318  1.00  0.00     0.169 C 
HETATM   15  O1  UNL     1       2.432  -2.320   0.557  1.00  0.00    -0.292 OA
HETATM   16  C15 UNL     1      -1.709  -0.072  -0.813  1.00  0.00     0.003 C 
HETATM   17  C16 UNL     1      -2.029   1.426  -0.701  1.00  0.00     0.033 C 
HETATM   18  C17 UNL     1      -0.764   2.088  -0.133  1.00  0.00     0.155 C 
HETATM   19  O2  UNL     1      -0.520   3.336  -0.760  1.00  0.00    -0.223 OA
HETATM   20  C26 UNL     1      -0.766  -0.252   1.506  1.00  0.00     0.001 C 
HETATM   21  C27 UNL     1       0.740   1.061  -1.869  1.00  0.00     0.007 C 
HETATM   22  C28 UNL     1       3.480  -0.006   2.873  1.00  0.00     0.004 C 
HETATM   23  C29 UNL     1       5.783   3.047  -0.397  1.00  0.00     0.007 C 
HETATM   24  C30 UNL     1       3.820   1.945  -1.420  1.00  0.00     0.007 C 
HETATM   25  O6  UNL     1       6.795   0.721  -1.404  1.00  0.00    -0.296 OA
ENDROOT
BRANCH  16  26
HETATM   26  C18 UNL     1      -2.858  -0.971  -0.357  1.00  0.00     0.003 C 
HETATM   27  C25 UNL     1      -2.436  -2.436  -0.477  1.00  0.00     0.000 C 
BRANCH  26  28
HETATM   28  C19 UNL     1      -4.109  -0.648  -1.176  1.00  0.00     0.037 C 
BRANCH  28  29
HETATM   29  C20 UNL     1      -5.393  -0.746  -0.352  1.00  0.00     0.174 C 
HETATM   30  O5  UNL     1      -5.373   0.277   0.619  1.00  0.00    -0.219 OA
BRANCH  29  31
HETATM   31  C21 UNL     1      -5.537  -2.080   0.330  1.00  0.00     0.008 C 
HETATM   32  C22 UNL     1      -6.344  -3.000  -0.227  1.00  0.00     0.041 C 
HETATM   33  C23 UNL     1      -6.488  -4.334   0.455  1.00  0.00     0.037 C 
BRANCH  32  34
HETATM   34  C24 UNL     1      -7.088  -2.764  -1.469  1.00  0.00     0.206 C 
HETATM   35  O3  UNL     1      -6.615  -3.078  -2.535  1.00  0.00    -0.644 OA
HETATM   36  O4  UNL     1      -8.283  -2.195  -1.326  1.00  0.00    -0.644 OA
ENDBRANCH  32  34
ENDBRANCH  29  31
ENDBRANCH  28  29
ENDBRANCH  26  28
ENDBRANCH  16  26
TORSDOF 5
