REMARK  6 active torsions:
REMARK  status: ('A' for Active; 'I' for Inactive)
REMARK    1  A    between atoms: C5_5  and  C30_36 
REMARK    2  A    between atoms: C9_9  and  C27_32 
REMARK    3  A    between atoms: C10_10  and  O1_13 
REMARK    4  A    between atoms: O1_13  and  C13_14 
REMARK    5  A    between atoms: C13_14  and  C14_15 
REMARK    6  A    between atoms: C20_23  and  C21_26 
ROOT
HETATM    1  C1  UNL     1       0.672  -0.416  -0.088  1.00  0.00     0.111 C 
HETATM    2  C2  UNL     1       2.160  -0.680   0.416  1.00  0.00     0.085 C 
HETATM    3  C3  UNL     1       3.293   0.414   0.451  1.00  0.00     0.217 C 
HETATM    4  C4  UNL     1       3.006   1.895   0.818  1.00  0.00     0.217 C 
HETATM    5  C5  UNL     1       2.125   2.760  -0.076  1.00  0.00     0.179 A 
HETATM    6  C6  UNL     1       0.645   2.330  -0.324  1.00  0.00     0.150 A 
HETATM    7  C7  UNL     1       0.020   0.998   0.172  1.00  0.00     0.086 C 
HETATM    8  C8  UNL     1      -1.379   0.977  -0.529  1.00  0.00     0.156 C 
HETATM    9  C9  UNL     1      -2.158  -0.355  -0.398  1.00  0.00     0.163 C 
HETATM   10  C10 UNL     1      -1.678  -1.182   0.793  1.00  0.00     0.158 C 
HETATM   11  C11 UNL     1      -0.174  -1.516   0.670  1.00  0.00     0.056 C 
HETATM   12  C12 UNL     1       0.018  -2.936   0.103  1.00  0.00     0.005 C 
HETATM   13  O3  UNL     1      -1.779  -1.047  -1.580  1.00  0.00    -0.306 OA
HETATM   14  C20 UNL     1      -0.670  -0.395  -2.164  1.00  0.00     0.318 C 
HETATM   15  O4  UNL     1       0.588  -0.656  -1.520  1.00  0.00    -0.314 OA
HETATM   16  O5  UNL     1      -1.090   0.916  -1.906  1.00  0.00    -0.309 OA
HETATM   17  O6  UNL     1       1.686   2.106  -1.223  1.00  0.00    -0.351 OA
HETATM   18  O8  UNL     1       2.428   1.969   2.109  1.00  0.00    -0.218 OA
HETATM   19  C31 UNL     1       3.983   0.176  -0.873  1.00  0.00     0.199 C 
HETATM   20  C32 UNL     1       3.772  -1.219  -1.231  1.00  0.00     0.011 C 
HETATM   21  C33 UNL     1       2.822  -1.752  -0.451  1.00  0.00    -0.022 C 
HETATM   22  C34 UNL     1       4.526  -1.963  -2.299  1.00  0.00     0.034 C 
HETATM   23  O9  UNL     1       4.596   0.994  -1.518  1.00  0.00    -0.289 OA
HETATM   24  O10 UNL     1       4.266  -0.014   1.406  1.00  0.00    -0.215 OA
ENDROOT
BRANCH  10  25
HETATM   25  O1  UNL     1      -1.904  -0.441   1.986  1.00  0.00    -0.298 OA
BRANCH  25  26
HETATM   26  C13 UNL     1      -1.871  -1.207   3.072  1.00  0.00     0.296 C 
HETATM   27  O2  UNL     1      -1.711  -2.406   3.045  1.00  0.00    -0.259 OA
BRANCH  26  28
HETATM   28  C14 UNL     1      -2.043  -0.484   4.367  1.00  0.00     0.063 A 
HETATM   29  C15 UNL     1      -2.020  -1.197   5.580  1.00  0.00     0.005 A 
HETATM   30  C16 UNL     1      -2.184  -0.516   6.799  1.00  0.00     0.000 A 
HETATM   31  C17 UNL     1      -2.369   0.877   6.807  1.00  0.00     0.000 A 
HETATM   32  C18 UNL     1      -2.395   1.590   5.596  1.00  0.00     0.000 A 
HETATM   33  C19 UNL     1      -2.230   0.910   4.375  1.00  0.00     0.005 A 
ENDBRANCH  26  28
ENDBRANCH  25  26
ENDBRANCH  10  25
BRANCH   9  34
HETATM   34  C27 UNL     1      -3.656  -0.180  -0.414  1.00  0.00    -0.015 C 
HETATM   35  C28 UNL     1      -4.182   0.897   0.197  1.00  0.00    -0.007 C 
HETATM   36  C29 UNL     1      -4.590  -1.152  -1.082  1.00  0.00     0.029 C 
ENDBRANCH   9  34
BRANCH  14  37
HETATM   37  C21 UNL     1      -0.590  -0.666  -3.621  1.00  0.00     0.058 A 
HETATM   38  C22 UNL     1      -1.357   0.094  -4.524  1.00  0.00     0.003 A 
HETATM   39  C23 UNL     1      -1.279  -0.162  -5.902  1.00  0.00    -0.000 A 
HETATM   40  C24 UNL     1      -0.436  -1.178  -6.383  1.00  0.00    -0.000 A 
HETATM   41  C25 UNL     1       0.334  -1.938  -5.483  1.00  0.00    -0.000 A 
HETATM   42  C26 UNL     1       0.256  -1.680  -4.104  1.00  0.00     0.003 A 
ENDBRANCH  14  37
BRANCH   5  43
HETATM   43  C30 UNL     1       2.565   4.166  -0.465  1.00  0.00     0.214 C 
HETATM   44  O7  UNL     1       2.445   4.996   0.668  1.00  0.00    -0.218 OA
ENDBRANCH   5  43
TORSDOF 6
