REMARK  7 active torsions:
REMARK  status: ('A' for Active; 'I' for Inactive)
REMARK    1  A    between atoms: C1_1  and  C2_2 
REMARK    2  A    between atoms: C2_2  and  C3_3 
REMARK    3  A    between atoms: C3_3  and  C4_4 
REMARK    4  A    between atoms: C4_4  and  C5_5 
REMARK    5  A    between atoms: C5_5  and  C6_6 
REMARK    6  A    between atoms: C6_6  and  C7_7 
REMARK    7  A    between atoms: C7_7  and  O1_10 
ROOT
HETATM    1  C5  UNL     1       0.184   0.226   0.049  1.00  0.00     0.002 C 
ENDROOT
BRANCH   1   2
HETATM    2  C4  UNL     1       0.736   1.029  -1.129  1.00  0.00     0.001 C 
BRANCH   2   3
HETATM    3  C3  UNL     1       0.310   2.498  -1.094  1.00  0.00     0.008 C 
HETATM    4  C11 UNL     1       0.852   3.238   0.129  1.00  0.00     0.001 C 
BRANCH   3   5
HETATM    5  C2  UNL     1       0.605   3.228  -2.404  1.00  0.00     0.072 C 
BRANCH   5   6
HETATM    6  C1  UNL     1      -0.197   2.687  -3.557  1.00  0.00     0.207 C 
HETATM    7  O2  UNL     1      -1.150   1.967  -3.367  1.00  0.00    -0.288 OA
ENDBRANCH   5   6
ENDBRANCH   3   5
ENDBRANCH   2   3
ENDBRANCH   1   2
BRANCH   1   8
HETATM    8  C6  UNL     1       0.516  -1.264  -0.045  1.00  0.00     0.027 C 
BRANCH   8   9
HETATM    9  C7  UNL     1      -0.145  -2.086   1.062  1.00  0.00     0.093 C 
HETATM   10  C8  UNL     1       0.271  -3.557   1.033  1.00  0.00     0.030 C 
HETATM   11  C9  UNL     1       0.021  -1.453   2.445  1.00  0.00     0.030 C 
BRANCH   9  12
HETATM   12  O1  UNL     1      -1.504  -2.004   0.701  1.00  0.00    -0.356 OA
HETATM   13  C10 UNL     1      -2.356  -2.701   1.580  1.00  0.00     0.174 C 
ENDBRANCH   9  12
ENDBRANCH   8   9
ENDBRANCH   1   8
TORSDOF 7
