REMARK  7 active torsions:
REMARK  status: ('A' for Active; 'I' for Inactive)
REMARK    1  A    between atoms: C3_3  and  C7_9 
REMARK    2  A    between atoms: C7_9  and  C8_10 
REMARK    3  A    between atoms: C8_10  and  O3_11 
REMARK    4  A    between atoms: C8_10  and  C26_34 
REMARK    5  A    between atoms: O3_11  and  C9_12 
REMARK    6  A    between atoms: C9_12  and  C10_14 
REMARK    7  A    between atoms: C11_15  and  C12_16 
ROOT
HETATM    1  C12 UNL     1      -0.367  -2.426  -0.871  1.00  0.00     0.002 A 
HETATM    2  C13 UNL     1      -1.754  -2.772  -0.803  1.00  0.00     0.025 A 
HETATM    3  C14 UNL     1      -2.119  -4.152  -0.740  1.00  0.00     0.125 A 
HETATM    4  C15 UNL     1      -1.096  -5.139  -0.742  1.00  0.00     0.154 A 
HETATM    5  C16 UNL     1       0.265  -4.781  -0.809  1.00  0.00     0.029 A 
HETATM    6  C17 UNL     1       0.629  -3.424  -0.873  1.00  0.00     0.002 A 
HETATM    7  O5  UNL     1      -1.420  -6.440  -0.680  1.00  0.00    -0.188 OA
HETATM    8  O6  UNL     1      -3.360  -4.678  -0.676  1.00  0.00    -0.305 OA
HETATM    9  C18 UNL     1      -4.621  -4.207  -0.651  1.00  0.00     0.102 A 
HETATM   10  C19 UNL     1      -5.045  -2.848  -0.682  1.00  0.00     0.025 A 
HETATM   11  C20 UNL     1      -4.104  -1.701  -0.750  1.00  0.00     0.002 A 
HETATM   12  C21 UNL     1      -2.760  -1.670  -0.801  1.00  0.00     0.002 A 
HETATM   13  C22 UNL     1      -6.434  -2.545  -0.647  1.00  0.00     0.032 A 
HETATM   14  C23 UNL     1      -7.399  -3.570  -0.584  1.00  0.00     0.156 A 
HETATM   15  C24 UNL     1      -6.985  -4.918  -0.555  1.00  0.00     0.158 A 
HETATM   16  C25 UNL     1      -5.608  -5.227  -0.588  1.00  0.00     0.054 A 
HETATM   17  O7  UNL     1      -7.891  -5.904  -0.496  1.00  0.00    -0.188 OA
HETATM   18  O8  UNL     1      -8.703  -3.262  -0.553  1.00  0.00    -0.188 OA
ENDROOT
BRANCH   1  19
HETATM   19  C11 UNL     1       0.062  -1.010  -0.942  1.00  0.00     0.005 C 
HETATM   20  C10 UNL     1       1.137  -0.627  -0.235  1.00  0.00     0.068 C 
BRANCH  20  21
HETATM   21  C9  UNL     1       1.599   0.766  -0.274  1.00  0.00     0.296 C 
HETATM   22  O4  UNL     1       1.014   1.588  -0.936  1.00  0.00    -0.259 OA
BRANCH  21  23
HETATM   23  O3  UNL     1       2.680   1.037   0.457  1.00  0.00    -0.290 OA
BRANCH  23  24
HETATM   24  C8  UNL     1       3.023   2.414   0.424  1.00  0.00     0.215 C 
BRANCH  24  25
HETATM   25  C7  UNL     1       4.426   2.602   1.002  1.00  0.00     0.068 C 
BRANCH  25  26
HETATM   26  C3  UNL     1       4.850   4.027   0.959  1.00  0.00    -0.017 A 
HETATM   27  C2  UNL     1       5.342   4.578  -0.236  1.00  0.00    -0.002 A 
HETATM   28  C1  UNL     1       5.740   5.926  -0.276  1.00  0.00     0.029 A 
HETATM   29  C6  UNL     1       5.648   6.725   0.879  1.00  0.00     0.156 A 
HETATM   30  C5  UNL     1       5.156   6.172   2.076  1.00  0.00     0.156 A 
HETATM   31  O1  UNL     1       6.025   7.986   0.834  1.00  0.00    -0.188 OA
HETATM   32  C4  UNL     1       4.758   4.824   2.111  1.00  0.00     0.025 A 
HETATM   33  O2  UNL     1       5.066   6.914   3.162  1.00  0.00    -0.188 OA
ENDBRANCH  25  26
ENDBRANCH  24  25
BRANCH  24  34
HETATM   34  C26 UNL     1       1.984   3.209   1.168  1.00  0.00     0.215 C 
HETATM   35  O9  UNL     1       1.648   2.900   2.287  1.00  0.00    -0.646 OA
HETATM   36  O10 UNL     1       1.484   4.248   0.504  1.00  0.00    -0.646 OA
ENDBRANCH  24  34
ENDBRANCH  23  24
ENDBRANCH  21  23
ENDBRANCH  20  21
ENDBRANCH   1  19
TORSDOF 7
