REMARK  4 active torsions:
REMARK  status: ('A' for Active; 'I' for Inactive)
REMARK    1  A    between atoms: C3_3  and  C6_7 
REMARK    2  A    between atoms: C7_8  and  C8_9 
REMARK    3  A    between atoms: C8_9  and  C9_10 
REMARK    4  A    between atoms: C9_10  and  C10_11 
ROOT
HETATM    1  C6  UNL     1       0.434   0.205   0.830  1.00  0.00     0.139 C 
HETATM    2  C7  UNL     1      -0.975   0.828   0.748  1.00  0.00     0.056 C 
HETATM    3  C12 UNL     1      -1.139   1.318   2.153  1.00  0.00     0.043 C 
HETATM    4  C13 UNL     1       0.141   1.209   2.836  1.00  0.00     0.292 C 
HETATM    5  O3  UNL     1       1.061   0.672   2.035  1.00  0.00    -0.300 OA
HETATM    6  O4  UNL     1       0.324   1.570   3.975  1.00  0.00    -0.260 OA
HETATM    7  C14 UNL     1      -2.287   1.783   2.678  1.00  0.00     0.001 C 
ENDROOT
BRANCH   1   8
HETATM    8  C3  UNL     1       1.307   0.564  -0.377  1.00  0.00     0.122 A 
HETATM    9  C2  UNL     1       2.609  -0.268  -0.580  1.00  0.00     0.154 A 
HETATM   10  C1  UNL     1       3.717   0.756  -0.695  1.00  0.00     0.007 A 
HETATM   11  C15 UNL     1       2.520  -1.162  -1.810  1.00  0.00     0.038 C 
HETATM   12  O5  UNL     1       2.883  -1.102   0.529  1.00  0.00    -0.221 OA
HETATM   13  C5  UNL     1       3.254   2.000  -0.525  1.00  0.00     0.035 A 
HETATM   14  C4  UNL     1       1.818   1.980  -0.299  1.00  0.00     0.178 A 
HETATM   15  O1  UNL     1       1.137   2.959  -0.082  1.00  0.00    -0.291 OA
ENDBRANCH   1   8
BRANCH   2  16
HETATM   16  C8  UNL     1      -2.025  -0.193   0.322  1.00  0.00     0.015 C 
BRANCH  16  17
HETATM   17  C9  UNL     1      -1.789  -0.590  -1.137  1.00  0.00     0.065 C 
BRANCH  17  18
HETATM   18  C10 UNL     1      -2.889  -1.457  -1.682  1.00  0.00     0.151 C 
HETATM   19  C11 UNL     1      -3.100  -2.811  -1.057  1.00  0.00     0.072 C 
HETATM   20  O2  UNL     1      -3.586  -1.080  -2.594  1.00  0.00    -0.296 OA
ENDBRANCH  17  18
ENDBRANCH  16  17
ENDBRANCH   2  16
TORSDOF 4
