REMARK  3 active torsions:
REMARK  status: ('A' for Active; 'I' for Inactive)
REMARK    1  A    between atoms: C6_6  and  C7_7 
REMARK    2  A    between atoms: C9_11  and  C24_37 
REMARK    3  A    between atoms: C11_14  and  C22_33 
ROOT
HETATM    1  C7  UNL     1       2.322  -1.713   0.072  1.00  0.00     0.138 C 
HETATM    2  N1  UNL     1       1.213  -2.424   0.779  1.00  0.00    -0.233 NA
HETATM    3  C8  UNL     1       0.234  -3.227   0.221  1.00  0.00     0.277 C 
HETATM    4  O1  UNL     1       0.287  -3.594  -0.932  1.00  0.00    -0.268 OA
HETATM    5  C9  UNL     1      -0.957  -3.611   1.082  1.00  0.00     0.219 C 
HETATM    6  N2  UNL     1      -1.713  -2.385   1.467  1.00  0.00    -0.226 NA
HETATM    7  C10 UNL     1      -2.078  -1.432   0.537  1.00  0.00     0.277 C 
HETATM    8  C11 UNL     1      -2.731  -0.143   0.984  1.00  0.00     0.216 C 
HETATM    9  N3  UNL     1      -1.854   1.029   0.707  1.00  0.00    -0.226 NA
HETATM   10  C12 UNL     1      -1.891   2.152   1.504  1.00  0.00     0.274 C 
HETATM   11  C13 UNL     1      -1.053   3.395   1.219  1.00  0.00     0.181 C 
HETATM   12  N4  UNL     1       0.355   3.211   0.857  1.00  0.00    -0.310 N 
HETATM   13  C14 UNL     1       1.266   2.516   1.701  1.00  0.00     0.256 C 
HETATM   14  C15 UNL     1       2.762   2.557   1.400  1.00  0.00     0.184 C 
HETATM   15  N5  UNL     1       3.236   2.051   0.084  1.00  0.00    -0.230 NA
HETATM   16  C16 UNL     1       2.973   0.805  -0.439  1.00  0.00     0.254 C 
HETATM   17  C17 UNL     1       2.092  -0.189   0.293  1.00  0.00     0.118 C 
HETATM   18  O2  UNL     1       3.461   0.522  -1.510  1.00  0.00    -0.270 OA
HETATM   19  C18 UNL     1       3.295   3.975   1.643  1.00  0.00     0.037 C 
HETATM   20  O3  UNL     1       0.857   1.922   2.674  1.00  0.00    -0.270 OA
HETATM   21  C19 UNL     1       0.703   3.871  -0.398  1.00  0.00     0.122 C 
HETATM   22  C20 UNL     1      -0.637   4.203  -1.076  1.00  0.00     0.120 C 
HETATM   23  C21 UNL     1      -1.580   4.365   0.141  1.00  0.00     0.127 C 
HETATM   24 CL1  UNL     1      -3.340   4.301  -0.203  1.00  0.00    -0.111 Cl
HETATM   25 CL2  UNL     1      -1.104   2.908  -2.232  1.00  0.00    -0.112 Cl
HETATM   26  O4  UNL     1      -2.619   2.170   2.469  1.00  0.00    -0.268 OA
HETATM   27  O6  UNL     1      -1.871  -1.615  -0.643  1.00  0.00    -0.268 OA
ENDROOT
BRANCH   1  28
HETATM   28  C6  UNL     1       2.484  -2.082  -1.367  1.00  0.00     0.000 A 
HETATM   29  C1  UNL     1       1.607  -1.553  -2.332  1.00  0.00    -0.002 A 
HETATM   30  C2  UNL     1       1.760  -1.898  -3.686  1.00  0.00    -0.000 A 
HETATM   31  C3  UNL     1       2.787  -2.773  -4.076  1.00  0.00    -0.000 A 
HETATM   32  C4  UNL     1       3.664  -3.303  -3.113  1.00  0.00    -0.000 A 
HETATM   33  C5  UNL     1       3.512  -2.957  -1.760  1.00  0.00    -0.002 A 
ENDBRANCH   1  28
BRANCH   5  34
HETATM   34  C24 UNL     1      -1.900  -4.602   0.389  1.00  0.00     0.216 C 
HETATM   35  O7  UNL     1      -1.223  -5.828   0.242  1.00  0.00    -0.218 OA
ENDBRANCH   5  34
BRANCH   8  36
HETATM   36  C22 UNL     1      -4.080   0.049   0.287  1.00  0.00     0.184 C 
HETATM   37  C23 UNL     1      -4.977  -1.186   0.389  1.00  0.00     0.038 C 
HETATM   38  O5  UNL     1      -4.744   1.131   0.900  1.00  0.00    -0.221 OA
ENDBRANCH   8  36
TORSDOF 3
