REMARK  1 active torsions:
REMARK  status: ('A' for Active; 'I' for Inactive)
REMARK    1  A    between atoms: C4_4  and  C9_10 
ROOT
HETATM    1  C1  UNL     1       0.998   1.072   0.439  1.00  0.00     0.030 C 
HETATM    2  C2  UNL     1       0.971   0.000  -0.656  1.00  0.00     0.063 C 
HETATM    3  C3  UNL     1      -0.125  -1.021  -0.291  1.00  0.00     0.179 C 
HETATM    4  C4  UNL     1      -1.455  -0.285   0.033  1.00  0.00     0.121 C 
HETATM    5  C5  UNL     1      -1.873   0.734  -1.041  1.00  0.00     0.032 C 
HETATM    6  C6  UNL     1      -1.166   2.041  -0.621  1.00  0.00     0.030 C 
HETATM    7  C7  UNL     1      -0.414   1.656   0.662  1.00  0.00     0.093 C 
HETATM    8  C8  UNL     1      -0.398   2.754   1.719  1.00  0.00     0.030 C 
HETATM    9  O1  UNL     1      -1.205   0.582   1.117  1.00  0.00    -0.361 OA
HETATM   10  O2  UNL     1      -0.312  -1.908  -1.377  1.00  0.00    -0.221 OA
HETATM   11  C12 UNL     1       2.451  -0.396  -0.697  1.00  0.00     0.129 C 
HETATM   12  C13 UNL     1       3.164   0.969  -0.590  1.00  0.00     0.031 C 
HETATM   13  C14 UNL     1       2.113   1.969  -0.086  1.00  0.00     0.005 C 
HETATM   14  O3  UNL     1       2.760  -1.031  -1.920  1.00  0.00    -0.226 OA
HETATM   15  C15 UNL     1       2.854  -1.336   0.437  1.00  0.00     0.033 C 
ENDROOT
BRANCH   4  16
HETATM   16  C9  UNL     1      -2.588  -1.229   0.432  1.00  0.00     0.028 C 
HETATM   17  C10 UNL     1      -2.092  -2.197   1.504  1.00  0.00     0.003 C 
HETATM   18  C11 UNL     1      -3.115  -1.943  -0.813  1.00  0.00     0.003 C 
ENDBRANCH   4  16
TORSDOF 1
