REMARK  4 active torsions:
REMARK  status: ('A' for Active; 'I' for Inactive)
REMARK    1  A    between atoms: C2_2  and  C7_10 
REMARK    2  A    between atoms: C7_10  and  O4_11 
REMARK    3  A    between atoms: O4_11  and  C8_12 
REMARK    4  A    between atoms: C9_14  and  O9_21 
ROOT
HETATM    1  O4  UNL     1       0.076  -0.516   0.680  1.00  0.00    -0.270 OA
ENDROOT
BRANCH   1   2
HETATM    2  C7  UNL     1       1.154  -0.947   0.031  1.00  0.00     0.298 C 
HETATM    3  O10 UNL     1       2.215  -1.176   0.563  1.00  0.00    -0.259 OA
BRANCH   2   4
HETATM    4  C2  UNL     1       0.976  -1.139  -1.439  1.00  0.00     0.068 A 
HETATM    5  C1  UNL     1      -0.266  -0.867  -2.041  1.00  0.00     0.035 A 
HETATM    6  C6  UNL     1      -0.436  -1.047  -3.424  1.00  0.00     0.158 A 
HETATM    7  C5  UNL     1       0.640  -1.500  -4.211  1.00  0.00     0.181 A 
HETATM    8  O1  UNL     1      -1.602  -0.791  -3.982  1.00  0.00    -0.188 OA
HETATM    9  C4  UNL     1       1.885  -1.773  -3.611  1.00  0.00     0.158 A 
HETATM   10  O2  UNL     1       0.482  -1.670  -5.508  1.00  0.00    -0.186 OA
HETATM   11  C3  UNL     1       2.049  -1.592  -2.227  1.00  0.00     0.035 A 
HETATM   12  O3  UNL     1       2.894  -2.197  -4.342  1.00  0.00    -0.188 OA
ENDBRANCH   2   4
ENDBRANCH   1   2
BRANCH   1  13
HETATM   13  C8  UNL     1       0.338  -0.266   2.055  1.00  0.00     0.278 C 
HETATM   14  O5  UNL     1      -0.877  -0.209   2.807  1.00  0.00    -0.302 OA
HETATM   15  C9  UNL     1      -1.764   0.869   2.506  1.00  0.00     0.272 C 
HETATM   16  C10 UNL     1      -1.063   2.244   2.662  1.00  0.00     0.241 C 
HETATM   17  C11 UNL     1       0.318   2.314   1.965  1.00  0.00     0.223 C 
HETATM   18  O8  UNL     1      -0.891   2.514   4.041  1.00  0.00    -0.215 OA
HETATM   19  C12 UNL     1       1.158   1.037   2.207  1.00  0.00     0.241 C 
HETATM   20  O7  UNL     1       0.117   2.463   0.572  1.00  0.00    -0.218 OA
HETATM   21  O6  UNL     1       1.715   1.086   3.508  1.00  0.00    -0.215 OA
BRANCH  15  22
HETATM   22  O9  UNL     1      -2.336   0.752   1.217  1.00  0.00    -0.326 OA
HETATM   23  C13 UNL     1      -3.094  -0.424   1.049  1.00  0.00     0.177 C 
ENDBRANCH  15  22
ENDBRANCH   1  13
TORSDOF 4
