REMARK  0 active torsions:
REMARK  status: ('A' for Active; 'I' for Inactive)
ROOT
HETATM    1  C1  UNL     1       3.344   2.535   0.082  1.00  0.00    -0.000 A 
HETATM    2  C2  UNL     1       4.367   1.615   0.404  1.00  0.00    -0.004 A 
HETATM    3  C3  UNL     1       4.064   0.248   0.617  1.00  0.00    -0.022 A 
HETATM    4  C4  UNL     1       2.717  -0.201   0.504  1.00  0.00    -0.002 A 
HETATM    5  C5  UNL     1       1.680   0.732   0.178  1.00  0.00     0.023 A 
HETATM    6  C6  UNL     1       2.006   2.098  -0.033  1.00  0.00     0.002 A 
HETATM    7  C7  UNL     1       0.332   0.293   0.066  1.00  0.00     0.103 A 
HETATM    8  C8  UNL     1       0.025  -1.076   0.279  1.00  0.00     0.061 A 
HETATM    9  C9  UNL     1       1.045  -2.004   0.600  1.00  0.00     0.005 A 
HETATM   10  C10 UNL     1       2.385  -1.568   0.713  1.00  0.00    -0.000 A 
HETATM   11  C11 UNL     1      -1.389  -1.522   0.162  1.00  0.00     0.196 A 
HETATM   12  C12 UNL     1      -2.367  -0.455  -0.166  1.00  0.00     0.047 A 
HETATM   13  C13 UNL     1      -1.955   0.822  -0.350  1.00  0.00     0.162 A 
HETATM   14  O1  UNL     1      -0.656   1.164  -0.240  1.00  0.00    -0.302 OA
HETATM   15  C14 UNL     1      -2.947   1.869  -0.686  1.00  0.00     0.319 C 
HETATM   16  O2  UNL     1      -4.266   1.623  -0.609  1.00  0.00    -0.297 OA
HETATM   17  C15 UNL     1      -4.666   0.461   0.123  1.00  0.00     0.157 C 
HETATM   18  C16 UNL     1      -3.842  -0.770  -0.297  1.00  0.00     0.058 C 
HETATM   19  C17 UNL     1      -4.168  -1.207  -1.729  1.00  0.00     0.007 C 
HETATM   20  O3  UNL     1      -2.527   2.947  -1.039  1.00  0.00    -0.257 OA
HETATM   21  O4  UNL     1      -1.811  -2.649   0.305  1.00  0.00    -0.287 OA
HETATM   22  C18 UNL     1       5.166  -0.672   0.951  1.00  0.00     0.031 C 
ENDROOT
TORSDOF 0
