REMARK  1 active torsions:
REMARK  status: ('A' for Active; 'I' for Inactive)
REMARK    1  A    between atoms: C10_10  and  C11_11 
ROOT
HETATM    1  C1  UNL     1      -2.893   0.924  -1.107  1.00  0.00     0.026 C 
HETATM    2  C2  UNL     1      -2.744  -0.596  -0.996  1.00  0.00     0.005 C 
HETATM    3  C3  UNL     1      -1.545  -0.955  -0.111  1.00  0.00     0.004 C 
HETATM    4  C4  UNL     1      -0.234  -0.379  -0.717  1.00  0.00     0.026 C 
HETATM    5  C5  UNL     1      -0.369   1.101  -1.078  1.00  0.00     0.008 C 
HETATM    6  C6  UNL     1      -1.584   1.664  -1.277  1.00  0.00    -0.028 C 
HETATM    7  C7  UNL     1       0.858   1.930  -1.219  1.00  0.00     0.171 C 
HETATM    8  C8  UNL     1       2.141   1.510  -0.535  1.00  0.00     0.102 C 
HETATM    9  C9  UNL     1       2.254  -0.010  -0.354  1.00  0.00     0.162 C 
HETATM   10  C10 UNL     1       0.965  -0.604   0.248  1.00  0.00     0.063 C 
HETATM   11  O2  UNL     1       3.361  -0.303   0.479  1.00  0.00    -0.223 OA
HETATM   12  O3  UNL     1       0.840   2.947  -1.873  1.00  0.00    -0.292 OA
HETATM   13  C14 UNL     1       0.051  -1.108  -2.041  1.00  0.00     0.005 C 
HETATM   14  C15 UNL     1      -1.469  -2.471   0.115  1.00  0.00     0.000 C 
ENDROOT
BRANCH  10  15
HETATM   15  C11 UNL     1       0.688  -0.043   1.654  1.00  0.00     0.130 C 
HETATM   16  O1  UNL     1      -0.141  -1.047   2.197  1.00  0.00    -0.226 OA
HETATM   17  C12 UNL     1       1.951   0.051   2.510  1.00  0.00     0.033 C 
HETATM   18  C13 UNL     1      -0.103   1.264   1.623  1.00  0.00     0.033 C 
ENDBRANCH  10  15
TORSDOF 1
