REMARK  7 active torsions:
REMARK  status: ('A' for Active; 'I' for Inactive)
REMARK    1  A    between atoms: C4_4  and  O3_9 
REMARK    2  A    between atoms: C5_6  and  C6_7 
REMARK    3  A    between atoms: O3_9  and  C7_10 
REMARK    4  A    between atoms: C7_10  and  C8_11 
REMARK    5  A    between atoms: C12_15  and  O5_17 
REMARK    6  A    between atoms: O5_17  and  C13_18 
REMARK    7  A    between atoms: C13_18  and  C14_19 
ROOT
HETATM    1  C8  UNL     1       0.592  -1.961   1.430  1.00  0.00     0.180 C 
HETATM    2  C9  UNL     1       0.764  -2.420   2.896  1.00  0.00     0.215 C 
HETATM    3  C10 UNL     1       2.057  -1.844   3.518  1.00  0.00     0.220 C 
HETATM    4  C11 UNL     1       2.115  -0.316   3.291  1.00  0.00     0.241 C 
HETATM    5  C12 UNL     1       1.863   0.037   1.805  1.00  0.00     0.270 C 
HETATM    6  O4  UNL     1       0.641  -0.543   1.371  1.00  0.00    -0.326 OA
HETATM    7  O6  UNL     1       3.391   0.166   3.680  1.00  0.00    -0.215 OA
HETATM    8  O7  UNL     1       2.090  -2.127   4.906  1.00  0.00    -0.218 OA
HETATM    9  O8  UNL     1       0.805  -3.836   2.928  1.00  0.00    -0.218 OA
ENDROOT
BRANCH   1  10
HETATM   10  C7  UNL     1      -0.750  -2.383   0.826  1.00  0.00     0.177 C 
BRANCH  10  11
HETATM   11  O3  UNL     1      -0.734  -2.066  -0.547  1.00  0.00    -0.326 OA
BRANCH  11  12
HETATM   12  C4  UNL     1      -1.951  -2.367  -1.201  1.00  0.00     0.270 C 
HETATM   13  C3  UNL     1      -1.949  -1.795  -2.643  1.00  0.00     0.241 C 
HETATM   14  C2  UNL     1      -3.205  -2.248  -3.422  1.00  0.00     0.220 C 
HETATM   15  O9  UNL     1      -1.920  -0.377  -2.582  1.00  0.00    -0.215 OA
HETATM   16  C1  UNL     1      -3.373  -3.779  -3.305  1.00  0.00     0.215 C 
HETATM   17  O10 UNL     1      -3.082  -1.879  -4.787  1.00  0.00    -0.218 OA
HETATM   18  C5  UNL     1      -3.309  -4.242  -1.832  1.00  0.00     0.184 C 
HETATM   19  O11 UNL     1      -4.621  -4.168  -3.850  1.00  0.00    -0.218 OA
HETATM   20  O1  UNL     1      -2.100  -3.781  -1.246  1.00  0.00    -0.326 OA
BRANCH  18  21
HETATM   21  C6  UNL     1      -3.316  -5.766  -1.686  1.00  0.00     0.214 C 
HETATM   22  O2  UNL     1      -3.424  -6.076  -0.315  1.00  0.00    -0.218 OA
ENDBRANCH  18  21
ENDBRANCH  11  12
ENDBRANCH  10  11
ENDBRANCH   1  10
BRANCH   5  23
HETATM   23  O5  UNL     1       1.775   1.438   1.637  1.00  0.00    -0.325 OA
BRANCH  23  24
HETATM   24  C13 UNL     1       1.734   1.834   0.283  1.00  0.00     0.167 C 
BRANCH  24  25
HETATM   25  C14 UNL     1       1.756   3.342   0.199  1.00  0.00    -0.023 C 
HETATM   26  C15 UNL     1       2.934   4.004   0.268  1.00  0.00    -0.050 C 
HETATM   27  C16 UNL     1       4.236   3.254   0.402  1.00  0.00     0.026 C 
HETATM   28  C17 UNL     1       3.023   5.516   0.215  1.00  0.00     0.021 C 
HETATM   29  C18 UNL     1       1.750   6.186  -0.311  1.00  0.00     0.005 C 
HETATM   30  C19 UNL     1       0.518   5.559   0.346  1.00  0.00     0.004 C 
HETATM   31  C20 UNL     1       0.420   4.053   0.031  1.00  0.00     0.017 C 
HETATM   32  C21 UNL     1      -0.023   3.860  -1.424  1.00  0.00     0.004 C 
HETATM   33  C22 UNL     1      -0.629   3.420   0.953  1.00  0.00     0.004 C 
ENDBRANCH  24  25
ENDBRANCH  23  24
ENDBRANCH   5  23
TORSDOF 7
