REMARK  7 active torsions:
REMARK  status: ('A' for Active; 'I' for Inactive)
REMARK    1  A    between atoms: C4_4  and  C7_7 
REMARK    2  A    between atoms: C7_7  and  C8_8 
REMARK    3  A    between atoms: C8_8  and  C9_9 
REMARK    4  A    between atoms: C8_8  and  C13_14 
REMARK    5  A    between atoms: C9_9  and  C10_10 
REMARK    6  A    between atoms: C13_14  and  C14_15 
REMARK    7  A    between atoms: C14_15  and  C15_16 
ROOT
HETATM    1  C8  UNL     1      -0.565  -0.033  -0.295  1.00  0.00     0.030 C 
ENDROOT
BRANCH   1   2
HETATM    2  C7  UNL     1       0.084   0.193  -1.660  1.00  0.00     0.034 C 
BRANCH   2   3
HETATM    3  C4  UNL     1       1.330   1.037  -1.570  1.00  0.00     0.012 A 
HETATM    4  C3  UNL     1       2.699   0.519  -1.647  1.00  0.00     0.177 A 
HETATM    5  C2  UNL     1       3.676   1.666  -1.518  1.00  0.00     0.137 A 
HETATM    6  O3  UNL     1       3.002  -0.643  -1.789  1.00  0.00    -0.291 OA
HETATM    7  C1  UNL     1       2.738   2.842  -1.365  1.00  0.00     0.177 A 
HETATM    8  C5  UNL     1       1.351   2.367  -1.410  1.00  0.00     0.012 A 
HETATM    9  O4  UNL     1       3.080   3.994  -1.227  1.00  0.00    -0.291 OA
HETATM   10  C6  UNL     1       0.137   3.248  -1.295  1.00  0.00     0.034 C 
ENDBRANCH   2   3
ENDBRANCH   1   2
BRANCH   1  11
HETATM   11  C9  UNL     1      -1.893  -0.734  -0.398  1.00  0.00     0.013 C 
HETATM   12  C12 UNL     1      -1.908  -2.020  -0.789  1.00  0.00    -0.002 C 
BRANCH  11  13
HETATM   13  C10 UNL     1      -3.143  -0.033  -0.084  1.00  0.00     0.170 C 
HETATM   14  C11 UNL     1      -4.348  -0.846   0.303  1.00  0.00     0.077 C 
HETATM   15  O1  UNL     1      -3.195   1.174  -0.133  1.00  0.00    -0.292 OA
ENDBRANCH  11  13
ENDBRANCH   1  11
BRANCH   1  16
HETATM   16  C13 UNL     1       0.377  -0.713   0.701  1.00  0.00     0.013 C 
BRANCH  16  17
HETATM   17  C14 UNL     1      -0.240  -0.858   2.094  1.00  0.00     0.065 C 
BRANCH  17  18
HETATM   18  C15 UNL     1       0.738  -1.397   3.102  1.00  0.00     0.151 C 
HETATM   19  C16 UNL     1       1.303  -2.772   2.873  1.00  0.00     0.072 C 
HETATM   20  O2  UNL     1       1.060  -0.742   4.066  1.00  0.00    -0.296 OA
ENDBRANCH  17  18
ENDBRANCH  16  17
ENDBRANCH   1  16
TORSDOF 7
