REMARK  11 active torsions:
REMARK  status: ('A' for Active; 'I' for Inactive)
REMARK    1  A    between atoms: C3_3  and  C7_7 
REMARK    2  A    between atoms: C7_7  and  C8_8 
REMARK    3  A    between atoms: C8_8  and  N1_9 
REMARK    4  A    between atoms: C8_8  and  C25_29 
REMARK       I    between atoms: N1_9  and  C9_10 
REMARK    5  A    between atoms: C9_10  and  C10_11 
REMARK    6  A    between atoms: C10_11  and  N2_12 
REMARK    7  A    between atoms: C10_11  and  C18_21 
REMARK       I    between atoms: N2_12  and  C11_13 
REMARK    8  A    between atoms: C11_13  and  C12_14 
REMARK    9  A    between atoms: C18_21  and  C19_22 
REMARK   10  A    between atoms: C25_29  and  O3_30 
REMARK   11  A    between atoms: O3_30  and  C26_31 
ROOT
HETATM    1  C10 UNL     1      -0.863   0.551  -0.914  1.00  0.00     0.191 C 
ENDROOT
BRANCH   1   2
HETATM    2  C9  UNL     1       0.492   0.447  -0.268  1.00  0.00     0.274 C 
HETATM    3  N1  UNL     1       0.560   0.281   1.088  1.00  0.00    -0.235 NA
HETATM    4  O2  UNL     1       1.502   0.506  -0.926  1.00  0.00    -0.268 OA
BRANCH   3   5
HETATM    5  C8  UNL     1       1.877   0.178   1.736  1.00  0.00     0.141 C 
BRANCH   5   6
HETATM    6  C7  UNL     1       1.984  -1.107   2.555  1.00  0.00     0.053 C 
BRANCH   6   7
HETATM    7  C3  UNL     1       1.926  -2.315   1.689  1.00  0.00    -0.020 A 
HETATM    8  C2  UNL     1       0.703  -2.979   1.488  1.00  0.00    -0.004 A 
HETATM    9  C1  UNL     1       0.648  -4.119   0.670  1.00  0.00    -0.000 A 
HETATM   10  C6  UNL     1       1.818  -4.600   0.053  1.00  0.00    -0.000 A 
HETATM   11  C5  UNL     1       3.041  -3.938   0.256  1.00  0.00    -0.000 A 
HETATM   12  C4  UNL     1       3.096  -2.795   1.074  1.00  0.00    -0.004 A 
ENDBRANCH   6   7
ENDBRANCH   5   6
BRANCH   5  13
HETATM   13  C25 UNL     1       2.182   1.430   2.558  1.00  0.00     0.176 C 
BRANCH  13  14
HETATM   14  O3  UNL     1       2.185   2.566   1.707  1.00  0.00    -0.300 OA
BRANCH  14  15
HETATM   15  C26 UNL     1       2.457   3.691   2.365  1.00  0.00     0.273 C 
HETATM   16  O4  UNL     1       2.680   3.740   3.553  1.00  0.00    -0.264 OA
HETATM   17  C27 UNL     1       2.471   4.938   1.523  1.00  0.00     0.106 C 
ENDBRANCH  14  15
ENDBRANCH  13  14
ENDBRANCH   5  13
ENDBRANCH   3   5
ENDBRANCH   1   2
BRANCH   1  18
HETATM   18  N2  UNL     1      -1.567  -0.740  -0.908  1.00  0.00    -0.226 NA
HETATM   19  C11 UNL     1      -2.871  -0.793  -0.508  1.00  0.00     0.275 C 
HETATM   20  O1  UNL     1      -3.444   0.215  -0.164  1.00  0.00    -0.266 OA
BRANCH  19  21
HETATM   21  C12 UNL     1      -3.570  -2.111  -0.508  1.00  0.00     0.058 A 
HETATM   22  C13 UNL     1      -4.977  -2.164  -0.508  1.00  0.00     0.005 A 
HETATM   23  C14 UNL     1      -5.635  -3.406  -0.508  1.00  0.00     0.000 A 
HETATM   24  C15 UNL     1      -4.889  -4.598  -0.508  1.00  0.00     0.000 A 
HETATM   25  C16 UNL     1      -3.483  -4.547  -0.508  1.00  0.00     0.000 A 
HETATM   26  C17 UNL     1      -2.824  -3.305  -0.508  1.00  0.00     0.005 A 
ENDBRANCH  19  21
ENDBRANCH   1  18
BRANCH   1  27
HETATM   27  C18 UNL     1      -0.793   1.129  -2.326  1.00  0.00     0.060 C 
BRANCH  27  28
HETATM   28  C19 UNL     1      -0.221   2.502  -2.328  1.00  0.00    -0.020 A 
HETATM   29  C20 UNL     1       1.045   2.736  -2.895  1.00  0.00    -0.004 A 
HETATM   30  C21 UNL     1       1.586   4.033  -2.897  1.00  0.00    -0.000 A 
HETATM   31  C22 UNL     1       0.861   5.098  -2.330  1.00  0.00    -0.000 A 
HETATM   32  C23 UNL     1      -0.402   4.863  -1.764  1.00  0.00    -0.000 A 
HETATM   33  C24 UNL     1      -0.944   3.566  -1.762  1.00  0.00    -0.004 A 
ENDBRANCH  27  28
ENDBRANCH   1  27
TORSDOF 11
