REMARK  9 active torsions:
REMARK  status: ('A' for Active; 'I' for Inactive)
REMARK    1  A    between atoms: C1_1  and  C12_20 
REMARK    2  A    between atoms: C4_4  and  C5_6 
REMARK    3  A    between atoms: C5_6  and  O2_7 
REMARK    4  A    between atoms: O2_7  and  C6_8 
REMARK    5  A    between atoms: C6_8  and  C7_10 
REMARK    6  A    between atoms: C7_10  and  C8_11 
REMARK    7  A    between atoms: C8_11  and  C9_13 
REMARK    8  A    between atoms: C8_11  and  C11_17 
REMARK    9  A    between atoms: C9_13  and  C10_14 
ROOT
HETATM    1  C6  UNL     1       0.435   1.499   0.007  1.00  0.00     0.275 C 
HETATM    2  O3  UNL     1       1.431   2.113   0.311  1.00  0.00    -0.264 OA
ENDROOT
BRANCH   1   3
HETATM    3  O2  UNL     1      -0.320   0.835   0.877  1.00  0.00    -0.295 OA
BRANCH   3   4
HETATM    4  C5  UNL     1       0.175   0.929   2.205  1.00  0.00     0.203 C 
BRANCH   4   5
HETATM    5  C4  UNL     1      -0.731   0.154   3.137  1.00  0.00     0.108 A 
HETATM    6  C3  UNL     1      -0.567   0.016   4.522  1.00  0.00     0.025 A 
HETATM    7  C2  UNL     1      -1.629  -0.776   4.960  1.00  0.00     0.030 A 
HETATM    8  C1  UNL     1      -2.363  -1.061   3.806  1.00  0.00     0.142 A 
HETATM    9  O1  UNL     1      -1.836  -0.506   2.679  1.00  0.00    -0.306 OA
BRANCH   8  10
HETATM   10  C12 UNL     1      -3.577  -1.853   3.673  1.00  0.00     0.259 C 
HETATM   11  O9  UNL     1      -4.078  -2.364   4.647  1.00  0.00    -0.281 OA
ENDBRANCH   8  10
ENDBRANCH   4   5
ENDBRANCH   3   4
ENDBRANCH   1   3
BRANCH   1  12
HETATM   12  C7  UNL     1      -0.033   1.440  -1.422  1.00  0.00     0.137 C 
BRANCH  12  13
HETATM   13  C8  UNL     1       0.633   0.311  -2.209  1.00  0.00     0.223 C 
HETATM   14  O4  UNL     1       0.251  -0.916  -1.630  1.00  0.00    -0.214 OA
BRANCH  13  15
HETATM   15  C9  UNL     1       0.220   0.294  -3.681  1.00  0.00     0.139 C 
BRANCH  15  16
HETATM   16  C10 UNL     1       0.844  -0.847  -4.439  1.00  0.00     0.188 C 
HETATM   17  O5  UNL     1       0.349  -1.949  -4.424  1.00  0.00    -0.647 OA
HETATM   18  O6  UNL     1       1.954  -0.543  -5.107  1.00  0.00    -0.647 OA
ENDBRANCH  15  16
ENDBRANCH  13  15
BRANCH  13  19
HETATM   19  C11 UNL     1       2.135   0.420  -2.209  1.00  0.00     0.215 C 
HETATM   20  O7  UNL     1       2.680   1.498  -2.209  1.00  0.00    -0.646 OA
HETATM   21  O8  UNL     1       2.785  -0.740  -2.209  1.00  0.00    -0.646 OA
ENDBRANCH  13  19
ENDBRANCH  12  13
ENDBRANCH   1  12
TORSDOF 9
