REMARK  4 active torsions:
REMARK  status: ('A' for Active; 'I' for Inactive)
REMARK    1  A    between atoms: C4_4  and  O3_9 
REMARK    2  A    between atoms: C5_6  and  C6_7 
REMARK    3  A    between atoms: O3_9  and  C7_10 
REMARK    4  A    between atoms: C10_13  and  C13_16 
ROOT
HETATM    1  C1  UNL     1      -2.486   2.416  -0.670  1.00  0.00     0.215 C 
HETATM    2  C2  UNL     1      -1.447   3.484  -0.262  1.00  0.00     0.220 C 
HETATM    3  C3  UNL     1      -0.029   2.992  -0.623  1.00  0.00     0.241 C 
HETATM    4  C4  UNL     1       0.227   1.572  -0.078  1.00  0.00     0.274 C 
HETATM    5  O1  UNL     1      -0.787   0.691  -0.543  1.00  0.00    -0.326 OA
HETATM    6  C5  UNL     1      -2.106   1.020  -0.123  1.00  0.00     0.184 C 
HETATM    7  O5  UNL     1       0.939   3.867  -0.074  1.00  0.00    -0.215 OA
HETATM    8  O6  UNL     1      -1.721   4.703  -0.934  1.00  0.00    -0.218 OA
HETATM    9  O7  UNL     1      -3.762   2.768  -0.164  1.00  0.00    -0.218 OA
ENDROOT
BRANCH   4  10
HETATM   10  O3  UNL     1       1.488   1.096  -0.525  1.00  0.00    -0.304 OA
BRANCH  10  11
HETATM   11  C7  UNL     1       1.814  -0.150  -0.248  1.00  0.00     0.097 A 
HETATM   12  C8  UNL     1       2.734  -0.838  -1.059  1.00  0.00     0.024 A 
HETATM   13  C9  UNL     1       3.082  -2.166  -0.764  1.00  0.00     0.005 A 
HETATM   14  C10 UNL     1       2.510  -2.814   0.346  1.00  0.00     0.035 A 
HETATM   15  C11 UNL     1       1.588  -2.129   1.158  1.00  0.00     0.005 A 
HETATM   16  C12 UNL     1       1.242  -0.799   0.861  1.00  0.00     0.024 A 
BRANCH  14  17
HETATM   17  C13 UNL     1       2.879  -4.227   0.660  1.00  0.00     0.173 C 
HETATM   18  O4  UNL     1       3.668  -4.830  -0.027  1.00  0.00    -0.291 OA
HETATM   19  C14 UNL     1       2.240  -4.875   1.858  1.00  0.00     0.077 C 
ENDBRANCH  14  17
ENDBRANCH  10  11
ENDBRANCH   4  10
BRANCH   6  20
HETATM   20  C6  UNL     1      -3.022  -0.094  -0.639  1.00  0.00     0.214 C 
HETATM   21  O2  UNL     1      -2.697  -1.283   0.043  1.00  0.00    -0.218 OA
ENDBRANCH   6  20
TORSDOF 4
