REMARK  12 active torsions:
REMARK  status: ('A' for Active; 'I' for Inactive)
REMARK    1  A    between atoms: C3_3  and  C17_23 
REMARK    2  A    between atoms: C5_5  and  O2_8 
REMARK    3  A    between atoms: O2_8  and  C7_9 
REMARK    4  A    between atoms: C7_9  and  C8_10 
REMARK    5  A    between atoms: C8_10  and  O4_12 
REMARK    6  A    between atoms: C10_14  and  C11_15 
REMARK    7  A    between atoms: C18_24  and  C19_25 
REMARK    8  A    between atoms: C19_25  and  O7_26 
REMARK    9  A    between atoms: O7_26  and  C20_27 
REMARK   10  A    between atoms: C20_27  and  C21_28 
REMARK   11  A    between atoms: C20_27  and  C28_37 
REMARK   12  A    between atoms: C21_28  and  C22_29 
ROOT
HETATM    1  C1  UNL     1      -2.834  -0.621   4.373  1.00  0.00     0.029 A 
HETATM    2  C2  UNL     1      -1.830  -1.502   3.935  1.00  0.00     0.002 A 
HETATM    3  C3  UNL     1      -1.074  -1.195   2.791  1.00  0.00     0.002 A 
HETATM    4  C4  UNL     1      -1.328  -0.008   2.084  1.00  0.00     0.027 A 
HETATM    5  C5  UNL     1      -2.334   0.875   2.517  1.00  0.00     0.125 A 
HETATM    6  C6  UNL     1      -3.088   0.568   3.666  1.00  0.00     0.154 A 
HETATM    7  O1  UNL     1      -4.031   1.389   4.082  1.00  0.00    -0.188 OA
ENDROOT
BRANCH   3   8
HETATM    8  C17 UNL     1      -0.008  -2.131   2.324  1.00  0.00     0.005 C 
HETATM    9  C18 UNL     1       0.367  -2.088   1.035  1.00  0.00     0.068 C 
BRANCH   9  10
HETATM   10  C19 UNL     1       1.414  -2.986   0.531  1.00  0.00     0.296 C 
HETATM   11  O12 UNL     1       1.951  -3.777   1.271  1.00  0.00    -0.259 OA
BRANCH  10  12
HETATM   12  O7  UNL     1       1.709  -2.863  -0.760  1.00  0.00    -0.290 OA
BRANCH  12  13
HETATM   13  C20 UNL     1       2.689  -3.799  -1.182  1.00  0.00     0.215 C 
BRANCH  13  14
HETATM   14  C21 UNL     1       3.184  -3.424  -2.580  1.00  0.00     0.068 C 
BRANCH  14  15
HETATM   15  C22 UNL     1       3.881  -2.109  -2.580  1.00  0.00    -0.017 A 
HETATM   16  C23 UNL     1       5.285  -2.059  -2.580  1.00  0.00    -0.002 A 
HETATM   17  C24 UNL     1       5.941  -0.816  -2.580  1.00  0.00     0.029 A 
HETATM   18  C25 UNL     1       5.197   0.377  -2.580  1.00  0.00     0.156 A 
HETATM   19  C26 UNL     1       3.791   0.326  -2.580  1.00  0.00     0.156 A 
HETATM   20  O9  UNL     1       5.820   1.539  -2.580  1.00  0.00    -0.188 OA
HETATM   21  C27 UNL     1       3.135  -0.918  -2.580  1.00  0.00     0.025 A 
HETATM   22  O8  UNL     1       3.086   1.440  -2.580  1.00  0.00    -0.188 OA
ENDBRANCH  14  15
ENDBRANCH  13  14
BRANCH  13  23
HETATM   23  C28 UNL     1       2.115  -5.187  -1.131  1.00  0.00     0.215 C 
HETATM   24  O10 UNL     1       2.869  -6.090  -0.510  1.00  0.00    -0.646 OA
HETATM   25  O11 UNL     1       1.041  -5.436  -1.627  1.00  0.00    -0.646 OA
ENDBRANCH  13  23
ENDBRANCH  12  13
ENDBRANCH  10  12
ENDBRANCH   9  10
ENDBRANCH   3   8
BRANCH   5  26
HETATM   26  O2  UNL     1      -2.565   1.988   1.851  1.00  0.00    -0.300 OA
BRANCH  26  27
HETATM   27  C7  UNL     1      -1.563   2.568   1.197  1.00  0.00     0.163 C 
HETATM   28  C10 UNL     1      -1.740   3.022  -0.055  1.00  0.00     0.030 C 
BRANCH  27  29
HETATM   29  C8  UNL     1      -0.264   2.705   1.865  1.00  0.00     0.319 C 
HETATM   30  O3  UNL     1       0.754   2.774   1.217  1.00  0.00    -0.257 OA
BRANCH  29  31
HETATM   31  O4  UNL     1      -0.299   2.748   3.193  1.00  0.00    -0.294 OA
HETATM   32  C9  UNL     1       0.994   2.871   3.766  1.00  0.00     0.185 C 
ENDBRANCH  29  31
ENDBRANCH  27  29
BRANCH  28  33
HETATM   33  C11 UNL     1      -3.080   2.860  -0.693  1.00  0.00     0.004 A 
HETATM   34  C12 UNL     1      -4.250   3.078   0.057  1.00  0.00     0.002 A 
HETATM   35  C13 UNL     1      -5.510   2.926  -0.547  1.00  0.00     0.029 A 
HETATM   36  C14 UNL     1      -5.606   2.553  -1.901  1.00  0.00     0.156 A 
HETATM   37  C15 UNL     1      -4.436   2.332  -2.651  1.00  0.00     0.156 A 
HETATM   38  O6  UNL     1      -6.791   2.410  -2.459  1.00  0.00    -0.188 OA
HETATM   39  C16 UNL     1      -3.176   2.486  -2.047  1.00  0.00     0.030 A 
HETATM   40  O5  UNL     1      -4.518   1.983  -3.920  1.00  0.00    -0.188 OA
ENDBRANCH  28  33
ENDBRANCH  26  27
ENDBRANCH   5  26
TORSDOF 12
