REMARK  2 active torsions:
REMARK  status: ('A' for Active; 'I' for Inactive)
REMARK    1  A    between atoms: C8_8  and  C9_10 
REMARK    2  A    between atoms: C12_14  and  C15_19 
ROOT
HETATM    1  C1  UNL     1       1.940   2.270  -0.816  1.00  0.00     0.094 A 
HETATM    2  C2  UNL     1       1.111   3.303  -1.312  1.00  0.00     0.051 A 
HETATM    3  C3  UNL     1      -0.271   3.117  -1.498  1.00  0.00     0.138 A 
HETATM    4  C4  UNL     1      -0.857   1.871  -1.176  1.00  0.00     0.085 A 
HETATM    5  C5  UNL     1      -0.055   0.820  -0.631  1.00  0.00     0.097 A 
HETATM    6  C6  UNL     1       1.342   1.047  -0.484  1.00  0.00     0.025 A 
HETATM    7  C7  UNL     1       2.416   0.117   0.025  1.00  0.00     0.065 A 
HETATM    8  C8  UNL     1       3.699   0.996  -0.111  1.00  0.00     0.144 A 
HETATM    9  O1  UNL     1       3.254   2.275  -0.598  1.00  0.00    -0.329 OA
HETATM   10  O2  UNL     1      -0.660  -0.336  -0.287  1.00  0.00    -0.326 OA
HETATM   11  C12 UNL     1      -2.057  -0.397   0.014  1.00  0.00     0.181 C 
HETATM   12  C13 UNL     1      -2.863   0.273  -1.115  1.00  0.00     0.245 C 
HETATM   13  C14 UNL     1      -2.316   1.656  -1.424  1.00  0.00     0.210 C 
HETATM   14  O3  UNL     1      -3.094   2.482  -1.852  1.00  0.00    -0.288 OA
HETATM   15  O4  UNL     1      -4.229   0.342  -0.734  1.00  0.00    -0.212 OA
HETATM   16  O6  UNL     1      -1.006   4.127  -1.986  1.00  0.00    -0.190 OA
ENDROOT
BRANCH  11  17
HETATM   17  C15 UNL     1      -2.420  -1.826   0.231  1.00  0.00     0.008 A 
HETATM   18  C16 UNL     1      -3.109  -2.209   1.395  1.00  0.00     0.000 A 
HETATM   19  C17 UNL     1      -3.451  -3.557   1.598  1.00  0.00     0.027 A 
HETATM   20  C18 UNL     1      -3.107  -4.526   0.639  1.00  0.00     0.131 A 
HETATM   21  C19 UNL     1      -2.418  -4.141  -0.525  1.00  0.00     0.027 A 
HETATM   22  O5  UNL     1      -3.430  -5.789   0.830  1.00  0.00    -0.190 OA
HETATM   23  C20 UNL     1      -2.074  -2.793  -0.730  1.00  0.00     0.000 A 
ENDBRANCH  11  17
BRANCH   8  24
HETATM   24  C9  UNL     1       4.457   1.182   1.178  1.00  0.00    -0.017 C 
HETATM   25  C10 UNL     1       5.746   0.809   1.225  1.00  0.00    -0.007 C 
HETATM   26  C11 UNL     1       3.834   1.768   2.418  1.00  0.00     0.029 C 
ENDBRANCH   8  24
TORSDOF 2
