REMARK  3 active torsions:
REMARK  status: ('A' for Active; 'I' for Inactive)
REMARK    1  A    between atoms: C1_1  and  C2_2 
REMARK    2  A    between atoms: C3_3  and  C4_4 
REMARK    3  A    between atoms: C5_5  and  O1_10 
ROOT
HETATM    1  C4  UNL     1      -0.168  -0.244  -0.025  1.00  0.00     0.022 A 
HETATM    2  C5  UNL     1       1.242  -0.191  -0.025  1.00  0.00     0.094 A 
HETATM    3  C6  UNL     1       1.982  -1.387  -0.025  1.00  0.00     0.024 A 
HETATM    4  C7  UNL     1       1.326  -2.627  -0.025  1.00  0.00     0.002 A 
HETATM    5  C8  UNL     1      -0.078  -2.678  -0.025  1.00  0.00     0.000 A 
HETATM    6  C9  UNL     1      -0.824  -1.488  -0.025  1.00  0.00     0.002 A 
ENDROOT
BRANCH   1   7
HETATM    7  C3  UNL     1      -0.971   1.016  -0.025  1.00  0.00     0.008 C 
HETATM    8  C2  UNL     1      -2.311   0.926  -0.025  1.00  0.00     0.070 C 
BRANCH   8   9
HETATM    9  C1  UNL     1      -3.143   2.135  -0.025  1.00  0.00     0.211 C 
HETATM   10  O2  UNL     1      -2.631   3.231  -0.025  1.00  0.00    -0.644 OA
HETATM   11  O3  UNL     1      -4.457   1.932  -0.025  1.00  0.00    -0.644 OA
ENDBRANCH   8   9
ENDBRANCH   1   7
BRANCH   2  12
HETATM   12  O1  UNL     1       1.873   0.967  -0.025  1.00  0.00    -0.328 OA
HETATM   13  C10 UNL     1       3.285   0.957   0.117  1.00  0.00     0.181 C 
ENDBRANCH   2  12
TORSDOF 3
