REMARK  2 active torsions:
REMARK  status: ('A' for Active; 'I' for Inactive)
REMARK    1  A    between atoms: C15_17  and  C18_20 
REMARK    2  A    between atoms: C21_23  and  C22_25 
ROOT
HETATM    1  C1  UNL     1       5.264  -0.252  -0.809  1.00  0.00     0.065 C 
HETATM    2  C2  UNL     1       5.539   1.152  -1.275  1.00  0.00     0.150 C 
HETATM    3  C3  UNL     1       4.709   2.236  -0.623  1.00  0.00     0.054 C 
HETATM    4  C4  UNL     1       3.184   1.908  -0.723  1.00  0.00     0.037 C 
HETATM    5  C5  UNL     1       2.809   0.426  -0.356  1.00  0.00     0.004 C 
HETATM    6  C6  UNL     1       3.785  -0.592  -1.002  1.00  0.00     0.008 C 
HETATM    7  C7  UNL     1       1.358   0.057  -0.828  1.00  0.00     0.007 C 
HETATM    8  C8  UNL     1       0.404   1.287  -0.910  1.00  0.00     0.003 C 
HETATM    9  C9  UNL     1       0.949   2.352  -1.906  1.00  0.00     0.033 C 
HETATM   10  C10 UNL     1       2.490   2.393  -2.020  1.00  0.00     0.152 C 
HETATM   11  O1  UNL     1       2.918   1.617  -3.123  1.00  0.00    -0.224 OA
HETATM   12  C11 UNL     1      -0.990   0.807  -1.412  1.00  0.00     0.007 C 
HETATM   13  C12 UNL     1      -1.576  -0.242  -0.461  1.00  0.00     0.060 C 
HETATM   14  C13 UNL     1      -0.676  -1.449  -0.414  1.00  0.00     0.150 C 
HETATM   15  C14 UNL     1       0.756  -1.145  -0.045  1.00  0.00     0.065 C 
HETATM   16  O2  UNL     1      -1.062  -2.570  -0.654  1.00  0.00    -0.296 OA
HETATM   17  C15 UNL     1      -3.006  -0.437  -0.973  1.00  0.00     0.032 C 
HETATM   18  C16 UNL     1      -3.420   0.992  -1.344  1.00  0.00     0.003 C 
HETATM   19  C17 UNL     1      -2.135   1.826  -1.397  1.00  0.00     0.001 C 
HETATM   20  C26 UNL     1      -0.926   0.223  -2.836  1.00  0.00     0.000 C 
HETATM   21  C27 UNL     1       0.238   1.908   0.488  1.00  0.00     0.000 C 
HETATM   22  C28 UNL     1       2.930   0.293   1.172  1.00  0.00     0.000 C 
HETATM   23  C29 UNL     1       5.139   2.305   0.848  1.00  0.00     0.007 C 
HETATM   24  C30 UNL     1       5.041   3.602  -1.242  1.00  0.00     0.007 C 
HETATM   25  O5  UNL     1       6.371   1.385  -2.123  1.00  0.00    -0.296 OA
ENDROOT
BRANCH  17  26
HETATM   26  C18 UNL     1      -3.916  -1.059   0.082  1.00  0.00     0.093 C 
HETATM   27  C19 UNL     1      -4.203  -0.148   1.275  1.00  0.00     0.030 C 
HETATM   28  C20 UNL     1      -4.389  -1.131   2.439  1.00  0.00     0.035 C 
HETATM   29  C21 UNL     1      -3.898  -2.479   1.898  1.00  0.00     0.143 C 
HETATM   30  O3  UNL     1      -3.260  -2.145   0.689  1.00  0.00    -0.359 OA
HETATM   31  C25 UNL     1      -5.199  -1.555  -0.584  1.00  0.00     0.030 C 
BRANCH  29  32
HETATM   32  C22 UNL     1      -2.908  -3.205   2.801  1.00  0.00     0.152 C 
HETATM   33  O4  UNL     1      -1.812  -2.346   3.016  1.00  0.00    -0.224 OA
HETATM   34  C23 UNL     1      -2.408  -4.471   2.103  1.00  0.00     0.035 C 
HETATM   35  C24 UNL     1      -3.560  -3.496   4.154  1.00  0.00     0.035 C 
ENDBRANCH  29  32
ENDBRANCH  17  26
TORSDOF 2
