REMARK  11 active torsions:
REMARK  status: ('A' for Active; 'I' for Inactive)
REMARK    1  A    between atoms: N1_1  and  C1_2 
REMARK       I    between atoms: N1_1  and  C13_17 
REMARK    2  A    between atoms: C1_2  and  C2_3 
REMARK    3  A    between atoms: C2_3  and  C3_4 
REMARK    4  A    between atoms: C3_4  and  N2_5 
REMARK    5  A    between atoms: N2_5  and  C4_6 
REMARK    6  A    between atoms: C4_6  and  C5_7 
REMARK    7  A    between atoms: C5_7  and  C6_8 
REMARK    8  A    between atoms: C6_8  and  C7_9 
REMARK    9  A    between atoms: C7_9  and  N3_10 
REMARK       I    between atoms: N3_10  and  C8_11 
REMARK   10  A    between atoms: C8_11  and  C9_12 
REMARK   11  A    between atoms: C13_17  and  C14_18 
ROOT
HETATM    1  N2  UNL     1      -0.252   0.688   0.084  1.00  0.00     0.339 N 
ENDROOT
BRANCH   1   2
HETATM    2  C3  UNL     1       0.699   1.785   0.092  1.00  0.00     0.292 C 
BRANCH   2   3
HETATM    3  C2  UNL     1      -0.031   3.129   0.092  1.00  0.00     0.065 C 
BRANCH   3   4
HETATM    4  C1  UNL     1       0.924   4.320   0.092  1.00  0.00     0.131 C 
BRANCH   4   5
HETATM    5  N1  UNL     1       0.183   5.590   0.092  1.00  0.00    -0.234 NA
HETATM    6  C13 UNL     1       0.873   6.770   0.092  1.00  0.00     0.271 C 
HETATM    7  O2  UNL     1       2.082   6.770   0.092  1.00  0.00    -0.266 OA
BRANCH   6   8
HETATM    8  C14 UNL     1       0.131   8.035   0.092  1.00  0.00     0.031 C 
HETATM    9  C15 UNL     1      -1.022   8.152  -0.588  1.00  0.00    -0.025 C 
HETATM   10  C16 UNL     1      -1.744   9.473  -0.555  1.00  0.00     0.030 C 
HETATM   11  C17 UNL     1       0.642   9.231   0.851  1.00  0.00     0.036 C 
ENDBRANCH   6   8
ENDBRANCH   4   5
ENDBRANCH   3   4
ENDBRANCH   2   3
ENDBRANCH   1   2
BRANCH   1  12
HETATM   12  C4  UNL     1       0.441  -0.588   0.055  1.00  0.00     0.290 C 
BRANCH  12  13
HETATM   13  C5  UNL     1      -0.561  -1.742   0.015  1.00  0.00     0.040 C 
BRANCH  13  14
HETATM   14  C6  UNL     1       0.119  -3.111  -0.024  1.00  0.00     0.029 C 
BRANCH  14  15
HETATM   15  C7  UNL     1      -0.883  -4.266  -0.063  1.00  0.00     0.129 C 
BRANCH  15  16
HETATM   16  N3  UNL     1      -0.192  -5.563  -0.100  1.00  0.00    -0.235 NA
HETATM   17  C8  UNL     1      -0.926  -6.715  -0.139  1.00  0.00     0.271 C 
HETATM   18  O1  UNL     1      -2.133  -6.668  -0.141  1.00  0.00    -0.266 OA
BRANCH  17  19
HETATM   19  C9  UNL     1      -0.233  -8.008  -0.176  1.00  0.00     0.031 C 
HETATM   20  C10 UNL     1       0.877  -8.264   0.539  1.00  0.00    -0.025 C 
HETATM   21  C11 UNL     1       1.506  -9.625   0.424  1.00  0.00     0.030 C 
HETATM   22  C12 UNL     1      -0.789  -9.096  -1.053  1.00  0.00     0.036 C 
ENDBRANCH  17  19
ENDBRANCH  15  16
ENDBRANCH  14  15
ENDBRANCH  13  14
ENDBRANCH  12  13
ENDBRANCH   1  12
TORSDOF 11
