REMARK  15 active torsions:
REMARK  status: ('A' for Active; 'I' for Inactive)
REMARK    1  A    between atoms: C5_5  and  C9_10 
REMARK    2  A    between atoms: C7_7  and  O1_8 
REMARK    3  A    between atoms: C9_10  and  C10_11 
REMARK    4  A    between atoms: C10_11  and  C11_12 
REMARK    5  A    between atoms: C11_12  and  C12_13 
REMARK    6  A    between atoms: C12_13  and  C13_14 
REMARK    7  A    between atoms: C13_14  and  C14_15 
REMARK    8  A    between atoms: C14_15  and  C15_16 
REMARK    9  A    between atoms: C15_16  and  C16_17 
REMARK   10  A    between atoms: C16_17  and  C17_18 
REMARK   11  A    between atoms: C17_18  and  C18_19 
REMARK   12  A    between atoms: C18_19  and  C19_20 
REMARK   13  A    between atoms: C19_20  and  C20_21 
REMARK   14  A    between atoms: C20_21  and  C21_22 
REMARK   15  A    between atoms: C25_26  and  O2_28 
ROOT
HETATM    1  C14 UNL     1      -1.965  -1.631   1.322  1.00  0.00     0.000 C 
ENDROOT
BRANCH   1   2
HETATM    2  C13 UNL     1      -2.434  -1.250  -0.082  1.00  0.00     0.000 C 
BRANCH   2   3
HETATM    3  C12 UNL     1      -3.307   0.006  -0.092  1.00  0.00     0.000 C 
BRANCH   3   4
HETATM    4  C11 UNL     1      -2.518   1.277   0.223  1.00  0.00     0.000 C 
BRANCH   4   5
HETATM    5  C10 UNL     1      -3.387   2.533   0.199  1.00  0.00     0.005 C 
BRANCH   5   6
HETATM    6  C9  UNL     1      -3.809   2.934  -1.215  1.00  0.00     0.026 C 
BRANCH   6   7
HETATM    7  C5  UNL     1      -4.598   4.193  -1.215  1.00  0.00    -0.018 A 
HETATM    8  C4  UNL     1      -6.002   4.143  -1.215  1.00  0.00     0.023 A 
HETATM    9  C3  UNL     1      -6.752   5.332  -1.215  1.00  0.00     0.129 A 
HETATM   10  C2  UNL     1      -6.092   6.576  -1.215  1.00  0.00     0.026 A 
HETATM   11  O4  UNL     1      -8.070   5.273  -1.215  1.00  0.00    -0.190 OA
HETATM   12  C1  UNL     1      -6.883   7.838  -1.215  1.00  0.00     0.035 C 
HETATM   13  C7  UNL     1      -4.684   6.629  -1.215  1.00  0.00     0.092 A 
HETATM   14  C6  UNL     1      -3.941   5.436  -1.215  1.00  0.00     0.020 A 
BRANCH  13  15
HETATM   15  O1  UNL     1      -4.059   7.789  -1.215  1.00  0.00    -0.328 OA
HETATM   16  C8  UNL     1      -2.645   7.783  -1.352  1.00  0.00     0.181 C 
ENDBRANCH  13  15
ENDBRANCH   6   7
ENDBRANCH   5   6
ENDBRANCH   4   5
ENDBRANCH   3   4
ENDBRANCH   2   3
ENDBRANCH   1   2
BRANCH   1  17
HETATM   17  C15 UNL     1      -1.260  -2.988   1.359  1.00  0.00     0.000 C 
BRANCH  17  18
HETATM   18  C16 UNL     1       0.086  -2.973   0.635  1.00  0.00     0.000 C 
BRANCH  18  19
HETATM   19  C17 UNL     1       1.145  -2.150   1.371  1.00  0.00     0.000 C 
BRANCH  19  20
HETATM   20  C18 UNL     1       2.520  -2.231   0.709  1.00  0.00     0.000 C 
BRANCH  20  21
HETATM   21  C19 UNL     1       3.576  -1.404   1.443  1.00  0.00     0.005 C 
BRANCH  21  22
HETATM   22  C20 UNL     1       4.941  -1.447   0.756  1.00  0.00     0.026 C 
BRANCH  22  23
HETATM   23  C21 UNL     1       5.522  -2.817   0.775  1.00  0.00    -0.018 A 
HETATM   24  C22 UNL     1       6.084  -3.324   1.959  1.00  0.00     0.023 A 
HETATM   25  C23 UNL     1       6.633  -4.619   1.980  1.00  0.00     0.129 A 
HETATM   26  C24 UNL     1       6.619  -5.404   0.812  1.00  0.00     0.026 A 
HETATM   27  O3  UNL     1       7.158  -5.088   3.096  1.00  0.00    -0.190 OA
HETATM   28  C25 UNL     1       6.057  -4.897  -0.375  1.00  0.00     0.092 A 
HETATM   29  C28 UNL     1       7.199  -6.776   0.832  1.00  0.00     0.035 C 
HETATM   30  C26 UNL     1       5.510  -3.602  -0.389  1.00  0.00     0.020 A 
BRANCH  28  31
HETATM   31  O2  UNL     1       6.039  -5.625  -1.473  1.00  0.00    -0.328 OA
HETATM   32  C27 UNL     1       5.463  -5.061  -2.641  1.00  0.00     0.181 C 
ENDBRANCH  28  31
ENDBRANCH  22  23
ENDBRANCH  21  22
ENDBRANCH  20  21
ENDBRANCH  19  20
ENDBRANCH  18  19
ENDBRANCH  17  18
ENDBRANCH   1  17
TORSDOF 15
