REMARK  0 active torsions:
REMARK  status: ('A' for Active; 'I' for Inactive)
ROOT
HETATM    1  C1  UNL     1      -2.645  -1.338   0.287  1.00  0.00    -0.034 C 
HETATM    2  C2  UNL     1      -3.317  -0.008   0.549  1.00  0.00     0.025 C 
HETATM    3  C3  UNL     1      -2.344   1.104   0.973  1.00  0.00     0.005 C 
HETATM    4  C4  UNL     1      -1.065   1.104   0.115  1.00  0.00     0.004 C 
HETATM    5  C5  UNL     1      -0.369  -0.273   0.297  1.00  0.00     0.018 C 
HETATM    6  C6  UNL     1      -1.307  -1.459   0.158  1.00  0.00    -0.048 C 
HETATM    7  C7  UNL     1      -0.701  -2.810  -0.123  1.00  0.00     0.026 C 
HETATM    8  C8  UNL     1       0.807  -0.281  -0.691  1.00  0.00     0.004 A 
HETATM    9  C9  UNL     1       1.715   0.928  -0.629  1.00  0.00     0.000 A 
HETATM   10  C10 UNL     1       1.387   1.977   0.437  1.00  0.00     0.000 C 
HETATM   11  C11 UNL     1      -0.127   2.266   0.547  1.00  0.00     0.000 C 
HETATM   12  C12 UNL     1       2.254  -0.449  -0.262  1.00  0.00     0.000 A 
HETATM   13  C13 UNL     1       2.559  -0.779   1.197  1.00  0.00     0.000 C 
HETATM   14  C14 UNL     1       3.201  -1.107  -1.256  1.00  0.00     0.000 C 
HETATM   15  C15 UNL     1      -1.461   1.313  -1.359  1.00  0.00     0.000 C 
ENDROOT
TORSDOF 0
