REMARK  0 active torsions:
REMARK  status: ('A' for Active; 'I' for Inactive)
ROOT
HETATM    1  C1  UNL     1       2.199  -0.836   0.762  1.00  0.00     0.132 C 
HETATM    2  C2  UNL     1       2.479   0.504   1.476  1.00  0.00     0.033 C 
HETATM    3  C3  UNL     1       1.236   1.371   1.271  1.00  0.00     0.033 C 
HETATM    4  C4  UNL     1       0.590   0.842  -0.022  1.00  0.00     0.136 C 
HETATM    5  C5  UNL     1       0.754  -0.695   0.158  1.00  0.00     0.090 C 
HETATM    6  C6  UNL     1       0.381  -1.461  -1.147  1.00  0.00     0.186 C 
HETATM    7  C7  UNL     1      -1.088  -1.100  -1.498  1.00  0.00     0.178 C 
HETATM    8  C8  UNL     1      -1.410   0.430  -1.600  1.00  0.00     0.159 C 
HETATM    9  C9  UNL     1      -0.883   1.262  -0.371  1.00  0.00     0.082 C 
HETATM   10  C10 UNL     1      -1.826   1.139   0.859  1.00  0.00     0.152 C 
HETATM   11  O1  UNL     1      -2.467  -0.109   1.058  1.00  0.00    -0.311 OA
HETATM   12  C11 UNL     1      -1.734  -1.299   0.818  1.00  0.00     0.324 C 
HETATM   13  C12 UNL     1      -0.234  -1.244   1.232  1.00  0.00     0.098 C 
HETATM   14  O2  UNL     1      -1.902  -1.736  -0.524  1.00  0.00    -0.309 OA
HETATM   15  O3  UNL     1      -2.377  -2.269   1.621  1.00  0.00    -0.165 OA
HETATM   16  C13 UNL     1      -0.846   2.776  -0.688  1.00  0.00     0.007 C 
HETATM   17  C14 UNL     1      -2.908   0.676  -1.846  1.00  0.00     0.036 C 
HETATM   18  O4  UNL     1      -0.814   0.899  -2.797  1.00  0.00    -0.223 OA
HETATM   19  O5  UNL     1       1.209  -1.203  -2.266  1.00  0.00    -0.221 OA
HETATM   20  O6  UNL     1       1.449   1.315  -1.059  1.00  0.00    -0.226 OA
HETATM   21  C15 UNL     1       2.451  -1.992   1.734  1.00  0.00     0.033 C 
HETATM   22  O7  UNL     1       3.172  -1.016  -0.250  1.00  0.00    -0.226 OA
ENDROOT
TORSDOF 0
