REMARK  6 active torsions:
REMARK  status: ('A' for Active; 'I' for Inactive)
REMARK    1  A    between atoms: C1_1  and  C2_2 
REMARK    2  A    between atoms: C1_1  and  O3_11 
REMARK    3  A    between atoms: C2_2  and  O1_3 
REMARK    4  A    between atoms: O1_3  and  C3_4 
REMARK    5  A    between atoms: O3_11  and  C9_12 
REMARK    6  A    between atoms: C9_12  and  C10_13 
ROOT
HETATM    1  C2  UNL     1       0.086  -0.136   0.038  1.00  0.00     0.244 C 
ENDROOT
BRANCH   1   2
HETATM    2  C1  UNL     1       0.588   1.283   0.038  1.00  0.00     0.303 C 
HETATM    3  O2  UNL     1      -0.182   2.215   0.038  1.00  0.00    -0.261 OA
BRANCH   2   4
HETATM    4  O3  UNL     1       1.911   1.415   0.037  1.00  0.00    -0.295 OA
BRANCH   4   5
HETATM    5  C9  UNL     1       2.319   2.775   0.037  1.00  0.00     0.178 C 
BRANCH   5   6
HETATM    6  C10 UNL     1       3.822   2.848   0.037  1.00  0.00     0.006 C 
HETATM    7  C11 UNL     1       4.407   4.007  -0.308  1.00  0.00    -0.002 C 
ENDBRANCH   5   6
ENDBRANCH   4   5
ENDBRANCH   2   4
ENDBRANCH   1   2
BRANCH   1   8
HETATM    8  O1  UNL     1      -1.334  -0.138   0.039  1.00  0.00    -0.320 OA
BRANCH   8   9
HETATM    9  C3  UNL     1      -1.951  -1.303   0.039  1.00  0.00     0.095 A 
HETATM   10  C4  UNL     1      -3.356  -1.358   0.039  1.00  0.00     0.024 A 
HETATM   11  C5  UNL     1      -4.015  -2.599   0.039  1.00  0.00     0.002 A 
HETATM   12  C6  UNL     1      -3.269  -3.790   0.039  1.00  0.00     0.000 A 
HETATM   13  C7  UNL     1      -1.865  -3.739   0.039  1.00  0.00     0.002 A 
HETATM   14  C8  UNL     1      -1.207  -2.496   0.039  1.00  0.00     0.024 A 
ENDBRANCH   8   9
ENDBRANCH   1   8
TORSDOF 6
