REMARK  3 active torsions:
REMARK  status: ('A' for Active; 'I' for Inactive)
REMARK    1  A    between atoms: C4_4  and  C23_28 
REMARK    2  A    between atoms: C10_10  and  C19_22 
REMARK    3  A    between atoms: C12_13  and  C13_16 
ROOT
HETATM    1  C1  UNL     1      -1.670  -0.361  -0.123  1.00  0.00     0.059 C 
HETATM    2  C2  UNL     1      -2.584   0.275  -1.211  1.00  0.00     0.187 C 
HETATM    3  C3  UNL     1      -2.746   1.803  -0.938  1.00  0.00     0.215 C 
HETATM    4  C4  UNL     1      -1.506   2.754  -1.072  1.00  0.00     0.215 C 
HETATM    5  C5  UNL     1      -0.223   2.295  -0.316  1.00  0.00     0.190 C 
HETATM    6  C6  UNL     1       0.441   0.967  -0.813  1.00  0.00     0.088 C 
HETATM    7  C7  UNL     1      -0.119  -0.402  -0.279  1.00  0.00     0.105 C 
HETATM    8  C8  UNL     1       0.355  -1.561  -1.227  1.00  0.00     0.028 C 
HETATM    9  C9  UNL     1       1.732  -1.256  -1.865  1.00  0.00     0.036 C 
HETATM   10  C10 UNL     1       2.621  -0.410  -0.936  1.00  0.00     0.138 C 
HETATM   11  C11 UNL     1       1.973   0.953  -0.561  1.00  0.00     0.153 C 
HETATM   12  O1  UNL     1       2.127   0.914   0.836  1.00  0.00    -0.309 OA
HETATM   13  C12 UNL     1       1.822  -0.395   1.232  1.00  0.00     0.318 C 
HETATM   14  O2  UNL     1       0.420  -0.645   1.045  1.00  0.00    -0.314 OA
HETATM   15  O3  UNL     1       2.668  -1.065   0.324  1.00  0.00    -0.308 OA
HETATM   16  C22 UNL     1       0.367  -2.949  -0.561  1.00  0.00     0.003 C 
HETATM   17  O4  UNL     1      -0.473   2.271   1.078  1.00  0.00    -0.221 OA
HETATM   18  O5  UNL     1      -1.152   2.908  -2.438  1.00  0.00    -0.218 OA
HETATM   19  O7  UNL     1      -3.811   2.316  -1.731  1.00  0.00    -0.218 OA
HETATM   20  C24 UNL     1      -3.940  -0.506  -1.049  1.00  0.00     0.182 C 
HETATM   21  C25 UNL     1      -3.793  -1.342   0.228  1.00  0.00     0.033 C 
HETATM   22  C26 UNL     1      -2.322  -1.719   0.158  1.00  0.00     0.008 C 
HETATM   23  C27 UNL     1      -4.697  -2.565   0.369  1.00  0.00     0.003 C 
HETATM   24  O8  UNL     1      -4.248  -1.361  -2.145  1.00  0.00    -0.221 OA
HETATM   25  O9  UNL     1      -2.025   0.098  -2.508  1.00  0.00    -0.221 OA
ENDROOT
BRANCH  13  26
HETATM   26  C13 UNL     1       2.223  -0.647   2.639  1.00  0.00     0.058 A 
HETATM   27  C14 UNL     1       2.135   0.381   3.596  1.00  0.00     0.003 A 
HETATM   28  C15 UNL     1       2.514   0.137   4.928  1.00  0.00    -0.000 A 
HETATM   29  C16 UNL     1       2.980  -1.133   5.305  1.00  0.00    -0.000 A 
HETATM   30  C17 UNL     1       3.070  -2.162   4.350  1.00  0.00    -0.000 A 
HETATM   31  C18 UNL     1       2.691  -1.918   3.018  1.00  0.00     0.003 A 
ENDBRANCH  13  26
BRANCH  10  32
HETATM   32  C19 UNL     1       4.027  -0.272  -1.465  1.00  0.00    -0.017 C 
HETATM   33  C20 UNL     1       5.160   0.277  -0.643  1.00  0.00     0.029 C 
HETATM   34  C21 UNL     1       4.277  -0.654  -2.729  1.00  0.00    -0.007 C 
ENDBRANCH  10  32
BRANCH   4  35
HETATM   35  C23 UNL     1      -1.881   4.178  -0.627  1.00  0.00     0.218 C 
HETATM   36  O6  UNL     1      -0.768   5.018  -0.836  1.00  0.00    -0.218 OA
ENDBRANCH   4  35
TORSDOF 3
