REMARK  16 active torsions:
REMARK  status: ('A' for Active; 'I' for Inactive)
REMARK    1  A    between atoms: C2_2  and  O13_39 
REMARK    2  A    between atoms: C3_3  and  O8_24 
REMARK    3  A    between atoms: C4_4  and  O4_11 
REMARK    4  A    between atoms: C6_6  and  C7_7 
REMARK    5  A    between atoms: O4_11  and  C8_12 
REMARK    6  A    between atoms: C8_12  and  C9_14 
REMARK    7  A    between atoms: C10_15  and  C11_16 
REMARK    8  A    between atoms: O8_24  and  O9_25 
REMARK    9  A    between atoms: O9_25  and  C17_26 
REMARK   10  A    between atoms: C17_26  and  C18_28 
REMARK   11  A    between atoms: C19_29  and  C20_30 
REMARK   12  A    between atoms: C22_32  and  O12_37 
REMARK   13  A    between atoms: O13_39  and  O14_40 
REMARK   14  A    between atoms: O14_40  and  C27_41 
REMARK   15  A    between atoms: C27_41  and  C28_43 
REMARK   16  A    between atoms: C29_44  and  C30_45 
ROOT
HETATM    1  C1  UNL     1       5.129  -0.152   0.682  1.00  0.00     0.077 C 
HETATM    2  C2  UNL     1       3.643  -0.268   0.271  1.00  0.00     0.189 C 
HETATM    3  C3  UNL     1       2.777   0.795   0.992  1.00  0.00     0.211 C 
HETATM    4  C4  UNL     1       3.326   2.223   0.812  1.00  0.00     0.160 C 
HETATM    5  C5  UNL     1       4.789   2.313   1.281  1.00  0.00     0.074 C 
HETATM    6  C6  UNL     1       5.713   1.281   0.596  1.00  0.00     0.209 C 
HETATM    7  O3  UNL     1       5.854   1.643  -0.766  1.00  0.00    -0.215 OA
ENDROOT
BRANCH   3   8
HETATM    8  O8  UNL     1       1.432   0.734   0.551  1.00  0.00    -0.210 OA
BRANCH   8   9
HETATM    9  O9  UNL     1       0.965  -0.533   0.973  1.00  0.00    -0.152 OA
BRANCH   9  10
HETATM   10  C17 UNL     1      -0.301  -0.699   0.600  1.00  0.00     0.324 C 
HETATM   11  O10 UNL     1      -0.936   0.127  -0.016  1.00  0.00    -0.257 OA
BRANCH  10  12
HETATM   12  C18 UNL     1      -0.916  -1.977   0.980  1.00  0.00     0.071 C 
HETATM   13  C19 UNL     1      -2.192  -2.246   0.652  1.00  0.00     0.006 C 
BRANCH  13  14
HETATM   14  C20 UNL     1      -2.772  -3.561   1.062  1.00  0.00     0.002 A 
HETATM   15  C21 UNL     1      -1.990  -4.484   1.775  1.00  0.00     0.026 A 
HETATM   16  C22 UNL     1      -2.533  -5.723   2.164  1.00  0.00     0.119 A 
HETATM   17  C23 UNL     1      -3.865  -6.037   1.836  1.00  0.00     0.153 A 
HETATM   18  C24 UNL     1      -4.647  -5.111   1.121  1.00  0.00     0.029 A 
HETATM   19  O11 UNL     1      -4.385  -7.193   2.195  1.00  0.00    -0.188 OA
HETATM   20  C25 UNL     1      -4.104  -3.875   0.734  1.00  0.00     0.002 A 
BRANCH  16  21
HETATM   21  O12 UNL     1      -1.795  -6.584   2.832  1.00  0.00    -0.326 OA
HETATM   22  C26 UNL     1      -0.414  -6.293   2.998  1.00  0.00     0.181 C 
ENDBRANCH  16  21
ENDBRANCH  13  14
ENDBRANCH  10  12
ENDBRANCH   9  10
ENDBRANCH   8   9
ENDBRANCH   3   8
BRANCH   2  23
HETATM   23  O13 UNL     1       3.537  -0.145  -1.139  1.00  0.00    -0.213 OA
BRANCH  23  24
HETATM   24  O14 UNL     1       2.291  -0.730  -1.463  1.00  0.00    -0.152 OA
BRANCH  24  25
HETATM   25  C27 UNL     1       2.088  -0.668  -2.776  1.00  0.00     0.324 C 
HETATM   26  O15 UNL     1       2.871  -0.180  -3.557  1.00  0.00    -0.257 OA
BRANCH  25  27
HETATM   27  C28 UNL     1       0.822  -1.240  -3.254  1.00  0.00     0.071 C 
HETATM   28  C29 UNL     1       0.518  -1.230  -4.561  1.00  0.00     0.006 C 
BRANCH  28  29
HETATM   29  C30 UNL     1      -0.781  -1.824  -4.998  1.00  0.00     0.002 A 
HETATM   30  C31 UNL     1      -1.434  -1.326  -6.141  1.00  0.00     0.029 A 
HETATM   31  C32 UNL     1      -2.658  -1.883  -6.557  1.00  0.00     0.156 A 
HETATM   32  C33 UNL     1      -3.231  -2.939  -5.826  1.00  0.00     0.156 A 
HETATM   33  O17 UNL     1      -3.264  -1.410  -7.629  1.00  0.00    -0.188 OA
HETATM   34  C34 UNL     1      -2.578  -3.436  -4.686  1.00  0.00     0.029 A 
HETATM   35  O16 UNL     1      -4.377  -3.467  -6.209  1.00  0.00    -0.188 OA
HETATM   36  C35 UNL     1      -1.356  -2.879  -4.270  1.00  0.00     0.002 A 
ENDBRANCH  28  29
ENDBRANCH  25  27
ENDBRANCH  24  25
ENDBRANCH  23  24
ENDBRANCH   2  23
BRANCH   4  37
HETATM   37  O4  UNL     1       2.547   3.137   1.572  1.00  0.00    -0.298 OA
BRANCH  37  38
HETATM   38  C8  UNL     1       1.484   3.572   0.902  1.00  0.00     0.296 C 
HETATM   39  O5  UNL     1       1.283   3.344  -0.268  1.00  0.00    -0.259 OA
BRANCH  38  40
HETATM   40  C9  UNL     1       0.529   4.375   1.676  1.00  0.00     0.068 C 
HETATM   41  C10 UNL     1      -0.580   4.865   1.098  1.00  0.00     0.005 C 
BRANCH  41  42
HETATM   42  C11 UNL     1      -1.522   5.678   1.926  1.00  0.00     0.002 A 
HETATM   43  C12 UNL     1      -2.293   6.690   1.326  1.00  0.00     0.029 A 
HETATM   44  C13 UNL     1      -3.182   7.455   2.103  1.00  0.00     0.156 A 
HETATM   45  C14 UNL     1      -3.297   7.209   3.484  1.00  0.00     0.156 A 
HETATM   46  O7  UNL     1      -3.902   8.401   1.535  1.00  0.00    -0.188 OA
HETATM   47  C15 UNL     1      -2.525   6.197   4.082  1.00  0.00     0.029 A 
HETATM   48  O6  UNL     1      -4.127   7.922   4.219  1.00  0.00    -0.188 OA
HETATM   49  C16 UNL     1      -1.639   5.432   3.305  1.00  0.00     0.002 A 
ENDBRANCH  41  42
ENDBRANCH  38  40
ENDBRANCH  37  38
ENDBRANCH   4  37
BRANCH   6  50
HETATM   50  C7  UNL     1       7.098   1.326   1.197  1.00  0.00     0.214 C 
HETATM   51  O1  UNL     1       7.461   2.277   1.848  1.00  0.00    -0.646 OA
HETATM   52  O2  UNL     1       7.854   0.260   0.955  1.00  0.00    -0.646 OA
ENDBRANCH   6  50
TORSDOF 16
