REMARK  3 active torsions:
REMARK  status: ('A' for Active; 'I' for Inactive)
REMARK    1  A    between atoms: C2_2  and  C7_8 
REMARK    2  A    between atoms: C7_8  and  C8_9 
REMARK    3  A    between atoms: C8_9  and  C9_10 
ROOT
HETATM    1  C1  UNL     1       1.611  -0.643   0.719  1.00  0.00    -0.026 A 
HETATM    2  C2  UNL     1       0.203  -0.695   0.719  1.00  0.00    -0.024 A 
HETATM    3  C3  UNL     1      -0.451  -1.940   0.719  1.00  0.00     0.023 A 
HETATM    4  C4  UNL     1       0.293  -3.133   0.719  1.00  0.00     0.131 A 
HETATM    5  C5  UNL     1       1.697  -3.078   0.719  1.00  0.00     0.027 A 
HETATM    6  C6  UNL     1       2.355  -1.836   0.719  1.00  0.00    -0.002 A 
HETATM    7  O1  UNL     1      -0.325  -4.297   0.719  1.00  0.00    -0.190 OA
HETATM    8  C11 UNL     1       2.324   0.662   0.719  1.00  0.00     0.031 C 
ENDROOT
BRANCH   2   9
HETATM    9  C7  UNL     1      -0.602   0.557   0.719  1.00  0.00     0.026 C 
BRANCH   9  10
HETATM   10  C8  UNL     1      -0.879   1.049  -0.703  1.00  0.00     0.005 C 
BRANCH  10  11
HETATM   11  C9  UNL     1      -1.721   2.324  -0.733  1.00  0.00     0.000 C 
HETATM   12  C10 UNL     1      -1.979   2.828  -2.153  1.00  0.00     0.000 C 
ENDBRANCH  10  11
ENDBRANCH   9  10
ENDBRANCH   2   9
TORSDOF 3
