REMARK  12 active torsions:
REMARK  status: ('A' for Active; 'I' for Inactive)
REMARK    1  A    between atoms: C2_2  and  C3_3 
REMARK    2  A    between atoms: C3_3  and  C4_4 
REMARK    3  A    between atoms: C4_4  and  O1_5 
REMARK    4  A    between atoms: O1_5  and  C5_6 
REMARK    5  A    between atoms: C5_6  and  C6_7 
REMARK    6  A    between atoms: C6_7  and  C7_8 
REMARK    7  A    between atoms: C7_8  and  C8_10 
REMARK    8  A    between atoms: C9_11  and  C10_12 
REMARK    9  A    between atoms: C11_13  and  C12_14 
REMARK   10  A    between atoms: C13_15  and  C14_16 
REMARK   11  A    between atoms: C15_17  and  C16_18 
REMARK   12  A    between atoms: C17_19  and  C18_20 
ROOT
HETATM    1  C8  UNL     1      -0.051  -0.156   1.506  1.00  0.00     0.006 C 
HETATM    2  C9  UNL     1       0.678  -1.285   1.506  1.00  0.00    -0.001 C 
ENDROOT
BRANCH   1   3
HETATM    3  C7  UNL     1      -1.553  -0.270   1.506  1.00  0.00     0.177 C 
HETATM    4  O2  UNL     1      -2.078   0.447   2.599  1.00  0.00    -0.218 OA
BRANCH   3   5
HETATM    5  C6  UNL     1      -2.180   0.285   0.224  1.00  0.00     0.070 C 
BRANCH   5   6
HETATM    6  C5  UNL     1      -3.684   0.021   0.142  1.00  0.00     0.151 C 
BRANCH   6   7
HETATM    7  O1  UNL     1      -4.189   0.547  -1.075  1.00  0.00    -0.335 OA
BRANCH   7   8
HETATM    8  C4  UNL     1      -5.484   0.293  -1.237  1.00  0.00     0.072 C 
HETATM    9  C19 UNL     1      -6.188  -0.305  -0.260  1.00  0.00     0.021 C 
BRANCH   8  10
HETATM   10  C3  UNL     1      -6.197   0.664  -2.510  1.00  0.00     0.051 C 
BRANCH  10  11
HETATM   11  C2  UNL     1      -5.971   2.125  -2.899  1.00  0.00     0.006 C 
HETATM   12  C1  UNL     1      -6.502   2.451  -4.297  1.00  0.00     0.000 C 
HETATM   13  C20 UNL     1      -6.471   3.103  -1.836  1.00  0.00     0.000 C 
ENDBRANCH  10  11
ENDBRANCH   8  10
ENDBRANCH   7   8
ENDBRANCH   6   7
ENDBRANCH   5   6
ENDBRANCH   3   5
ENDBRANCH   1   3
BRANCH   2  14
HETATM   14  C10 UNL     1       2.145  -1.229   1.506  1.00  0.00     0.009 C 
HETATM   15  C11 UNL     1       2.871  -2.358   1.506  1.00  0.00     0.050 C 
BRANCH  15  16
HETATM   16  C12 UNL     1       4.309  -2.303   1.506  1.00  0.00    -0.050 C 
HETATM   17  C13 UNL     1       5.498  -2.258   1.506  1.00  0.00    -0.009 C 
BRANCH  17  18
HETATM   18  C14 UNL     1       6.877  -2.205   1.506  1.00  0.00    -0.009 C 
HETATM   19  C15 UNL     1       8.065  -2.160   1.506  1.00  0.00    -0.051 C 
BRANCH  19  20
HETATM   20  C16 UNL     1       9.502  -2.106   1.506  1.00  0.00     0.048 C 
HETATM   21  C17 UNL     1      10.143  -0.926   1.506  1.00  0.00     0.018 C 
BRANCH  21  22
HETATM   22  C18 UNL     1      11.647  -0.926   1.506  1.00  0.00     0.209 C 
HETATM   23  O3  UNL     1      12.117   0.307   1.008  1.00  0.00    -0.215 OA
ENDBRANCH  21  22
ENDBRANCH  19  20
ENDBRANCH  17  18
ENDBRANCH  15  16
ENDBRANCH   2  14
TORSDOF 12
