REMARK  31 active torsions:
REMARK  status: ('A' for Active; 'I' for Inactive)
REMARK    1  A    between atoms: C2_2  and  O5_11 
REMARK    2  A    between atoms: C3_4  and  C6_9 
REMARK    3  A    between atoms: O5_11  and  C7_12 
REMARK    4  A    between atoms: C7_12  and  C8_13 
REMARK    5  A    between atoms: C8_13  and  C9_14 
REMARK    6  A    between atoms: C8_13  and  O7_30 
REMARK    7  A    between atoms: C9_14  and  O6_15 
REMARK    8  A    between atoms: O6_15  and  C10_16 
REMARK    9  A    between atoms: C10_16  and  C11_17 
REMARK   10  A    between atoms: C11_17  and  C12_18 
REMARK   11  A    between atoms: C12_18  and  C13_19 
REMARK   12  A    between atoms: C13_19  and  C14_20 
REMARK   13  A    between atoms: C14_20  and  C15_21 
REMARK   14  A    between atoms: C15_21  and  C16_22 
REMARK   15  A    between atoms: C16_22  and  C17_23 
REMARK   16  A    between atoms: C17_23  and  C18_24 
REMARK   17  A    between atoms: C18_24  and  C19_25 
REMARK   18  A    between atoms: C19_25  and  C20_26 
REMARK   19  A    between atoms: C20_26  and  C21_27 
REMARK   20  A    between atoms: C21_27  and  C22_28 
REMARK   21  A    between atoms: O7_30  and  C24_31 
REMARK   22  A    between atoms: C24_31  and  C25_32 
REMARK   23  A    between atoms: C25_32  and  C26_33 
REMARK   24  A    between atoms: C26_33  and  C27_34 
REMARK   25  A    between atoms: C27_34  and  C28_35 
REMARK   26  A    between atoms: C28_35  and  C29_36 
REMARK   27  A    between atoms: C29_36  and  C30_37 
REMARK   28  A    between atoms: C30_37  and  C31_38 
REMARK   29  A    between atoms: C31_38  and  C32_39 
REMARK   30  A    between atoms: C32_39  and  C33_40 
REMARK   31  A    between atoms: C33_40  and  C34_41 
ROOT
HETATM    1  C8  UNL     1      -1.037  -4.344   1.500  1.00  0.00     0.174 C 
ENDROOT
BRANCH   1   2
HETATM    2  C7  UNL     1      -1.561  -5.693   1.992  1.00  0.00     0.177 C 
BRANCH   2   3
HETATM    3  O5  UNL     1      -0.725  -6.705   1.477  1.00  0.00    -0.326 OA
BRANCH   3   4
HETATM    4  C2  UNL     1      -1.086  -8.002   1.914  1.00  0.00     0.270 C 
HETATM    5  C1  UNL     1       0.000  -9.033   1.502  1.00  0.00     0.241 C 
HETATM    6  C5  UNL     1      -0.461 -10.473   1.834  1.00  0.00     0.220 C 
HETATM    7  O8  UNL     1       1.203  -8.752   2.199  1.00  0.00    -0.215 OA
HETATM    8  C4  UNL     1      -1.871 -10.736   1.262  1.00  0.00     0.215 C 
HETATM    9  O2  UNL     1       0.469 -11.432   1.356  1.00  0.00    -0.218 OA
HETATM   10  C3  UNL     1      -2.848  -9.621   1.705  1.00  0.00     0.184 C 
HETATM   11  O3  UNL     1      -1.838 -10.805  -0.158  1.00  0.00    -0.218 OA
HETATM   12  O1  UNL     1      -2.338  -8.344   1.332  1.00  0.00    -0.326 OA
BRANCH  10  13
HETATM   13  C6  UNL     1      -4.252  -9.758   1.106  1.00  0.00     0.214 C 
HETATM   14  O4  UNL     1      -5.111  -8.871   1.785  1.00  0.00    -0.218 OA
ENDBRANCH  10  13
ENDBRANCH   3   4
ENDBRANCH   2   3
ENDBRANCH   1   2
BRANCH   1  15
HETATM   15  C9  UNL     1      -1.981  -3.188   1.832  1.00  0.00     0.174 C 
BRANCH  15  16
HETATM   16  O6  UNL     1      -1.941  -2.268   0.766  1.00  0.00    -0.352 OA
BRANCH  16  17
HETATM   17  C10 UNL     1      -2.779  -1.150   0.965  1.00  0.00     0.142 C 
BRANCH  17  18
HETATM   18  C11 UNL     1      -2.650  -0.232  -0.250  1.00  0.00     0.032 C 
BRANCH  18  19
HETATM   19  C12 UNL     1      -3.522   1.020  -0.139  1.00  0.00     0.003 C 
BRANCH  19  20
HETATM   20  C13 UNL     1      -3.393   1.938  -1.355  1.00  0.00     0.000 C 
BRANCH  20  21
HETATM   21  C14 UNL     1      -4.266   3.188  -1.244  1.00  0.00     0.000 C 
BRANCH  21  22
HETATM   22  C15 UNL     1      -4.135   4.107  -2.459  1.00  0.00     0.000 C 
BRANCH  22  23
HETATM   23  C16 UNL     1      -5.008   5.358  -2.350  1.00  0.00     0.000 C 
BRANCH  23  24
HETATM   24  C17 UNL     1      -4.879   6.277  -3.564  1.00  0.00     0.000 C 
BRANCH  24  25
HETATM   25  C18 UNL     1      -5.752   7.527  -3.453  1.00  0.00     0.000 C 
BRANCH  25  26
HETATM   26  C19 UNL     1      -5.621   8.447  -4.668  1.00  0.00     0.000 C 
BRANCH  26  27
HETATM   27  C20 UNL     1      -6.494   9.697  -4.559  1.00  0.00     0.000 C 
BRANCH  27  28
HETATM   28  C21 UNL     1      -6.363  10.617  -5.773  1.00  0.00     0.000 C 
BRANCH  28  29
HETATM   29  C22 UNL     1      -7.236  11.867  -5.662  1.00  0.00     0.000 C 
HETATM   30  C23 UNL     1      -7.108  12.785  -6.879  1.00  0.00     0.000 C 
ENDBRANCH  28  29
ENDBRANCH  27  28
ENDBRANCH  26  27
ENDBRANCH  25  26
ENDBRANCH  24  25
ENDBRANCH  23  24
ENDBRANCH  22  23
ENDBRANCH  21  22
ENDBRANCH  20  21
ENDBRANCH  19  20
ENDBRANCH  18  19
ENDBRANCH  17  18
ENDBRANCH  16  17
ENDBRANCH  15  16
ENDBRANCH   1  15
BRANCH   1  31
HETATM   31  O7  UNL     1       0.201  -4.098   2.127  1.00  0.00    -0.352 OA
BRANCH  31  32
HETATM   32  C24 UNL     1       0.891  -2.996   1.578  1.00  0.00     0.142 C 
BRANCH  32  33
HETATM   33  C25 UNL     1       2.287  -2.947   2.203  1.00  0.00     0.032 C 
BRANCH  33  34
HETATM   34  C26 UNL     1       3.127  -1.785   1.676  1.00  0.00     0.003 C 
BRANCH  34  35
HETATM   35  C27 UNL     1       4.523  -1.736   2.299  1.00  0.00     0.000 C 
BRANCH  35  36
HETATM   36  C28 UNL     1       5.363  -0.572   1.774  1.00  0.00     0.000 C 
BRANCH  36  37
HETATM   37  C29 UNL     1       6.760  -0.523   2.397  1.00  0.00     0.000 C 
BRANCH  37  38
HETATM   38  C30 UNL     1       7.600   0.641   1.871  1.00  0.00     0.000 C 
BRANCH  38  39
HETATM   39  C31 UNL     1       8.996   0.689   2.494  1.00  0.00     0.000 C 
BRANCH  39  40
HETATM   40  C32 UNL     1       9.836   1.852   1.969  1.00  0.00     0.000 C 
BRANCH  40  41
HETATM   41  C33 UNL     1      11.233   1.900   2.592  1.00  0.00     0.000 C 
BRANCH  41  42
HETATM   42  C34 UNL     1      12.072   3.064   2.067  1.00  0.00     0.000 C 
HETATM   43  C35 UNL     1      13.469   3.113   2.690  1.00  0.00     0.000 C 
ENDBRANCH  41  42
ENDBRANCH  40  41
ENDBRANCH  39  40
ENDBRANCH  38  39
ENDBRANCH  37  38
ENDBRANCH  36  37
ENDBRANCH  35  36
ENDBRANCH  34  35
ENDBRANCH  33  34
ENDBRANCH  32  33
ENDBRANCH  31  32
ENDBRANCH   1  31
TORSDOF 31
