REMARK  5 active torsions:
REMARK  status: ('A' for Active; 'I' for Inactive)
REMARK    1  A    between atoms: C3_3  and  C34_39 
REMARK    2  A    between atoms: C22_22  and  O1_26 
REMARK    3  A    between atoms: O1_26  and  C26_27 
REMARK    4  A    between atoms: C34_39  and  O7_41 
REMARK    5  A    between atoms: O7_41  and  C35_42 
ROOT
HETATM    1  C1  UNL     1      -3.625  -2.139  -1.326  1.00  0.00    -0.048 C 
HETATM    2  C2  UNL     1      -2.617  -2.262  -0.422  1.00  0.00    -0.026 C 
HETATM    3  C3  UNL     1      -2.813  -1.908   1.053  1.00  0.00     0.096 C 
HETATM    4  C4  UNL     1      -4.307  -1.875   1.438  1.00  0.00     0.014 C 
HETATM    5  C5  UNL     1      -5.125  -1.059   0.438  1.00  0.00     0.005 C 
HETATM    6  C6  UNL     1      -5.024  -1.670  -0.965  1.00  0.00     0.018 C 
HETATM    7  C7  UNL     1      -5.998  -2.842  -1.117  1.00  0.00     0.004 C 
HETATM    8  C8  UNL     1      -2.057  -2.893   1.994  1.00  0.00     0.014 C 
HETATM    9  C9  UNL     1      -1.486  -4.139   1.293  1.00  0.00     0.005 C 
HETATM   10  C10 UNL     1      -0.625  -3.856   0.027  1.00  0.00     0.018 C 
HETATM   11  C11 UNL     1      -1.272  -2.762  -0.803  1.00  0.00    -0.031 C 
HETATM   12  C12 UNL     1      -0.590  -2.287  -1.865  1.00  0.00    -0.031 C 
HETATM   13  C13 UNL     1       0.793  -2.818  -2.154  1.00  0.00     0.026 C 
HETATM   14  C14 UNL     1       1.654  -2.848  -0.867  1.00  0.00     0.005 C 
HETATM   15  C15 UNL     1       0.900  -3.559   0.328  1.00  0.00     0.004 C 
HETATM   16  C16 UNL     1       1.104  -2.744   1.617  1.00  0.00     0.000 C 
HETATM   17  C17 UNL     1       2.580  -2.412   1.832  1.00  0.00     0.000 C 
HETATM   18  C18 UNL     1       3.092  -1.389   0.801  1.00  0.00     0.002 C 
HETATM   19  C19 UNL     1       2.346  -1.453  -0.584  1.00  0.00     0.001 C 
HETATM   20  C20 UNL     1       1.363  -0.258  -0.711  1.00  0.00     0.003 C 
HETATM   21  C21 UNL     1       2.037   1.121  -0.574  1.00  0.00     0.030 C 
HETATM   22  C22 UNL     1       3.305   1.092   0.301  1.00  0.00     0.118 C 
HETATM   23  C23 UNL     1       3.191   0.041   1.426  1.00  0.00     0.025 C 
HETATM   24  C24 UNL     1       4.428   0.098   2.338  1.00  0.00     0.002 C 
HETATM   25  C25 UNL     1       1.961   0.365   2.291  1.00  0.00     0.002 C 
HETATM   26  C31 UNL     1       3.395  -1.258  -1.697  1.00  0.00     0.000 C 
HETATM   27  C32 UNL     1       1.580  -4.920   0.594  1.00  0.00     0.000 C 
HETATM   28  C33 UNL     1      -0.746  -5.115  -0.855  1.00  0.00     0.004 C 
HETATM   29  C40 UNL     1      -3.420  -2.484  -2.781  1.00  0.00     0.026 C 
ENDROOT
BRANCH   3  30
HETATM   30  C34 UNL     1      -2.240  -0.520   1.236  1.00  0.00     0.277 C 
HETATM   31  O6  UNL     1      -1.545  -0.254   2.190  1.00  0.00    -0.264 OA
BRANCH  30  32
HETATM   32  O7  UNL     1      -2.561   0.355   0.287  1.00  0.00    -0.273 OA
BRANCH  32  33
HETATM   33  C35 UNL     1      -1.875   1.592   0.438  1.00  0.00     0.278 C 
HETATM   34  O8  UNL     1      -2.336   2.268   1.606  1.00  0.00    -0.300 OA
HETATM   35  C36 UNL     1      -3.719   2.619   1.596  1.00  0.00     0.304 C 
HETATM   36  C37 UNL     1      -4.043   3.572   0.410  1.00  0.00     0.244 C 
HETATM   37  O12 UNL     1      -4.082   3.199   2.832  1.00  0.00    -0.187 OA
HETATM   38  C38 UNL     1      -3.557   2.941  -0.916  1.00  0.00     0.223 C 
HETATM   39  O11 UNL     1      -3.449   4.848   0.613  1.00  0.00    -0.215 OA
HETATM   40  C39 UNL     1      -2.090   2.453  -0.828  1.00  0.00     0.241 C 
HETATM   41  O10 UNL     1      -3.764   3.801  -2.025  1.00  0.00    -0.218 OA
HETATM   42  O9  UNL     1      -1.178   3.541  -0.807  1.00  0.00    -0.215 OA
ENDBRANCH  32  33
ENDBRANCH  30  32
ENDBRANCH   3  30
BRANCH  22  43
HETATM   43  O1  UNL     1       3.533   2.389   0.822  1.00  0.00    -0.332 OA
BRANCH  43  44
HETATM   44  C26 UNL     1       3.815   3.350  -0.176  1.00  0.00     0.270 C 
HETATM   45  O2  UNL     1       2.604   3.904  -0.678  1.00  0.00    -0.326 OA
HETATM   46  C27 UNL     1       2.773   4.818  -1.756  1.00  0.00     0.181 C 
HETATM   47  C28 UNL     1       3.647   6.025  -1.336  1.00  0.00     0.215 C 
HETATM   48  C29 UNL     1       4.975   5.584  -0.676  1.00  0.00     0.220 C 
HETATM   49  O5  UNL     1       2.916   6.842  -0.437  1.00  0.00    -0.218 OA
HETATM   50  C30 UNL     1       4.756   4.463   0.369  1.00  0.00     0.241 C 
HETATM   51  O4  UNL     1       5.828   5.086  -1.691  1.00  0.00    -0.218 OA
HETATM   52  O3  UNL     1       4.229   5.043   1.553  1.00  0.00    -0.215 OA
ENDBRANCH  43  44
ENDBRANCH  22  43
TORSDOF 5
