REMARK  4 active torsions:
REMARK  status: ('A' for Active; 'I' for Inactive)
REMARK    1  A    between atoms: C4_4  and  O1_7 
REMARK    2  A    between atoms: C12_14  and  O5_21 
REMARK    3  A    between atoms: C13_15  and  O4_19 
REMARK    4  A    between atoms: C14_16  and  O3_17 
ROOT
HETATM    1  C1  UNL     1       2.096   0.721  -0.188  1.00  0.00     0.103 A 
HETATM    2  C2  UNL     1       2.092  -0.578   0.398  1.00  0.00     0.064 A 
HETATM    3  C3  UNL     1       3.307  -1.143   0.863  1.00  0.00     0.029 A 
HETATM    4  C4  UNL     1       4.518  -0.420   0.748  1.00  0.00     0.094 A 
HETATM    5  C5  UNL     1       4.518   0.871   0.168  1.00  0.00     0.026 A 
HETATM    6  C6  UNL     1       3.311   1.439  -0.299  1.00  0.00     0.027 A 
HETATM    7  C8  UNL     1       0.809  -1.344   0.525  1.00  0.00     0.201 A 
HETATM    8  C9  UNL     1      -0.398  -0.623  -0.006  1.00  0.00     0.086 A 
HETATM    9  C10 UNL     1      -0.256   0.676  -0.576  1.00  0.00     0.107 A 
HETATM   10  O2  UNL     1       0.951   1.275  -0.641  1.00  0.00    -0.307 OA
HETATM   11  C11 UNL     1      -1.389   1.353  -1.084  1.00  0.00     0.051 A 
HETATM   12  C12 UNL     1      -2.666   0.748  -1.025  1.00  0.00     0.120 A 
HETATM   13  C13 UNL     1      -2.814  -0.537  -0.455  1.00  0.00     0.139 A 
HETATM   14  C14 UNL     1      -1.686  -1.225   0.053  1.00  0.00     0.123 A 
HETATM   15  O6  UNL     1       0.756  -2.449   1.016  1.00  0.00    -0.286 OA
ENDROOT
BRANCH   4  16
HETATM   16  O1  UNL     1       5.662  -0.957   1.189  1.00  0.00    -0.328 OA
HETATM   17  C7  UNL     1       6.848  -0.186   1.078  1.00  0.00     0.181 C 
ENDBRANCH   4  16
BRANCH  14  18
HETATM   18  O3  UNL     1      -1.852  -2.443   0.588  1.00  0.00    -0.326 OA
HETATM   19  C15 UNL     1      -3.004  -2.670   1.387  1.00  0.00     0.181 C 
ENDBRANCH  14  18
BRANCH  13  20
HETATM   20  O4  UNL     1      -4.027  -1.106  -0.398  1.00  0.00    -0.324 OA
HETATM   21  C16 UNL     1      -5.135  -0.281  -0.074  1.00  0.00     0.182 C 
ENDBRANCH  13  20
BRANCH  12  22
HETATM   22  O5  UNL     1      -3.734   1.396  -1.510  1.00  0.00    -0.326 OA
HETATM   23  C17 UNL     1      -3.533   2.685  -2.070  1.00  0.00     0.181 C 
ENDBRANCH  12  22
TORSDOF 4
