REMARK  0 active torsions:
REMARK  status: ('A' for Active; 'I' for Inactive)
ROOT
HETATM    1  C1  UNL     1      -3.471   1.395   0.355  1.00  0.00     0.005 C 
HETATM    2  C2  UNL     1      -3.961   0.186  -0.430  1.00  0.00     0.004 C 
HETATM    3  C3  UNL     1      -3.148  -1.072  -0.066  1.00  0.00     0.019 C 
HETATM    4  C4  UNL     1      -1.670  -0.822  -0.084  1.00  0.00    -0.027 A 
HETATM    5  C5  UNL     1      -1.113   0.500  -0.070  1.00  0.00    -0.023 A 
HETATM    6  C6  UNL     1      -2.006   1.697   0.018  1.00  0.00     0.026 C 
HETATM    7  C7  UNL     1       0.309   0.672  -0.147  1.00  0.00     0.040 A 
HETATM    8  C8  UNL     1       1.156  -0.477  -0.172  1.00  0.00     0.025 A 
HETATM    9  C9  UNL     1       0.602  -1.773  -0.141  1.00  0.00     0.002 A 
HETATM   10  C10 UNL     1      -0.795  -1.941  -0.104  1.00  0.00    -0.004 A 
HETATM   11  C11 UNL     1       2.641  -0.330  -0.236  1.00  0.00     0.093 A 
HETATM   12  C12 UNL     1       3.188   0.893  -0.254  1.00  0.00     0.044 A 
HETATM   13  C13 UNL     1       2.400   2.131  -0.236  1.00  0.00     0.232 A 
HETATM   14  C14 UNL     1       0.924   2.045  -0.201  1.00  0.00     0.234 A 
HETATM   15  O1  UNL     1       0.348   3.109  -0.229  1.00  0.00    -0.283 OA
HETATM   16  O2  UNL     1       2.961   3.205  -0.250  1.00  0.00    -0.283 OA
HETATM   17  C15 UNL     1       4.682   0.826  -0.293  1.00  0.00     0.058 C 
HETATM   18  C16 UNL     1       4.856  -0.678  -0.512  1.00  0.00     0.153 C 
HETATM   19  O3  UNL     1       3.580  -1.281  -0.281  1.00  0.00    -0.331 OA
HETATM   20  C17 UNL     1       5.315   1.281   1.018  1.00  0.00     0.007 C 
HETATM   21  C18 UNL     1      -3.545  -1.543   1.338  1.00  0.00     0.004 C 
HETATM   22  C19 UNL     1      -3.531  -2.170  -1.074  1.00  0.00     0.004 C 
ENDROOT
TORSDOF 0
