REMARK  9 active torsions:
REMARK  status: ('A' for Active; 'I' for Inactive)
REMARK    1  A    between atoms: C2_2  and  O7_22 
REMARK    2  A    between atoms: C2_2  and  C25_35 
REMARK    3  A    between atoms: C4_4  and  O3_9 
REMARK    4  A    between atoms: O3_9  and  C7_10 
REMARK    5  A    between atoms: C7_10  and  C8_11 
REMARK    6  A    between atoms: C9_12  and  C10_13 
REMARK    7  A    between atoms: O7_22  and  C16_23 
REMARK    8  A    between atoms: C16_23  and  C17_24 
REMARK    9  A    between atoms: C18_25  and  C19_26 
ROOT
HETATM    1  C1  UNL     1      -0.641   2.551  -0.371  1.00  0.00     0.074 C 
HETATM    2  C2  UNL     1       0.143   1.406  -1.055  1.00  0.00     0.184 C 
HETATM    3  C3  UNL     1      -0.455   0.033  -0.687  1.00  0.00     0.071 C 
HETATM    4  C4  UNL     1      -1.965  -0.045  -0.973  1.00  0.00     0.160 C 
HETATM    5  C5  UNL     1      -2.756   1.086  -0.275  1.00  0.00     0.210 C 
HETATM    6  C6  UNL     1      -2.170   2.484  -0.580  1.00  0.00     0.188 C 
HETATM    7  O1  UNL     1      -2.477   2.830  -1.918  1.00  0.00    -0.221 OA
HETATM    8  O2  UNL     1      -2.729   0.885   1.125  1.00  0.00    -0.218 OA
ENDROOT
BRANCH   2   9
HETATM    9  O7  UNL     1       1.480   1.443  -0.582  1.00  0.00    -0.293 OA
BRANCH   9  10
HETATM   10  C16 UNL     1       2.012   2.660  -0.664  1.00  0.00     0.296 C 
HETATM   11  O10 UNL     1       1.891   3.385  -1.623  1.00  0.00    -0.259 OA
BRANCH  10  12
HETATM   12  C17 UNL     1       2.781   3.100   0.508  1.00  0.00     0.068 C 
HETATM   13  C18 UNL     1       3.342   4.320   0.539  1.00  0.00     0.005 C 
BRANCH  13  14
HETATM   14  C19 UNL     1       4.115   4.721   1.752  1.00  0.00     0.002 A 
HETATM   15  C20 UNL     1       5.193   5.615   1.635  1.00  0.00     0.029 A 
HETATM   16  C21 UNL     1       5.924   5.998   2.776  1.00  0.00     0.156 A 
HETATM   17  C22 UNL     1       5.574   5.482   4.037  1.00  0.00     0.156 A 
HETATM   18  O9  UNL     1       6.936   6.836   2.658  1.00  0.00    -0.188 OA
HETATM   19  C23 UNL     1       4.496   4.588   4.153  1.00  0.00     0.029 A 
HETATM   20  O8  UNL     1       6.254   5.834   5.112  1.00  0.00    -0.188 OA
HETATM   21  C24 UNL     1       3.766   4.207   3.014  1.00  0.00     0.002 A 
ENDBRANCH  13  14
ENDBRANCH  10  12
ENDBRANCH   9  10
ENDBRANCH   2   9
BRANCH   2  22
HETATM   22  C25 UNL     1       0.213   1.588  -2.553  1.00  0.00     0.212 C 
HETATM   23  O11 UNL     1       0.518   0.670  -3.277  1.00  0.00    -0.646 OA
HETATM   24  O12 UNL     1      -0.082   2.809  -2.988  1.00  0.00    -0.646 OA
ENDBRANCH   2  22
BRANCH   4  25
HETATM   25  O3  UNL     1      -2.459  -1.313  -0.562  1.00  0.00    -0.298 OA
BRANCH  25  26
HETATM   26  C7  UNL     1      -2.094  -2.291  -1.389  1.00  0.00     0.296 C 
HETATM   27  O6  UNL     1      -1.449  -2.115  -2.394  1.00  0.00    -0.259 OA
BRANCH  26  28
HETATM   28  C8  UNL     1      -2.524  -3.641  -1.006  1.00  0.00     0.068 C 
HETATM   29  C9  UNL     1      -2.207  -4.701  -1.769  1.00  0.00     0.005 C 
BRANCH  29  30
HETATM   30  C10 UNL     1      -2.666  -6.055  -1.340  1.00  0.00     0.002 A 
HETATM   31  C11 UNL     1      -2.943  -7.043  -2.303  1.00  0.00     0.029 A 
HETATM   32  C12 UNL     1      -3.377  -8.319  -1.902  1.00  0.00     0.156 A 
HETATM   33  C13 UNL     1      -3.533  -8.610  -0.535  1.00  0.00     0.156 A 
HETATM   34  O5  UNL     1      -3.635  -9.241  -2.810  1.00  0.00    -0.188 OA
HETATM   35  C14 UNL     1      -3.256  -7.623   0.426  1.00  0.00     0.029 A 
HETATM   36  O4  UNL     1      -3.938  -9.805  -0.152  1.00  0.00    -0.188 OA
HETATM   37  C15 UNL     1      -2.822  -6.346   0.025  1.00  0.00     0.002 A 
ENDBRANCH  29  30
ENDBRANCH  26  28
ENDBRANCH  25  26
ENDBRANCH   4  25
TORSDOF 9
