REMARK  3 active torsions:
REMARK  status: ('A' for Active; 'I' for Inactive)
REMARK    1  A    between atoms: C2_2  and  C3_3 
REMARK    2  A    between atoms: C4_4  and  C5_5 
REMARK    3  A    between atoms: C5_5  and  C6_6 
ROOT
HETATM    1  C3  UNL     1      -1.723  -1.203  -0.853  1.00  0.00    -0.026 C 
HETATM    2  C4  UNL     1      -1.051  -0.611   0.147  1.00  0.00    -0.026 C 
HETATM    3  C10 UNL     1      -1.242  -0.996  -2.266  1.00  0.00     0.030 C 
ENDROOT
BRANCH   2   4
HETATM    4  C5  UNL     1       0.152   0.229  -0.195  1.00  0.00     0.051 C 
BRANCH   4   5
HETATM    5  C6  UNL     1       0.648   0.957   1.024  1.00  0.00    -0.030 C 
HETATM    6  C7  UNL     1       1.844   1.565   0.965  1.00  0.00    -0.047 C 
HETATM    7  C8  UNL     1       2.355   2.266   2.194  1.00  0.00     0.026 C 
HETATM    8  C9  UNL     1       2.613   1.514  -0.330  1.00  0.00     0.026 C 
ENDBRANCH   4   5
ENDBRANCH   2   4
BRANCH   1   9
HETATM    9  C2  UNL     1      -2.908  -2.043  -0.635  1.00  0.00    -0.004 C 
HETATM   10  C1  UNL     1      -2.959  -2.895   0.403  1.00  0.00    -0.000 C 
ENDBRANCH   1   9
TORSDOF 3
