REMARK  0 active torsions:
REMARK  status: ('A' for Active; 'I' for Inactive)
ROOT
HETATM    1  O1  UNL     1       0.094   3.121  -0.254  1.00  0.00    -0.263 OA
HETATM    2  C1  UNL     1       0.377   1.949  -0.137  1.00  0.00     0.316 A 
HETATM    3  C2  UNL     1      -0.662   0.885  -0.120  1.00  0.00     0.176 A 
HETATM    4  N1  UNL     1      -2.004   1.223  -0.237  1.00  0.00    -0.231 NA
HETATM    5  C3  UNL     1      -2.902   0.297  -0.221  1.00  0.00     0.162 A 
HETATM    6  C4  UNL     1      -2.522  -1.133  -0.077  1.00  0.00     0.300 A 
HETATM    7  O2  UNL     1      -3.367  -1.996  -0.063  1.00  0.00    -0.263 OA
HETATM    8  N2  UNL     1      -1.186  -1.453   0.041  1.00  0.00    -0.185 NA
HETATM    9  C5  UNL     1      -0.264  -0.416   0.017  1.00  0.00     0.206 A 
HETATM   10  N3  UNL     1       1.092  -0.697   0.132  1.00  0.00    -0.037 NA
HETATM   11  C6  UNL     1       2.035   0.324   0.111  1.00  0.00     0.773 A 
HETATM   12  N4  UNL     1       3.365   0.023   0.226  1.00  0.00     0.062 N 
HETATM   13  N5  UNL     1       1.695   1.566  -0.016  1.00  0.00    -0.016 NA
ENDROOT
TORSDOF 0
