REMARK  6 active torsions:
REMARK  status: ('A' for Active; 'I' for Inactive)
REMARK    1  A    between atoms: C3_3  and  O2_7 
REMARK    2  A    between atoms: O2_7  and  C6_8 
REMARK    3  A    between atoms: C7_10  and  C11_17 
REMARK    4  A    between atoms: C12_19  and  C15_24 
REMARK    5  A    between atoms: C15_24  and  O10_25 
REMARK    6  A    between atoms: O10_25  and  C16_26 
ROOT
HETATM    1  C1  UNL     1      -0.646   2.711   1.973  1.00  0.00     0.064 C 
HETATM    2  C2  UNL     1      -0.168   1.246   1.836  1.00  0.00     0.093 C 
HETATM    3  C3  UNL     1       0.721   1.133   0.584  1.00  0.00     0.244 C 
HETATM    4  O1  UNL     1       1.834   2.029   0.666  1.00  0.00    -0.304 OA
HETATM    5  C4  UNL     1       1.565   3.307   0.990  1.00  0.00     0.115 C 
HETATM    6  C5  UNL     1       0.422   3.709   1.580  1.00  0.00     0.003 C 
HETATM    7  C12 UNL     1      -1.504   0.494   1.801  1.00  0.00     0.153 A 
HETATM    8  C13 UNL     1      -2.621   1.506   1.422  1.00  0.00     0.173 A 
HETATM    9  C14 UNL     1      -1.961   2.857   1.170  1.00  0.00     0.186 C 
HETATM   10  O8  UNL     1      -2.762   3.893   1.699  1.00  0.00    -0.220 OA
HETATM   11  O9  UNL     1      -2.121   0.543   0.551  1.00  0.00    -0.351 OA
ENDROOT
BRANCH   3  12
HETATM   12  O2  UNL     1       1.193  -0.191   0.457  1.00  0.00    -0.304 OA
BRANCH  12  13
HETATM   13  C6  UNL     1       1.967  -0.398  -0.709  1.00  0.00     0.272 C 
HETATM   14  O3  UNL     1       1.104  -0.316  -1.838  1.00  0.00    -0.326 OA
HETATM   15  C7  UNL     1       1.740  -0.482  -3.102  1.00  0.00     0.184 C 
HETATM   16  C8  UNL     1       2.428  -1.869  -3.189  1.00  0.00     0.215 C 
HETATM   17  O4  UNL     1       1.453  -2.899  -3.211  1.00  0.00    -0.218 OA
HETATM   18  C9  UNL     1       3.375  -2.113  -1.996  1.00  0.00     0.220 C 
HETATM   19  C10 UNL     1       2.647  -1.791  -0.668  1.00  0.00     0.241 C 
HETATM   20  O6  UNL     1       4.510  -1.275  -2.162  1.00  0.00    -0.218 OA
HETATM   21  O5  UNL     1       3.547  -1.881   0.428  1.00  0.00    -0.215 OA
BRANCH  15  22
HETATM   22  C11 UNL     1       0.684  -0.252  -4.187  1.00  0.00     0.214 C 
HETATM   23  O7  UNL     1       0.336   1.113  -4.186  1.00  0.00    -0.218 OA
ENDBRANCH  15  22
ENDBRANCH  12  13
ENDBRANCH   3  12
BRANCH   7  24
HETATM   24  C15 UNL     1      -1.760  -0.863   2.438  1.00  0.00     0.181 C 
BRANCH  24  25
HETATM   25  O10 UNL     1      -3.160  -1.086   2.531  1.00  0.00    -0.299 OA
BRANCH  25  26
HETATM   26  C16 UNL     1      -3.451  -2.260   3.082  1.00  0.00     0.273 C 
HETATM   27  O11 UNL     1      -2.619  -3.051   3.461  1.00  0.00    -0.264 OA
HETATM   28  C17 UNL     1      -4.920  -2.561   3.213  1.00  0.00     0.106 C 
ENDBRANCH  25  26
ENDBRANCH  24  25
ENDBRANCH   7  24
TORSDOF 6
