REMARK  1 active torsions:
REMARK  status: ('A' for Active; 'I' for Inactive)
REMARK    1  A    between atoms: C9_9  and  C11_11 
ROOT
HETATM    1  C1  UNL     1      -1.457  -0.701  -0.895  1.00  0.00     0.022 C 
HETATM    2  C2  UNL     1      -2.449  -0.023   0.076  1.00  0.00     0.004 C 
HETATM    3  C3  UNL     1      -2.260   1.514   0.150  1.00  0.00     0.001 C 
HETATM    4  C4  UNL     1      -1.416   2.068  -1.010  1.00  0.00     0.008 C 
HETATM    5  C5  UNL     1      -0.008   1.426  -1.055  1.00  0.00     0.036 C 
HETATM    6  C6  UNL     1       1.014   2.057  -0.119  1.00  0.00    -0.044 C 
HETATM    7  C7  UNL     1       2.125   1.371   0.217  1.00  0.00    -0.029 C 
HETATM    8  C8  UNL     1       2.348  -0.029  -0.315  1.00  0.00     0.047 C 
HETATM    9  C9  UNL     1       1.031  -0.762  -0.471  1.00  0.00    -0.047 C 
HETATM   10  C10 UNL     1      -0.086  -0.072  -0.793  1.00  0.00    -0.048 C 
HETATM   11  C14 UNL     1       0.785   3.442   0.434  1.00  0.00     0.026 C 
HETATM   12  C15 UNL     1      -2.377  -0.652   1.473  1.00  0.00     0.000 C 
ENDROOT
BRANCH   9  13
HETATM   13  C11 UNL     1       1.020  -2.254  -0.238  1.00  0.00     0.018 C 
HETATM   14  C12 UNL     1       0.570  -2.619   1.176  1.00  0.00     0.004 C 
HETATM   15  C13 UNL     1       2.344  -2.914  -0.625  1.00  0.00     0.004 C 
ENDBRANCH   9  13
TORSDOF 1
