REMARK  2 active torsions:
REMARK  status: ('A' for Active; 'I' for Inactive)
REMARK    1  A    between atoms: C1_1  and  O9_22 
REMARK    2  A    between atoms: C12_15  and  C13_17 
ROOT
HETATM    1  C1  UNL     1       3.045  -1.156  -0.375  1.00  0.00     0.144 A 
HETATM    2  C2  UNL     1       3.813  -0.387   0.531  1.00  0.00     0.155 A 
HETATM    3  C3  UNL     1       3.172   0.467   1.455  1.00  0.00     0.035 A 
HETATM    4  C4  UNL     1       1.758   0.551   1.471  1.00  0.00     0.066 A 
HETATM    5  C5  UNL     1       0.975  -0.217   0.568  1.00  0.00     0.040 A 
HETATM    6  C6  UNL     1       1.631  -1.080  -0.357  1.00  0.00     0.154 A 
HETATM    7  O1  UNL     1       0.932  -1.836  -1.215  1.00  0.00    -0.188 OA
HETATM    8  C7  UNL     1      -0.508  -0.082   0.674  1.00  0.00     0.170 C 
HETATM    9  C8  UNL     1      -0.900   1.348   1.137  1.00  0.00     0.189 C 
HETATM   10  O2  UNL     1      -0.271   1.658   2.387  1.00  0.00    -0.295 OA
HETATM   11  C9  UNL     1       1.057   1.445   2.440  1.00  0.00     0.296 C 
HETATM   12  O3  UNL     1       1.641   2.022   3.328  1.00  0.00    -0.259 OA
HETATM   13  C10 UNL     1      -2.434   1.549   1.244  1.00  0.00     0.215 C 
HETATM   14  C11 UNL     1      -3.232   0.305   0.783  1.00  0.00     0.214 C 
HETATM   15  C12 UNL     1      -2.619  -0.434  -0.445  1.00  0.00     0.181 C 
HETATM   16  O4  UNL     1      -1.201  -0.285  -0.553  1.00  0.00    -0.347 OA
HETATM   17  O6  UNL     1      -3.311  -0.596   1.875  1.00  0.00    -0.218 OA
HETATM   18  O7  UNL     1      -2.820   2.647   0.436  1.00  0.00    -0.218 OA
HETATM   19  O8  UNL     1       5.152  -0.463   0.514  1.00  0.00    -0.188 OA
ENDROOT
BRANCH   1  20
HETATM   20  O9  UNL     1       3.660  -1.965  -1.250  1.00  0.00    -0.324 OA
HETATM   21  C14 UNL     1       4.152  -1.393  -2.453  1.00  0.00     0.182 C 
ENDBRANCH   1  20
BRANCH  15  22
HETATM   22  C13 UNL     1      -3.197   0.070  -1.770  1.00  0.00     0.214 C 
HETATM   23  O5  UNL     1      -4.549  -0.328  -1.840  1.00  0.00    -0.218 OA
ENDBRANCH  15  22
TORSDOF 2
