REMARK  8 active torsions:
REMARK  status: ('A' for Active; 'I' for Inactive)
REMARK    1  A    between atoms: C5_5  and  C7_7 
REMARK    2  A    between atoms: C13_15  and  C16_18 
REMARK    3  A    between atoms: C17_19  and  C18_20 
REMARK    4  A    between atoms: C18_20  and  O3_21 
REMARK    5  A    between atoms: O3_21  and  C19_22 
REMARK    6  A    between atoms: C19_22  and  C20_23 
REMARK    7  A    between atoms: C19_22  and  C27_32 
REMARK    8  A    between atoms: C20_23  and  C21_24 
ROOT
HETATM    1  C7  UNL     1       5.223  -2.855  -1.834  1.00  0.00     0.030 C 
HETATM    2  C8  UNL     1       3.899  -2.928  -1.574  1.00  0.00     0.163 A 
HETATM    3  C9  UNL     1       3.225  -4.232  -1.330  1.00  0.00     0.323 A 
HETATM    4  O1  UNL     1       1.902  -4.227  -1.076  1.00  0.00    -0.270 OA
HETATM    5  C10 UNL     1       1.186  -3.084  -1.043  1.00  0.00     0.126 A 
HETATM    6  C11 UNL     1       1.828  -1.838  -1.277  1.00  0.00     0.123 A 
HETATM    7  O2  UNL     1       3.154  -1.807  -1.531  1.00  0.00    -0.300 OA
HETATM    8  C12 UNL     1       1.082  -0.637  -1.244  1.00  0.00     0.027 A 
HETATM    9  C13 UNL     1      -0.307  -0.682  -0.977  1.00  0.00     0.002 A 
HETATM   10  C14 UNL     1      -0.951  -1.922  -0.742  1.00  0.00     0.002 A 
HETATM   11  C15 UNL     1      -0.203  -3.123  -0.775  1.00  0.00     0.027 A 
HETATM   12  O9  UNL     1       3.863  -5.260  -1.361  1.00  0.00    -0.257 OA
ENDROOT
BRANCH   9  13
HETATM   13  C16 UNL     1      -1.090   0.570  -0.943  1.00  0.00     0.005 C 
HETATM   14  C17 UNL     1      -2.158   0.643  -0.131  1.00  0.00     0.068 C 
BRANCH  14  15
HETATM   15  C18 UNL     1      -2.965   1.865  -0.063  1.00  0.00     0.296 C 
HETATM   16  O8  UNL     1      -3.654   2.195  -1.000  1.00  0.00    -0.259 OA
BRANCH  15  17
HETATM   17  O3  UNL     1      -2.879   2.553   1.072  1.00  0.00    -0.290 OA
BRANCH  17  18
HETATM   18  C19 UNL     1      -4.019   3.365   1.301  1.00  0.00     0.215 C 
BRANCH  18  19
HETATM   19  C20 UNL     1      -5.270   2.486   1.359  1.00  0.00     0.068 C 
BRANCH  19  20
HETATM   20  C21 UNL     1      -5.113   1.379   2.340  1.00  0.00    -0.017 A 
HETATM   21  C22 UNL     1      -4.961   1.666   3.707  1.00  0.00    -0.002 A 
HETATM   22  C23 UNL     1      -4.814   0.617   4.631  1.00  0.00     0.029 A 
HETATM   23  C24 UNL     1      -4.818  -0.719   4.193  1.00  0.00     0.156 A 
HETATM   24  C25 UNL     1      -4.969  -1.006   2.824  1.00  0.00     0.156 A 
HETATM   25  O5  UNL     1      -4.680  -1.695   5.066  1.00  0.00    -0.188 OA
HETATM   26  C26 UNL     1      -5.117   0.045   1.900  1.00  0.00     0.025 A 
HETATM   27  O4  UNL     1      -4.973  -2.256   2.404  1.00  0.00    -0.188 OA
ENDBRANCH  19  20
ENDBRANCH  18  19
BRANCH  18  28
HETATM   28  C27 UNL     1      -4.109   4.418   0.229  1.00  0.00     0.215 C 
HETATM   29  O6  UNL     1      -3.002   5.131   0.041  1.00  0.00    -0.646 OA
HETATM   30  O7  UNL     1      -5.129   4.582  -0.400  1.00  0.00    -0.646 OA
ENDBRANCH  18  28
ENDBRANCH  17  18
ENDBRANCH  15  17
ENDBRANCH  14  15
ENDBRANCH   9  13
BRANCH   1  31
HETATM   31  C5  UNL     1       5.916  -1.555  -2.082  1.00  0.00     0.004 A 
HETATM   32  C4  UNL     1       5.516  -0.398  -1.389  1.00  0.00     0.002 A 
HETATM   33  C3  UNL     1       6.168   0.822  -1.625  1.00  0.00     0.029 A 
HETATM   34  C2  UNL     1       7.223   0.895  -2.551  1.00  0.00     0.156 A 
HETATM   35  C1  UNL     1       7.625  -0.262  -3.246  1.00  0.00     0.156 A 
HETATM   36  O10 UNL     1       7.832   2.043  -2.766  1.00  0.00    -0.188 OA
HETATM   37  C6  UNL     1       6.971  -1.484  -3.010  1.00  0.00     0.030 A 
HETATM   38  O11 UNL     1       8.614  -0.203  -4.115  1.00  0.00    -0.188 OA
ENDBRANCH   1  31
TORSDOF 8
