REMARK  17 active torsions:
REMARK  status: ('A' for Active; 'I' for Inactive)
REMARK    1  A    between atoms: C1_1  and  O7_28 
REMARK    2  A    between atoms: C2_2  and  O6_26 
REMARK    3  A    between atoms: C4_4  and  C8_9 
REMARK    4  A    between atoms: C6_6  and  O1_7 
REMARK    5  A    between atoms: C8_9  and  C9_10 
REMARK    6  A    between atoms: C9_10  and  C10_11 
REMARK    7  A    between atoms: C9_10  and  C20_24 
REMARK    8  A    between atoms: C10_11  and  C11_12 
REMARK    9  A    between atoms: C10_11  and  C19_22 
REMARK   10  A    between atoms: C11_12  and  C12_13 
REMARK   11  A    between atoms: C16_17  and  O2_19 
REMARK   12  A    between atoms: O7_28  and  C22_29 
REMARK   13  A    between atoms: C23_31  and  C24_32 
REMARK   14  A    between atoms: C24_32  and  O9_33 
REMARK   15  A    between atoms: O9_33  and  C25_34 
REMARK   16  A    between atoms: C25_34  and  C26_35 
REMARK   17  A    between atoms: C28_37  and  O11_42 
ROOT
HETATM    1  C1  UNL     1       0.221   2.143   0.504  1.00  0.00     0.141 A 
HETATM    2  C2  UNL     1       0.115   1.232  -0.563  1.00  0.00     0.118 A 
HETATM    3  C3  UNL     1       0.537  -0.098  -0.395  1.00  0.00     0.022 A 
HETATM    4  C4  UNL     1       1.064  -0.521   0.838  1.00  0.00    -0.018 A 
HETATM    5  C5  UNL     1       1.170   0.391   1.904  1.00  0.00     0.022 A 
HETATM    6  C6  UNL     1       0.750   1.721   1.740  1.00  0.00     0.118 A 
ENDROOT
BRANCH   1   7
HETATM    7  O7  UNL     1      -0.174   3.391   0.348  1.00  0.00    -0.300 OA
BRANCH   7   8
HETATM    8  C22 UNL     1      -1.287   3.840   1.109  1.00  0.00     0.274 C 
HETATM    9  O8  UNL     1      -2.408   3.022   0.809  1.00  0.00    -0.326 OA
HETATM   10  C23 UNL     1      -3.588   3.326   1.543  1.00  0.00     0.181 C 
HETATM   11  C33 UNL     1      -4.031   4.774   1.227  1.00  0.00     0.215 C 
HETATM   12  C34 UNL     1      -2.891   5.783   1.480  1.00  0.00     0.220 C 
HETATM   13  O15 UNL     1      -5.145   5.094   2.043  1.00  0.00    -0.218 OA
HETATM   14  C35 UNL     1      -1.607   5.309   0.764  1.00  0.00     0.241 C 
HETATM   15  O14 UNL     1      -3.264   7.065   1.002  1.00  0.00    -0.218 OA
HETATM   16  O13 UNL     1      -0.510   6.115   1.154  1.00  0.00    -0.215 OA
BRANCH  10  17
HETATM   17  C24 UNL     1      -4.637   2.281   1.150  1.00  0.00     0.184 C 
BRANCH  17  18
HETATM   18  O9  UNL     1      -4.111   0.981   1.365  1.00  0.00    -0.296 OA
BRANCH  18  19
HETATM   19  C25 UNL     1      -4.963   0.023   1.008  1.00  0.00     0.296 C 
HETATM   20  O12 UNL     1      -6.104   0.232   0.666  1.00  0.00    -0.259 OA
BRANCH  19  21
HETATM   21  C26 UNL     1      -4.416  -1.365   1.051  1.00  0.00     0.065 A 
HETATM   22  C27 UNL     1      -5.256  -2.461   0.783  1.00  0.00     0.032 A 
HETATM   23  C28 UNL     1      -4.744  -3.772   0.822  1.00  0.00     0.119 A 
HETATM   24  C29 UNL     1      -3.387  -3.984   1.129  1.00  0.00     0.153 A 
HETATM   25  C30 UNL     1      -2.549  -2.889   1.395  1.00  0.00     0.030 A 
HETATM   26  O10 UNL     1      -2.900  -5.209   1.168  1.00  0.00    -0.188 OA
HETATM   27  C31 UNL     1      -3.061  -1.580   1.355  1.00  0.00     0.008 A 
BRANCH  23  28
HETATM   28  O11 UNL     1      -5.537  -4.793   0.572  1.00  0.00    -0.326 OA
HETATM   29  C32 UNL     1      -4.979  -6.098   0.623  1.00  0.00     0.181 C 
ENDBRANCH  23  28
ENDBRANCH  19  21
ENDBRANCH  18  19
ENDBRANCH  17  18
ENDBRANCH  10  17
ENDBRANCH   7   8
ENDBRANCH   1   7
BRANCH   2  30
HETATM   30  O6  UNL     1      -0.379   1.621  -1.721  1.00  0.00    -0.326 OA
HETATM   31  C21 UNL     1      -0.074   2.936  -2.168  1.00  0.00     0.181 C 
ENDBRANCH   2  30
BRANCH   6  32
HETATM   32  O1  UNL     1       0.852   2.570   2.742  1.00  0.00    -0.326 OA
HETATM   33  C7  UNL     1       1.613   2.178   3.875  1.00  0.00     0.181 C 
ENDBRANCH   6  32
BRANCH   4  34
HETATM   34  C8  UNL     1       1.510  -1.928   1.016  1.00  0.00     0.029 C 
BRANCH  34  35
HETATM   35  C9  UNL     1       3.031  -2.025   1.135  1.00  0.00     0.040 C 
BRANCH  35  36
HETATM   36  C10 UNL     1       3.750  -1.678  -0.170  1.00  0.00     0.040 C 
BRANCH  36  37
HETATM   37  C11 UNL     1       3.545  -2.732  -1.256  1.00  0.00     0.029 C 
BRANCH  37  38
HETATM   38  C12 UNL     1       3.852  -2.195  -2.608  1.00  0.00    -0.020 A 
HETATM   39  C13 UNL     1       5.107  -2.430  -3.191  1.00  0.00    -0.002 A 
HETATM   40  C14 UNL     1       5.393  -1.918  -4.469  1.00  0.00     0.029 A 
HETATM   41  C15 UNL     1       4.426  -1.172  -5.166  1.00  0.00     0.153 A 
HETATM   42  C16 UNL     1       3.168  -0.937  -4.580  1.00  0.00     0.119 A 
HETATM   43  O3  UNL     1       4.701  -0.695  -6.363  1.00  0.00    -0.188 OA
HETATM   44  C17 UNL     1       2.883  -1.449  -3.303  1.00  0.00     0.022 A 
BRANCH  42  45
HETATM   45  O2  UNL     1       2.256  -0.238  -5.227  1.00  0.00    -0.326 OA
HETATM   46  C18 UNL     1       0.959  -0.146  -4.656  1.00  0.00     0.181 C 
ENDBRANCH  42  45
ENDBRANCH  37  38
ENDBRANCH  36  37
BRANCH  36  47
HETATM   47  C19 UNL     1       5.223  -1.328   0.043  1.00  0.00     0.183 C 
HETATM   48  O4  UNL     1       5.617  -0.439  -0.977  1.00  0.00    -0.221 OA
ENDBRANCH  36  47
ENDBRANCH  35  36
BRANCH  35  49
HETATM   49  C20 UNL     1       3.492  -3.359   1.725  1.00  0.00     0.183 C 
HETATM   50  O5  UNL     1       4.291  -3.090   2.854  1.00  0.00    -0.221 OA
ENDBRANCH  35  49
ENDBRANCH  34  35
ENDBRANCH   4  34
TORSDOF 17
