REMARK  7 active torsions:
REMARK  status: ('A' for Active; 'I' for Inactive)
REMARK    1  A    between atoms: C2_2  and  C7_8 
REMARK    2  A    between atoms: C14_18  and  O5_20 
REMARK    3  A    between atoms: O5_20  and  C16_21 
REMARK    4  A    between atoms: C17_22  and  O9_30 
REMARK    5  A    between atoms: O9_30  and  C22_31 
REMARK    6  A    between atoms: C22_31  and  C23_32 
REMARK    7  A    between atoms: C24_33  and  C25_34 
ROOT
HETATM    1  C16 UNL     1      -1.344   0.406  -0.023  1.00  0.00     0.271 C 
HETATM    2  C17 UNL     1      -2.668   1.178  -0.170  1.00  0.00     0.214 C 
HETATM    3  C18 UNL     1      -2.680   2.014  -1.463  1.00  0.00     0.217 C 
HETATM    4  C19 UNL     1      -2.305   1.123  -2.668  1.00  0.00     0.212 C 
HETATM    5  C20 UNL     1      -0.986   0.357  -2.402  1.00  0.00     0.151 C 
HETATM    6  O6  UNL     1      -1.094  -0.375  -1.187  1.00  0.00    -0.329 OA
HETATM    7  C21 UNL     1      -0.654  -0.654  -3.504  1.00  0.00     0.035 C 
HETATM    8  O7  UNL     1      -2.141   1.924  -3.824  1.00  0.00    -0.218 OA
HETATM    9  O8  UNL     1      -3.961   2.592  -1.643  1.00  0.00    -0.218 OA
ENDROOT
BRANCH   1  10
HETATM   10  O5  UNL     1      -0.273   1.314   0.209  1.00  0.00    -0.304 OA
BRANCH  10  11
HETATM   11  C14 UNL     1       0.953   0.807   0.393  1.00  0.00     0.101 A 
HETATM   12  C13 UNL     1       1.109  -0.496   0.922  1.00  0.00     0.052 A 
HETATM   13  C12 UNL     1       2.402  -1.035   1.115  1.00  0.00     0.138 A 
HETATM   14  C9  UNL     1       3.543  -0.262   0.777  1.00  0.00     0.089 A 
HETATM   15  O12 UNL     1       2.531  -2.272   1.619  1.00  0.00    -0.190 OA
HETATM   16  C8  UNL     1       3.389   1.045   0.248  1.00  0.00     0.107 A 
HETATM   17  C10 UNL     1       4.920  -0.795   0.965  1.00  0.00     0.227 A 
HETATM   18  O2  UNL     1       4.475   1.779  -0.074  1.00  0.00    -0.305 OA
HETATM   19  C15 UNL     1       2.092   1.576   0.055  1.00  0.00     0.049 A 
HETATM   20  C7  UNL     1       5.744   1.348   0.080  1.00  0.00     0.128 A 
HETATM   21  C11 UNL     1       6.024   0.115   0.574  1.00  0.00     0.192 A 
HETATM   22  O3  UNL     1       7.283  -0.301   0.721  1.00  0.00    -0.185 OA
HETATM   23  O4  UNL     1       5.231  -1.881   1.398  1.00  0.00    -0.284 OA
BRANCH  20  24
HETATM   24  C2  UNL     1       6.865   2.254  -0.309  1.00  0.00     0.025 A 
HETATM   25  C1  UNL     1       8.016   2.336   0.498  1.00  0.00     0.004 A 
HETATM   26  C6  UNL     1       9.071   3.187   0.131  1.00  0.00     0.028 A 
HETATM   27  C5  UNL     1       8.983   3.963  -1.039  1.00  0.00     0.131 A 
HETATM   28  C4  UNL     1       7.832   3.879  -1.844  1.00  0.00     0.028 A 
HETATM   29  O1  UNL     1       9.973   4.762  -1.381  1.00  0.00    -0.190 OA
HETATM   30  C3  UNL     1       6.776   3.025  -1.479  1.00  0.00     0.004 A 
ENDBRANCH  20  24
ENDBRANCH  10  11
ENDBRANCH   1  10
BRANCH   2  31
HETATM   31  O9  UNL     1      -3.742   0.244  -0.184  1.00  0.00    -0.293 OA
BRANCH  31  32
HETATM   32  C22 UNL     1      -3.953  -0.301   1.012  1.00  0.00     0.296 C 
HETATM   33  O11 UNL     1      -3.322  -0.018   2.002  1.00  0.00    -0.259 OA
BRANCH  32  34
HETATM   34  C23 UNL     1      -5.029  -1.297   1.076  1.00  0.00     0.068 C 
HETATM   35  C24 UNL     1      -5.326  -1.908   2.234  1.00  0.00     0.005 C 
BRANCH  35  36
HETATM   36  C25 UNL     1      -6.430  -2.916   2.250  1.00  0.00     0.000 A 
HETATM   37  C26 UNL     1      -6.500  -3.867   3.283  1.00  0.00     0.002 A 
HETATM   38  C27 UNL     1      -7.537  -4.815   3.297  1.00  0.00     0.027 A 
HETATM   39  C28 UNL     1      -8.508  -4.817   2.279  1.00  0.00     0.131 A 
HETATM   40  C29 UNL     1      -8.436  -3.863   1.248  1.00  0.00     0.027 A 
HETATM   41  O10 UNL     1      -9.481  -5.705   2.293  1.00  0.00    -0.190 OA
HETATM   42  C30 UNL     1      -7.398  -2.916   1.231  1.00  0.00     0.002 A 
ENDBRANCH  35  36
ENDBRANCH  32  34
ENDBRANCH  31  32
ENDBRANCH   2  31
TORSDOF 7
