REMARK  0 active torsions:
REMARK  status: ('A' for Active; 'I' for Inactive)
ROOT
HETATM    1  C1  UNL     1      -3.512  -0.416   0.432  1.00  0.00     0.000 A 
HETATM    2  C2  UNL     1      -3.088  -1.762   0.237  1.00  0.00     0.002 A 
HETATM    3  C3  UNL     1      -1.719  -2.067   0.024  1.00  0.00     0.018 A 
HETATM    4  C4  UNL     1      -0.793  -1.000   0.008  1.00  0.00     0.067 A 
HETATM    5  C5  UNL     1      -1.211   0.328   0.198  1.00  0.00     0.018 A 
HETATM    6  C6  UNL     1      -2.570   0.648   0.412  1.00  0.00     0.002 A 
HETATM    7  C7  UNL     1      -0.129   1.160   0.133  1.00  0.00     0.021 A 
HETATM    8  C8  UNL     1       0.994   0.390  -0.094  1.00  0.00     0.085 A 
HETATM    9  N1  UNL     1       0.596  -0.924  -0.170  1.00  0.00    -0.273 N 
HETATM   10  C9  UNL     1       1.598  -1.920  -0.402  1.00  0.00     0.265 A 
HETATM   11  C10 UNL     1       3.006  -1.428  -0.541  1.00  0.00     0.063 A 
HETATM   12  C11 UNL     1       3.330  -0.106  -0.457  1.00  0.00     0.025 A 
HETATM   13  C12 UNL     1       2.278   0.937  -0.213  1.00  0.00     0.098 A 
HETATM   14  N2  UNL     1       2.447   2.307  -0.101  1.00  0.00    -0.243 NA
HETATM   15  C13 UNL     1       1.326   3.113   0.127  1.00  0.00     0.099 A 
HETATM   16  C14 UNL     1       0.006   2.570   0.252  1.00  0.00     0.022 A 
HETATM   17  O1  UNL     1       1.332  -3.098  -0.484  1.00  0.00    -0.267 OA
ENDROOT
TORSDOF 0
