REMARK  2 active torsions:
REMARK  status: ('A' for Active; 'I' for Inactive)
REMARK    1  A    between atoms: C2_2  and  O2_17 
REMARK    2  A    between atoms: C7_7  and  C10_11 
ROOT
HETATM    1  C1  UNL     1      -2.715   0.330   0.043  1.00  0.00     0.153 A 
HETATM    2  C2  UNL     1      -2.715   1.752  -0.076  1.00  0.00     0.121 A 
HETATM    3  C3  UNL     1      -1.488   2.463  -0.150  1.00  0.00     0.051 A 
HETATM    4  C4  UNL     1      -0.297   1.707  -0.102  1.00  0.00     0.102 A 
HETATM    5  C5  UNL     1      -0.274   0.348   0.012  1.00  0.00     0.027 A 
HETATM    6  C6  UNL     1      -1.486  -0.385   0.088  1.00  0.00     0.031 A 
HETATM    7  C7  UNL     1       0.994  -0.143   0.039  1.00  0.00     0.021 A 
HETATM    8  C8  UNL     1       1.791   1.027  -0.068  1.00  0.00     0.078 A 
HETATM    9  O1  UNL     1       0.986   2.199  -0.158  1.00  0.00    -0.311 OA
HETATM   10  C9  UNL     1       3.305   1.096  -0.092  1.00  0.00     0.058 C 
HETATM   11  O3  UNL     1      -3.875  -0.338   0.111  1.00  0.00    -0.188 OA
ENDROOT
BRANCH   7  12
HETATM   12  C10 UNL     1       1.453  -1.549   0.154  1.00  0.00     0.002 A 
HETATM   13  C11 UNL     1       0.898  -2.393   1.135  1.00  0.00     0.000 A 
HETATM   14  C12 UNL     1       1.332  -3.727   1.242  1.00  0.00     0.000 A 
HETATM   15  C13 UNL     1       2.320  -4.217   0.371  1.00  0.00     0.000 A 
HETATM   16  C14 UNL     1       2.875  -3.375  -0.609  1.00  0.00     0.000 A 
HETATM   17  C15 UNL     1       2.441  -2.041  -0.719  1.00  0.00     0.000 A 
ENDBRANCH   7  12
BRANCH   2  18
HETATM   18  O2  UNL     1      -3.875   2.422  -0.115  1.00  0.00    -0.326 OA
HETATM   19  C16 UNL     1      -3.846   3.779  -0.529  1.00  0.00     0.181 C 
ENDBRANCH   2  18
TORSDOF 2
