REMARK  12 active torsions:
REMARK  status: ('A' for Active; 'I' for Inactive)
REMARK    1  A    between atoms: C1_1  and  C2_2 
REMARK    2  A    between atoms: C2_2  and  C3_3 
REMARK    3  A    between atoms: C3_3  and  C4_4 
REMARK    4  A    between atoms: C5_5  and  C6_6 
REMARK    5  A    between atoms: C6_6  and  C7_7 
REMARK    6  A    between atoms: C7_7  and  C8_8 
REMARK    7  A    between atoms: C8_8  and  C9_9 
REMARK    8  A    between atoms: C9_9  and  C10_10 
REMARK    9  A    between atoms: C10_10  and  C11_11 
REMARK   10  A    between atoms: C11_11  and  C12_12 
REMARK   11  A    between atoms: C12_12  and  C13_13 
REMARK   12  A    between atoms: C13_13  and  C14_14 
ROOT
HETATM    1  C8  UNL     1      -0.094   1.295  -0.682  1.00  0.00     0.000 C 
ENDROOT
BRANCH   1   2
HETATM    2  C7  UNL     1      -0.984   1.326  -1.922  1.00  0.00     0.005 C 
BRANCH   2   3
HETATM    3  C6  UNL     1      -1.234   2.746  -2.434  1.00  0.00     0.026 C 
BRANCH   3   4
HETATM    4  C5  UNL     1      -2.121   2.772  -3.648  1.00  0.00    -0.031 C 
HETATM    5  C4  UNL     1      -3.154   3.629  -3.672  1.00  0.00    -0.030 C 
BRANCH   5   6
HETATM    6  C3  UNL     1      -4.039   3.654  -4.889  1.00  0.00     0.037 C 
BRANCH   6   7
HETATM    7  C2  UNL     1      -5.522   3.514  -4.533  1.00  0.00     0.102 C 
BRANCH   7   8
HETATM    8  C1  UNL     1      -6.410   3.574  -5.748  1.00  0.00     0.186 C 
HETATM    9  O1  UNL     1      -6.000   3.242  -6.836  1.00  0.00    -0.647 OA
HETATM   10  O2  UNL     1      -7.647   4.012  -5.521  1.00  0.00    -0.647 OA
ENDBRANCH   7   8
ENDBRANCH   6   7
ENDBRANCH   5   6
ENDBRANCH   3   4
ENDBRANCH   2   3
ENDBRANCH   1   2
BRANCH   1  11
HETATM   11  C9  UNL     1       0.158  -0.125  -0.170  1.00  0.00     0.000 C 
BRANCH  11  12
HETATM   12  C10 UNL     1       1.051  -0.158   1.070  1.00  0.00     0.000 C 
BRANCH  12  13
HETATM   13  C11 UNL     1       1.301  -1.576   1.580  1.00  0.00     0.000 C 
BRANCH  13  14
HETATM   14  C12 UNL     1       2.193  -1.609   2.822  1.00  0.00     0.000 C 
BRANCH  14  15
HETATM   15  C13 UNL     1       2.441  -3.027   3.332  1.00  0.00     0.004 C 
BRANCH  15  16
HETATM   16  C14 UNL     1       3.311  -2.973   4.584  1.00  0.00     0.022 C 
HETATM   17  C15 UNL     1       4.705  -2.518   4.256  1.00  0.00    -0.031 C 
HETATM   18  C16 UNL     1       5.563  -3.543   4.256  1.00  0.00    -0.031 C 
HETATM   19  C17 UNL     1       4.861  -4.828   4.588  1.00  0.00     0.026 C 
HETATM   20  C18 UNL     1       3.510  -4.383   5.164  1.00  0.00     0.009 C 
ENDBRANCH  15  16
ENDBRANCH  14  15
ENDBRANCH  13  14
ENDBRANCH  12  13
ENDBRANCH  11  12
ENDBRANCH   1  11
TORSDOF 12
