REMARK  4 active torsions:
REMARK  status: ('A' for Active; 'I' for Inactive)
REMARK    1  A    between atoms: C5_5  and  O1_7 
REMARK    2  A    between atoms: O1_7  and  O2_8 
REMARK    3  A    between atoms: O2_8  and  C7_9 
REMARK    4  A    between atoms: C8_11  and  C12_18 
ROOT
HETATM    1  C1  UNL     1       2.883   3.346  -0.717  1.00  0.00     0.002 A 
HETATM    2  C2  UNL     1       1.692   4.072  -0.914  1.00  0.00     0.003 A 
HETATM    3  C3  UNL     1       0.438   3.410  -0.988  1.00  0.00     0.044 A 
HETATM    4  C4  UNL     1       0.385   1.990  -0.857  1.00  0.00     0.067 A 
HETATM    5  C5  UNL     1       1.596   1.266  -0.654  1.00  0.00     0.134 A 
HETATM    6  C6  UNL     1       2.834   1.943  -0.586  1.00  0.00     0.028 A 
HETATM    7  C13 UNL     1      -0.916   1.244  -0.928  1.00  0.00     0.200 A 
HETATM    8  C14 UNL     1      -2.152   2.064  -1.156  1.00  0.00     0.067 A 
HETATM    9  C15 UNL     1      -2.090   3.484  -1.285  1.00  0.00     0.044 A 
HETATM   10  C16 UNL     1      -0.795   4.231  -1.201  1.00  0.00     0.196 A 
HETATM   11  O8  UNL     1      -0.748   5.436  -1.303  1.00  0.00    -0.287 OA
HETATM   12  C17 UNL     1      -3.287   4.221  -1.498  1.00  0.00    -0.001 A 
HETATM   13  C18 UNL     1      -4.533   3.565  -1.588  1.00  0.00    -0.020 A 
HETATM   14  C19 UNL     1      -4.598   2.162  -1.461  1.00  0.00     0.023 A 
HETATM   15  C20 UNL     1      -3.418   1.414  -1.246  1.00  0.00     0.134 A 
HETATM   16  O9  UNL     1      -3.521   0.082  -1.133  1.00  0.00    -0.190 OA
HETATM   17  C21 UNL     1      -5.762   4.342  -1.811  1.00  0.00     0.031 C 
HETATM   18  O10 UNL     1      -0.965   0.039  -0.809  1.00  0.00    -0.286 OA
ENDROOT
BRANCH   5  19
HETATM   19  O1  UNL     1       1.596  -0.068  -0.523  1.00  0.00    -0.192 OA
BRANCH  19  20
HETATM   20  O2  UNL     1       2.520  -0.459   0.473  1.00  0.00    -0.185 OA
BRANCH  20  21
HETATM   21  C7  UNL     1       2.432  -1.869   0.522  1.00  0.00     0.303 C 
HETATM   22  O3  UNL     1       1.152  -2.223   1.027  1.00  0.00    -0.324 OA
HETATM   23  C8  UNL     1       0.893  -3.617   1.088  1.00  0.00     0.184 C 
HETATM   24  C9  UNL     1       1.908  -4.287   2.041  1.00  0.00     0.215 C 
HETATM   25  C10 UNL     1       3.361  -3.975   1.625  1.00  0.00     0.220 C 
HETATM   26  O6  UNL     1       1.693  -5.688   2.020  1.00  0.00    -0.218 OA
HETATM   27  C11 UNL     1       3.539  -2.451   1.438  1.00  0.00     0.244 C 
HETATM   28  O5  UNL     1       4.258  -4.445   2.619  1.00  0.00    -0.218 OA
HETATM   29  O4  UNL     1       4.809  -2.193   0.859  1.00  0.00    -0.215 OA
BRANCH  23  30
HETATM   30  C12 UNL     1      -0.559  -3.775   1.553  1.00  0.00     0.214 C 
HETATM   31  O7  UNL     1      -1.404  -3.289   0.535  1.00  0.00    -0.218 OA
ENDBRANCH  23  30
ENDBRANCH  20  21
ENDBRANCH  19  20
ENDBRANCH   5  19
TORSDOF 4
