REMARK  11 active torsions:
REMARK  status: ('A' for Active; 'I' for Inactive)
REMARK    1  A    between atoms: C2_2  and  O3_33 
REMARK    2  A    between atoms: C16_16  and  C25_25 
REMARK    3  A    between atoms: O3_33  and  C31_34 
REMARK    4  A    between atoms: C33_36  and  O8_44 
REMARK    5  A    between atoms: C35_38  and  C36_40 
REMARK    6  A    between atoms: O8_44  and  C37_45 
REMARK    7  A    between atoms: C37_45  and  C38_46 
REMARK    8  A    between atoms: C37_45  and  O12_51 
REMARK    9  A    between atoms: C38_46  and  C39_48 
REMARK   10  A    between atoms: O12_51  and  C40_52 
REMARK   11  A    between atoms: C40_52  and  C41_53 
ROOT
HETATM    1  C1  UNL     1      -2.404  -1.025  -1.936  1.00  0.00     0.030 C 
HETATM    2  C2  UNL     1      -3.105  -0.977  -0.564  1.00  0.00     0.118 C 
HETATM    3  C3  UNL     1      -2.551  -2.039   0.420  1.00  0.00     0.025 C 
HETATM    4  C4  UNL     1      -0.994  -1.961   0.500  1.00  0.00     0.002 C 
HETATM    5  C5  UNL     1      -0.279  -2.000  -0.881  1.00  0.00     0.001 C 
HETATM    6  C6  UNL     1      -0.879  -0.908  -1.799  1.00  0.00     0.003 C 
HETATM    7  C7  UNL     1       1.274  -1.842  -0.709  1.00  0.00     0.005 C 
HETATM    8  C8  UNL     1       1.926  -2.844   0.303  1.00  0.00     0.004 C 
HETATM    9  C9  UNL     1       1.102  -2.824   1.621  1.00  0.00     0.000 C 
HETATM   10  C10 UNL     1      -0.402  -3.026   1.437  1.00  0.00     0.000 C 
HETATM   11  C11 UNL     1       3.465  -2.514   0.598  1.00  0.00     0.015 C 
HETATM   12  C12 UNL     1       4.043  -1.361  -0.225  1.00  0.00    -0.049 C 
HETATM   13  C13 UNL     1       3.240  -0.350  -0.619  1.00  0.00    -0.035 C 
HETATM   14  C14 UNL     1       1.756  -0.414  -0.383  1.00  0.00     0.025 C 
HETATM   15  C15 UNL     1       5.531  -1.391  -0.596  1.00  0.00     0.028 C 
HETATM   16  C16 UNL     1       6.397  -2.119   0.471  1.00  0.00     0.082 C 
HETATM   17  C17 UNL     1       5.856  -3.547   0.738  1.00  0.00     0.011 C 
HETATM   18  C18 UNL     1       4.373  -3.750   0.369  1.00  0.00     0.004 C 
HETATM   19  C19 UNL     1       7.863  -2.207  -0.008  1.00  0.00     0.011 C 
HETATM   20  C20 UNL     1       8.459  -0.834  -0.356  1.00  0.00     0.001 C 
HETATM   21  C21 UNL     1       7.621  -0.090  -1.410  1.00  0.00     0.000 C 
HETATM   22  C22 UNL     1       6.147  -0.014  -0.965  1.00  0.00     0.004 C 
HETATM   23  C23 UNL     1       7.721  -0.818  -2.758  1.00  0.00     0.000 C 
HETATM   24  C24 UNL     1       8.170   1.328  -1.594  1.00  0.00     0.000 C 
HETATM   25  C26 UNL     1       3.660  -2.070   2.061  1.00  0.00     0.004 C 
HETATM   26  C27 UNL     1       1.777  -4.260  -0.287  1.00  0.00     0.000 C 
HETATM   27  C28 UNL     1      -0.549  -3.344  -1.580  1.00  0.00     0.000 C 
HETATM   28  C29 UNL     1      -3.006  -3.430  -0.047  1.00  0.00     0.002 C 
HETATM   29  C30 UNL     1      -3.160  -1.830   1.816  1.00  0.00     0.002 C 
ENDROOT
BRANCH   2  30
HETATM   30  O3  UNL     1      -2.951   0.326  -0.027  1.00  0.00    -0.332 OA
BRANCH  30  31
HETATM   31  C31 UNL     1      -3.848   1.268  -0.584  1.00  0.00     0.270 C 
HETATM   32  C32 UNL     1      -3.447   2.752  -0.283  1.00  0.00     0.238 C 
HETATM   33  C33 UNL     1      -4.666   3.725  -0.305  1.00  0.00     0.187 C 
HETATM   34  O15 UNL     1      -2.689   2.900   0.912  1.00  0.00    -0.215 OA
HETATM   35  C34 UNL     1      -5.736   3.141  -1.256  1.00  0.00     0.220 C 
HETATM   36  C35 UNL     1      -6.201   1.717  -0.832  1.00  0.00     0.237 C 
HETATM   37  O7  UNL     1      -6.852   4.006  -1.373  1.00  0.00    -0.217 OA
HETATM   38  O4  UNL     1      -5.170   1.018  -0.131  1.00  0.00    -0.318 OA
BRANCH  33  39
HETATM   39  O8  UNL     1      -5.240   3.891   0.986  1.00  0.00    -0.326 OA
BRANCH  39  40
HETATM   40  C37 UNL     1      -5.996   5.074   1.109  1.00  0.00     0.279 C 
BRANCH  40  41
HETATM   41  C38 UNL     1      -7.379   4.707   1.650  1.00  0.00     0.294 C 
HETATM   42  O9  UNL     1      -7.219   4.184   2.949  1.00  0.00    -0.206 OA
BRANCH  41  43
HETATM   43  C39 UNL     1      -8.311   5.887   1.695  1.00  0.00     0.223 C 
HETATM   44  O10 UNL     1      -7.957   6.975   1.303  1.00  0.00    -0.645 OA
HETATM   45  O11 UNL     1      -9.520   5.635   2.189  1.00  0.00    -0.645 OA
ENDBRANCH  41  43
ENDBRANCH  40  41
BRANCH  40  46
HETATM   46  O12 UNL     1      -5.377   5.939   2.035  1.00  0.00    -0.317 OA
BRANCH  46  47
HETATM   47  C40 UNL     1      -4.197   6.531   1.539  1.00  0.00     0.242 C 
BRANCH  47  48
HETATM   48  C41 UNL     1      -3.006   5.732   1.996  1.00  0.00     0.217 C 
HETATM   49  O13 UNL     1      -3.014   5.156   3.057  1.00  0.00    -0.646 OA
HETATM   50  O14 UNL     1      -1.978   5.719   1.150  1.00  0.00    -0.646 OA
ENDBRANCH  47  48
ENDBRANCH  46  47
ENDBRANCH  40  46
ENDBRANCH  39  40
ENDBRANCH  33  39
BRANCH  36  51
HETATM   51  C36 UNL     1      -6.652   0.883  -2.008  1.00  0.00     0.217 C 
HETATM   52  O5  UNL     1      -6.463   1.252  -3.143  1.00  0.00    -0.646 OA
HETATM   53  O6  UNL     1      -7.258  -0.258  -1.690  1.00  0.00    -0.646 OA
ENDBRANCH  36  51
ENDBRANCH  30  31
ENDBRANCH   2  30
BRANCH  16  54
HETATM   54  C25 UNL     1       6.403  -1.328   1.764  1.00  0.00     0.184 C 
HETATM   55  O1  UNL     1       5.797  -0.287   1.861  1.00  0.00    -0.647 OA
HETATM   56  O2  UNL     1       7.112  -1.867   2.754  1.00  0.00    -0.647 OA
ENDBRANCH  16  54
TORSDOF 11
