REMARK  8 active torsions:
REMARK  status: ('A' for Active; 'I' for Inactive)
REMARK    1  A    between atoms: C1_1  and  C2_2 
REMARK    2  A    between atoms: C3_3  and  C4_4 
REMARK    3  A    between atoms: C3_3  and  O2_12 
REMARK    4  A    between atoms: C4_4  and  C5_5 
REMARK    5  A    between atoms: C5_5  and  C6_6 
REMARK    6  A    between atoms: C6_6  and  C7_7 
REMARK    7  A    between atoms: C7_7  and  C8_8 
REMARK    8  A    between atoms: C8_8  and  C9_9 
ROOT
HETATM    1  C4  UNL     1       1.768   0.754   1.394  1.00  0.00     0.084 C 
ENDROOT
BRANCH   1   2
HETATM    2  C3  UNL     1       1.516  -0.711   1.635  1.00  0.00     0.080 C 
HETATM    3  C2  UNL     1       2.002  -1.598   0.754  1.00  0.00     0.090 C 
BRANCH   3   4
HETATM    4  C1  UNL     1       1.785  -3.037   0.943  1.00  0.00     0.213 C 
HETATM    5  O3  UNL     1       0.805  -3.437   1.523  1.00  0.00    -0.644 OA
HETATM    6  O4  UNL     1       2.725  -3.834   0.439  1.00  0.00    -0.644 OA
ENDBRANCH   3   4
BRANCH   2   7
HETATM    7  O2  UNL     1       0.828  -1.123   2.697  1.00  0.00    -0.332 OA
HETATM    8  C11 UNL     1       1.274  -0.514   3.900  1.00  0.00     0.181 C 
ENDBRANCH   2   7
ENDBRANCH   1   2
BRANCH   1   9
HETATM    9  C5  UNL     1       0.518   1.486   0.902  1.00  0.00     0.159 C 
HETATM   10  O1  UNL     1      -0.478   1.373   1.895  1.00  0.00    -0.223 OA
BRANCH   9  11
HETATM   11  C6  UNL     1      -0.035   0.902  -0.398  1.00  0.00     0.033 C 
BRANCH  11  12
HETATM   12  C7  UNL     1      -1.105   1.791  -1.035  1.00  0.00     0.003 C 
BRANCH  12  13
HETATM   13  C8  UNL     1      -1.559   1.279  -2.402  1.00  0.00     0.000 C 
BRANCH  13  14
HETATM   14  C9  UNL     1      -2.394   0.002  -2.309  1.00  0.00     0.000 C 
HETATM   15  C10 UNL     1      -2.908  -0.469  -3.670  1.00  0.00     0.000 C 
ENDBRANCH  13  14
ENDBRANCH  12  13
ENDBRANCH  11  12
ENDBRANCH   9  11
ENDBRANCH   1   9
TORSDOF 8
