REMARK  3 active torsions:
REMARK  status: ('A' for Active; 'I' for Inactive)
REMARK    1  A    between atoms: C11_13  and  C12_14 
REMARK    2  A    between atoms: C15_17  and  O4_22 
REMARK    3  A    between atoms: C16_18  and  O3_20 
ROOT
HETATM    1  C1  UNL     1       3.129  -0.666  -0.617  1.00  0.00     0.119 A 
HETATM    2  C2  UNL     1       1.793  -0.256  -0.383  1.00  0.00     0.026 A 
HETATM    3  C3  UNL     1       0.676  -1.025  -0.818  1.00  0.00     0.004 A 
HETATM    4  C4  UNL     1       0.936  -2.248  -1.516  1.00  0.00     0.027 A 
HETATM    5  C5  UNL     1       2.281  -2.643  -1.740  1.00  0.00     0.028 A 
HETATM    6  C6  UNL     1       3.373  -1.859  -1.295  1.00  0.00     0.119 A 
HETATM    7  O1  UNL     1       4.692  -2.039  -1.398  1.00  0.00    -0.300 OA
HETATM    8  C7  UNL     1       5.373  -0.930  -0.773  1.00  0.00     0.304 A 
HETATM    9  O2  UNL     1       4.293  -0.098  -0.299  1.00  0.00    -0.300 OA
HETATM   10  C8  UNL     1      -0.135  -3.066  -1.984  1.00  0.00     0.130 A 
HETATM   11  C9  UNL     1      -1.459  -2.633  -1.738  1.00  0.00     0.038 A 
HETATM   12  C10 UNL     1      -1.703  -1.453  -1.063  1.00  0.00     0.064 A 
HETATM   13  C11 UNL     1      -0.674  -0.602  -0.574  1.00  0.00     0.005 A 
HETATM   14  C20 UNL     1      -3.143  -1.252  -0.947  1.00  0.00     0.296 A 
HETATM   15  O5  UNL     1      -3.777  -2.287  -1.541  1.00  0.00    -0.293 OA
HETATM   16  C21 UNL     1      -2.809  -3.231  -2.084  1.00  0.00     0.181 A 
HETATM   17  O6  UNL     1      -3.660  -0.305  -0.402  1.00  0.00    -0.259 OA
HETATM   18  O7  UNL     1       0.203  -4.195  -2.629  1.00  0.00    -0.190 OA
ENDROOT
BRANCH  13  19
HETATM   19  C12 UNL     1      -0.902   0.652   0.145  1.00  0.00     0.002 A 
HETATM   20  C13 UNL     1      -1.435   1.766  -0.531  1.00  0.00     0.002 A 
HETATM   21  C14 UNL     1      -1.652   2.967   0.164  1.00  0.00     0.026 A 
HETATM   22  C15 UNL     1      -1.340   3.063   1.531  1.00  0.00     0.116 A 
HETATM   23  C16 UNL     1      -0.807   1.949   2.207  1.00  0.00     0.116 A 
HETATM   24  C17 UNL     1      -0.588   0.746   1.512  1.00  0.00     0.026 A 
BRANCH  22  25
HETATM   25  O4  UNL     1      -1.547   4.195   2.174  1.00  0.00    -0.326 OA
HETATM   26  C19 UNL     1      -2.039   5.303   1.434  1.00  0.00     0.181 C 
ENDBRANCH  22  25
BRANCH  23  27
HETATM   27  O3  UNL     1      -0.510   2.031   3.488  1.00  0.00    -0.326 OA
HETATM   28  C18 UNL     1       0.027   0.881   4.123  1.00  0.00     0.181 C 
ENDBRANCH  23  27
ENDBRANCH  13  19
TORSDOF 3
