REMARK  10 active torsions:
REMARK  status: ('A' for Active; 'I' for Inactive)
REMARK    1  A    between atoms: C2_2  and  O12_33 
REMARK    2  A    between atoms: C3_4  and  C14_20 
REMARK    3  A    between atoms: C5_6  and  O2_7 
REMARK    4  A    between atoms: O2_7  and  C6_8 
REMARK    5  A    between atoms: C6_8  and  C7_9 
REMARK    6  A    between atoms: C14_20  and  O7_21 
REMARK    7  A    between atoms: O7_21  and  C15_22 
REMARK    8  A    between atoms: C15_22  and  C16_24 
REMARK    9  A    between atoms: O12_33  and  C22_34 
REMARK   10  A    between atoms: C22_34  and  C23_36 
ROOT
HETATM    1  C1  UNL     1       1.438   1.354  -0.148  1.00  0.00     0.236 C 
HETATM    2  C2  UNL     1       1.059  -0.035   0.406  1.00  0.00     0.276 C 
HETATM    3  O1  UNL     1      -0.264  -0.363  -0.002  1.00  0.00    -0.329 OA
HETATM    4  C3  UNL     1      -1.273   0.527   0.457  1.00  0.00     0.150 C 
HETATM    5  C4  UNL     1      -1.010   1.951  -0.082  1.00  0.00     0.060 C 
HETATM    6  C5  UNL     1       0.412   2.416   0.277  1.00  0.00     0.162 C 
HETATM    7  C13 UNL     1      -2.059   2.945   0.430  1.00  0.00     0.005 C 
HETATM    8  O17 UNL     1       2.717   1.717   0.334  1.00  0.00    -0.215 OA
ENDROOT
BRANCH   4   9
HETATM    9  C14 UNL     1      -2.617  -0.037  -0.014  1.00  0.00     0.182 C 
BRANCH   9  10
HETATM   10  O7  UNL     1      -2.758  -1.371   0.451  1.00  0.00    -0.296 OA
BRANCH  10  11
HETATM   11  C15 UNL     1      -3.910  -1.918   0.074  1.00  0.00     0.296 C 
HETATM   12  O8  UNL     1      -4.742  -1.346  -0.590  1.00  0.00    -0.259 OA
BRANCH  11  13
HETATM   13  C16 UNL     1      -4.125  -3.324   0.529  1.00  0.00     0.067 A 
HETATM   14  C17 UNL     1      -5.307  -4.004   0.188  1.00  0.00     0.035 A 
HETATM   15  C18 UNL     1      -5.512  -5.326   0.615  1.00  0.00     0.158 A 
HETATM   16  C19 UNL     1      -4.529  -5.975   1.387  1.00  0.00     0.181 A 
HETATM   17  O11 UNL     1      -6.623  -5.957   0.291  1.00  0.00    -0.188 OA
HETATM   18  C20 UNL     1      -3.344  -5.297   1.731  1.00  0.00     0.158 A 
HETATM   19  O10 UNL     1      -4.719  -7.217   1.789  1.00  0.00    -0.186 OA
HETATM   20  C21 UNL     1      -3.145  -3.975   1.301  1.00  0.00     0.035 A 
HETATM   21  O9  UNL     1      -2.422  -5.900   2.453  1.00  0.00    -0.188 OA
ENDBRANCH  11  13
ENDBRANCH  10  11
ENDBRANCH   9  10
ENDBRANCH   4   9
BRANCH   2  22
HETATM   22  O12 UNL     1       1.953  -1.019  -0.090  1.00  0.00    -0.270 OA
BRANCH  22  23
HETATM   23  C22 UNL     1       1.822  -2.185   0.537  1.00  0.00     0.298 C 
HETATM   24  O13 UNL     1       1.047  -2.379   1.443  1.00  0.00    -0.259 OA
BRANCH  23  25
HETATM   25  C23 UNL     1       2.717  -3.277   0.045  1.00  0.00     0.068 A 
HETATM   26  C24 UNL     1       2.662  -4.551   0.637  1.00  0.00     0.035 A 
HETATM   27  C25 UNL     1       3.502  -5.580   0.174  1.00  0.00     0.158 A 
HETATM   28  C26 UNL     1       4.399  -5.332  -0.883  1.00  0.00     0.181 A 
HETATM   29  O16 UNL     1       3.447  -6.772   0.732  1.00  0.00    -0.188 OA
HETATM   30  C27 UNL     1       4.453  -4.057  -1.475  1.00  0.00     0.158 A 
HETATM   31  O15 UNL     1       5.188  -6.297  -1.316  1.00  0.00    -0.186 OA
HETATM   32  C28 UNL     1       3.613  -3.031  -1.010  1.00  0.00     0.035 A 
HETATM   33  O14 UNL     1       5.291  -3.822  -2.465  1.00  0.00    -0.188 OA
ENDBRANCH  23  25
ENDBRANCH  22  23
ENDBRANCH   2  22
BRANCH   6  34
HETATM   34  O2  UNL     1       0.691   3.649  -0.375  1.00  0.00    -0.298 OA
BRANCH  34  35
HETATM   35  C6  UNL     1       0.461   4.699   0.408  1.00  0.00     0.296 C 
HETATM   36  O6  UNL     1      -0.037   4.623   1.508  1.00  0.00    -0.259 OA
BRANCH  35  37
HETATM   37  C7  UNL     1       0.861   6.018  -0.164  1.00  0.00     0.067 A 
HETATM   38  C8  UNL     1       1.440   6.086  -1.443  1.00  0.00     0.035 A 
HETATM   39  C9  UNL     1       1.818   7.326  -1.984  1.00  0.00     0.158 A 
HETATM   40  C10 UNL     1       1.619   8.506  -1.242  1.00  0.00     0.181 A 
HETATM   41  O5  UNL     1       2.359   7.383  -3.186  1.00  0.00    -0.188 OA
HETATM   42  C11 UNL     1       1.043   8.440   0.041  1.00  0.00     0.158 A 
HETATM   43  O4  UNL     1       1.975   9.670  -1.746  1.00  0.00    -0.186 OA
HETATM   44  C12 UNL     1       0.664   7.197   0.576  1.00  0.00     0.035 A 
HETATM   45  O3  UNL     1       0.856   9.541   0.740  1.00  0.00    -0.188 OA
ENDBRANCH  35  37
ENDBRANCH  34  35
ENDBRANCH   6  34
TORSDOF 10
