REMARK  1 active torsions:
REMARK  status: ('A' for Active; 'I' for Inactive)
REMARK    1  A    between atoms: C2_2  and  O4_18 
ROOT
HETATM    1  C1  UNL     1      -1.429   1.135  -0.072  1.00  0.00     0.158 A 
HETATM    2  C2  UNL     1      -2.670   0.459  -0.160  1.00  0.00     0.145 A 
HETATM    3  C3  UNL     1      -2.719  -0.943  -0.031  1.00  0.00     0.155 A 
HETATM    4  C4  UNL     1      -1.531  -1.674   0.183  1.00  0.00     0.033 A 
HETATM    5  C5  UNL     1      -0.277  -1.012   0.271  1.00  0.00     0.046 A 
HETATM    6  C6  UNL     1       0.953  -1.834   0.498  1.00  0.00     0.196 A 
HETATM    7  O1  UNL     1       0.903  -3.039   0.617  1.00  0.00    -0.287 OA
HETATM    8  C7  UNL     1       2.248  -1.090   0.570  1.00  0.00     0.042 A 
HETATM    9  C8  UNL     1       3.450  -1.822   0.771  1.00  0.00     0.003 A 
HETATM   10  C9  UNL     1       4.696  -1.160   0.842  1.00  0.00     0.000 A 
HETATM   11  C10 UNL     1       4.754   0.244   0.713  1.00  0.00     0.000 A 
HETATM   12  C11 UNL     1       3.567   0.983   0.514  1.00  0.00     0.003 A 
HETATM   13  C12 UNL     1       2.309   0.328   0.439  1.00  0.00     0.042 A 
HETATM   14  C13 UNL     1       1.078   1.155   0.226  1.00  0.00     0.198 A 
HETATM   15  O2  UNL     1       1.139   2.360   0.129  1.00  0.00    -0.286 OA
HETATM   16  C14 UNL     1      -0.222   0.410   0.142  1.00  0.00     0.070 A 
HETATM   17  O3  UNL     1      -3.892  -1.588  -0.113  1.00  0.00    -0.188 OA
HETATM   18  O5  UNL     1      -1.420   2.471  -0.197  1.00  0.00    -0.188 OA
ENDROOT
BRANCH   2  19
HETATM   19  O4  UNL     1      -3.799   1.155  -0.363  1.00  0.00    -0.324 OA
HETATM   20  C15 UNL     1      -4.154   1.471  -1.701  1.00  0.00     0.182 C 
ENDBRANCH   2  19
TORSDOF 1
