REMARK  6 active torsions:
REMARK  status: ('A' for Active; 'I' for Inactive)
REMARK    1  A    between atoms: C1_1  and  C2_2 
REMARK    2  A    between atoms: C1_1  and  O2_12 
REMARK    3  A    between atoms: C2_2  and  C3_3 
REMARK    4  A    between atoms: C3_3  and  C5_5 
REMARK    5  A    between atoms: C5_5  and  C6_6 
REMARK    6  A    between atoms: C6_6  and  C7_7 
ROOT
HETATM    1  C3  UNL     1      -1.248  -0.664  -0.385  1.00  0.00     0.010 C 
HETATM    2  C4  UNL     1      -2.531  -1.484  -0.254  1.00  0.00     0.001 C 
ENDROOT
BRANCH   1   3
HETATM    3  C2  UNL     1      -0.117  -1.441  -1.063  1.00  0.00     0.096 C 
BRANCH   3   4
HETATM    4  C1  UNL     1      -0.524  -1.992  -2.402  1.00  0.00     0.272 C 
HETATM    5  O1  UNL     1      -0.518  -1.295  -3.391  1.00  0.00    -0.264 OA
BRANCH   4   6
HETATM    6  O2  UNL     1      -0.879  -3.273  -2.404  1.00  0.00    -0.299 OA
HETATM    7  C11 UNL     1      -1.254  -3.730  -3.693  1.00  0.00     0.184 C 
ENDBRANCH   4   6
ENDBRANCH   3   4
ENDBRANCH   1   3
BRANCH   1   8
HETATM    8  C5  UNL     1      -0.817  -0.029   0.938  1.00  0.00     0.005 C 
BRANCH   8   9
HETATM    9  C6  UNL     1       0.199   1.098   0.748  1.00  0.00     0.025 C 
BRANCH   9  10
HETATM   10  C7  UNL     1       0.529   1.797   2.039  1.00  0.00    -0.035 C 
HETATM   11  C8  UNL     1       1.658   2.522   2.106  1.00  0.00    -0.048 C 
HETATM   12  C9  UNL     1       2.170   3.223   3.334  1.00  0.00     0.026 C 
HETATM   13  C10 UNL     1       2.498   2.658   0.863  1.00  0.00     0.026 C 
ENDBRANCH   9  10
ENDBRANCH   8   9
ENDBRANCH   1   8
TORSDOF 6
