REMARK  7 active torsions:
REMARK  status: ('A' for Active; 'I' for Inactive)
REMARK    1  A    between atoms: C13_14  and  O3_17 
REMARK    2  A    between atoms: O3_17  and  C15_18 
REMARK    3  A    between atoms: C17_21  and  C20_25 
REMARK    4  A    between atoms: C20_25  and  C22_27 
REMARK    5  A    between atoms: C22_27  and  C23_28 
REMARK    6  A    between atoms: C23_28  and  C24_29 
REMARK    7  A    between atoms: C24_29  and  O7_31 
ROOT
HETATM    1  C1  UNL     1       5.121  -2.018   0.850  1.00  0.00     0.065 C 
HETATM    2  C2  UNL     1       6.016  -1.086   0.068  1.00  0.00     0.150 C 
HETATM    3  C3  UNL     1       5.383  -0.350  -1.092  1.00  0.00     0.052 C 
HETATM    4  C4  UNL     1       3.844  -0.582  -1.111  1.00  0.00     0.018 C 
HETATM    5  C5  UNL     1       3.154  -0.371   0.270  1.00  0.00     0.023 C 
HETATM    6  C6  UNL     1       3.813  -1.346   1.305  1.00  0.00     0.012 C 
HETATM    7  C7  UNL     1       1.635  -0.588   0.178  1.00  0.00     0.013 C 
HETATM    8  C8  UNL     1       1.006  -0.631  -1.033  1.00  0.00     0.017 C 
HETATM    9  C9  UNL     1       1.672  -0.107  -2.258  1.00  0.00     0.169 C 
HETATM   10  C10 UNL     1       3.139   0.223  -2.207  1.00  0.00     0.070 C 
HETATM   11  O1  UNL     1       1.080   0.078  -3.295  1.00  0.00    -0.292 OA
HETATM   12  C11 UNL     1      -0.400  -1.238  -1.047  1.00  0.00     0.075 C 
HETATM   13  C12 UNL     1      -1.254  -0.578   0.057  1.00  0.00     0.043 C 
HETATM   14  C13 UNL     1      -0.648  -0.998   1.400  1.00  0.00     0.185 C 
HETATM   15  C14 UNL     1       0.850  -0.740   1.447  1.00  0.00     0.196 C 
HETATM   16  O2  UNL     1       1.395  -0.643   2.522  1.00  0.00    -0.289 OA
HETATM   17  C17 UNL     1      -2.680  -1.061  -0.291  1.00  0.00     0.011 C 
HETATM   18  C18 UNL     1      -2.713  -0.853  -1.813  1.00  0.00     0.065 C 
HETATM   19  C19 UNL     1      -1.303  -1.121  -2.254  1.00  0.00     0.154 C 
HETATM   20  O5  UNL     1      -0.982  -1.254  -3.412  1.00  0.00    -0.296 OA
HETATM   21  C26 UNL     1      -1.232   0.955  -0.098  1.00  0.00     0.004 C 
HETATM   22  C27 UNL     1      -0.238  -2.748  -0.834  1.00  0.00     0.012 C 
HETATM   23  C28 UNL     1       3.340   1.080   0.740  1.00  0.00     0.004 C 
HETATM   24  C29 UNL     1       6.006  -0.896  -2.381  1.00  0.00     0.007 C 
HETATM   25  C30 UNL     1       5.738   1.139  -0.977  1.00  0.00     0.007 C 
HETATM   26  O8  UNL     1       7.182  -0.939   0.359  1.00  0.00    -0.296 OA
ENDROOT
BRANCH  17  27
HETATM   27  C20 UNL     1      -3.809  -0.322   0.430  1.00  0.00     0.001 C 
HETATM   28  C21 UNL     1      -4.947  -1.299   0.729  1.00  0.00     0.000 C 
BRANCH  27  29
HETATM   29  C22 UNL     1      -4.260   0.869  -0.418  1.00  0.00     0.010 C 
BRANCH  29  30
HETATM   30  C23 UNL     1      -5.207   1.803   0.336  1.00  0.00     0.096 C 
BRANCH  30  31
HETATM   31  C24 UNL     1      -5.330   3.150  -0.324  1.00  0.00     0.272 C 
HETATM   32  O6  UNL     1      -4.439   3.590  -1.014  1.00  0.00    -0.264 OA
BRANCH  31  33
HETATM   33  O7  UNL     1      -6.471   3.793  -0.092  1.00  0.00    -0.299 OA
HETATM   34  C25 UNL     1      -6.496   5.084  -0.682  1.00  0.00     0.184 C 
ENDBRANCH  31  33
ENDBRANCH  30  31
ENDBRANCH  29  30
ENDBRANCH  27  29
ENDBRANCH  17  27
BRANCH  14  35
HETATM   35  O3  UNL     1      -1.285  -0.279   2.451  1.00  0.00    -0.296 OA
BRANCH  35  36
HETATM   36  C15 UNL     1      -1.141  -0.873   3.631  1.00  0.00     0.273 C 
HETATM   37  O4  UNL     1      -0.578  -1.932   3.789  1.00  0.00    -0.264 OA
HETATM   38  C16 UNL     1      -1.738  -0.133   4.799  1.00  0.00     0.106 C 
ENDBRANCH  35  36
ENDBRANCH  14  35
TORSDOF 7
