REMARK  3 active torsions:
REMARK  status: ('A' for Active; 'I' for Inactive)
REMARK    1  A    between atoms: C6_6  and  C7_7 
REMARK    2  A    between atoms: C7_7  and  O2_9 
REMARK    3  A    between atoms: C9_12  and  C12_15 
ROOT
HETATM    1  C1  UNL     1       0.359   0.344   0.435  1.00  0.00     0.038 C 
HETATM    2  C2  UNL     1      -0.201  -1.084   0.654  1.00  0.00     0.056 C 
HETATM    3  C3  UNL     1      -1.551  -1.322  -0.051  1.00  0.00     0.161 C 
HETATM    4  C4  UNL     1      -2.522  -0.211   0.385  1.00  0.00     0.059 C 
HETATM    5  C5  UNL     1      -1.979   1.182   0.150  1.00  0.00    -0.022 C 
HETATM    6  C6  UNL     1      -0.656   1.443   0.172  1.00  0.00     0.037 C 
HETATM    7  O3  UNL     1      -1.414  -1.295  -1.463  1.00  0.00    -0.223 OA
HETATM    8  C9  UNL     1       0.908  -1.973   0.162  1.00  0.00    -0.013 C 
HETATM    9  C10 UNL     1       1.791  -1.303  -0.582  1.00  0.00    -0.032 C 
HETATM   10  C11 UNL     1       1.392   0.143  -0.691  1.00  0.00     0.030 C 
ENDROOT
BRANCH   6  11
HETATM   11  C7  UNL     1      -0.160   2.811  -0.057  1.00  0.00     0.291 C 
HETATM   12  O1  UNL     1      -0.881   3.649  -0.547  1.00  0.00    -0.260 OA
BRANCH  11  13
HETATM   13  O2  UNL     1       1.100   3.035   0.305  1.00  0.00    -0.296 OA
HETATM   14  C8  UNL     1       1.504   4.373   0.047  1.00  0.00     0.185 C 
ENDBRANCH  11  13
ENDBRANCH   6  11
BRANCH   8  15
HETATM   15  C12 UNL     1       0.992  -3.441   0.488  1.00  0.00     0.204 C 
HETATM   16  O4  UNL     1       0.320  -4.182  -0.506  1.00  0.00    -0.216 OA
ENDBRANCH   8  15
TORSDOF 3
