REMARK  6 active torsions:
REMARK  status: ('A' for Active; 'I' for Inactive)
REMARK    1  A    between atoms: C1_1  and  O6_12 
REMARK    2  A    between atoms: C5_8  and  C6_10 
REMARK    3  A    between atoms: O6_12  and  C7_13 
REMARK    4  A    between atoms: C7_13  and  C8_14 
REMARK    5  A    between atoms: C13_19  and  C14_21 
REMARK    6  A    between atoms: C15_22  and  C16_23 
ROOT
HETATM    1  C8  UNL     1       0.078  -0.934   1.094  1.00  0.00     0.068 C 
HETATM    2  C9  UNL     1      -0.981  -0.283   2.008  1.00  0.00     0.075 C 
HETATM    3  C10 UNL     1      -0.510  -0.180   3.441  1.00  0.00     0.173 C 
HETATM    4  C11 UNL     1       0.935  -0.068   3.705  1.00  0.00     0.032 C 
HETATM    5  C12 UNL     1       1.857  -0.078   2.719  1.00  0.00    -0.010 C 
HETATM    6  C13 UNL     1       1.451  -0.209   1.256  1.00  0.00     0.163 C 
HETATM    7  O7  UNL     1       1.348   1.103   0.738  1.00  0.00    -0.217 OA
HETATM    8  C18 UNL     1       3.320   0.047   3.074  1.00  0.00     0.029 C 
HETATM    9  O9  UNL     1      -1.297  -0.193   4.359  1.00  0.00    -0.291 OA
HETATM   10  C19 UNL     1       0.217  -2.414   1.484  1.00  0.00     0.006 C 
ENDROOT
BRANCH   1  11
HETATM   11  C7  UNL     1      -0.414  -0.889  -0.363  1.00  0.00     0.148 C 
BRANCH  11  12
HETATM   12  O6  UNL     1      -0.871   0.418  -0.633  1.00  0.00    -0.329 OA
BRANCH  12  13
HETATM   13  C1  UNL     1      -1.301   0.594  -1.973  1.00  0.00     0.270 C 
HETATM   14  C2  UNL     1      -1.637   2.074  -2.287  1.00  0.00     0.241 C 
HETATM   15  O1  UNL     1      -0.537   2.910  -1.963  1.00  0.00    -0.215 OA
HETATM   16  C3  UNL     1      -2.914   2.541  -1.555  1.00  0.00     0.220 C 
HETATM   17  O2  UNL     1      -3.285   3.834  -2.008  1.00  0.00    -0.218 OA
HETATM   18  C4  UNL     1      -4.057   1.539  -1.840  1.00  0.00     0.215 C 
HETATM   19  O3  UNL     1      -5.182   1.850  -1.037  1.00  0.00    -0.218 OA
HETATM   20  C5  UNL     1      -3.625   0.084  -1.545  1.00  0.00     0.184 C 
HETATM   21  O4  UNL     1      -2.432  -0.225  -2.266  1.00  0.00    -0.326 OA
BRANCH  20  22
HETATM   22  C6  UNL     1      -4.674  -0.945  -1.979  1.00  0.00     0.214 C 
HETATM   23  O5  UNL     1      -4.270  -2.211  -1.512  1.00  0.00    -0.218 OA
ENDBRANCH  20  22
ENDBRANCH  12  13
ENDBRANCH  11  12
ENDBRANCH   1  11
BRANCH   6  24
HETATM   24  C14 UNL     1       2.537  -0.904   0.465  1.00  0.00     0.005 C 
HETATM   25  C15 UNL     1       3.633  -0.205   0.129  1.00  0.00     0.004 C 
BRANCH  25  26
HETATM   26  C16 UNL     1       4.713  -0.897  -0.658  1.00  0.00     0.174 C 
HETATM   27  O8  UNL     1       4.953  -0.186  -1.852  1.00  0.00    -0.219 OA
HETATM   28  C17 UNL     1       6.029  -0.990   0.115  1.00  0.00     0.041 C 
ENDBRANCH  25  26
ENDBRANCH   6  24
TORSDOF 6
