REMARK  5 active torsions:
REMARK  status: ('A' for Active; 'I' for Inactive)
REMARK    1  A    between atoms: C5_5  and  C9_9 
REMARK    2  A    between atoms: C10_10  and  C11_11 
REMARK    3  A    between atoms: C11_11  and  O1_12 
REMARK    4  A    between atoms: O1_12  and  C12_13 
REMARK    5  A    between atoms: C16_20  and  C17_22 
ROOT
HETATM    1  C11 UNL     1       1.758  -0.770   0.844  1.00  0.00     0.140 C 
HETATM    2  C18 UNL     1       2.869  -1.018   1.863  1.00  0.00     0.037 C 
ENDROOT
BRANCH   1   3
HETATM    3  C10 UNL     1       0.588  -0.029   1.437  1.00  0.00     0.001 C 
HETATM    4  C9  UNL     1       0.193   1.115   0.857  1.00  0.00     0.001 C 
BRANCH   4   5
HETATM    5  C5  UNL     1      -0.981   1.857   1.455  1.00  0.00     0.145 C 
HETATM    6  C4  UNL     1      -0.785   3.395   1.314  1.00  0.00     0.035 C 
HETATM    7  C3  UNL     1      -1.992   4.186   1.855  1.00  0.00     0.036 C 
HETATM    8  C19 UNL     1       0.519   3.897   1.953  1.00  0.00     0.003 C 
HETATM    9  C2  UNL     1      -3.309   3.717   1.215  1.00  0.00     0.152 C 
HETATM   10  C1  UNL     1      -3.514   2.201   1.385  1.00  0.00     0.036 C 
HETATM   11  O8  UNL     1      -4.389   4.404   1.814  1.00  0.00    -0.224 OA
HETATM   12  C6  UNL     1      -2.328   1.387   0.820  1.00  0.00     0.032 C 
HETATM   13  C7  UNL     1      -2.283   1.578  -0.703  1.00  0.00     0.003 C 
HETATM   14  C8  UNL     1      -2.576  -0.107   1.082  1.00  0.00     0.003 C 
HETATM   15  O7  UNL     1      -0.992   1.543   2.838  1.00  0.00    -0.222 OA
ENDBRANCH   4   5
ENDBRANCH   1   3
BRANCH   1  16
HETATM   16  O1  UNL     1       1.324  -2.018   0.352  1.00  0.00    -0.327 OA
BRANCH  16  17
HETATM   17  C12 UNL     1       0.615  -1.918  -0.873  1.00  0.00     0.270 C 
HETATM   18  C13 UNL     1      -0.074  -3.256  -1.256  1.00  0.00     0.241 C 
HETATM   19  O2  UNL     1      -0.902  -3.705  -0.195  1.00  0.00    -0.215 OA
HETATM   20  C14 UNL     1       0.953  -4.340  -1.650  1.00  0.00     0.220 C 
HETATM   21  O3  UNL     1       0.279  -5.477  -2.166  1.00  0.00    -0.218 OA
HETATM   22  C15 UNL     1       1.908  -3.768  -2.723  1.00  0.00     0.215 C 
HETATM   23  O4  UNL     1       2.965  -4.680  -2.961  1.00  0.00    -0.218 OA
HETATM   24  C16 UNL     1       2.514  -2.412  -2.287  1.00  0.00     0.184 C 
HETATM   25  O5  UNL     1       1.471  -1.504  -1.936  1.00  0.00    -0.326 OA
BRANCH  24  26
HETATM   26  C17 UNL     1       3.322  -1.740  -3.402  1.00  0.00     0.214 C 
HETATM   27  O6  UNL     1       3.971  -0.613  -2.858  1.00  0.00    -0.218 OA
ENDBRANCH  24  26
ENDBRANCH  16  17
ENDBRANCH   1  16
TORSDOF 5
