REMARK  11 active torsions:
REMARK  status: ('A' for Active; 'I' for Inactive)
REMARK    1  A    between atoms: C1_1  and  C23_34 
REMARK    2  A    between atoms: C2_2  and  O8_21 
REMARK    3  A    between atoms: C5_5  and  O2_7 
REMARK    4  A    between atoms: O2_7  and  C6_8 
REMARK    5  A    between atoms: C6_8  and  C7_9 
REMARK    6  A    between atoms: C7_9  and  C8_10 
REMARK    7  A    between atoms: O8_21  and  C14_22 
REMARK    8  A    between atoms: C14_22  and  C15_23 
REMARK    9  A    between atoms: C16_24  and  C17_25 
REMARK   10  A    between atoms: C23_34  and  O12_35 
REMARK   11  A    between atoms: O12_35  and  C24_36 
ROOT
HETATM    1  C1  UNL     1       0.717   0.477  -0.629  1.00  0.00     0.178 C 
HETATM    2  C2  UNL     1       1.201   1.906  -0.938  1.00  0.00     0.187 C 
HETATM    3  C3  UNL     1       1.408   2.108  -2.449  1.00  0.00     0.217 C 
HETATM    4  C4  UNL     1       0.143   1.672  -3.219  1.00  0.00     0.241 C 
HETATM    5  C5  UNL     1      -0.309   0.254  -2.785  1.00  0.00     0.270 C 
HETATM    6  O1  UNL     1      -0.465   0.205  -1.373  1.00  0.00    -0.326 OA
HETATM    7  O6  UNL     1       0.416   1.676  -4.611  1.00  0.00    -0.215 OA
HETATM    8  O7  UNL     1       1.695   3.473  -2.699  1.00  0.00    -0.218 OA
ENDROOT
BRANCH   2   9
HETATM    9  O8  UNL     1       2.426   2.139  -0.256  1.00  0.00    -0.296 OA
BRANCH   9  10
HETATM   10  C14 UNL     1       2.281   2.969   0.775  1.00  0.00     0.296 C 
HETATM   11  O11 UNL     1       1.213   3.383   1.160  1.00  0.00    -0.259 OA
BRANCH  10  12
HETATM   12  C15 UNL     1       3.522   3.373   1.447  1.00  0.00     0.068 C 
HETATM   13  C16 UNL     1       3.490   4.207   2.500  1.00  0.00     0.005 C 
BRANCH  13  14
HETATM   14  C17 UNL     1       4.777   4.588   3.152  1.00  0.00     0.002 A 
HETATM   15  C18 UNL     1       5.936   3.826   2.924  1.00  0.00     0.002 A 
HETATM   16  C19 UNL     1       7.147   4.188   3.539  1.00  0.00     0.029 A 
HETATM   17  C20 UNL     1       7.205   5.311   4.383  1.00  0.00     0.156 A 
HETATM   18  O9  UNL     1       8.344   5.645   4.955  1.00  0.00    -0.188 OA
HETATM   19  C21 UNL     1       6.045   6.076   4.611  1.00  0.00     0.156 A 
HETATM   20  O10 UNL     1       6.090   7.131   5.400  1.00  0.00    -0.188 OA
HETATM   21  C22 UNL     1       4.834   5.713   3.996  1.00  0.00     0.029 A 
ENDBRANCH  13  14
ENDBRANCH  10  12
ENDBRANCH   9  10
ENDBRANCH   2   9
BRANCH   1  22
HETATM   22  C23 UNL     1       0.371   0.285   0.850  1.00  0.00     0.177 C 
BRANCH  22  23
HETATM   23  O12 UNL     1      -0.088  -1.037   1.027  1.00  0.00    -0.326 OA
BRANCH  23  24
HETATM   24  C24 UNL     1      -0.313  -1.371   2.389  1.00  0.00     0.270 C 
HETATM   25  C25 UNL     1      -0.713  -2.861   2.559  1.00  0.00     0.241 C 
HETATM   26  C26 UNL     1      -2.121  -3.146   1.992  1.00  0.00     0.220 C 
HETATM   27  O16 UNL     1       0.256  -3.705   1.955  1.00  0.00    -0.215 OA
HETATM   28  C27 UNL     1      -3.121  -2.133   2.592  1.00  0.00     0.215 C 
HETATM   29  O15 UNL     1      -2.520  -4.467   2.324  1.00  0.00    -0.218 OA
HETATM   30  C28 UNL     1      -2.625  -0.684   2.416  1.00  0.00     0.181 C 
HETATM   31  O14 UNL     1      -4.383  -2.252   1.959  1.00  0.00    -0.218 OA
HETATM   32  O13 UNL     1      -1.318  -0.539   2.965  1.00  0.00    -0.326 OA
ENDBRANCH  23  24
ENDBRANCH  22  23
ENDBRANCH   1  22
BRANCH   5  33
HETATM   33  O2  UNL     1      -1.545  -0.078  -3.385  1.00  0.00    -0.326 OA
BRANCH  33  34
HETATM   34  C6  UNL     1      -1.883  -1.439  -3.246  1.00  0.00     0.182 C 
BRANCH  34  35
HETATM   35  C7  UNL     1      -3.258  -1.658  -3.877  1.00  0.00     0.204 C 
HETATM   36  O5  UNL     1      -3.147  -1.443  -5.266  1.00  0.00    -0.216 OA
BRANCH  35  37
HETATM   37  C8  UNL     1      -3.764  -3.033  -3.627  1.00  0.00     0.012 A 
HETATM   38  C9  UNL     1      -2.902  -4.135  -3.770  1.00  0.00     0.001 A 
HETATM   39  C10 UNL     1      -3.383  -5.436  -3.531  1.00  0.00     0.029 A 
HETATM   40  C11 UNL     1      -4.721  -5.637  -3.151  1.00  0.00     0.156 A 
HETATM   41  C12 UNL     1      -5.584  -4.533  -3.008  1.00  0.00     0.156 A 
HETATM   42  O4  UNL     1      -5.164  -6.857  -2.930  1.00  0.00    -0.188 OA
HETATM   43  C13 UNL     1      -5.102  -3.232  -3.246  1.00  0.00     0.028 A 
HETATM   44  O3  UNL     1      -6.840  -4.713  -2.652  1.00  0.00    -0.188 OA
ENDBRANCH  35  37
ENDBRANCH  34  35
ENDBRANCH  33  34
ENDBRANCH   5  33
TORSDOF 11
