REMARK  6 active torsions:
REMARK  status: ('A' for Active; 'I' for Inactive)
REMARK    1  A    between atoms: C4_4  and  O3_10 
REMARK    2  A    between atoms: C5_5  and  O2_8 
REMARK    3  A    between atoms: O3_10  and  C8_11 
REMARK    4  A    between atoms: C12_15  and  C13_17 
REMARK    5  A    between atoms: C14_24  and  C17_28 
REMARK    6  A    between atoms: C20_31  and  O12_34 
ROOT
HETATM    1  C1  UNL     1       0.754  -2.721   1.270  1.00  0.00     0.089 A 
HETATM    2  C2  UNL     1       0.604  -1.406   0.750  1.00  0.00     0.107 A 
HETATM    3  C3  UNL     1      -0.691  -0.877   0.545  1.00  0.00     0.051 A 
HETATM    4  C4  UNL     1      -1.832  -1.652   0.858  1.00  0.00     0.123 A 
HETATM    5  C5  UNL     1      -1.682  -2.963   1.375  1.00  0.00     0.142 A 
HETATM    6  C6  UNL     1      -0.389  -3.500   1.582  1.00  0.00     0.160 A 
HETATM    7  O1  UNL     1      -0.258  -4.742   2.074  1.00  0.00    -0.188 OA
HETATM    8  O10 UNL     1       1.691  -0.660   0.453  1.00  0.00    -0.307 OA
HETATM    9  C14 UNL     1       2.959  -1.092   0.621  1.00  0.00     0.103 A 
HETATM   10  C15 UNL     1       3.225  -2.326   1.106  1.00  0.00     0.067 A 
HETATM   11  C16 UNL     1       2.131  -3.250   1.473  1.00  0.00     0.202 A 
HETATM   12  O11 UNL     1       2.447  -4.338   1.899  1.00  0.00    -0.286 OA
ENDROOT
BRANCH   4  13
HETATM   13  O3  UNL     1      -3.057  -1.145   0.660  1.00  0.00    -0.301 OA
BRANCH  13  14
HETATM   14  C8  UNL     1      -3.182  -0.014  -0.191  1.00  0.00     0.275 C 
HETATM   15  C9  UNL     1      -4.621   0.074  -0.746  1.00  0.00     0.241 C 
HETATM   16  C10 UNL     1      -4.834   1.359  -1.580  1.00  0.00     0.221 C 
HETATM   17  O9  UNL     1      -4.922  -1.084  -1.506  1.00  0.00    -0.215 OA
HETATM   18  C11 UNL     1      -4.387   2.566  -0.724  1.00  0.00     0.223 C 
HETATM   19  O8  UNL     1      -4.074   1.297  -2.781  1.00  0.00    -0.218 OA
HETATM   20  C12 UNL     1      -2.951   2.383  -0.168  1.00  0.00     0.237 C 
HETATM   21  O7  UNL     1      -4.477   3.770  -1.469  1.00  0.00    -0.217 OA
HETATM   22  O4  UNL     1      -2.885   1.158   0.559  1.00  0.00    -0.318 OA
BRANCH  20  23
HETATM   23  C13 UNL     1      -2.533   3.492   0.766  1.00  0.00     0.217 C 
HETATM   24  O5  UNL     1      -3.279   3.898   1.623  1.00  0.00    -0.646 OA
HETATM   25  O6  UNL     1      -1.307   3.969   0.565  1.00  0.00    -0.646 OA
ENDBRANCH  20  23
ENDBRANCH  13  14
ENDBRANCH   4  13
BRANCH   5  26
HETATM   26  O2  UNL     1      -2.766  -3.693   1.668  1.00  0.00    -0.324 OA
HETATM   27  C7  UNL     1      -3.254  -4.590   0.680  1.00  0.00     0.182 C 
ENDBRANCH   5  26
BRANCH   9  28
HETATM   28  C17 UNL     1       4.104  -0.197   0.266  1.00  0.00     0.023 A 
HETATM   29  C18 UNL     1       5.352  -0.367   0.893  1.00  0.00     0.004 A 
HETATM   30  C19 UNL     1       6.426   0.475   0.559  1.00  0.00     0.024 A 
HETATM   31  C20 UNL     1       6.258   1.488  -0.402  1.00  0.00     0.094 A 
HETATM   32  C21 UNL     1       5.010   1.656  -1.025  1.00  0.00     0.024 A 
HETATM   33  C22 UNL     1       3.934   0.816  -0.693  1.00  0.00     0.004 A 
BRANCH  31  34
HETATM   34  O12 UNL     1       7.266   2.277  -0.715  1.00  0.00    -0.328 OA
HETATM   35  C23 UNL     1       7.039   3.305  -1.668  1.00  0.00     0.181 C 
ENDBRANCH  31  34
ENDBRANCH   9  28
TORSDOF 6
