REMARK  5 active torsions:
REMARK  status: ('A' for Active; 'I' for Inactive)
REMARK    1  A    between atoms: C1_1  and  C14_16 
REMARK    2  A    between atoms: C2_2  and  C3_3 
REMARK    3  A    between atoms: C3_3  and  C4_4 
REMARK    4  A    between atoms: C5_5  and  C6_6 
REMARK    5  A    between atoms: C7_7  and  C8_8 
ROOT
HETATM    1  C3  UNL     1      -1.521   0.486  -0.902  1.00  0.00     0.196 C 
HETATM    2  O2  UNL     1      -2.002   1.473  -1.408  1.00  0.00    -0.287 OA
ENDROOT
BRANCH   1   3
HETATM    3  C2  UNL     1      -2.246  -0.789  -0.927  1.00  0.00     0.042 C 
HETATM    4  C1  UNL     1      -3.451  -0.881  -1.513  1.00  0.00     0.003 C 
BRANCH   4   5
HETATM    5  C14 UNL     1      -4.150  -2.199  -1.513  1.00  0.00     0.000 A 
HETATM    6  C15 UNL     1      -5.557  -2.252  -1.513  1.00  0.00     0.002 A 
HETATM    7  C16 UNL     1      -6.213  -3.494  -1.513  1.00  0.00     0.027 A 
HETATM    8  C17 UNL     1      -5.469  -4.689  -1.513  1.00  0.00     0.131 A 
HETATM    9  C18 UNL     1      -4.064  -4.633  -1.513  1.00  0.00     0.027 A 
HETATM   10  O3  UNL     1      -6.086  -5.854  -1.513  1.00  0.00    -0.190 OA
HETATM   11  C19 UNL     1      -3.404  -3.393  -1.513  1.00  0.00     0.002 A 
ENDBRANCH   4   5
ENDBRANCH   1   3
BRANCH   1  12
HETATM   12  C4  UNL     1      -0.205   0.549  -0.256  1.00  0.00     0.042 C 
HETATM   13  C5  UNL     1       0.481   1.703  -0.207  1.00  0.00     0.003 C 
BRANCH  13  14
HETATM   14  C6  UNL     1       1.795   1.766   0.440  1.00  0.00     0.000 C 
HETATM   15  C7  UNL     1       2.481   2.920   0.490  1.00  0.00     0.000 C 
BRANCH  15  16
HETATM   16  C8  UNL     1       3.815   2.934   1.158  1.00  0.00     0.000 A 
HETATM   17  C9  UNL     1       4.744   3.945   0.854  1.00  0.00     0.002 A 
HETATM   18  C10 UNL     1       6.000   3.957   1.485  1.00  0.00     0.027 A 
HETATM   19  C11 UNL     1       6.334   2.961   2.420  1.00  0.00     0.131 A 
HETATM   20  C12 UNL     1       5.402   1.951   2.723  1.00  0.00     0.027 A 
HETATM   21  O1  UNL     1       7.512   2.973   3.010  1.00  0.00    -0.190 OA
HETATM   22  C13 UNL     1       4.145   1.938   2.094  1.00  0.00     0.002 A 
ENDBRANCH  15  16
ENDBRANCH  13  14
ENDBRANCH   1  12
TORSDOF 5
