REMARK  10 active torsions:
REMARK  status: ('A' for Active; 'I' for Inactive)
REMARK    1  A    between atoms: C4_4  and  O7_36 
REMARK    2  A    between atoms: C8_8  and  O5_31 
REMARK    3  A    between atoms: C11_11  and  O1_12 
REMARK    4  A    between atoms: O1_12  and  C12_13 
REMARK    5  A    between atoms: C12_13  and  C13_14 
REMARK    6  A    between atoms: C20_22  and  O3_27 
REMARK    7  A    between atoms: O3_27  and  C25_28 
REMARK    8  A    between atoms: O5_31  and  C27_32 
REMARK    9  A    between atoms: O7_36  and  C30_37 
REMARK   10  A    between atoms: C30_37  and  C31_38 
ROOT
HETATM    1  C1  UNL     1      -3.717  -2.772  -1.260  1.00  0.00     0.070 C 
HETATM    2  C2  UNL     1      -3.693  -1.268  -1.463  1.00  0.00     0.156 C 
HETATM    3  C3  UNL     1      -3.561  -0.377  -0.242  1.00  0.00     0.099 C 
HETATM    4  C4  UNL     1      -2.729   0.893  -0.494  1.00  0.00     0.150 C 
HETATM    5  C5  UNL     1      -1.363   0.621  -1.086  1.00  0.00    -0.020 C 
HETATM    6  C6  UNL     1      -0.469  -0.168  -0.455  1.00  0.00    -0.028 C 
HETATM    7  C7  UNL     1       0.900  -0.459  -1.037  1.00  0.00     0.077 C 
HETATM    8  C8  UNL     1       1.678  -1.600  -0.357  1.00  0.00     0.133 C 
HETATM    9  C9  UNL     1       3.107  -1.283  -0.805  1.00  0.00     0.033 C 
HETATM   10  C10 UNL     1       3.227   0.211  -0.555  1.00  0.00     0.031 C 
HETATM   11  C11 UNL     1       1.865   0.744  -1.000  1.00  0.00     0.131 C 
HETATM   12  C19 UNL     1       4.387   0.834  -1.324  1.00  0.00     0.003 C 
HETATM   13  C20 UNL     1       1.330  -3.051  -0.752  1.00  0.00     0.154 C 
HETATM   14  C21 UNL     1      -0.027  -3.600  -0.252  1.00  0.00     0.052 C 
HETATM   15  C22 UNL     1      -1.231  -3.094  -1.020  1.00  0.00    -0.028 C 
HETATM   16  C23 UNL     1      -2.477  -3.231  -0.518  1.00  0.00    -0.024 C 
HETATM   17  C24 UNL     1      -0.031  -5.133  -0.297  1.00  0.00     0.007 C 
HETATM   18  C29 UNL     1      -1.037   1.264  -2.412  1.00  0.00     0.029 C 
HETATM   19  O9  UNL     1      -3.774  -0.779  -2.568  1.00  0.00    -0.296 OA
HETATM   20  C37 UNL     1      -4.959  -3.127  -0.436  1.00  0.00     0.012 C 
HETATM   21  C38 UNL     1      -3.795  -3.510  -2.602  1.00  0.00     0.012 C 
ENDROOT
BRANCH   4  22
HETATM   22  O7  UNL     1      -2.572   1.596   0.730  1.00  0.00    -0.296 OA
BRANCH  22  23
HETATM   23  C30 UNL     1      -2.215   2.863   0.543  1.00  0.00     0.296 C 
HETATM   24  O8  UNL     1      -2.035   3.359  -0.543  1.00  0.00    -0.259 OA
BRANCH  23  25
HETATM   25  C31 UNL     1      -2.043   3.666   1.791  1.00  0.00     0.063 A 
HETATM   26  C32 UNL     1      -1.680   5.024   1.713  1.00  0.00     0.005 A 
HETATM   27  C33 UNL     1      -1.518   5.777   2.887  1.00  0.00     0.000 A 
HETATM   28  C34 UNL     1      -1.717   5.178   4.143  1.00  0.00     0.000 A 
HETATM   29  C35 UNL     1      -2.080   3.822   4.223  1.00  0.00     0.000 A 
HETATM   30  C36 UNL     1      -2.242   3.066   3.049  1.00  0.00     0.005 A 
ENDBRANCH  23  25
ENDBRANCH  22  23
ENDBRANCH   4  22
BRANCH   8  31
HETATM   31  O5  UNL     1       1.602  -1.469   1.059  1.00  0.00    -0.304 OA
BRANCH  31  32
HETATM   32  C27 UNL     1       2.213  -2.465   1.691  1.00  0.00     0.272 C 
HETATM   33  O6  UNL     1       3.217  -3.004   1.291  1.00  0.00    -0.264 OA
HETATM   34  C28 UNL     1       1.563  -2.898   2.978  1.00  0.00     0.106 C 
ENDBRANCH  31  32
ENDBRANCH   8  31
BRANCH  11  35
HETATM   35  O1  UNL     1       1.430   1.740  -0.080  1.00  0.00    -0.301 OA
BRANCH  35  36
HETATM   36  C12 UNL     1       2.029   2.910  -0.281  1.00  0.00     0.296 C 
HETATM   37  O2  UNL     1       2.547   3.232  -1.324  1.00  0.00    -0.259 OA
BRANCH  36  38
HETATM   38  C13 UNL     1       2.025   3.836   0.891  1.00  0.00     0.063 A 
HETATM   39  C14 UNL     1       2.609   5.111   0.783  1.00  0.00     0.005 A 
HETATM   40  C15 UNL     1       2.605   5.983   1.887  1.00  0.00     0.000 A 
HETATM   41  C16 UNL     1       2.018   5.580   3.100  1.00  0.00     0.000 A 
HETATM   42  C17 UNL     1       1.436   4.305   3.207  1.00  0.00     0.000 A 
HETATM   43  C18 UNL     1       1.439   3.434   2.105  1.00  0.00     0.005 A 
ENDBRANCH  36  38
ENDBRANCH  35  36
ENDBRANCH  11  35
BRANCH  13  44
HETATM   44  O3  UNL     1       1.416  -3.207  -2.162  1.00  0.00    -0.301 OA
BRANCH  44  45
HETATM   45  C25 UNL     1       2.592  -3.697  -2.547  1.00  0.00     0.272 C 
HETATM   46  O4  UNL     1       3.395  -4.191  -1.791  1.00  0.00    -0.264 OA
HETATM   47  C26 UNL     1       2.877  -3.598  -4.022  1.00  0.00     0.106 C 
ENDBRANCH  44  45
ENDBRANCH  13  44
TORSDOF 10
