REMARK  4 active torsions:
REMARK  status: ('A' for Active; 'I' for Inactive)
REMARK    1  A    between atoms: C17_25  and  C18_26 
REMARK    2  A    between atoms: C18_26  and  C19_27 
REMARK    3  A    between atoms: C28_38  and  C30_41 
REMARK    4  A    between atoms: C30_41  and  C31_42 
ROOT
HETATM    1  N1  UNL     1       5.197   1.125   0.568  1.00  0.00    -0.226 NA
HETATM    2  C1  UNL     1       5.510   2.043  -0.549  1.00  0.00     0.218 C 
HETATM    3  C2  UNL     1       4.322   2.910  -0.900  1.00  0.00     0.277 C 
HETATM    4  N2  UNL     1       3.342   2.414  -1.729  1.00  0.00    -0.226 NA
HETATM    5  C3  UNL     1       2.145   3.207  -2.084  1.00  0.00     0.218 C 
HETATM    6  C4  UNL     1       1.219   3.418  -0.904  1.00  0.00     0.277 C 
HETATM    7  N3  UNL     1       0.471   2.363  -0.438  1.00  0.00    -0.226 NA
HETATM    8  C5  UNL     1      -0.451   2.500   0.715  1.00  0.00     0.216 C 
HETATM    9  C6  UNL     1      -1.861   2.883   0.303  1.00  0.00     0.259 C 
HETATM   10  N4  UNL     1      -2.898   2.533   1.211  1.00  0.00    -0.312 N 
HETATM   11  C7  UNL     1      -4.316   2.830   1.023  1.00  0.00     0.163 C 
HETATM   12  C8  UNL     1      -5.010   1.881   2.014  1.00  0.00     0.034 C 
HETATM   13  C9  UNL     1      -4.016   1.871   3.186  1.00  0.00     0.027 C 
HETATM   14  C10 UNL     1      -2.660   1.848   2.475  1.00  0.00     0.105 C 
HETATM   15  C11 UNL     1      -4.799   3.027  -0.414  1.00  0.00     0.254 C 
HETATM   16  O1  UNL     1      -4.707   4.131  -0.904  1.00  0.00    -0.270 OA
HETATM   17  N5  UNL     1      -5.348   1.975  -1.199  1.00  0.00    -0.312 N 
HETATM   18  C12 UNL     1      -5.611   0.588  -0.813  1.00  0.00     0.165 C 
HETATM   19  C13 UNL     1      -6.481   0.061  -1.965  1.00  0.00     0.034 C 
HETATM   20  C14 UNL     1      -6.010   0.859  -3.184  1.00  0.00     0.027 C 
HETATM   21  C15 UNL     1      -5.736   2.233  -2.578  1.00  0.00     0.105 C 
HETATM   22  C16 UNL     1      -4.408  -0.328  -0.611  1.00  0.00     0.272 C 
HETATM   23  O2  UNL     1      -4.551  -1.291   0.107  1.00  0.00    -0.269 OA
HETATM   24  N6  UNL     1      -3.193  -0.101  -1.227  1.00  0.00    -0.228 NA
HETATM   25  C17 UNL     1      -2.047  -1.043  -1.121  1.00  0.00     0.191 C 
HETATM   26  C25 UNL     1      -1.453  -1.141   0.275  1.00  0.00     0.275 C 
HETATM   27  N7  UNL     1      -0.096  -0.998   0.441  1.00  0.00    -0.226 NA
HETATM   28  C26 UNL     1       0.527  -1.074   1.783  1.00  0.00     0.218 C 
HETATM   29  C27 UNL     1       1.955  -0.572   1.781  1.00  0.00     0.277 C 
HETATM   30  N8  UNL     1       2.981  -1.461   1.545  1.00  0.00    -0.229 NA
HETATM   31  C28 UNL     1       4.400  -1.037   1.543  1.00  0.00     0.186 C 
HETATM   32  C29 UNL     1       4.715  -0.146   0.355  1.00  0.00     0.274 C 
HETATM   33  O3  UNL     1       4.541  -0.555  -0.772  1.00  0.00    -0.268 OA
HETATM   34  O4  UNL     1       2.188   0.596   1.992  1.00  0.00    -0.268 OA
HETATM   35  O5  UNL     1      -2.160  -1.346   1.236  1.00  0.00    -0.268 OA
HETATM   36  O6  UNL     1      -2.094   3.459  -0.736  1.00  0.00    -0.270 OA
HETATM   37  O7  UNL     1       1.143   4.506  -0.381  1.00  0.00    -0.268 OA
HETATM   38  O8  UNL     1       4.238   4.031  -0.453  1.00  0.00    -0.268 OA
ENDROOT
BRANCH  25  39
HETATM   39  C18 UNL     1      -2.445  -2.434  -1.625  1.00  0.00     0.060 C 
BRANCH  39  40
HETATM   40  C19 UNL     1      -1.258  -3.307  -1.816  1.00  0.00    -0.020 A 
HETATM   41  C20 UNL     1      -1.006  -4.359  -0.918  1.00  0.00    -0.004 A 
HETATM   42  C21 UNL     1       0.117  -5.186  -1.098  1.00  0.00    -0.000 A 
HETATM   43  C22 UNL     1       0.988  -4.961  -2.178  1.00  0.00    -0.000 A 
HETATM   44  C23 UNL     1       0.738  -3.910  -3.076  1.00  0.00    -0.000 A 
HETATM   45  C24 UNL     1      -0.385  -3.082  -2.897  1.00  0.00    -0.004 A 
ENDBRANCH  39  40
ENDBRANCH  25  39
BRANCH  31  46
HETATM   46  C30 UNL     1       5.322  -2.262   1.545  1.00  0.00     0.032 C 
HETATM   47  C33 UNL     1       5.104  -3.162   2.760  1.00  0.00     0.003 C 
BRANCH  46  48
HETATM   48  C31 UNL     1       6.791  -1.894   1.338  1.00  0.00     0.002 C 
HETATM   49  C32 UNL     1       7.360  -1.062   2.488  1.00  0.00     0.000 C 
ENDBRANCH  46  48
ENDBRANCH  31  46
TORSDOF 4
