REMARK  3 active torsions:
REMARK  status: ('A' for Active; 'I' for Inactive)
REMARK    1  A    between atoms: C1_1  and  C2_2 
REMARK    2  A    between atoms: C3_3  and  C4_4 
REMARK    3  A    between atoms: C5_5  and  O1_10 
ROOT
HETATM    1  C4  UNL     1      -0.400  -0.121  -0.026  1.00  0.00     0.022 A 
HETATM    2  C5  UNL     1       1.010  -0.068  -0.026  1.00  0.00     0.094 A 
HETATM    3  C6  UNL     1       1.750  -1.264  -0.026  1.00  0.00     0.024 A 
HETATM    4  C7  UNL     1       1.094  -2.504  -0.026  1.00  0.00     0.002 A 
HETATM    5  C8  UNL     1      -0.311  -2.557  -0.026  1.00  0.00     0.000 A 
HETATM    6  C9  UNL     1      -1.057  -1.365  -0.026  1.00  0.00     0.002 A 
ENDROOT
BRANCH   1   7
HETATM    7  C3  UNL     1      -1.203   1.139  -0.026  1.00  0.00     0.005 C 
HETATM    8  C2  UNL     1      -2.545   1.049  -0.026  1.00  0.00     0.045 C 
BRANCH   8   9
HETATM    9  C1  UNL     1      -3.375   2.258  -0.026  1.00  0.00     0.234 C 
HETATM   10  O2  UNL     1      -4.582   2.172  -0.026  1.00  0.00    -0.283 OA
ENDBRANCH   8   9
ENDBRANCH   1   7
BRANCH   2  11
HETATM   11  O1  UNL     1       1.639   1.090  -0.026  1.00  0.00    -0.328 OA
HETATM   12  C10 UNL     1       3.053   1.080   0.114  1.00  0.00     0.181 C 
ENDBRANCH   2  11
TORSDOF 3
