REMARK  3 active torsions:
REMARK  status: ('A' for Active; 'I' for Inactive)
REMARK    1  A    between atoms: C7_7  and  C9_11 
REMARK    2  A    between atoms: C9_11  and  C10_12 
REMARK    3  A    between atoms: C10_12  and  C11_13 
ROOT
HETATM    1  C1  UNL     1      -3.695   0.437  -1.152  1.00  0.00     0.030 C 
HETATM    2  C2  UNL     1      -3.941  -0.998  -0.709  1.00  0.00    -0.026 C 
HETATM    3  C3  UNL     1      -2.910  -1.813  -0.404  1.00  0.00     0.000 C 
HETATM    4  C4  UNL     1      -1.537  -1.287  -0.447  1.00  0.00     0.060 A 
HETATM    5  C5  UNL     1      -1.273   0.008  -0.570  1.00  0.00     0.022 A 
HETATM    6  C6  UNL     1      -2.363   1.051  -0.652  1.00  0.00     0.032 C 
HETATM    7  C7  UNL     1       0.219   0.215  -0.607  1.00  0.00     0.293 A 
HETATM    8  O1  UNL     1       0.744  -1.123  -0.457  1.00  0.00    -0.265 OA
HETATM    9  C8  UNL     1      -0.273  -1.998  -0.367  1.00  0.00     0.298 A 
HETATM   10  O2  UNL     1      -0.176  -3.195  -0.240  1.00  0.00    -0.259 OA
HETATM   11  O4  UNL     1       0.617   0.764  -1.846  1.00  0.00    -0.182 OA
ENDROOT
BRANCH   7  12
HETATM   12  C9  UNL     1       0.690   1.090   0.526  1.00  0.00     0.208 C 
HETATM   13  O3  UNL     1       0.182   2.168   0.731  1.00  0.00    -0.290 OA
BRANCH  12  14
HETATM   14  C10 UNL     1       1.811   0.584   1.393  1.00  0.00     0.070 C 
BRANCH  14  15
HETATM   15  C11 UNL     1       3.145   0.525   0.649  1.00  0.00     0.008 C 
HETATM   16  C12 UNL     1       4.299   0.066   1.539  1.00  0.00     0.001 C 
ENDBRANCH  14  15
ENDBRANCH  12  14
ENDBRANCH   7  12
TORSDOF 3
