REMARK  6 active torsions:
REMARK  status: ('A' for Active; 'I' for Inactive)
REMARK    1  A    between atoms: C2_2  and  C3_3 
REMARK    2  A    between atoms: C4_4  and  C5_5 
REMARK    3  A    between atoms: C6_6  and  C7_7 
REMARK    4  A    between atoms: C7_7  and  C8_8 
REMARK    5  A    between atoms: C8_8  and  C9_9 
REMARK    6  A    between atoms: C9_9  and  C10_10 
ROOT
HETATM    1  C5  UNL     1       1.453   0.564  -0.924  1.00  0.00    -0.004 C 
HETATM    2  C6  UNL     1       0.770  -0.590  -0.924  1.00  0.00    -0.026 C 
ENDROOT
BRANCH   2   3
HETATM    3  C7  UNL     1      -0.734  -0.533  -0.924  1.00  0.00     0.026 C 
BRANCH   3   4
HETATM    4  C8  UNL     1      -1.336  -1.002   0.402  1.00  0.00     0.004 C 
BRANCH   4   5
HETATM    5  C9  UNL     1      -2.863  -0.930   0.414  1.00  0.00     0.000 C 
BRANCH   5   6
HETATM    6  C10 UNL     1      -3.465  -1.400   1.738  1.00  0.00     0.000 C 
HETATM    7  C11 UNL     1      -4.992  -1.330   1.752  1.00  0.00     0.000 C 
ENDBRANCH   5   6
ENDBRANCH   4   5
ENDBRANCH   3   4
ENDBRANCH   2   3
BRANCH   1   8
HETATM    8  C4  UNL     1       2.922   0.564  -0.924  1.00  0.00    -0.000 C 
HETATM    9  C3  UNL     1       3.606   1.721  -0.924  1.00  0.00    -0.000 C 
BRANCH   9  10
HETATM   10  C2  UNL     1       5.074   1.721  -0.924  1.00  0.00     0.000 C 
HETATM   11  C1  UNL     1       5.760   2.875  -0.924  1.00  0.00     0.000 C 
ENDBRANCH   9  10
ENDBRANCH   1   8
TORSDOF 6
