REMARK  9 active torsions:
REMARK  status: ('A' for Active; 'I' for Inactive)
REMARK    1  A    between atoms: C2_2  and  C3_3 
REMARK    2  A    between atoms: C3_3  and  C4_4 
REMARK    3  A    between atoms: C3_3  and  O1_9 
REMARK    4  A    between atoms: C4_4  and  C5_5 
REMARK    5  A    between atoms: C5_5  and  C6_6 
REMARK    6  A    between atoms: C6_6  and  C7_7 
REMARK    7  A    between atoms: O1_9  and  C9_10 
REMARK    8  A    between atoms: C13_17  and  C14_19 
REMARK    9  A    between atoms: C14_19  and  C15_20 
ROOT
HETATM    1  C9  UNL     1       1.563   1.770  -0.063  1.00  0.00     0.270 C 
HETATM    2  C10 UNL     1       2.826   2.213  -0.840  1.00  0.00     0.241 C 
HETATM    3  O2  UNL     1       3.496   3.227  -0.109  1.00  0.00    -0.215 OA
HETATM    4  C11 UNL     1       2.455   2.750  -2.240  1.00  0.00     0.220 C 
HETATM    5  O3  UNL     1       3.633   2.959  -3.004  1.00  0.00    -0.218 OA
HETATM    6  C12 UNL     1       1.535   1.742  -2.965  1.00  0.00     0.212 C 
HETATM    7  O4  UNL     1       1.035   2.322  -4.158  1.00  0.00    -0.218 OA
HETATM    8  C13 UNL     1       0.338   1.332  -2.076  1.00  0.00     0.153 C 
HETATM    9  O5  UNL     1       0.822   0.836  -0.836  1.00  0.00    -0.329 OA
ENDROOT
BRANCH   8  10
HETATM   10  C14 UNL     1      -0.512   0.219  -2.695  1.00  0.00     0.065 C 
BRANCH  10  11
HETATM   11  C15 UNL     1      -1.770  -0.088  -1.879  1.00  0.00     0.151 C 
HETATM   12  C16 UNL     1      -2.553  -1.310  -2.416  1.00  0.00     0.212 C 
HETATM   13  O6  UNL     1      -1.752  -2.469  -2.258  1.00  0.00    -0.218 OA
HETATM   14  C17 UNL     1      -3.887  -1.488  -1.658  1.00  0.00     0.217 C 
HETATM   15  O7  UNL     1      -4.658  -2.541  -2.215  1.00  0.00    -0.218 OA
HETATM   16  C18 UNL     1      -4.684  -0.162  -1.649  1.00  0.00     0.214 C 
HETATM   17  O8  UNL     1      -5.186   0.147  -2.942  1.00  0.00    -0.218 OA
HETATM   18  C19 UNL     1      -3.791   1.002  -1.170  1.00  0.00     0.178 C 
HETATM   19  O9  UNL     1      -2.592   1.072  -1.938  1.00  0.00    -0.351 OA
ENDBRANCH  10  11
ENDBRANCH   8  10
BRANCH   1  20
HETATM   20  O1  UNL     1       1.922   1.151   1.156  1.00  0.00    -0.327 OA
BRANCH  20  21
HETATM   21  C3  UNL     1       0.826   0.938   2.018  1.00  0.00     0.140 C 
BRANCH  21  22
HETATM   22  C2  UNL     1       0.334   2.260   2.541  1.00  0.00     0.003 C 
HETATM   23  C1  UNL     1      -0.984   2.512   2.508  1.00  0.00    -0.002 C 
ENDBRANCH  21  22
BRANCH  21  24
HETATM   24  C4  UNL     1       1.273  -0.002   3.137  1.00  0.00     0.034 C 
BRANCH  24  25
HETATM   25  C5  UNL     1       1.541  -1.424   2.643  1.00  0.00     0.003 C 
BRANCH  25  26
HETATM   26  C6  UNL     1       1.947  -2.375   3.769  1.00  0.00     0.000 C 
BRANCH  26  27
HETATM   27  C7  UNL     1       2.217  -3.795   3.275  1.00  0.00     0.000 C 
HETATM   28  C8  UNL     1       2.625  -4.746   4.402  1.00  0.00     0.000 C 
ENDBRANCH  26  27
ENDBRANCH  25  26
ENDBRANCH  24  25
ENDBRANCH  21  24
ENDBRANCH  20  21
ENDBRANCH   1  20
TORSDOF 9
