REMARK  7 active torsions:
REMARK  status: ('A' for Active; 'I' for Inactive)
REMARK    1  A    between atoms: C1_1  and  N1_2 
REMARK    2  A    between atoms: C1_1  and  C11_17 
REMARK    3  A    between atoms: C2_3  and  C3_4 
REMARK    4  A    between atoms: C6_7  and  C10_14 
REMARK    5  A    between atoms: C7_9  and  C9_11 
REMARK    6  A    between atoms: C11_17  and  C12_18 
REMARK    7  A    between atoms: C14_20  and  O6_25 
ROOT
HETATM    1  N1  UNL     1      -0.719   0.705   0.158  1.00  0.00    -0.269 NA
HETATM    2  C2  UNL     1       0.481   0.359  -0.133  1.00  0.00     0.093 C 
ENDROOT
BRANCH   2   3
HETATM    3  C3  UNL     1       0.889  -1.049  -0.012  1.00  0.00     0.016 C 
HETATM    4  C4  UNL     1       2.092  -1.451   0.451  1.00  0.00    -0.016 C 
HETATM    5  C5  UNL     1       2.438  -2.885   0.559  1.00  0.00     0.021 C 
HETATM    6  C8  UNL     1       3.162  -0.475   0.896  1.00  0.00     0.062 C 
HETATM    7  C6  UNL     1       3.699  -3.309   0.781  1.00  0.00     0.141 C 
HETATM    8  N2  UNL     1       4.762  -2.428   0.822  1.00  0.00    -0.255 NA
HETATM    9  C7  UNL     1       4.584  -0.973   0.555  1.00  0.00     0.194 C 
BRANCH   7  10
HETATM   10  C10 UNL     1       3.959  -4.744   0.982  1.00  0.00     0.229 C 
HETATM   11  O3  UNL     1       3.150  -5.438   1.551  1.00  0.00    -0.643 OA
HETATM   12  O4  UNL     1       5.117  -5.195   0.506  1.00  0.00    -0.643 OA
ENDBRANCH   7  10
BRANCH   9  13
HETATM   13  C9  UNL     1       5.635  -0.158   1.268  1.00  0.00     0.209 C 
HETATM   14  O1  UNL     1       5.438   0.277   2.377  1.00  0.00    -0.646 OA
HETATM   15  O2  UNL     1       6.762   0.031   0.588  1.00  0.00    -0.646 OA
ENDBRANCH   9  13
ENDBRANCH   2   3
BRANCH   1  16
HETATM   16  C1  UNL     1      -1.674  -0.316   0.609  1.00  0.00     0.130 C 
BRANCH  16  17
HETATM   17  C11 UNL     1      -2.996   0.320   1.035  1.00  0.00     0.053 C 
BRANCH  17  18
HETATM   18  C12 UNL     1      -3.703   0.938  -0.117  1.00  0.00    -0.018 A 
HETATM   19  C13 UNL     1      -3.658   2.330  -0.307  1.00  0.00     0.022 A 
HETATM   20  C14 UNL     1      -4.324   2.920  -1.397  1.00  0.00     0.119 A 
HETATM   21  C15 UNL     1      -5.037   2.111  -2.301  1.00  0.00     0.153 A 
HETATM   22  C16 UNL     1      -5.082   0.719  -2.111  1.00  0.00     0.029 A 
HETATM   23  O5  UNL     1      -5.664   2.654  -3.324  1.00  0.00    -0.188 OA
HETATM   24  C17 UNL     1      -4.416   0.133  -1.021  1.00  0.00    -0.002 A 
BRANCH  20  25
HETATM   25  O6  UNL     1      -4.277   4.227  -1.566  1.00  0.00    -0.326 OA
HETATM   26  C18 UNL     1      -3.639   5.006  -0.566  1.00  0.00     0.181 C 
ENDBRANCH  20  25
ENDBRANCH  17  18
ENDBRANCH  16  17
ENDBRANCH   1  16
TORSDOF 7
