REMARK  3 active torsions:
REMARK  status: ('A' for Active; 'I' for Inactive)
REMARK    1  A    between atoms: C6_6  and  C7_7 
REMARK    2  A    between atoms: C9_9  and  C13_14 
REMARK    3  A    between atoms: C13_14  and  C14_15 
ROOT
HETATM    1  C7  UNL     1       0.016   0.326  -0.701  1.00  0.00     0.002 A 
HETATM    2  C8  UNL     1      -0.670  -0.543   0.168  1.00  0.00    -0.002 A 
HETATM    3  C9  UNL     1      -2.076  -0.578   0.168  1.00  0.00     0.008 A 
HETATM    4  C10 UNL     1      -2.803   0.258  -0.701  1.00  0.00     0.127 A 
HETATM    5  C11 UNL     1      -2.115   1.125  -1.568  1.00  0.00     0.027 A 
HETATM    6  C12 UNL     1      -0.711   1.162  -1.570  1.00  0.00     0.002 A 
HETATM    7  O1  UNL     1      -4.121   0.234  -0.709  1.00  0.00    -0.191 OA
ENDROOT
BRANCH   1   8
HETATM    8  C6  UNL     1       1.473   0.361  -0.701  1.00  0.00     0.027 A 
HETATM    9  C1  UNL     1       2.223  -0.834  -0.701  1.00  0.00     0.131 A 
HETATM   10  C2  UNL     1       3.627  -0.773  -0.701  1.00  0.00     0.029 A 
HETATM   11  O3  UNL     1       1.625  -2.010  -0.701  1.00  0.00    -0.190 OA
HETATM   12  C3  UNL     1       4.285   0.467  -0.701  1.00  0.00     0.029 A 
HETATM   13  C4  UNL     1       3.541   1.658  -0.701  1.00  0.00     0.131 A 
HETATM   14  C5  UNL     1       2.137   1.606  -0.701  1.00  0.00     0.029 A 
HETATM   15  O2  UNL     1       4.158   2.822  -0.701  1.00  0.00    -0.190 OA
ENDBRANCH   1   8
BRANCH   3  16
HETATM   16  C13 UNL     1      -2.789  -1.500   1.092  1.00  0.00     0.054 C 
BRANCH  16  17
HETATM   17  C14 UNL     1      -3.084  -0.857   2.420  1.00  0.00    -0.021 C 
HETATM   18  C15 UNL     1      -2.166  -0.951   3.395  1.00  0.00    -0.005 C 
ENDBRANCH  16  17
ENDBRANCH   3  16
TORSDOF 3
