REMARK  1 active torsions:
REMARK  status: ('A' for Active; 'I' for Inactive)
REMARK    1  A    between atoms: C9_9  and  C10_10 
ROOT
HETATM    1  C1  UNL     1      -1.607   2.039  -1.232  1.00  0.00     0.053 C 
HETATM    2  C2  UNL     1      -3.113   1.967  -1.045  1.00  0.00    -0.028 C 
HETATM    3  C3  UNL     1      -3.688   0.834  -0.588  1.00  0.00    -0.022 C 
HETATM    4  C4  UNL     1      -2.811  -0.369  -0.303  1.00  0.00     0.099 C 
HETATM    5  C5  UNL     1      -1.494   0.092   0.352  1.00  0.00     0.049 C 
HETATM    6  C6  UNL     1      -0.891   0.703  -0.918  1.00  0.00     0.106 C 
HETATM    7  C7  UNL     1       0.604   0.818  -0.607  1.00  0.00     0.027 C 
HETATM    8  C8  UNL     1       0.891  -0.328   0.404  1.00  0.00     0.016 C 
HETATM    9  C9  UNL     1      -0.467  -0.981   0.738  1.00  0.00     0.091 C 
HETATM   10  C11 UNL     1       1.920  -1.322  -0.187  1.00  0.00     0.005 C 
HETATM   11  C12 UNL     1       3.150  -0.414  -0.303  1.00  0.00     0.018 C 
HETATM   12  C13 UNL     1       2.981   0.553  -1.492  1.00  0.00     0.004 C 
HETATM   13  C14 UNL     1       1.500   0.801  -1.857  1.00  0.00     0.003 C 
HETATM   14  C15 UNL     1       3.092   0.316   1.010  1.00  0.00    -0.044 C 
HETATM   15  C16 UNL     1       1.713   0.230   1.586  1.00  0.00     0.023 C 
HETATM   16  C17 UNL     1       4.127   0.951   1.588  1.00  0.00    -0.009 C 
HETATM   17  O3  UNL     1      -1.154  -0.246  -1.957  1.00  0.00    -0.306 OA
HETATM   18  C18 UNL     1      -2.289  -0.852  -1.629  1.00  0.00     0.275 C 
HETATM   19  O4  UNL     1      -2.848  -1.694  -2.295  1.00  0.00    -0.264 OA
HETATM   20  C19 UNL     1      -3.520  -1.440   0.523  1.00  0.00     0.014 C 
ENDROOT
BRANCH   9  21
HETATM   21  C10 UNL     1      -0.635  -1.463   2.158  1.00  0.00     0.185 C 
HETATM   22  O1  UNL     1      -1.381  -0.899   2.924  1.00  0.00    -0.647 OA
HETATM   23  O2  UNL     1       0.086  -2.533   2.481  1.00  0.00    -0.647 OA
ENDBRANCH   9  21
TORSDOF 1
