REMARK  1 active torsions:
REMARK  status: ('A' for Active; 'I' for Inactive)
REMARK    1  A    between atoms: C3_3  and  C8_10 
ROOT
HETATM    1  C1  UNL     1       0.432  -1.805  -0.084  1.00  0.00     0.001 C 
HETATM    2  C2  UNL     1       1.019  -0.662  -0.500  1.00  0.00    -0.028 C 
HETATM    3  C3  UNL     1       0.256   0.631  -0.727  1.00  0.00     0.024 C 
HETATM    4  C4  UNL     1      -1.184   0.600  -0.174  1.00  0.00     0.040 C 
HETATM    5  C5  UNL     1      -1.871  -0.754  -0.430  1.00  0.00     0.184 C 
HETATM    6  C6  UNL     1      -1.051  -1.895   0.230  1.00  0.00     0.173 C 
HETATM    7  C7  UNL     1      -1.225  -1.873   1.752  1.00  0.00     0.040 C 
HETATM    8  O1  UNL     1      -1.541  -3.156  -0.184  1.00  0.00    -0.219 OA
HETATM    9  O2  UNL     1      -1.996  -0.932  -1.832  1.00  0.00    -0.220 OA
ENDROOT
BRANCH   3  10
HETATM   10  C8  UNL     1       1.041   1.820  -0.162  1.00  0.00     0.004 C 
HETATM   11  C9  UNL     1       1.447   1.621   1.297  1.00  0.00     0.000 C 
HETATM   12  C10 UNL     1       2.215   2.227  -1.053  1.00  0.00     0.000 C 
ENDBRANCH   3  10
TORSDOF 1
