REMARK  3 active torsions:
REMARK  status: ('A' for Active; 'I' for Inactive)
REMARK    1  A    between atoms: C2_2  and  C12_16 
REMARK    2  A    between atoms: C12_16  and  C13_17 
REMARK    3  A    between atoms: C16_20  and  O5_23 
ROOT
HETATM    1  C1  UNL     1      -1.084  -1.477   2.406  1.00  0.00     0.157 C 
HETATM    2  C2  UNL     1      -1.418  -0.420   1.342  1.00  0.00     0.097 C 
HETATM    3  C3  UNL     1      -0.250   0.521   1.129  1.00  0.00     0.179 C 
HETATM    4  C4  UNL     1       1.111  -0.064   1.305  1.00  0.00     0.082 A 
HETATM    5  C5  UNL     1       2.272   0.699   1.006  1.00  0.00     0.134 A 
HETATM    6  C6  UNL     1       3.553   0.109   1.131  1.00  0.00     0.029 A 
HETATM    7  C7  UNL     1       3.680  -1.236   1.553  1.00  0.00     0.127 A 
HETATM    8  C8  UNL     1       2.525  -1.992   1.869  1.00  0.00     0.026 A 
HETATM    9  C9  UNL     1       1.240  -1.404   1.766  1.00  0.00     0.097 A 
HETATM   10  O1  UNL     1       0.154  -2.131   2.107  1.00  0.00    -0.330 OA
HETATM   11  C10 UNL     1       2.662  -3.391   2.312  1.00  0.00     0.035 C 
HETATM   12  O2  UNL     1       4.895  -1.793   1.656  1.00  0.00    -0.191 OA
HETATM   13  C11 UNL     1       4.760   0.898   0.818  1.00  0.00     0.035 C 
HETATM   14  O3  UNL     1       2.164   1.973   0.596  1.00  0.00    -0.190 OA
HETATM   15  O4  UNL     1      -0.510   1.666   0.830  1.00  0.00    -0.291 OA
ENDROOT
BRANCH   2  16
HETATM   16  C12 UNL     1      -1.812  -1.072   0.014  1.00  0.00     0.039 C 
BRANCH  16  17
HETATM   17  C13 UNL     1      -2.324  -0.068  -0.957  1.00  0.00     0.004 A 
HETATM   18  C14 UNL     1      -3.637   0.428  -0.842  1.00  0.00     0.129 A 
HETATM   19  C15 UNL     1      -4.105   1.375  -1.768  1.00  0.00     0.051 A 
HETATM   20  O6  UNL     1      -4.428   0.012   0.127  1.00  0.00    -0.190 OA
HETATM   21  C16 UNL     1      -3.273   1.828  -2.807  1.00  0.00     0.096 A 
HETATM   22  C17 UNL     1      -1.965   1.330  -2.918  1.00  0.00     0.024 A 
HETATM   23  C18 UNL     1      -1.490   0.383  -1.996  1.00  0.00    -0.000 A 
BRANCH  21  24
HETATM   24  O5  UNL     1      -3.719   2.717  -3.672  1.00  0.00    -0.328 OA
HETATM   25  C19 UNL     1      -2.820   3.188  -4.666  1.00  0.00     0.181 C 
ENDBRANCH  21  24
ENDBRANCH  16  17
ENDBRANCH   2  16
TORSDOF 3
