REMARK  2 active torsions:
REMARK  status: ('A' for Active; 'I' for Inactive)
REMARK    1  A    between atoms: C1_1  and  O3_10 
REMARK    2  A    between atoms: C5_5  and  O2_8 
ROOT
HETATM    1  C1  UNL     1      -0.197  -0.301  -1.185  1.00  0.00     0.121 A 
HETATM    2  C2  UNL     1       0.631   0.835  -1.177  1.00  0.00     0.026 A 
HETATM    3  C3  UNL     1       1.043   1.399   0.041  1.00  0.00     0.004 A 
HETATM    4  C4  UNL     1       0.626   0.828   1.255  1.00  0.00     0.026 A 
HETATM    5  C5  UNL     1      -0.202  -0.307   1.254  1.00  0.00     0.121 A 
HETATM    6  C6  UNL     1      -0.614  -0.873   0.032  1.00  0.00     0.175 A 
HETATM    7  O1  UNL     1      -1.391  -1.938   0.028  1.00  0.00    -0.186 OA
ENDROOT
BRANCH   1   8
HETATM    8  O3  UNL     1      -0.579  -0.825  -2.332  1.00  0.00    -0.326 OA
HETATM    9  C8  UNL     1      -0.213  -0.153  -3.528  1.00  0.00     0.181 C 
ENDBRANCH   1   8
BRANCH   5  10
HETATM   10  O2  UNL     1      -0.589  -0.838   2.396  1.00  0.00    -0.326 OA
HETATM   11  C7  UNL     1      -0.144  -0.228   3.599  1.00  0.00     0.181 C 
ENDBRANCH   5  10
TORSDOF 2
