REMARK  1 active torsions:
REMARK  status: ('A' for Active; 'I' for Inactive)
REMARK    1  A    between atoms: C5_5  and  C13_14 
ROOT
HETATM    1  C1  UNL     1      -4.277  -0.563  -0.096  1.00  0.00     0.026 C 
HETATM    2  C2  UNL     1      -2.902   0.059  -0.131  1.00  0.00    -0.048 C 
HETATM    3  C3  UNL     1      -1.834  -0.641   0.309  1.00  0.00    -0.035 C 
HETATM    4  C4  UNL     1      -0.418  -0.090   0.297  1.00  0.00     0.024 C 
HETATM    5  C5  UNL     1       0.602  -1.172  -0.144  1.00  0.00     0.004 C 
HETATM    6  C6  UNL     1       1.938  -0.568  -0.633  1.00  0.00     0.003 C 
HETATM    7  C7  UNL     1       2.215   0.793   0.010  1.00  0.00     0.030 C 
HETATM    8  C8  UNL     1       1.141   1.834  -0.396  1.00  0.00     0.127 C 
HETATM    9  C9  UNL     1      -0.269   1.189  -0.559  1.00  0.00     0.032 C 
HETATM   10  C10 UNL     1      -1.455   2.145  -0.324  1.00  0.00     0.007 C 
HETATM   11  C11 UNL     1      -2.783   1.465  -0.676  1.00  0.00     0.022 C 
HETATM   12  C12 UNL     1       1.547   2.572  -1.680  1.00  0.00     0.033 C 
HETATM   13  O1  UNL     1       1.125   2.820   0.621  1.00  0.00    -0.226 OA
ENDROOT
BRANCH   5  14
HETATM   14  C13 UNL     1       0.830  -2.203   0.971  1.00  0.00     0.000 C 
HETATM   15  C14 UNL     1       1.342  -3.543   0.442  1.00  0.00     0.000 C 
HETATM   16  C15 UNL     1       1.686  -1.654   2.115  1.00  0.00     0.000 C 
ENDBRANCH   5  14
TORSDOF 1
