REMARK  2 active torsions:
REMARK  status: ('A' for Active; 'I' for Inactive)
REMARK    1  A    between atoms: C1_1  and  C14_14 
REMARK    2  A    between atoms: C9_9  and  C10_10 
ROOT
HETATM    1  C1  UNL     1       1.760  -0.559   0.596  1.00  0.00     0.058 C 
HETATM    2  C2  UNL     1       0.383   0.061   0.342  1.00  0.00     0.011 C 
HETATM    3  C3  UNL     1       0.268   1.055   1.496  1.00  0.00     0.019 C 
HETATM    4  C4  UNL     1       1.617   1.760   1.387  1.00  0.00     0.004 C 
HETATM    5  C5  UNL     1       2.600   0.627   1.092  1.00  0.00     0.008 C 
HETATM    6  C6  UNL     1      -0.965   1.916   1.328  1.00  0.00    -0.044 C 
HETATM    7  C7  UNL     1      -2.129   1.297   0.584  1.00  0.00     0.022 C 
HETATM    8  C8  UNL     1      -2.129  -0.234   0.752  1.00  0.00     0.004 C 
HETATM    9  C9  UNL     1      -0.807  -0.920   0.324  1.00  0.00     0.001 C 
HETATM   10  C13 UNL     1      -1.031   3.168   1.818  1.00  0.00    -0.009 C 
ENDROOT
BRANCH   1  11
HETATM   11  C14 UNL     1       2.344  -1.252  -0.611  1.00  0.00     0.151 C 
HETATM   12  O1  UNL     1       2.635  -2.424  -0.574  1.00  0.00    -0.296 OA
HETATM   13  C15 UNL     1       2.555  -0.439  -1.861  1.00  0.00     0.072 C 
ENDBRANCH   1  11
BRANCH   9  14
HETATM   14  C10 UNL     1      -0.900  -1.527  -1.080  1.00  0.00     0.000 C 
HETATM   15  C11 UNL     1      -1.625  -2.873  -1.096  1.00  0.00     0.000 C 
HETATM   16  C12 UNL     1      -1.461  -0.545  -2.111  1.00  0.00     0.000 C 
ENDBRANCH   9  14
TORSDOF 2
