REMARK  7 active torsions:
REMARK  status: ('A' for Active; 'I' for Inactive)
REMARK    1  A    between atoms: C1_1  and  C14_20 
REMARK    2  A    between atoms: C5_5  and  O2_7 
REMARK    3  A    between atoms: O2_7  and  C6_8 
REMARK    4  A    between atoms: C6_8  and  C7_9 
REMARK    5  A    between atoms: C14_20  and  O6_21 
REMARK    6  A    between atoms: O6_21  and  C15_22 
REMARK    7  A    between atoms: C19_29  and  C20_31 
ROOT
HETATM    1  C6  UNL     1       2.559  -0.578  -1.642  1.00  0.00     0.230 C 
HETATM    2  C13 UNL     1       2.342  -0.455  -3.082  1.00  0.00     0.108 C 
HETATM    3  N1  UNL     1       2.170  -0.355  -4.225  1.00  0.00    -0.193 NA
ENDROOT
BRANCH   1   4
HETATM    4  O2  UNL     1       2.189  -1.871  -1.223  1.00  0.00    -0.312 OA
BRANCH   4   5
HETATM    5  C5  UNL     1       2.051  -1.982   0.186  1.00  0.00     0.271 C 
HETATM    6  C4  UNL     1       1.922  -3.459   0.643  1.00  0.00     0.241 C 
HETATM    7  C3  UNL     1       0.576  -4.078   0.211  1.00  0.00     0.220 C 
HETATM    8  O3  UNL     1       3.012  -4.225   0.151  1.00  0.00    -0.215 OA
HETATM    9  C2  UNL     1      -0.576  -3.154   0.664  1.00  0.00     0.215 C 
HETATM   10  O4  UNL     1       0.424  -5.361   0.801  1.00  0.00    -0.218 OA
HETATM   11  C1  UNL     1      -0.350  -1.695   0.207  1.00  0.00     0.180 C 
HETATM   12  O5  UNL     1      -1.803  -3.613   0.123  1.00  0.00    -0.218 OA
HETATM   13  O1  UNL     1       0.928  -1.240   0.653  1.00  0.00    -0.326 OA
BRANCH  11  14
HETATM   14  C14 UNL     1      -1.385  -0.725   0.785  1.00  0.00     0.177 C 
BRANCH  14  15
HETATM   15  O6  UNL     1      -1.203   0.531   0.172  1.00  0.00    -0.326 OA
BRANCH  15  16
HETATM   16  C15 UNL     1      -2.078   1.525   0.668  1.00  0.00     0.270 C 
HETATM   17  C16 UNL     1      -1.678   2.920   0.125  1.00  0.00     0.241 C 
HETATM   18  O7  UNL     1      -0.406   3.279   0.641  1.00  0.00    -0.215 OA
HETATM   19  C17 UNL     1      -2.715   3.992   0.531  1.00  0.00     0.220 C 
HETATM   20  O8  UNL     1      -2.436   5.209  -0.142  1.00  0.00    -0.218 OA
HETATM   21  C18 UNL     1      -4.139   3.510   0.172  1.00  0.00     0.215 C 
HETATM   22  O9  UNL     1      -5.098   4.399   0.719  1.00  0.00    -0.218 OA
HETATM   23  C19 UNL     1      -4.406   2.092   0.723  1.00  0.00     0.184 C 
HETATM   24  O10 UNL     1      -3.399   1.205   0.254  1.00  0.00    -0.326 OA
BRANCH  23  25
HETATM   25  C20 UNL     1      -5.748   1.516   0.258  1.00  0.00     0.214 C 
HETATM   26  O11 UNL     1      -5.981   0.316   0.963  1.00  0.00    -0.218 OA
ENDBRANCH  23  25
ENDBRANCH  15  16
ENDBRANCH  14  15
ENDBRANCH  11  14
ENDBRANCH   4   5
ENDBRANCH   1   4
BRANCH   1  27
HETATM   27  C7  UNL     1       3.965  -0.309  -1.244  1.00  0.00     0.019 A 
HETATM   28  C8  UNL     1       4.264   0.785  -0.412  1.00  0.00    -0.001 A 
HETATM   29  C9  UNL     1       5.594   1.039  -0.033  1.00  0.00    -0.000 A 
HETATM   30  C10 UNL     1       6.625   0.201  -0.486  1.00  0.00    -0.000 A 
HETATM   31  C11 UNL     1       6.328  -0.893  -1.318  1.00  0.00    -0.000 A 
HETATM   32  C12 UNL     1       5.000  -1.148  -1.697  1.00  0.00    -0.001 A 
ENDBRANCH   1  27
TORSDOF 7
