REMARK  3 active torsions:
REMARK  status: ('A' for Active; 'I' for Inactive)
REMARK    1  A    between atoms: C2_2  and  O5_37 
REMARK    2  A    between atoms: C22_24  and  C23_25 
REMARK    3  A    between atoms: O5_37  and  C33_38 
ROOT
HETATM    1  C1  UNL     1       3.551   0.465  -1.254  1.00  0.00     0.030 C 
HETATM    2  C2  UNL     1       3.779  -0.656  -0.217  1.00  0.00     0.118 C 
HETATM    3  C3  UNL     1       2.764  -0.660   0.959  1.00  0.00     0.025 C 
HETATM    4  C4  UNL     1       2.523   0.797   1.443  1.00  0.00     0.002 C 
HETATM    5  C5  UNL     1       2.025   1.719   0.297  1.00  0.00     0.000 A 
HETATM    6  C6  UNL     1       2.187   1.154  -1.125  1.00  0.00     0.003 C 
HETATM    7  C7  UNL     1       0.949   2.787   0.541  1.00  0.00     0.000 A 
HETATM    8  C8  UNL     1       0.207   2.838   1.887  1.00  0.00     0.003 C 
HETATM    9  C9  UNL     1       1.045   2.217   3.027  1.00  0.00     0.000 C 
HETATM   10  C10 UNL     1       1.637   0.840   2.703  1.00  0.00     0.000 C 
HETATM   11  C11 UNL     1      -1.272   2.350   1.834  1.00  0.00     0.033 C 
HETATM   12  C12 UNL     1      -2.027   2.943   0.603  1.00  0.00     0.007 C 
HETATM   13  C13 UNL     1      -1.227   2.779  -0.705  1.00  0.00     0.000 C 
HETATM   14  C14 UNL     1       0.148   3.432  -0.594  1.00  0.00     0.000 C 
HETATM   15  C15 UNL     1      -3.332   2.119   0.631  1.00  0.00     0.054 C 
HETATM   16  C16 UNL     1      -2.840   0.680   0.853  1.00  0.00     0.215 C 
HETATM   17  C17 UNL     1      -1.522   0.820   1.652  1.00  0.00     0.203 C 
HETATM   18  O1  UNL     1      -1.578   0.121   2.887  1.00  0.00    -0.218 OA
HETATM   19  O2  UNL     1      -3.930  -0.014   1.424  1.00  0.00    -0.335 OA
HETATM   20  C18 UNL     1      -4.832  -0.283   0.371  1.00  0.00     0.120 C 
HETATM   21  C19 UNL     1      -5.469   1.074  -0.057  1.00  0.00     0.030 C 
HETATM   22  C20 UNL     1      -4.465   2.213  -0.408  1.00  0.00     0.007 C 
HETATM   23  C21 UNL     1      -3.996   2.170  -1.865  1.00  0.00     0.000 C 
HETATM   24  C22 UNL     1      -3.817  -0.836  -0.647  1.00  0.00     0.143 C 
HETATM   25  O4  UNL     1      -2.668  -0.045  -0.363  1.00  0.00    -0.333 OA
HETATM   26  C26 UNL     1      -4.209  -0.693  -2.111  1.00  0.00     0.035 C 
HETATM   27  C27 UNL     1      -5.875  -1.289   0.850  1.00  0.00     0.032 C 
HETATM   28  C28 UNL     1      -2.395   4.416   0.809  1.00  0.00     0.000 C 
HETATM   29  C29 UNL     1      -1.984   2.834   3.115  1.00  0.00     0.003 C 
HETATM   30  C30 UNL     1       2.416   3.174   0.492  1.00  0.00     0.000 A 
HETATM   31  C31 UNL     1       3.340  -1.502   2.109  1.00  0.00     0.002 C 
HETATM   32  C32 UNL     1       1.424  -1.299   0.547  1.00  0.00     0.002 C 
ENDROOT
BRANCH   2  33
HETATM   33  O5  UNL     1       3.787  -1.916  -0.865  1.00  0.00    -0.332 OA
BRANCH  33  34
HETATM   34  C33 UNL     1       4.941  -2.684  -0.582  1.00  0.00     0.270 C 
HETATM   35  C34 UNL     1       6.135  -2.168  -1.426  1.00  0.00     0.241 C 
HETATM   36  C35 UNL     1       5.984  -2.551  -2.920  1.00  0.00     0.220 C 
HETATM   37  O9  UNL     1       7.330  -2.711  -0.881  1.00  0.00    -0.215 OA
HETATM   38  C36 UNL     1       5.645  -4.051  -3.065  1.00  0.00     0.215 C 
HETATM   39  O8  UNL     1       7.158  -2.227  -3.651  1.00  0.00    -0.218 OA
HETATM   40  C37 UNL     1       4.461  -4.447  -2.156  1.00  0.00     0.181 C 
HETATM   41  O7  UNL     1       5.293  -4.336  -4.406  1.00  0.00    -0.218 OA
HETATM   42  O6  UNL     1       4.721  -4.076  -0.807  1.00  0.00    -0.326 OA
ENDBRANCH  33  34
ENDBRANCH   2  33
BRANCH  24  43
HETATM   43  C23 UNL     1      -3.428  -2.283  -0.342  1.00  0.00     0.152 C 
HETATM   44  C24 UNL     1      -2.910  -2.383   1.092  1.00  0.00     0.035 C 
HETATM   45  C25 UNL     1      -4.625  -3.197  -0.602  1.00  0.00     0.035 C 
HETATM   46  O3  UNL     1      -2.387  -2.662  -1.215  1.00  0.00    -0.224 OA
ENDBRANCH  24  43
TORSDOF 3
