REMARK  10 active torsions:
REMARK  status: ('A' for Active; 'I' for Inactive)
REMARK    1  A    between atoms: C1_1  and  C28_32 
REMARK    2  A    between atoms: C8_10  and  C10_12 
REMARK    3  A    between atoms: C11_13  and  C12_14 
REMARK    4  A    between atoms: C13_15  and  C14_16 
REMARK    5  A    between atoms: C15_17  and  C16_18 
REMARK    6  A    between atoms: C16_18  and  C17_19 
REMARK    7  A    between atoms: C17_19  and  C18_20 
REMARK    8  A    between atoms: C25_28  and  C26_29 
REMARK    9  A    between atoms: C28_32  and  C29_33 
REMARK   10  A    between atoms: C29_33  and  C30_34 
ROOT
HETATM    1  C1  UNL     1      -3.287   1.072   2.455  1.00  0.00     0.025 C 
HETATM    2  C2  UNL     1      -4.531   1.225   1.596  1.00  0.00    -0.045 C 
HETATM    3  C3  UNL     1      -5.416  -0.008   1.518  1.00  0.00     0.024 C 
HETATM    4  C4  UNL     1      -4.615  -1.277   1.189  1.00  0.00     0.035 C 
HETATM    5  C5  UNL     1      -3.395  -1.502   2.107  1.00  0.00     0.132 C 
HETATM    6  C6  UNL     1      -2.496  -0.228   2.104  1.00  0.00     0.087 C 
HETATM    7  C7  UNL     1      -1.145  -0.404   2.842  1.00  0.00     0.272 C 
HETATM    8  O1  UNL     1      -1.244  -0.312   4.246  1.00  0.00    -0.190 OA
HETATM    9  O2  UNL     1      -0.313   0.604   2.318  1.00  0.00    -0.327 OA
HETATM   10  C8  UNL     1      -0.592   0.809   0.951  1.00  0.00     0.140 C 
HETATM   11  C9  UNL     1      -1.863  -0.010   0.703  1.00  0.00     0.042 C 
HETATM   12  O3  UNL     1      -3.863  -1.758   3.418  1.00  0.00    -0.226 OA
HETATM   13  C24 UNL     1      -2.637  -2.772   1.697  1.00  0.00     0.033 C 
HETATM   14  C25 UNL     1      -4.832   2.375   0.943  1.00  0.00     0.013 C 
HETATM   15  C27 UNL     1      -6.078   2.481   0.100  1.00  0.00     0.034 C 
ENDROOT
BRANCH   1  16
HETATM   16  C28 UNL     1      -3.715   1.143   3.926  1.00  0.00     0.007 C 
BRANCH  16  17
HETATM   17  C29 UNL     1      -3.148   2.363   4.649  1.00  0.00     0.036 C 
BRANCH  17  18
HETATM   18  C30 UNL     1      -3.533   2.406   6.129  1.00  0.00     0.182 C 
HETATM   19  O5  UNL     1      -2.965   3.565   6.699  1.00  0.00    -0.221 OA
ENDBRANCH  17  18
ENDBRANCH  16  17
ENDBRANCH   1  16
BRANCH  10  20
HETATM   20  C10 UNL     1       0.592   0.397   0.111  1.00  0.00    -0.001 C 
HETATM   21  C11 UNL     1       0.813   1.043  -1.045  1.00  0.00    -0.024 C 
HETATM   22  C23 UNL     1      -0.131   2.147  -1.443  1.00  0.00     0.031 C 
BRANCH  21  23
HETATM   23  C12 UNL     1       1.949   0.680  -1.900  1.00  0.00    -0.004 C 
HETATM   24  C13 UNL     1       2.277  -0.609  -2.094  1.00  0.00    -0.001 C 
BRANCH  24  25
HETATM   25  C14 UNL     1       3.414  -0.973  -2.949  1.00  0.00    -0.009 C 
HETATM   26  C15 UNL     1       3.668  -2.260  -3.238  1.00  0.00    -0.044 C 
HETATM   27  C22 UNL     1       2.764  -3.316  -2.666  1.00  0.00     0.026 C 
BRANCH  26  28
HETATM   28  C16 UNL     1       4.848  -2.576  -4.119  1.00  0.00     0.027 C 
BRANCH  28  29
HETATM   29  C17 UNL     1       5.986  -1.570  -3.955  1.00  0.00     0.030 C 
BRANCH  29  30
HETATM   30  C18 UNL     1       7.266  -2.045  -4.590  1.00  0.00    -0.034 C 
HETATM   31  C19 UNL     1       8.213  -1.137  -4.879  1.00  0.00    -0.048 C 
HETATM   32  C20 UNL     1       9.461  -1.600  -5.582  1.00  0.00     0.026 C 
HETATM   33  C21 UNL     1       7.977   0.297  -4.486  1.00  0.00     0.026 C 
ENDBRANCH  29  30
ENDBRANCH  28  29
ENDBRANCH  26  28
ENDBRANCH  24  25
ENDBRANCH  21  23
ENDBRANCH  10  20
BRANCH  14  34
HETATM   34  C26 UNL     1      -3.986   3.576   1.012  1.00  0.00     0.229 C 
HETATM   35  O4  UNL     1      -3.955   4.356   0.088  1.00  0.00    -0.283 OA
ENDBRANCH  14  34
TORSDOF 10
