REMARK  2 active torsions:
REMARK  status: ('A' for Active; 'I' for Inactive)
REMARK    1  A    between atoms: C1_1  and  O6_20 
REMARK    2  A    between atoms: C12_14  and  O3_16 
ROOT
HETATM    1  C1  UNL     1       3.674  -0.363   0.810  1.00  0.00     0.120 A 
HETATM    2  C2  UNL     1       3.664   0.924   0.228  1.00  0.00     0.028 A 
HETATM    3  C3  UNL     1       2.453   1.484  -0.234  1.00  0.00     0.027 A 
HETATM    4  C4  UNL     1       1.244   0.758  -0.119  1.00  0.00     0.105 A 
HETATM    5  C5  UNL     1       1.248  -0.541   0.469  1.00  0.00     0.089 A 
HETATM    6  C6  UNL     1       2.471  -1.100   0.933  1.00  0.00     0.158 A 
HETATM    7  O1  UNL     1       2.504  -2.320   1.488  1.00  0.00    -0.188 OA
HETATM    8  C7  UNL     1      -0.039  -1.307   0.596  1.00  0.00     0.202 A 
HETATM    9  C8  UNL     1      -1.244  -0.588   0.064  1.00  0.00     0.066 A 
HETATM   10  C9  UNL     1      -1.109   0.709  -0.506  1.00  0.00     0.128 A 
HETATM   11  O2  UNL     1       0.100   1.311  -0.570  1.00  0.00    -0.305 OA
HETATM   12  C10 UNL     1      -2.250   1.379  -1.012  1.00  0.00     0.156 A 
HETATM   13  C11 UNL     1      -3.522   0.764  -0.945  1.00  0.00     0.054 A 
HETATM   14  C12 UNL     1      -3.658  -0.522  -0.375  1.00  0.00     0.096 A 
HETATM   15  C13 UNL     1      -2.523  -1.199   0.129  1.00  0.00     0.029 A 
HETATM   16  O4  UNL     1      -2.127   2.600  -1.553  1.00  0.00    -0.188 OA
HETATM   17  O5  UNL     1      -0.105  -2.414   1.084  1.00  0.00    -0.286 OA
ENDROOT
BRANCH   1  18
HETATM   18  O6  UNL     1       4.828  -0.887   1.246  1.00  0.00    -0.326 OA
HETATM   19  C15 UNL     1       6.010  -0.113   1.100  1.00  0.00     0.181 C 
ENDBRANCH   1  18
BRANCH  14  20
HETATM   20  O3  UNL     1      -4.865  -1.102  -0.311  1.00  0.00    -0.328 OA
HETATM   21  C14 UNL     1      -5.983  -0.371  -0.791  1.00  0.00     0.181 C 
ENDBRANCH  14  20
TORSDOF 2
