REMARK  5 active torsions:
REMARK  status: ('A' for Active; 'I' for Inactive)
REMARK    1  A    between atoms: C1_1  and  O3_19 
REMARK    2  A    between atoms: C2_2  and  O2_17 
REMARK    3  A    between atoms: C4_4  and  C7_8 
REMARK    4  A    between atoms: C7_8  and  C8_9 
REMARK    5  A    between atoms: C7_8  and  C10_11 
ROOT
HETATM    1  C1  UNL     1       0.664   1.408  -2.469  1.00  0.00     0.102 C 
HETATM    2  C2  UNL     1       1.715   0.766  -1.580  1.00  0.00     0.181 C 
HETATM    3  C3  UNL     1       1.193   0.398  -0.203  1.00  0.00     0.004 C 
HETATM    4  C4  UNL     1       0.109   1.000   0.328  1.00  0.00    -0.004 C 
HETATM    5  C5  UNL     1      -0.652   2.074  -0.429  1.00  0.00     0.195 C 
HETATM    6  C6  UNL     1      -0.416   2.008  -1.926  1.00  0.00     0.033 C 
HETATM    7  O1  UNL     1      -2.043   1.967  -0.189  1.00  0.00    -0.214 OA
ENDROOT
BRANCH   4   8
HETATM    8  C7  UNL     1      -0.356   0.603   1.707  1.00  0.00     0.065 C 
BRANCH   8   9
HETATM    9  C8  UNL     1       0.793   0.637   2.682  1.00  0.00    -0.018 C 
HETATM   10  C9  UNL     1       0.518   0.701   3.994  1.00  0.00    -0.004 C 
ENDBRANCH   8   9
BRANCH   8  11
HETATM   11  C10 UNL     1      -1.051  -0.711   1.707  1.00  0.00    -0.015 A 
HETATM   12  C11 UNL     1      -2.457  -0.762   1.707  1.00  0.00    -0.004 A 
HETATM   13  C12 UNL     1      -3.115  -2.004   1.707  1.00  0.00    -0.000 A 
HETATM   14  C13 UNL     1      -2.369  -3.195   1.707  1.00  0.00    -0.000 A 
HETATM   15  C14 UNL     1      -0.963  -3.145   1.707  1.00  0.00    -0.000 A 
HETATM   16  C15 UNL     1      -0.305  -1.902   1.707  1.00  0.00    -0.004 A 
ENDBRANCH   8  11
ENDBRANCH   4   8
BRANCH   2  17
HETATM   17  O2  UNL     1       2.225  -0.397  -2.201  1.00  0.00    -0.343 OA
HETATM   18  C16 UNL     1       3.543  -0.703  -1.810  1.00  0.00     0.175 C 
ENDBRANCH   2  17
BRANCH   1  19
HETATM   19  O3  UNL     1       0.795   1.391  -3.797  1.00  0.00    -0.330 OA
HETATM   20  C17 UNL     1      -0.201   0.602  -4.428  1.00  0.00     0.181 C 
ENDBRANCH   1  19
TORSDOF 5
