REMARK  3 active torsions:
REMARK  status: ('A' for Active; 'I' for Inactive)
REMARK    1  A    between atoms: C1_1  and  C2_2 
REMARK    2  A    between atoms: C3_3  and  C4_4 
REMARK    3  A    between atoms: C7_7  and  O1_10 
ROOT
HETATM    1  C4  UNL     1      -0.699  -0.213  -0.010  1.00  0.00     0.026 A 
HETATM    2  C5  UNL     1      -1.449   0.979  -0.010  1.00  0.00     0.133 A 
HETATM    3  C6  UNL     1      -0.785   2.219  -0.010  1.00  0.00     0.052 A 
HETATM    4  C7  UNL     1       0.621   2.273  -0.010  1.00  0.00     0.096 A 
HETATM    5  C8  UNL     1       1.363   1.082  -0.010  1.00  0.00     0.024 A 
HETATM    6  C9  UNL     1       0.705  -0.160  -0.010  1.00  0.00     0.004 A 
HETATM    7  O2  UNL     1      -2.768   0.945  -0.010  1.00  0.00    -0.190 OA
ENDROOT
BRANCH   1   8
HETATM    8  C3  UNL     1      -1.389  -1.541  -0.010  1.00  0.00     0.008 C 
HETATM    9  C2  UNL     1      -0.641  -2.656  -0.010  1.00  0.00     0.070 C 
BRANCH   9  10
HETATM   10  C1  UNL     1      -1.271  -3.981  -0.010  1.00  0.00     0.211 C 
HETATM   11  O3  UNL     1      -2.477  -4.084  -0.010  1.00  0.00    -0.644 OA
HETATM   12  O4  UNL     1      -0.439  -5.018  -0.010  1.00  0.00    -0.644 OA
ENDBRANCH   9  10
ENDBRANCH   1   8
BRANCH   4  13
HETATM   13  O1  UNL     1       1.238   3.438  -0.010  1.00  0.00    -0.328 OA
HETATM   14  C10 UNL     1       2.656   3.441   0.059  1.00  0.00     0.181 C 
ENDBRANCH   4  13
TORSDOF 3
