REMARK  2 active torsions:
REMARK  status: ('A' for Active; 'I' for Inactive)
REMARK    1  A    between atoms: C2_2  and  C11_15 
REMARK    2  A    between atoms: C11_15  and  C12_16 
ROOT
HETATM    1  C1  UNL     1      -0.287  -0.908   0.686  1.00  0.00     0.157 C 
HETATM    2  C2  UNL     1      -0.721   0.246  -0.234  1.00  0.00     0.097 C 
HETATM    3  C3  UNL     1       0.373   1.293  -0.359  1.00  0.00     0.179 C 
HETATM    4  C4  UNL     1       1.777   0.797  -0.252  1.00  0.00     0.082 A 
HETATM    5  C5  UNL     1       2.873   1.676  -0.459  1.00  0.00     0.134 A 
HETATM    6  C6  UNL     1       4.199   1.178  -0.400  1.00  0.00     0.029 A 
HETATM    7  C7  UNL     1       4.430  -0.193  -0.133  1.00  0.00     0.131 A 
HETATM    8  C8  UNL     1       3.338  -1.064   0.092  1.00  0.00     0.051 A 
HETATM    9  C9  UNL     1       2.012  -0.572   0.051  1.00  0.00     0.101 A 
HETATM   10  O1  UNL     1       0.994  -1.420   0.303  1.00  0.00    -0.330 OA
HETATM   11  O2  UNL     1       5.680  -0.674  -0.086  1.00  0.00    -0.190 OA
HETATM   12  C10 UNL     1       5.338   2.084  -0.619  1.00  0.00     0.035 C 
HETATM   13  O3  UNL     1       2.666   2.977  -0.721  1.00  0.00    -0.190 OA
HETATM   14  O4  UNL     1       0.031   2.439  -0.543  1.00  0.00    -0.291 OA
ENDROOT
BRANCH   2  15
HETATM   15  C11 UNL     1      -2.047   0.848   0.254  1.00  0.00     0.037 C 
BRANCH  15  16
HETATM   16  C12 UNL     1      -3.141  -0.158   0.244  1.00  0.00    -0.021 A 
HETATM   17  C13 UNL     1      -3.750  -0.523  -0.971  1.00  0.00    -0.002 A 
HETATM   18  C14 UNL     1      -4.783  -1.475  -0.979  1.00  0.00     0.027 A 
HETATM   19  C15 UNL     1      -5.213  -2.064   0.225  1.00  0.00     0.131 A 
HETATM   20  C16 UNL     1      -4.602  -1.697   1.436  1.00  0.00     0.027 A 
HETATM   21  O5  UNL     1      -6.182  -2.957   0.215  1.00  0.00    -0.190 OA
HETATM   22  C17 UNL     1      -3.566  -0.746   1.447  1.00  0.00    -0.002 A 
ENDBRANCH  15  16
ENDBRANCH   2  15
TORSDOF 2
