REMARK  4 active torsions:
REMARK  status: ('A' for Active; 'I' for Inactive)
REMARK    1  A    between atoms: C1_1  and  C2_2 
REMARK    2  A    between atoms: C1_1  and  O2_6 
REMARK    3  A    between atoms: O2_6  and  C5_7 
REMARK    4  A    between atoms: C5_7  and  C8_10 
ROOT
HETATM    1  C8  UNL     1      -0.107   0.139   0.773  1.00  0.00     0.103 A 
HETATM    2  O3  UNL     1      -0.197  -1.223   1.180  1.00  0.00    -0.309 OA
HETATM    3  C9  UNL     1       1.123  -1.615   1.293  1.00  0.00     0.102 A 
HETATM    4  C10 UNL     1       1.588  -2.889   1.672  1.00  0.00     0.025 A 
HETATM    5  C11 UNL     1       2.992  -3.074   1.723  1.00  0.00     0.004 A 
HETATM    6  C12 UNL     1       3.871  -1.998   1.399  1.00  0.00     0.023 A 
HETATM    7  C13 UNL     1       5.340  -2.213   1.455  1.00  0.00     0.007 A 
HETATM    8  C14 UNL     1       6.168  -1.201   1.150  1.00  0.00     0.069 A 
HETATM    9  C15 UNL     1       5.611   0.109   0.764  1.00  0.00     0.300 A 
HETATM   10  O4  UNL     1       4.274   0.264   0.723  1.00  0.00    -0.273 OA
HETATM   11  C16 UNL     1       3.371  -0.705   1.014  1.00  0.00     0.105 A 
HETATM   12  C17 UNL     1       1.959  -0.580   0.981  1.00  0.00     0.047 A 
HETATM   13  C18 UNL     1       1.246   0.525   0.654  1.00  0.00     0.027 A 
HETATM   14  O5  UNL     1       6.375   1.006   0.494  1.00  0.00    -0.259 OA
ENDROOT
BRANCH   1  15
HETATM   15  C5  UNL     1      -1.324   1.000   0.520  1.00  0.00     0.141 C 
HETATM   16  C6  UNL     1      -2.400   0.768   1.580  1.00  0.00     0.037 C 
HETATM   17  C7  UNL     1      -0.941   2.475   0.381  1.00  0.00     0.037 C 
BRANCH  15  18
HETATM   18  O2  UNL     1      -1.783   0.512  -0.732  1.00  0.00    -0.300 OA
BRANCH  18  19
HETATM   19  C1  UNL     1      -2.869   1.150  -1.158  1.00  0.00     0.272 C 
HETATM   20  O1  UNL     1      -3.479   1.957  -0.498  1.00  0.00    -0.264 OA
BRANCH  19  21
HETATM   21  C2  UNL     1      -3.311   0.799  -2.555  1.00  0.00     0.086 C 
HETATM   22  C3  UNL     1      -4.398   1.738  -3.074  1.00  0.00     0.010 C 
HETATM   23  C4  UNL     1      -3.689  -0.676  -2.693  1.00  0.00     0.010 C 
ENDBRANCH  19  21
ENDBRANCH  18  19
ENDBRANCH  15  18
ENDBRANCH   1  15
TORSDOF 4
