REMARK  2 active torsions:
REMARK  status: ('A' for Active; 'I' for Inactive)
REMARK    1  A    between atoms: C8_8  and  O1_12 
REMARK    2  A    between atoms: O1_12  and  C12_13 
ROOT
HETATM    1  C1  UNL     1      -1.367  -2.918  -0.887  1.00  0.00    -0.035 A 
HETATM    2  C2  UNL     1      -2.592  -3.006  -0.342  1.00  0.00     0.034 A 
HETATM    3  C3  UNL     1      -3.014  -1.689   0.109  1.00  0.00     0.191 A 
HETATM    4  C4  UNL     1      -1.941  -0.736  -0.201  1.00  0.00     0.015 A 
HETATM    5  C5  UNL     1      -0.807  -1.504  -0.859  1.00  0.00     0.071 A 
HETATM    6  C6  UNL     1       0.477  -1.346  -0.037  1.00  0.00     0.139 C 
HETATM    7  C7  UNL     1       1.215  -0.037  -0.356  1.00  0.00     0.084 C 
HETATM    8  C8  UNL     1       0.578   1.182   0.326  1.00  0.00     0.135 C 
HETATM    9  C9  UNL     1      -0.789   1.502  -0.318  1.00  0.00     0.052 C 
HETATM   10  C10 UNL     1      -1.939   0.590   0.060  1.00  0.00    -0.042 C 
HETATM   11  C11 UNL     1      -3.115   1.236   0.754  1.00  0.00     0.026 C 
HETATM   12  C14 UNL     1       2.594  -0.469   0.045  1.00  0.00     0.045 C 
HETATM   13  C15 UNL     1       2.635  -1.924  -0.014  1.00  0.00     0.292 C 
HETATM   14  O3  UNL     1       1.416  -2.408  -0.252  1.00  0.00    -0.300 OA
HETATM   15  O4  UNL     1       3.643  -2.578   0.125  1.00  0.00    -0.260 OA
HETATM   16  C16 UNL     1       3.607   0.346   0.393  1.00  0.00     0.001 C 
HETATM   17  O5  UNL     1      -4.070  -1.441   0.644  1.00  0.00    -0.287 OA
HETATM   18  C17 UNL     1      -0.623  -4.084  -1.479  1.00  0.00     0.027 C 
ENDROOT
BRANCH   8  19
HETATM   19  O1  UNL     1       1.428   2.307   0.143  1.00  0.00    -0.303 OA
BRANCH  19  20
HETATM   20  C12 UNL     1       1.133   3.303   0.975  1.00  0.00     0.272 C 
HETATM   21  O2  UNL     1       0.275   3.240   1.822  1.00  0.00    -0.264 OA
HETATM   22  C13 UNL     1       1.955   4.551   0.793  1.00  0.00     0.106 C 
ENDBRANCH  19  20
ENDBRANCH   8  19
TORSDOF 2
