REMARK  5 active torsions:
REMARK  status: ('A' for Active; 'I' for Inactive)
REMARK    1  A    between atoms: C1_1  and  C2_2 
REMARK    2  A    between atoms: C3_3  and  C4_4 
REMARK    3  A    between atoms: C4_4  and  C5_5 
REMARK    4  A    between atoms: C5_5  and  C6_6 
REMARK    5  A    between atoms: C6_6  and  C7_7 
ROOT
HETATM    1  C4  UNL     1      -0.947  -1.369   0.926  1.00  0.00     0.025 C 
ENDROOT
BRANCH   1   2
HETATM    2  C3  UNL     1       0.338  -2.014   0.482  1.00  0.00    -0.038 C 
HETATM    3  C2  UNL     1       0.377  -2.602  -0.725  1.00  0.00     0.062 C 
HETATM    4  C10 UNL     1       1.582  -2.029   1.330  1.00  0.00     0.027 C 
BRANCH   3   5
HETATM    5  C1  UNL     1       1.607  -3.244  -1.203  1.00  0.00     0.210 C 
HETATM    6  O3  UNL     1       2.121  -2.887  -2.236  1.00  0.00    -0.644 OA
HETATM    7  O4  UNL     1       2.088  -4.217  -0.436  1.00  0.00    -0.644 OA
ENDBRANCH   3   5
ENDBRANCH   1   2
BRANCH   1   8
HETATM    8  C5  UNL     1      -0.822   0.148   1.063  1.00  0.00     0.040 C 
BRANCH   8   9
HETATM    9  C6  UNL     1      -0.574   0.844  -0.275  1.00  0.00     0.180 C 
HETATM   10  O2  UNL     1       0.803   0.760  -0.566  1.00  0.00    -0.221 OA
BRANCH   9  11
HETATM   11  C7  UNL     1      -0.971   2.318  -0.258  1.00  0.00     0.155 C 
HETATM   12  C8  UNL     1      -0.430   3.060   0.967  1.00  0.00     0.036 C 
HETATM   13  C9  UNL     1      -0.648   3.033  -1.570  1.00  0.00     0.036 C 
HETATM   14  O1  UNL     1      -2.373   2.230  -0.135  1.00  0.00    -0.223 OA
ENDBRANCH   9  11
ENDBRANCH   8   9
ENDBRANCH   1   8
TORSDOF 5
