REMARK  5 active torsions:
REMARK  status: ('A' for Active; 'I' for Inactive)
REMARK    1  A    between atoms: C1_1  and  O5_16 
REMARK    2  A    between atoms: C7_8  and  O3_12 
REMARK    3  A    between atoms: C8_9  and  C9_10 
REMARK    4  A    between atoms: O5_16  and  C12_17 
REMARK    5  A    between atoms: C16_21  and  C17_23 
ROOT
HETATM    1  C1  UNL     1      -2.076   3.336   0.123  1.00  0.00     0.132 C 
HETATM    2  C2  UNL     1      -2.209   3.510  -1.651  1.00  0.00     0.086 A 
HETATM    3  C3  UNL     1      -1.781   2.497  -1.679  1.00  0.00     0.070 A 
HETATM    4  C4  UNL     1      -3.424   2.393  -1.577  1.00  0.00     0.111 A 
HETATM    5  C5  UNL     1      -4.236   3.499  -0.534  1.00  0.00     0.087 C 
HETATM    6  C6  UNL     1      -3.010   4.437   0.133  1.00  0.00     0.125 C 
HETATM    7  O1  UNL     1      -2.210   5.396  -0.733  1.00  0.00    -0.333 OA
HETATM    8  C7  UNL     1      -0.748   5.035  -0.475  1.00  0.00     0.240 C 
HETATM    9  C8  UNL     1      -0.848   3.422  -0.531  1.00  0.00     0.115 C 
HETATM   10  C11 UNL     1      -3.368   5.024   1.509  1.00  0.00     0.033 C 
HETATM   11  O4  UNL     1      -4.045   1.508  -2.189  1.00  0.00    -0.303 OA
ENDROOT
BRANCH   1  12
HETATM   12  O5  UNL     1      -2.547   2.141   1.110  1.00  0.00    -0.331 OA
BRANCH  12  13
HETATM   13  C12 UNL     1      -2.140   0.651   1.173  1.00  0.00     0.270 C 
HETATM   14  C13 UNL     1      -2.993  -0.327   0.319  1.00  0.00     0.241 C 
HETATM   15  C14 UNL     1      -2.451  -1.749   0.487  1.00  0.00     0.220 C 
HETATM   16  O10 UNL     1      -4.359  -0.274   0.731  1.00  0.00    -0.215 OA
HETATM   17  C15 UNL     1      -0.992  -1.742   0.034  1.00  0.00     0.215 C 
HETATM   18  O9  UNL     1      -3.216  -2.660  -0.292  1.00  0.00    -0.218 OA
HETATM   19  C16 UNL     1      -0.216  -0.765   0.913  1.00  0.00     0.184 C 
HETATM   20  O8  UNL     1      -0.416  -3.037   0.133  1.00  0.00    -0.218 OA
HETATM   21  O6  UNL     1      -0.779   0.535   0.831  1.00  0.00    -0.326 OA
BRANCH  19  22
HETATM   22  C17 UNL     1       1.253  -0.684   0.424  1.00  0.00     0.214 C 
HETATM   23  O7  UNL     1       1.903  -1.942   0.448  1.00  0.00    -0.218 OA
ENDBRANCH  19  22
ENDBRANCH  12  13
ENDBRANCH   1  12
BRANCH   9  24
HETATM   24  C9  UNL     1       0.448   2.631  -0.316  1.00  0.00     0.190 C 
HETATM   25  O2  UNL     1       1.606   3.428  -0.272  1.00  0.00    -0.221 OA
ENDBRANCH   9  24
BRANCH   8  26
HETATM   26  O3  UNL     1      -0.306   5.454   0.855  1.00  0.00    -0.328 OA
HETATM   27  C10 UNL     1      -0.268   6.898   0.958  1.00  0.00     0.177 C 
ENDBRANCH   8  26
TORSDOF 5
