REMARK  6 active torsions:
REMARK  status: ('A' for Active; 'I' for Inactive)
REMARK    1  A    between atoms: C3_3  and  C4_4 
REMARK    2  A    between atoms: C4_4  and  C5_5 
REMARK    3  A    between atoms: C5_5  and  C6_6 
REMARK    4  A    between atoms: C6_6  and  O1_8 
REMARK    5  A    between atoms: C6_6  and  C10_12 
REMARK    6  A    between atoms: O1_8  and  C8_9 
ROOT
HETATM    1  C6  UNL     1      -1.160   0.365  -0.600  1.00  0.00     0.120 C 
HETATM    2  C7  UNL     1      -2.367   0.689  -1.478  1.00  0.00     0.035 C 
ENDROOT
BRANCH   1   3
HETATM    3  C5  UNL     1       0.037  -0.141  -1.404  1.00  0.00     0.037 C 
BRANCH   3   4
HETATM    4  C4  UNL     1       0.998  -0.984  -0.566  1.00  0.00     0.028 C 
BRANCH   4   5
HETATM    5  C3  UNL     1       1.490  -0.254   0.654  1.00  0.00    -0.035 C 
HETATM    6  C2  UNL     1       2.645   0.430   0.568  1.00  0.00    -0.048 C 
HETATM    7  C1  UNL     1       3.156   1.131   1.799  1.00  0.00     0.026 C 
HETATM    8  C12 UNL     1       3.365   0.459  -0.752  1.00  0.00     0.026 C 
ENDBRANCH   4   5
ENDBRANCH   3   4
ENDBRANCH   1   3
BRANCH   1   9
HETATM    9  O1  UNL     1      -1.525  -0.607   0.367  1.00  0.00    -0.302 OA
BRANCH   9  10
HETATM   10  C8  UNL     1      -2.057  -1.695  -0.185  1.00  0.00     0.273 C 
HETATM   11  C9  UNL     1      -2.939  -2.508   0.723  1.00  0.00     0.106 C 
HETATM   12  O2  UNL     1      -1.863  -2.033  -1.330  1.00  0.00    -0.264 OA
ENDBRANCH   9  10
ENDBRANCH   1   9
BRANCH   1  13
HETATM   13  C10 UNL     1      -0.797   1.502   0.318  1.00  0.00     0.001 C 
HETATM   14  C11 UNL     1      -1.613   1.781   1.348  1.00  0.00    -0.003 C 
ENDBRANCH   1  13
TORSDOF 6
