REMARK  3 active torsions:
REMARK  status: ('A' for Active; 'I' for Inactive)
REMARK    1  A    between atoms: C1_1  and  O5_29 
REMARK    2  A    between atoms: C2_2  and  O4_27 
REMARK    3  A    between atoms: C20_22  and  C21_23 
ROOT
HETATM    1  C1  UNL     1       0.803  -2.506  -1.644  1.00  0.00     0.116 A 
HETATM    2  C2  UNL     1      -0.571  -2.668  -1.916  1.00  0.00     0.118 A 
HETATM    3  C3  UNL     1      -1.516  -2.006  -1.113  1.00  0.00     0.043 A 
HETATM    4  C4  UNL     1      -1.039  -1.201  -0.049  1.00  0.00     0.060 A 
HETATM    5  C5  UNL     1       0.306  -1.047   0.342  1.00  0.00    -0.001 A 
HETATM    6  C6  UNL     1       1.217  -1.715  -0.545  1.00  0.00     0.024 A 
HETATM    7  C7  UNL     1       0.506  -0.248   1.693  1.00  0.00     0.078 C 
HETATM    8  C8  UNL     1      -0.947   0.295   1.881  1.00  0.00     0.095 C 
HETATM    9  N1  UNL     1      -1.781  -0.330   0.850  1.00  0.00    -0.301 N 
HETATM   10  C9  UNL     1      -3.135   0.002   0.594  1.00  0.00     0.237 C 
HETATM   11  C10 UNL     1      -3.559   1.207   1.399  1.00  0.00     0.088 C 
HETATM   12  C11 UNL     1      -2.492   2.311   1.203  1.00  0.00     0.012 C 
HETATM   13  C12 UNL     1      -1.078   1.824   1.643  1.00  0.00     0.026 C 
HETATM   14  C13 UNL     1       0.156   2.441   0.875  1.00  0.00     0.025 C 
HETATM   15  C14 UNL     1       1.221   2.469   1.942  1.00  0.00     0.045 C 
HETATM   16  C15 UNL     1       1.500   0.957   2.102  1.00  0.00     0.255 C 
HETATM   17  N2  UNL     1       2.715   0.609   1.301  1.00  0.00     0.066 N 
HETATM   18  C16 UNL     1       2.764  -0.813   1.965  1.00  0.00     0.287 C 
HETATM   19  C17 UNL     1       1.361  -1.227   2.510  1.00  0.00     0.052 C 
HETATM   20  C18 UNL     1       2.287   1.158  -0.127  1.00  0.00     0.308 C 
HETATM   21  C19 UNL     1       0.861   1.762  -0.328  1.00  0.00    -0.006 C 
HETATM   22  C20 UNL     1       0.289   1.686  -1.547  1.00  0.00     0.003 C 
HETATM   23  O2  UNL     1       3.855   1.336   1.750  1.00  0.00    -0.061 OA
HETATM   24  O3  UNL     1      -3.852  -0.561  -0.201  1.00  0.00    -0.272 OA
ENDROOT
BRANCH  22  25
HETATM   25  C21 UNL     1      -1.065   2.266  -1.855  1.00  0.00     0.208 C 
HETATM   26  O1  UNL     1      -1.184   2.465  -3.246  1.00  0.00    -0.215 OA
ENDBRANCH  22  25
BRANCH   1  27
HETATM   27  O5  UNL     1       1.717  -3.102  -2.422  1.00  0.00    -0.326 OA
HETATM   28  C23 UNL     1       3.068  -2.690  -2.299  1.00  0.00     0.181 C 
ENDBRANCH   1  27
BRANCH   2  29
HETATM   29  O4  UNL     1      -0.975  -3.440  -2.936  1.00  0.00    -0.326 OA
HETATM   30  C22 UNL     1      -2.371  -3.586  -3.148  1.00  0.00     0.181 C 
ENDBRANCH   2  29
TORSDOF 3
