REMARK  1 active torsions:
REMARK  status: ('A' for Active; 'I' for Inactive)
REMARK    1  A    between atoms: C1_1  and  C3_3 
ROOT
HETATM    1  C3  UNL     1       0.014   0.252  -0.176  1.00  0.00     0.060 A 
HETATM    2  C4  UNL     1      -1.396   0.203  -0.176  1.00  0.00     0.134 A 
HETATM    3  C5  UNL     1      -2.049  -1.043  -0.176  1.00  0.00     0.028 A 
HETATM    4  C6  UNL     1      -1.303  -2.232  -0.176  1.00  0.00     0.002 A 
HETATM    5  C7  UNL     1       0.100  -2.182  -0.176  1.00  0.00     0.000 A 
HETATM    6  C8  UNL     1       0.758  -0.941  -0.176  1.00  0.00     0.005 A 
HETATM    7  O1  UNL     1      -2.109   1.313  -0.176  1.00  0.00    -0.190 OA
ENDROOT
BRANCH   1   8
HETATM    8  C1  UNL     1       0.723   1.567  -0.176  1.00  0.00     0.175 C 
HETATM    9  C2  UNL     1       2.045   1.658   0.541  1.00  0.00     0.077 C 
HETATM   10  O2  UNL     1       0.250   2.529  -0.734  1.00  0.00    -0.291 OA
ENDBRANCH   1   8
TORSDOF 1
