REMARK  0 active torsions:
REMARK  status: ('A' for Active; 'I' for Inactive)
ROOT
HETATM    1  C1  UNL     1       0.987   0.682  -0.346  1.00  0.00     0.043 C 
HETATM    2  C2  UNL     1       0.074  -0.520  -0.436  1.00  0.00     0.092 C 
HETATM    3  C3  UNL     1       0.387  -1.801   0.305  1.00  0.00     0.238 C 
HETATM    4  O1  UNL     1       1.725  -2.104  -0.033  1.00  0.00    -0.331 OA
HETATM    5  C4  UNL     1       2.658  -1.113   0.436  1.00  0.00     0.145 C 
HETATM    6  C5  UNL     1       2.018   0.291   0.729  1.00  0.00     0.035 C 
HETATM    7  O2  UNL     1      -0.724  -2.561  -0.133  1.00  0.00    -0.328 OA
HETATM    8  C6  UNL     1      -1.844  -1.686  -0.352  1.00  0.00     0.178 C 
HETATM    9  C7  UNL     1      -1.351  -0.264   0.047  1.00  0.00     0.189 C 
HETATM   10  C8  UNL     1      -1.480   1.145  -0.564  1.00  0.00     0.213 C 
HETATM   11  C9  UNL     1      -0.086   1.797  -0.285  1.00  0.00     0.185 C 
HETATM   12  O3  UNL     1      -0.072   2.408   0.990  1.00  0.00    -0.221 OA
HETATM   13  O4  UNL     1      -1.722   1.070  -1.959  1.00  0.00    -0.218 OA
HETATM   14  O5  UNL     1      -1.486  -0.119   1.459  1.00  0.00    -0.221 OA
ENDROOT
TORSDOF 0
