REMARK  4 active torsions:
REMARK  status: ('A' for Active; 'I' for Inactive)
REMARK    1  A    between atoms: C1_1  and  C2_2 
REMARK    2  A    between atoms: C1_1  and  C10_13 
REMARK    3  A    between atoms: C4_4  and  O1_5 
REMARK    4  A    between atoms: C6_7  and  O2_8 
ROOT
HETATM    1  C2  UNL     1      -0.719   0.955   0.463  1.00  0.00    -0.027 A 
HETATM    2  C3  UNL     1      -0.859  -0.383   0.519  1.00  0.00     0.019 A 
HETATM    3  C4  UNL     1       0.289  -1.301   0.439  1.00  0.00     0.118 A 
HETATM    4  C6  UNL     1       1.543  -0.822   0.309  1.00  0.00     0.151 A 
HETATM    5  C8  UNL     1       1.793   0.633   0.242  1.00  0.00     0.201 A 
HETATM    6  C9  UNL     1       0.639   1.613   0.312  1.00  0.00     0.094 A 
HETATM    7  O3  UNL     1       2.926   1.041   0.129  1.00  0.00    -0.289 OA
ENDROOT
BRANCH   1   8
HETATM    8  C1  UNL     1      -1.928   1.850   0.549  1.00  0.00     0.087 C 
BRANCH   8   9
HETATM    9  C10 UNL     1      -2.627   1.922  -0.781  1.00  0.00     0.155 C 
HETATM   10  O4  UNL     1      -3.695   1.383  -0.953  1.00  0.00    -0.296 OA
HETATM   11  C11 UNL     1      -1.957   2.686  -1.893  1.00  0.00     0.073 C 
ENDBRANCH   8   9
ENDBRANCH   1   8
BRANCH   3  12
HETATM   12  O1  UNL     1       0.078  -2.613   0.500  1.00  0.00    -0.326 OA
HETATM   13  C5  UNL     1      -0.068  -3.197  -0.787  1.00  0.00     0.181 C 
ENDBRANCH   3  12
BRANCH   4  14
HETATM   14  O2  UNL     1       2.570  -1.668   0.240  1.00  0.00    -0.323 OA
HETATM   15  C7  UNL     1       2.981  -2.125   1.519  1.00  0.00     0.182 C 
ENDBRANCH   4  14
TORSDOF 4
