REMARK  0 active torsions:
REMARK  status: ('A' for Active; 'I' for Inactive)
ROOT
HETATM    1  C1  UNL     1       3.361  -4.938   0.488  1.00  0.00     0.133 A 
HETATM    2  C2  UNL     1       1.944  -4.924   0.487  1.00  0.00     0.027 A 
HETATM    3  C3  UNL     1       1.246  -3.694   0.497  1.00  0.00     0.002 A 
HETATM    4  C4  UNL     1       1.976  -2.484   0.507  1.00  0.00     0.028 A 
HETATM    5  C5  UNL     1       3.401  -2.484   0.482  1.00  0.00     0.094 A 
HETATM    6  C6  UNL     1       4.086  -3.722   0.486  1.00  0.00     0.051 A 
HETATM    7  O1  UNL     1       4.107  -1.318   0.439  1.00  0.00    -0.331 OA
HETATM    8  C7  UNL     1       3.454  -0.023   0.410  1.00  0.00     0.156 C 
HETATM    9  C8  UNL     1       2.125  -0.168  -0.337  1.00  0.00     0.086 C 
HETATM   10  C9  UNL     1       1.349  -1.158   0.557  1.00  0.00     0.152 C 
HETATM   11  O2  UNL     1      -0.023  -0.979   0.188  1.00  0.00    -0.329 OA
HETATM   12  C10 UNL     1      -0.171   0.292  -0.209  1.00  0.00     0.092 A 
HETATM   13  C11 UNL     1       1.074   0.906  -0.471  1.00  0.00     0.005 A 
HETATM   14  C12 UNL     1       1.145   2.278  -0.820  1.00  0.00    -0.000 A 
HETATM   15  C13 UNL     1      -0.032   3.044  -0.960  1.00  0.00     0.024 A 
HETATM   16  C14 UNL     1      -1.287   2.437  -0.752  1.00  0.00     0.096 A 
HETATM   17  C15 UNL     1      -1.345   1.070  -0.389  1.00  0.00     0.044 A 
HETATM   18  C16 UNL     1      -2.676   0.448  -0.199  1.00  0.00     0.002 C 
HETATM   19  C17 UNL     1      -3.782   1.215  -0.227  1.00  0.00     0.001 C 
HETATM   20  C18 UNL     1      -3.675   2.724  -0.359  1.00  0.00     0.117 C 
HETATM   21  O3  UNL     1      -2.418   3.158  -0.912  1.00  0.00    -0.332 OA
HETATM   22  C19 UNL     1      -4.785   3.253  -1.269  1.00  0.00     0.035 C 
HETATM   23  C20 UNL     1      -3.806   3.341   1.036  1.00  0.00     0.035 C 
HETATM   24  O4  UNL     1       4.016  -6.107   0.488  1.00  0.00    -0.190 OA
ENDROOT
TORSDOF 0
