REMARK  5 active torsions:
REMARK  status: ('A' for Active; 'I' for Inactive)
REMARK    1  A    between atoms: C7_7  and  C14_16 
REMARK    2  A    between atoms: C10_10  and  O1_11 
REMARK    3  A    between atoms: O1_11  and  C11_12 
REMARK    4  A    between atoms: C14_16  and  C15_17 
REMARK    5  A    between atoms: C15_17  and  C16_18 
ROOT
HETATM    1  C1  UNL     1      -3.126  -0.885   1.202  1.00  0.00     0.000 C 
HETATM    2  C2  UNL     1      -3.655  -0.356  -0.127  1.00  0.00     0.000 C 
HETATM    3  C3  UNL     1      -3.003   0.989  -0.517  1.00  0.00     0.002 C 
HETATM    4  C4  UNL     1      -1.533   1.105   0.020  1.00  0.00     0.030 C 
HETATM    5  C5  UNL     1      -0.801  -0.264   0.193  1.00  0.00     0.028 C 
HETATM    6  C6  UNL     1      -1.630  -1.223   1.109  1.00  0.00     0.002 C 
HETATM    7  C7  UNL     1       0.644  -0.061   0.768  1.00  0.00     0.127 C 
HETATM    8  C8  UNL     1       1.460   0.983  -0.038  1.00  0.00     0.031 C 
HETATM    9  C9  UNL     1       0.717   2.327  -0.133  1.00  0.00     0.033 C 
HETATM   10  C10 UNL     1      -0.678   2.155  -0.741  1.00  0.00     0.124 C 
HETATM   11  C13 UNL     1       2.881   1.185   0.509  1.00  0.00     0.003 C 
HETATM   12  O5  UNL     1       0.566   0.415   2.104  1.00  0.00    -0.226 OA
HETATM   13  C20 UNL     1      -0.687  -0.920  -1.194  1.00  0.00     0.003 C 
HETATM   14  C21 UNL     1      -3.096   1.115  -2.044  1.00  0.00     0.000 C 
HETATM   15  C22 UNL     1      -3.830   2.136   0.081  1.00  0.00     0.000 C 
ENDROOT
BRANCH   7  16
HETATM   16  C14 UNL     1       1.398  -1.396   0.853  1.00  0.00     0.035 C 
BRANCH  16  17
HETATM   17  C15 UNL     1       2.270  -1.503   2.104  1.00  0.00     0.034 C 
BRANCH  17  18
HETATM   18  C16 UNL     1       3.221  -2.669   2.044  1.00  0.00     0.039 A 
HETATM   19  C17 UNL     1       2.880  -3.952   2.144  1.00  0.00     0.007 A 
HETATM   20  C18 UNL     1       4.140  -4.774   2.031  1.00  0.00     0.178 A 
HETATM   21  O3  UNL     1       5.194  -3.811   1.858  1.00  0.00    -0.294 OA
HETATM   22  C19 UNL     1       4.660  -2.584   1.867  1.00  0.00     0.292 A 
HETATM   23  O4  UNL     1       5.264  -1.543   1.747  1.00  0.00    -0.260 OA
ENDBRANCH  17  18
ENDBRANCH  16  17
ENDBRANCH   7  16
BRANCH  10  24
HETATM   24  O1  UNL     1      -0.512   1.783  -2.103  1.00  0.00    -0.304 OA
BRANCH  24  25
HETATM   25  C11 UNL     1      -0.134   2.806  -2.865  1.00  0.00     0.272 C 
HETATM   26  O2  UNL     1      -0.041   3.943  -2.467  1.00  0.00    -0.264 OA
HETATM   27  C12 UNL     1       0.179   2.457  -4.295  1.00  0.00     0.106 C 
ENDBRANCH  24  25
ENDBRANCH  10  24
TORSDOF 5
