REMARK  4 active torsions:
REMARK  status: ('A' for Active; 'I' for Inactive)
REMARK    1  A    between atoms: C7_8  and  C17_24 
REMARK    2  A    between atoms: C8_9  and  O3_12 
REMARK    3  A    between atoms: O3_12  and  C10_13 
REMARK    4  A    between atoms: C14_17  and  C16_19 
ROOT
HETATM    1  C1  UNL     1       3.555  -4.461   1.445  1.00  0.00     0.135 A 
HETATM    2  C2  UNL     1       2.992  -4.982   0.256  1.00  0.00     0.055 A 
HETATM    3  C3  UNL     1       2.260  -4.143  -0.613  1.00  0.00     0.138 A 
HETATM    4  C4  UNL     1       2.092  -2.771  -0.287  1.00  0.00     0.089 A 
HETATM    5  C5  UNL     1       2.656  -2.246   0.904  1.00  0.00     0.107 A 
HETATM    6  C6  UNL     1       3.387  -3.094   1.769  1.00  0.00     0.052 A 
HETATM    7  O1  UNL     1       2.496  -0.941   1.213  1.00  0.00    -0.305 OA
HETATM    8  C7  UNL     1       1.814  -0.066   0.443  1.00  0.00     0.125 A 
HETATM    9  C8  UNL     1       1.228  -0.447  -0.719  1.00  0.00     0.156 A 
HETATM   10  C9  UNL     1       1.326  -1.855  -1.174  1.00  0.00     0.224 A 
HETATM   11  O2  UNL     1       0.781  -2.135  -2.217  1.00  0.00    -0.284 OA
HETATM   12  O10 UNL     1       1.734  -4.654  -1.736  1.00  0.00    -0.190 OA
HETATM   13  O11 UNL     1       4.250  -5.262   2.266  1.00  0.00    -0.190 OA
ENDROOT
BRANCH   9  14
HETATM   14  O3  UNL     1       0.557   0.426  -1.473  1.00  0.00    -0.326 OA
BRANCH  14  15
HETATM   15  C10 UNL     1      -0.748   0.684  -0.969  1.00  0.00     0.155 C 
HETATM   16  C11 UNL     1      -1.313   1.981  -1.580  1.00  0.00     0.212 C 
HETATM   17  C12 UNL     1      -2.717   2.320  -1.006  1.00  0.00     0.215 C 
HETATM   18  O7  UNL     1      -1.406   1.822  -2.984  1.00  0.00    -0.218 OA
HETATM   19  C13 UNL     1      -3.463   1.078  -0.440  1.00  0.00     0.188 C 
HETATM   20  O6  UNL     1      -2.565   3.264   0.039  1.00  0.00    -0.218 OA
HETATM   21  C14 UNL     1      -3.160  -0.205  -1.246  1.00  0.00     0.069 C 
HETATM   22  O5  UNL     1      -4.856   1.332  -0.443  1.00  0.00    -0.221 OA
HETATM   23  C15 UNL     1      -1.652  -0.541  -1.219  1.00  0.00     0.038 C 
BRANCH  21  24
HETATM   24  C16 UNL     1      -3.988  -1.412  -0.779  1.00  0.00     0.185 C 
HETATM   25  O4  UNL     1      -3.713  -2.494  -1.641  1.00  0.00    -0.221 OA
ENDBRANCH  21  24
ENDBRANCH  14  15
ENDBRANCH   9  14
BRANCH   8  26
HETATM   26  C17 UNL     1       1.707   1.358   0.889  1.00  0.00     0.027 A 
HETATM   27  C18 UNL     1       1.842   2.400  -0.045  1.00  0.00     0.004 A 
HETATM   28  C19 UNL     1       1.742   3.736   0.377  1.00  0.00     0.030 A 
HETATM   29  C20 UNL     1       1.506   4.037   1.730  1.00  0.00     0.156 A 
HETATM   30  C21 UNL     1       1.369   2.994   2.666  1.00  0.00     0.156 A 
HETATM   31  O9  UNL     1       1.412   5.293   2.117  1.00  0.00    -0.188 OA
HETATM   32  C22 UNL     1       1.471   1.656   2.242  1.00  0.00     0.032 A 
HETATM   33  O8  UNL     1       1.148   3.266   3.936  1.00  0.00    -0.188 OA
ENDBRANCH   8  26
TORSDOF 4
