REMARK  13 active torsions:
REMARK  status: ('A' for Active; 'I' for Inactive)
REMARK    1  A    between atoms: C18_27  and  O46_121 
REMARK    2  A    between atoms: C19_28  and  O41_109 
REMARK    3  A    between atoms: C20_29  and  O11_31 
REMARK    4  A    between atoms: O11_31  and  C21_32 
REMARK    5  A    between atoms: C21_32  and  C22_33 
REMARK    6  A    between atoms: C23_34  and  C28_42 
REMARK    7  A    between atoms: C47_68  and  O23_70 
REMARK    8  A    between atoms: O23_70  and  C48_71 
REMARK    9  A    between atoms: C48_71  and  C49_72 
REMARK   10  A    between atoms: O41_109  and  C69_110 
REMARK   11  A    between atoms: C69_110  and  C70_111 
REMARK   12  A    between atoms: O46_121  and  C76_122 
REMARK   13  A    between atoms: C76_122  and  C77_123 
ROOT
HETATM    1  C22 UNL     1      -6.276   1.135   1.387  1.00  0.00     0.068 A 
HETATM    2  C23 UNL     1      -5.186   1.561   2.176  1.00  0.00     0.035 A 
HETATM    3  C24 UNL     1      -5.219   2.832   2.791  1.00  0.00     0.158 A 
HETATM    4  C25 UNL     1      -6.338   3.668   2.615  1.00  0.00     0.181 A 
HETATM    5  C26 UNL     1      -7.422   3.240   1.828  1.00  0.00     0.158 A 
HETATM    6  C27 UNL     1      -7.389   1.977   1.219  1.00  0.00     0.035 A 
HETATM    7  O12 UNL     1      -8.471   4.022   1.662  1.00  0.00    -0.188 OA
HETATM    8  O13 UNL     1      -6.369   4.854   3.190  1.00  0.00    -0.186 OA
HETATM    9  O14 UNL     1      -4.211   3.250   3.533  1.00  0.00    -0.188 OA
ENDROOT
BRANCH   2  10
HETATM   10  C28 UNL     1      -4.024   0.699   2.363  1.00  0.00     0.030 A 
HETATM   11  C29 UNL     1      -4.104  -0.441   3.186  1.00  0.00     0.156 A 
HETATM   12  C30 UNL     1      -2.965  -1.244   3.393  1.00  0.00     0.156 A 
HETATM   13  O39 UNL     1      -5.238  -0.768   3.775  1.00  0.00    -0.188 OA
HETATM   14  C31 UNL     1      -1.744  -0.920   2.766  1.00  0.00     0.035 A 
HETATM   15  O38 UNL     1      -3.049  -2.291   4.192  1.00  0.00    -0.188 OA
HETATM   16  C32 UNL     1      -1.695   0.193   1.861  1.00  0.00     0.065 A 
HETATM   17  C40 UNL     1      -0.516  -1.695   3.049  1.00  0.00     0.035 A 
HETATM   18  C33 UNL     1      -2.822   1.014   1.707  1.00  0.00     0.008 A 
HETATM   19  C34 UNL     1      -0.469   0.510   1.055  1.00  0.00     0.296 C 
HETATM   20  O15 UNL     1       0.330  -0.336   0.725  1.00  0.00    -0.259 OA
HETATM   21  O16 UNL     1      -0.182   1.744   0.629  1.00  0.00    -0.296 OA
HETATM   22  C35 UNL     1       0.301   2.662   1.619  1.00  0.00     0.184 C 
HETATM   23  C36 UNL     1       1.830   2.527   1.826  1.00  0.00     0.178 C 
HETATM   24  C37 UNL     1       2.326   1.314   2.647  1.00  0.00     0.184 C 
HETATM   25  O22 UNL     1       2.287   3.680   2.514  1.00  0.00    -0.326 OA
HETATM   26  O17 UNL     1       1.629   1.256   3.904  1.00  0.00    -0.296 OA
HETATM   27  C45 UNL     1       3.848   1.379   2.938  1.00  0.00     0.187 C 
HETATM   28  C38 UNL     1       0.588   0.410   4.010  1.00  0.00     0.296 C 
HETATM   29  C39 UNL     1       0.635  -1.033   3.592  1.00  0.00     0.067 A 
HETATM   30  O21 UNL     1      -0.406   0.910   4.483  1.00  0.00    -0.259 OA
HETATM   31  C44 UNL     1       1.838  -1.736   3.742  1.00  0.00     0.035 A 
HETATM   32  C43 UNL     1       1.904  -3.104   3.434  1.00  0.00     0.158 A 
HETATM   33  C42 UNL     1       0.760  -3.775   2.969  1.00  0.00     0.181 A 
HETATM   34  O18 UNL     1       3.039  -3.754   3.584  1.00  0.00    -0.188 OA
HETATM   35  C41 UNL     1      -0.445  -3.076   2.772  1.00  0.00     0.158 A 
HETATM   36  O19 UNL     1       0.816  -5.066   2.711  1.00  0.00    -0.186 OA
HETATM   37  O20 UNL     1      -1.500  -3.719   2.311  1.00  0.00    -0.188 OA
HETATM   38  C46 UNL     1       4.594   2.725   2.609  1.00  0.00     0.211 C 
HETATM   39  O29 UNL     1       4.529   0.207   2.469  1.00  0.00    -0.296 OA
HETATM   40  C47 UNL     1       3.672   3.955   2.354  1.00  0.00     0.274 C 
HETATM   41  O28 UNL     1       5.522   2.643   1.508  1.00  0.00    -0.293 OA
HETATM   42  C55 UNL     1       6.615   1.850   1.516  1.00  0.00     0.296 C 
HETATM   43  C56 UNL     1       7.109   1.045   2.674  1.00  0.00     0.067 A 
HETATM   44  O37 UNL     1       7.193   1.811   0.453  1.00  0.00    -0.259 OA
HETATM   45  C57 UNL     1       7.268  -0.379   2.561  1.00  0.00     0.035 A 
HETATM   46  C68 UNL     1       7.412   1.697   3.877  1.00  0.00     0.035 A 
HETATM   47  C58 UNL     1       6.967  -1.084   1.281  1.00  0.00     0.035 A 
HETATM   48  C65 UNL     1       7.713  -1.098   3.692  1.00  0.00     0.158 A 
HETATM   49  C59 UNL     1       5.705  -0.928   0.600  1.00  0.00     0.067 A 
HETATM   50  C64 UNL     1       7.943  -1.924   0.699  1.00  0.00     0.158 A 
HETATM   51  C60 UNL     1       4.594  -0.096   1.158  1.00  0.00     0.296 C 
HETATM   52  C61 UNL     1       5.494  -1.563  -0.635  1.00  0.00     0.035 A 
HETATM   53  O30 UNL     1       3.715   0.330   0.440  1.00  0.00    -0.259 OA
HETATM   54  C62 UNL     1       6.479  -2.387  -1.191  1.00  0.00     0.158 A 
HETATM   55  C63 UNL     1       7.695  -2.578  -0.521  1.00  0.00     0.181 A 
HETATM   56  O33 UNL     1       6.256  -2.984  -2.346  1.00  0.00    -0.188 OA
HETATM   57  O32 UNL     1       8.611  -3.369  -1.041  1.00  0.00    -0.186 OA
HETATM   58  O31 UNL     1       9.115  -2.098   1.283  1.00  0.00    -0.188 OA
HETATM   59  C66 UNL     1       8.022  -0.426   4.889  1.00  0.00     0.181 A 
HETATM   60  O36 UNL     1       7.834  -2.412   3.647  1.00  0.00    -0.188 OA
HETATM   61  C67 UNL     1       7.869   0.967   4.983  1.00  0.00     0.158 A 
HETATM   62  O35 UNL     1       8.455  -1.107   5.932  1.00  0.00    -0.186 OA
HETATM   63  O34 UNL     1       8.156   1.592   6.106  1.00  0.00    -0.188 OA
BRANCH  40  64
HETATM   64  O23 UNL     1       3.873   4.473   1.043  1.00  0.00    -0.270 OA
BRANCH  64  65
HETATM   65  C48 UNL     1       3.484   5.740   0.934  1.00  0.00     0.298 C 
HETATM   66  O27 UNL     1       2.938   6.356   1.818  1.00  0.00    -0.259 OA
BRANCH  65  67
HETATM   67  C49 UNL     1       3.772   6.381  -0.385  1.00  0.00     0.068 A 
HETATM   68  C50 UNL     1       3.348   7.699  -0.633  1.00  0.00     0.035 A 
HETATM   69  C51 UNL     1       3.615   8.305  -1.873  1.00  0.00     0.158 A 
HETATM   70  O24 UNL     1       3.217   9.541  -2.100  1.00  0.00    -0.188 OA
HETATM   71  C52 UNL     1       4.311   7.590  -2.867  1.00  0.00     0.181 A 
HETATM   72  O25 UNL     1       4.563   8.156  -4.031  1.00  0.00    -0.186 OA
HETATM   73  C53 UNL     1       4.734   6.272  -2.619  1.00  0.00     0.158 A 
HETATM   74  O26 UNL     1       5.385   5.598  -3.549  1.00  0.00    -0.188 OA
HETATM   75  C54 UNL     1       4.463   5.670  -1.379  1.00  0.00     0.035 A 
ENDBRANCH  65  67
ENDBRANCH  64  65
ENDBRANCH  40  64
ENDBRANCH   2  10
BRANCH   1  76
HETATM   76  C21 UNL     1      -6.277  -0.207   0.719  1.00  0.00     0.298 C 
HETATM   77  O40 UNL     1      -7.299  -0.840   0.598  1.00  0.00    -0.259 OA
BRANCH  76  78
HETATM   78  O11 UNL     1      -5.090  -0.625   0.287  1.00  0.00    -0.270 OA
BRANCH  78  79
HETATM   79  C20 UNL     1      -5.178  -1.840  -0.441  1.00  0.00     0.274 C 
HETATM   80  C19 UNL     1      -3.828  -2.588  -0.367  1.00  0.00     0.211 C 
HETATM   81  C18 UNL     1      -3.024  -2.516  -1.674  1.00  0.00     0.187 C 
HETATM   82  C16 UNL     1      -3.195  -1.148  -2.350  1.00  0.00     0.184 C 
HETATM   83  C15 UNL     1      -4.703  -0.793  -2.580  1.00  0.00     0.178 C 
HETATM   84  O8  UNL     1      -2.496  -1.219  -3.600  1.00  0.00    -0.296 OA
HETATM   85  C14 UNL     1      -5.135   0.686  -2.381  1.00  0.00     0.184 C 
HETATM   86  O10 UNL     1      -5.567  -1.621  -1.795  1.00  0.00    -0.326 OA
HETATM   87  O7  UNL     1      -4.330   1.598  -3.141  1.00  0.00    -0.296 OA
HETATM   88  C13 UNL     1      -3.324   2.268  -2.543  1.00  0.00     0.296 C 
HETATM   89  C8  UNL     1      -2.295   3.049  -3.312  1.00  0.00     0.067 A 
HETATM   90  O6  UNL     1      -3.277   2.225  -1.332  1.00  0.00    -0.259 OA
HETATM   91  C7  UNL     1      -2.115   2.914  -4.736  1.00  0.00     0.035 A 
HETATM   92  C9  UNL     1      -1.482   3.940  -2.592  1.00  0.00     0.035 A 
HETATM   93  C5  UNL     1      -2.912   1.961  -5.551  1.00  0.00     0.035 A 
HETATM   94  C12 UNL     1      -1.141   3.717  -5.373  1.00  0.00     0.158 A 
HETATM   95  C4  UNL     1      -2.928   0.551  -5.270  1.00  0.00     0.067 A 
HETATM   96  C6  UNL     1      -3.688   2.441  -6.633  1.00  0.00     0.158 A 
HETATM   97  C3  UNL     1      -3.703  -0.312  -6.057  1.00  0.00     0.035 A 
HETATM   98  C17 UNL     1      -2.150  -0.047  -4.141  1.00  0.00     0.296 C 
HETATM   99  C2  UNL     1      -4.453   0.182  -7.133  1.00  0.00     0.158 A 
HETATM  100  C1  UNL     1      -4.443   1.555  -7.420  1.00  0.00     0.181 A 
HETATM  101  O51 UNL     1      -5.168  -0.646  -7.867  1.00  0.00    -0.188 OA
HETATM  102  O1  UNL     1      -5.147   2.016  -8.436  1.00  0.00    -0.186 OA
HETATM  103  O9  UNL     1      -1.178   0.475  -3.645  1.00  0.00    -0.259 OA
HETATM  104  O2  UNL     1      -3.719   3.731  -6.912  1.00  0.00    -0.188 OA
HETATM  105  C11 UNL     1      -0.359   4.621  -4.633  1.00  0.00     0.181 A 
HETATM  106  O3  UNL     1      -0.943   3.625  -6.676  1.00  0.00    -0.188 OA
HETATM  107  C10 UNL     1      -0.523   4.727  -3.244  1.00  0.00     0.158 A 
HETATM  108  O4  UNL     1       0.535   5.371  -5.244  1.00  0.00    -0.186 OA
HETATM  109  O5  UNL     1       0.221   5.565  -2.549  1.00  0.00    -0.188 OA
BRANCH  80 110
HETATM  110  O41 UNL     1      -4.063  -3.953  -0.049  1.00  0.00    -0.293 OA
BRANCH 110 111
HETATM  111  C69 UNL     1      -4.580  -4.107   1.166  1.00  0.00     0.296 C 
HETATM  112  O45 UNL     1      -4.824  -3.191   1.916  1.00  0.00    -0.259 OA
BRANCH 111 113
HETATM  113  C70 UNL     1      -4.854  -5.520   1.566  1.00  0.00     0.067 A 
HETATM  114  C71 UNL     1      -4.563  -6.572   0.682  1.00  0.00     0.035 A 
HETATM  115  C72 UNL     1      -4.818  -7.902   1.057  1.00  0.00     0.158 A 
HETATM  116  O42 UNL     1      -4.543  -8.885   0.223  1.00  0.00    -0.188 OA
HETATM  117  C73 UNL     1      -5.367  -8.182   2.322  1.00  0.00     0.181 A 
HETATM  118  O43 UNL     1      -5.610  -9.430   2.676  1.00  0.00    -0.186 OA
HETATM  119  C74 UNL     1      -5.660  -7.129   3.211  1.00  0.00     0.158 A 
HETATM  120  O44 UNL     1      -6.174  -7.387   4.397  1.00  0.00    -0.188 OA
HETATM  121  C75 UNL     1      -5.402  -5.801   2.830  1.00  0.00     0.035 A 
ENDBRANCH 111 113
ENDBRANCH 110 111
ENDBRANCH  80 110
BRANCH  81 122
HETATM  122  O46 UNL     1      -1.650  -2.756  -1.406  1.00  0.00    -0.296 OA
BRANCH 122 123
HETATM  123  C76 UNL     1      -1.055  -3.438  -2.381  1.00  0.00     0.296 C 
HETATM  124  O50 UNL     1      -1.555  -3.641  -3.461  1.00  0.00    -0.259 OA
BRANCH 123 125
HETATM  125  C77 UNL     1       0.309  -3.953  -2.057  1.00  0.00     0.067 A 
HETATM  126  C78 UNL     1       0.947  -4.854  -2.926  1.00  0.00     0.035 A 
HETATM  127  C79 UNL     1       2.230  -5.340  -2.623  1.00  0.00     0.158 A 
HETATM  128  O47 UNL     1       2.824  -6.184  -3.443  1.00  0.00    -0.188 OA
HETATM  129  C80 UNL     1       2.879  -4.924  -1.445  1.00  0.00     0.181 A 
HETATM  130  O48 UNL     1       4.084  -5.379  -1.158  1.00  0.00    -0.186 OA
HETATM  131  C81 UNL     1       2.242  -4.022  -0.572  1.00  0.00     0.158 A 
HETATM  132  O49 UNL     1       2.844  -3.629   0.531  1.00  0.00    -0.188 OA
HETATM  133  C82 UNL     1       0.957  -3.537  -0.879  1.00  0.00     0.035 A 
ENDBRANCH 123 125
ENDBRANCH 122 123
ENDBRANCH  81 122
ENDBRANCH  78  79
ENDBRANCH  76  78
ENDBRANCH   1  76
TORSDOF 13
