REMARK  1 active torsions:
REMARK  status: ('A' for Active; 'I' for Inactive)
REMARK    1  A    between atoms: C3_3  and  C15_16 
ROOT
HETATM    1  C1  UNL     1       2.625  -1.586   0.668  1.00  0.00     0.000 C 
HETATM    2  C2  UNL     1       2.785  -0.322  -0.195  1.00  0.00     0.005 C 
HETATM    3  C3  UNL     1       1.713   0.734   0.113  1.00  0.00     0.058 C 
HETATM    4  C4  UNL     1       0.260   0.176  -0.027  1.00  0.00     0.095 C 
HETATM    5  C5  UNL     1       0.184  -1.397  -0.094  1.00  0.00     0.023 C 
HETATM    6  C6  UNL     1       1.156  -1.944   0.969  1.00  0.00     0.002 C 
HETATM    7  C7  UNL     1      -1.266  -1.875   0.154  1.00  0.00     0.002 C 
HETATM    8  C8  UNL     1      -2.283  -1.078  -0.684  1.00  0.00     0.003 C 
HETATM    9  C9  UNL     1      -2.000   0.435  -0.637  1.00  0.00     0.027 C 
HETATM   10  C10 UNL     1      -0.598   0.715  -1.191  1.00  0.00     0.030 C 
HETATM   11  C11 UNL     1      -1.803   0.996   0.779  1.00  0.00     0.093 C 
HETATM   12  O1  UNL     1      -0.471   0.642   1.107  1.00  0.00    -0.364 OA
HETATM   13  C12 UNL     1      -2.748   0.430   1.834  1.00  0.00     0.030 C 
HETATM   14  C13 UNL     1      -1.875   2.523   0.762  1.00  0.00     0.030 C 
HETATM   15  C14 UNL     1       0.611  -1.918  -1.479  1.00  0.00     0.002 C 
ENDROOT
BRANCH   3  16
HETATM   16  C15 UNL     1       1.947   2.008  -0.709  1.00  0.00     0.185 C 
HETATM   17  O2  UNL     1       3.207   2.535  -0.357  1.00  0.00    -0.221 OA
ENDBRANCH   3  16
TORSDOF 1
