REMARK  2 active torsions:
REMARK  status: ('A' for Active; 'I' for Inactive)
REMARK    1  A    between atoms: C5_5  and  C7_7 
REMARK    2  A    between atoms: C7_7  and  C8_8 
ROOT
HETATM    1  C1  UNL     1      -1.951  -1.010  -0.381  1.00  0.00     0.156 A 
HETATM    2  C2  UNL     1      -1.203  -2.203  -0.381  1.00  0.00     0.156 A 
HETATM    3  C3  UNL     1       0.201  -2.146  -0.381  1.00  0.00     0.029 A 
HETATM    4  C4  UNL     1       0.862  -0.906  -0.381  1.00  0.00     0.001 A 
HETATM    5  C5  UNL     1       0.115   0.285  -0.381  1.00  0.00     0.012 A 
HETATM    6  C6  UNL     1      -1.289   0.231  -0.381  1.00  0.00     0.028 A 
HETATM    7  O2  UNL     1      -1.814  -3.369  -0.381  1.00  0.00    -0.188 OA
HETATM    8  O3  UNL     1      -3.267  -1.051  -0.381  1.00  0.00    -0.188 OA
ENDROOT
BRANCH   5   9
HETATM    9  C7  UNL     1       0.811   1.598  -0.381  1.00  0.00     0.214 C 
HETATM   10  O1  UNL     1       1.645   1.690  -1.516  1.00  0.00    -0.216 OA
BRANCH   9  11
HETATM   11  C8  UNL     1       1.678   1.777   0.865  1.00  0.00     0.375 C 
HETATM   12  N1  UNL     1       0.858   1.760   2.062  1.00  0.00     0.621 N 
ENDBRANCH   9  11
ENDBRANCH   5   9
TORSDOF 2
