REMARK  3 active torsions:
REMARK  status: ('A' for Active; 'I' for Inactive)
REMARK    1  A    between atoms: C6_7  and  O4_19 
REMARK    2  A    between atoms: C9_10  and  C10_11 
REMARK    3  A    between atoms: C17_23  and  C18_24 
ROOT
HETATM    1  C1  UNL     1       0.461   0.406   1.670  1.00  0.00     0.085 C 
HETATM    2  C2  UNL     1       1.449   1.215   0.807  1.00  0.00     0.123 C 
HETATM    3  C3  UNL     1       1.039   2.686   0.619  1.00  0.00     0.032 C 
HETATM    4  C4  UNL     1      -0.494   2.910   0.574  1.00  0.00     0.027 C 
HETATM    5  C5  UNL     1      -1.291   2.047  -0.428  1.00  0.00     0.104 C 
HETATM    6  N1  UNL     1      -1.004   0.600  -0.420  1.00  0.00    -0.326 N 
HETATM    7  C6  UNL     1      -0.687  -0.191   0.799  1.00  0.00     0.218 A 
HETATM    8  C7  UNL     1      -0.422  -1.547   0.166  1.00  0.00     0.219 A 
HETATM    9  C8  UNL     1      -0.611  -1.453  -1.277  1.00  0.00     0.057 A 
HETATM   10  C9  UNL     1      -0.951  -0.197  -1.578  1.00  0.00     0.066 A 
HETATM   11  O3  UNL     1      -0.115  -2.565   0.744  1.00  0.00    -0.287 OA
HETATM   12  O5  UNL     1       2.672   1.078   1.486  1.00  0.00    -0.333 OA
HETATM   13  C16 UNL     1       2.781  -0.238   1.979  1.00  0.00     0.215 A 
HETATM   14  C17 UNL     1       1.369  -0.531   2.512  1.00  0.00     0.063 C 
HETATM   15  C20 UNL     1       3.233  -1.193   0.895  1.00  0.00     0.030 A 
HETATM   16  C21 UNL     1       4.369  -1.760   1.295  1.00  0.00     0.042 A 
HETATM   17  C22 UNL     1       4.717  -1.231   2.602  1.00  0.00     0.294 A 
HETATM   18  O6  UNL     1       3.793  -0.346   2.998  1.00  0.00    -0.274 OA
HETATM   19  O7  UNL     1       5.701  -1.557   3.221  1.00  0.00    -0.259 OA
HETATM   20  C23 UNL     1       5.158  -2.781   0.520  1.00  0.00     0.036 C 
ENDROOT
BRANCH  10  21
HETATM   21  C10 UNL     1      -1.246   0.375  -2.941  1.00  0.00     0.162 C 
HETATM   22  O1  UNL     1      -1.012  -0.607  -3.947  1.00  0.00    -0.298 OA
HETATM   23  C11 UNL     1      -1.840  -0.348  -4.953  1.00  0.00     0.272 C 
HETATM   24  C12 UNL     1      -2.820   0.746  -4.645  1.00  0.00     0.089 C 
HETATM   25  O2  UNL     1      -1.828  -0.924  -6.016  1.00  0.00    -0.264 OA
HETATM   26  C13 UNL     1      -2.691   0.855  -3.127  1.00  0.00     0.046 C 
HETATM   27  C14 UNL     1      -4.250   0.432  -5.066  1.00  0.00     0.011 C 
ENDBRANCH  10  21
BRANCH   7  28
HETATM   28  O4  UNL     1      -1.850  -0.309   1.598  1.00  0.00    -0.331 OA
HETATM   29  C15 UNL     1      -2.945  -0.859   0.904  1.00  0.00     0.177 C 
ENDBRANCH   7  28
BRANCH  14  30
HETATM   30  C18 UNL     1       1.258  -0.188   4.000  1.00  0.00     0.005 C 
HETATM   31  C19 UNL     1      -0.107  -0.633   4.525  1.00  0.00     0.000 C 
ENDBRANCH  14  30
TORSDOF 3
