REMARK  10 active torsions:
REMARK  status: ('A' for Active; 'I' for Inactive)
REMARK    1  A    between atoms: C4_4  and  C7_8 
REMARK    2  A    between atoms: C8_9  and  C9_10 
REMARK    3  A    between atoms: C9_10  and  O3_12 
REMARK    4  A    between atoms: O3_12  and  C10_13 
REMARK    5  A    between atoms: C14_18  and  C15_19 
REMARK    6  A    between atoms: C15_19  and  O5_20 
REMARK    7  A    between atoms: O5_20  and  C16_21 
REMARK    8  A    between atoms: C16_21  and  C17_22 
REMARK    9  A    between atoms: C18_23  and  C19_24 
REMARK   10  A    between atoms: C26_34  and  C27_36 
ROOT
HETATM    1  C10 UNL     1      -2.182  -1.725   1.414  1.00  0.00     0.187 C 
HETATM    2  C11 UNL     1      -1.588  -3.133   1.668  1.00  0.00     0.214 C 
HETATM    3  C12 UNL     1      -0.059  -3.074   1.859  1.00  0.00     0.205 C 
HETATM    4  C13 UNL     1       0.391  -1.984   2.897  1.00  0.00     0.267 C 
HETATM    5  O4  UNL     1      -0.646  -1.047   3.180  1.00  0.00    -0.326 OA
HETATM    6  C14 UNL     1      -1.357  -0.574   2.043  1.00  0.00     0.178 C 
HETATM    7  O8  UNL     1       1.566  -1.293   2.484  1.00  0.00    -0.326 OA
HETATM    8  C25 UNL     1       2.531  -2.133   1.871  1.00  0.00     0.179 C 
HETATM    9  C26 UNL     1       1.951  -2.801   0.586  1.00  0.00     0.168 C 
HETATM   10  O9  UNL     1       0.527  -2.818   0.586  1.00  0.00    -0.344 OA
HETATM   11  O12 UNL     1      -2.160  -3.672   2.846  1.00  0.00    -0.218 OA
ENDROOT
BRANCH   1  12
HETATM   12  O3  UNL     1      -2.242  -1.506   0.010  1.00  0.00    -0.296 OA
BRANCH  12  13
HETATM   13  C9  UNL     1      -3.215  -2.205  -0.570  1.00  0.00     0.296 C 
HETATM   14  O2  UNL     1      -3.981  -2.920   0.033  1.00  0.00    -0.259 OA
BRANCH  13  15
HETATM   15  C8  UNL     1      -3.320  -2.063  -2.027  1.00  0.00     0.068 C 
HETATM   16  C7  UNL     1      -2.465  -1.279  -2.701  1.00  0.00     0.005 C 
BRANCH  16  17
HETATM   17  C4  UNL     1      -2.611  -1.166  -4.184  1.00  0.00     0.002 A 
HETATM   18  C3  UNL     1      -1.482  -0.926  -4.988  1.00  0.00     0.002 A 
HETATM   19  C2  UNL     1      -1.625  -0.820  -6.381  1.00  0.00     0.029 A 
HETATM   20  C1  UNL     1      -2.891  -0.955  -6.977  1.00  0.00     0.156 A 
HETATM   21  C6  UNL     1      -4.022  -1.195  -6.172  1.00  0.00     0.156 A 
HETATM   22  O13 UNL     1      -3.016  -0.856  -8.285  1.00  0.00    -0.188 OA
HETATM   23  C5  UNL     1      -3.879  -1.301  -4.777  1.00  0.00     0.029 A 
HETATM   24  O1  UNL     1      -5.213  -1.322  -6.723  1.00  0.00    -0.188 OA
ENDBRANCH  16  17
ENDBRANCH  13  15
ENDBRANCH  12  13
ENDBRANCH   1  12
BRANCH   6  25
HETATM   25  C15 UNL     1      -2.234   0.594   2.500  1.00  0.00     0.184 C 
BRANCH  25  26
HETATM   26  O5  UNL     1      -1.410   1.635   3.004  1.00  0.00    -0.296 OA
BRANCH  26  27
HETATM   27  C16 UNL     1      -0.805   2.316   2.035  1.00  0.00     0.296 C 
HETATM   28  O7  UNL     1      -0.996   2.125   0.857  1.00  0.00    -0.259 OA
BRANCH  27  29
HETATM   29  C17 UNL     1       0.141   3.348   2.479  1.00  0.00     0.068 C 
HETATM   30  C18 UNL     1       0.365   3.557   3.785  1.00  0.00     0.005 C 
BRANCH  30  31
HETATM   31  C19 UNL     1       1.336   4.617   4.186  1.00  0.00     0.000 A 
HETATM   32  C20 UNL     1       1.520   5.748   3.369  1.00  0.00     0.002 A 
HETATM   33  C21 UNL     1       2.434   6.746   3.748  1.00  0.00     0.027 A 
HETATM   34  C22 UNL     1       3.166   6.619   4.941  1.00  0.00     0.131 A 
HETATM   35  C23 UNL     1       2.981   5.488   5.756  1.00  0.00     0.027 A 
HETATM   36  O6  UNL     1       4.023   7.557   5.295  1.00  0.00    -0.190 OA
HETATM   37  C24 UNL     1       2.068   4.488   5.379  1.00  0.00     0.002 A 
ENDBRANCH  30  31
ENDBRANCH  27  29
ENDBRANCH  26  27
ENDBRANCH  25  26
ENDBRANCH   6  25
BRANCH   9  38
HETATM   38  C27 UNL     1       2.408  -2.135  -0.664  1.00  0.00     0.009 A 
HETATM   39  C28 UNL     1       2.172  -0.764  -0.861  1.00  0.00     0.000 A 
HETATM   40  C29 UNL     1       2.604  -0.141  -2.043  1.00  0.00     0.029 A 
HETATM   41  C30 UNL     1       3.272  -0.883  -3.033  1.00  0.00     0.156 A 
HETATM   42  C31 UNL     1       3.508  -2.256  -2.836  1.00  0.00     0.156 A 
HETATM   43  O11 UNL     1       3.674  -0.289  -4.139  1.00  0.00    -0.188 OA
HETATM   44  C32 UNL     1       3.076  -2.879  -1.652  1.00  0.00     0.028 A 
HETATM   45  O10 UNL     1       4.135  -2.959  -3.758  1.00  0.00    -0.188 OA
ENDBRANCH   9  38
TORSDOF 10
