REMARK  4 active torsions:
REMARK  status: ('A' for Active; 'I' for Inactive)
REMARK    1  A    between atoms: C2_2  and  O3_26 
REMARK    2  A    between atoms: C12_12  and  C15_15 
REMARK    3  A    between atoms: O3_26  and  C24_27 
REMARK    4  A    between atoms: C28_34  and  C29_36 
ROOT
HETATM    1  C1  UNL     1      -1.945   1.740   0.106  1.00  0.00     0.030 C 
HETATM    2  C2  UNL     1      -2.332   0.316  -0.361  1.00  0.00     0.118 C 
HETATM    3  C3  UNL     1      -2.654  -0.633   0.816  1.00  0.00     0.025 C 
HETATM    4  C4  UNL     1      -1.439  -0.729   1.813  1.00  0.00     0.003 C 
HETATM    5  C5  UNL     1      -0.441   0.479   1.772  1.00  0.00     0.004 C 
HETATM    6  C6  UNL     1      -1.248   1.762   1.479  1.00  0.00     0.003 C 
HETATM    7  C7  UNL     1       0.717   0.328   0.721  1.00  0.00     0.018 C 
HETATM    8  C8  UNL     1       1.275  -1.084   0.613  1.00  0.00    -0.049 C 
HETATM    9  C9  UNL     1       0.275  -2.215   0.639  1.00  0.00     0.022 C 
HETATM   10  C10 UNL     1      -0.674  -2.070   1.826  1.00  0.00     0.004 C 
HETATM   11  C11 UNL     1       2.596  -1.346   0.482  1.00  0.00    -0.033 C 
HETATM   12  C12 UNL     1       3.652  -0.264   0.416  1.00  0.00     0.046 C 
HETATM   13  C13 UNL     1       3.049   1.100   0.037  1.00  0.00     0.007 C 
HETATM   14  C14 UNL     1       1.817   1.404   0.891  1.00  0.00     0.004 C 
HETATM   15  C20 UNL     1       4.766  -0.662  -0.557  1.00  0.00     0.007 C 
HETATM   16  C21 UNL     1       0.170   0.604   3.178  1.00  0.00     0.000 C 
HETATM   17  C22 UNL     1      -3.053  -2.016   0.275  1.00  0.00     0.002 C 
HETATM   18  C23 UNL     1      -3.881  -0.088   1.572  1.00  0.00     0.002 C 
ENDROOT
BRANCH   2  19
HETATM   19  O3  UNL     1      -3.428   0.412  -1.256  1.00  0.00    -0.332 OA
BRANCH  19  20
HETATM   20  C24 UNL     1      -3.088   1.016  -2.488  1.00  0.00     0.270 C 
HETATM   21  C25 UNL     1      -4.367   1.338  -3.305  1.00  0.00     0.241 C 
HETATM   22  O4  UNL     1      -5.123   2.326  -2.625  1.00  0.00    -0.215 OA
HETATM   23  C26 UNL     1      -4.008   1.850  -4.719  1.00  0.00     0.220 C 
HETATM   24  O5  UNL     1      -5.184   1.943  -5.508  1.00  0.00    -0.218 OA
HETATM   25  C27 UNL     1      -3.004   0.887  -5.389  1.00  0.00     0.215 C 
HETATM   26  O6  UNL     1      -2.527   1.453  -6.598  1.00  0.00    -0.218 OA
HETATM   27  C28 UNL     1      -1.795   0.605  -4.467  1.00  0.00     0.184 C 
HETATM   28  O7  UNL     1      -2.264   0.115  -3.217  1.00  0.00    -0.326 OA
BRANCH  27  29
HETATM   29  C29 UNL     1      -0.850  -0.461  -5.029  1.00  0.00     0.214 C 
HETATM   30  O8  UNL     1       0.297  -0.512  -4.211  1.00  0.00    -0.218 OA
ENDBRANCH  27  29
ENDBRANCH  19  20
ENDBRANCH   2  19
BRANCH  12  31
HETATM   31  C15 UNL     1       4.346  -0.133   1.766  1.00  0.00     0.151 C 
HETATM   32  C16 UNL     1       5.285  -1.293   2.115  1.00  0.00     0.175 C 
HETATM   33  O1  UNL     1       4.703  -1.840   3.279  1.00  0.00    -0.332 OA
HETATM   34  C17 UNL     1       3.899  -0.871   3.910  1.00  0.00     0.188 C 
HETATM   35  O2  UNL     1       3.371  -0.199   2.787  1.00  0.00    -0.334 OA
HETATM   36  C18 UNL     1       2.785  -1.535   4.705  1.00  0.00     0.061 C 
HETATM   37  C19 UNL     1       4.766   0.082   4.731  1.00  0.00     0.061 C 
ENDBRANCH  12  31
TORSDOF 4
