REMARK  0 active torsions:
REMARK  status: ('A' for Active; 'I' for Inactive)
ROOT
HETATM    1  C1  UNL     1       2.602   1.779  -0.211  1.00  0.00     0.026 C 
HETATM    2  C2  UNL     1       2.730   0.306   0.234  1.00  0.00     0.005 C 
HETATM    3  C3  UNL     1       1.393  -0.459   0.332  1.00  0.00     0.004 C 
HETATM    4  C4  UNL     1       0.328   0.092  -0.651  1.00  0.00     0.019 C 
HETATM    5  C5  UNL     1       0.121   1.576  -0.404  1.00  0.00    -0.027 C 
HETATM    6  C6  UNL     1       1.203   2.349  -0.172  1.00  0.00    -0.030 C 
HETATM    7  C7  UNL     1      -1.236   2.170  -0.422  1.00  0.00    -0.009 C 
HETATM    8  C8  UNL     1      -2.389   1.469  -0.502  1.00  0.00    -0.027 C 
HETATM    9  C9  UNL     1      -2.291  -0.049  -0.551  1.00  0.00     0.022 A 
HETATM   10  C10 UNL     1      -0.951  -0.754  -0.539  1.00  0.00     0.008 A 
HETATM   11  C11 UNL     1      -1.840  -0.795   0.695  1.00  0.00     0.004 A 
HETATM   12  C12 UNL     1      -1.461   0.012   1.934  1.00  0.00     0.000 C 
HETATM   13  C13 UNL     1      -2.541  -2.113   1.004  1.00  0.00     0.000 C 
HETATM   14  C14 UNL     1       0.769  -0.100  -2.110  1.00  0.00     0.004 C 
HETATM   15  C15 UNL     1       1.619  -1.971   0.183  1.00  0.00     0.000 C 
ENDROOT
TORSDOF 0
