REMARK  4 active torsions:
REMARK  status: ('A' for Active; 'I' for Inactive)
REMARK    1  A    between atoms: C1_1  and  O6_21 
REMARK    2  A    between atoms: C3_3  and  O4_18 
REMARK    3  A    between atoms: C5_5  and  C7_7 
REMARK    4  A    between atoms: C13_13  and  C14_14 
ROOT
HETATM    1  C1  UNL     1       2.020  -1.578   0.611  1.00  0.00     0.121 A 
HETATM    2  C2  UNL     1       1.869  -2.561  -0.387  1.00  0.00     0.175 A 
HETATM    3  C3  UNL     1       0.942  -2.369  -1.428  1.00  0.00     0.121 A 
HETATM    4  C4  UNL     1       0.166  -1.197  -1.469  1.00  0.00     0.022 A 
HETATM    5  C5  UNL     1       0.315  -0.217  -0.473  1.00  0.00    -0.016 A 
HETATM    6  C6  UNL     1       1.242  -0.408   0.566  1.00  0.00     0.022 A 
HETATM    7  O5  UNL     1       2.598  -3.658  -0.348  1.00  0.00    -0.186 OA
ENDROOT
BRANCH   5   8
HETATM    8  C7  UNL     1      -0.512   1.029  -0.518  1.00  0.00     0.057 C 
HETATM    9  C8  UNL     1       0.356   2.311  -0.393  1.00  0.00     0.045 C 
HETATM   10  C9  UNL     1      -0.264   3.070   0.785  1.00  0.00     0.177 C 
HETATM   11  C10 UNL     1      -1.424   3.955   0.351  1.00  0.00     0.200 C 
HETATM   12  O2  UNL     1      -0.791   1.996   1.531  1.00  0.00    -0.347 OA
HETATM   13  C11 UNL     1      -2.695   3.270   0.045  1.00  0.00     0.038 C 
HETATM   14  O3  UNL     1      -1.316   5.156   0.265  1.00  0.00    -0.289 OA
HETATM   15  C12 UNL     1      -2.760   1.932   0.195  1.00  0.00     0.006 C 
HETATM   16  C13 UNL     1      -1.519   1.166   0.650  1.00  0.00     0.146 C 
BRANCH  16  17
HETATM   17  C14 UNL     1      -1.908  -0.107   1.402  1.00  0.00     0.214 C 
HETATM   18  O1  UNL     1      -2.514  -0.992   0.488  1.00  0.00    -0.218 OA
ENDBRANCH  16  17
ENDBRANCH   5   8
BRANCH   3  19
HETATM   19  O4  UNL     1       0.797  -3.283  -2.365  1.00  0.00    -0.326 OA
HETATM   20  C15 UNL     1      -0.152  -3.043  -3.393  1.00  0.00     0.181 C 
ENDBRANCH   3  19
BRANCH   1  21
HETATM   21  O6  UNL     1       2.887  -1.754   1.588  1.00  0.00    -0.326 OA
HETATM   22  C16 UNL     1       3.080  -0.688   2.506  1.00  0.00     0.181 C 
ENDBRANCH   1  21
TORSDOF 4
