REMARK  0 active torsions:
REMARK  status: ('A' for Active; 'I' for Inactive)
ROOT
HETATM    1  C1  UNL     1      -3.928  -0.555  -0.418  1.00  0.00     0.002 A 
HETATM    2  C2  UNL     1      -3.793   0.730  -0.988  1.00  0.00     0.029 A 
HETATM    3  C3  UNL     1      -2.524   1.348  -1.055  1.00  0.00     0.154 A 
HETATM    4  C4  UNL     1      -1.381   0.680  -0.551  1.00  0.00     0.128 A 
HETATM    5  C5  UNL     1      -1.516  -0.617   0.022  1.00  0.00     0.064 A 
HETATM    6  C6  UNL     1      -2.793  -1.231   0.086  1.00  0.00     0.005 A 
HETATM    7  C7  UNL     1      -0.311  -1.336   0.551  1.00  0.00     0.202 A 
HETATM    8  C8  UNL     1       0.977  -0.568   0.424  1.00  0.00     0.089 A 
HETATM    9  C9  UNL     1       0.973   0.730  -0.164  1.00  0.00     0.105 A 
HETATM   10  O1  UNL     1      -0.174   1.281  -0.615  1.00  0.00    -0.305 OA
HETATM   11  C10 UNL     1       2.180   1.457  -0.281  1.00  0.00     0.027 A 
HETATM   12  C11 UNL     1       3.393   0.900   0.182  1.00  0.00     0.032 A 
HETATM   13  C12 UNL     1       3.404  -0.389   0.764  1.00  0.00     0.156 A 
HETATM   14  C13 UNL     1       2.201  -1.125   0.887  1.00  0.00     0.161 A 
HETATM   15  O2  UNL     1       2.236  -2.344   1.444  1.00  0.00    -0.188 OA
HETATM   16  O3  UNL     1       4.559  -0.910   1.199  1.00  0.00    -0.188 OA
HETATM   17  O4  UNL     1      -0.375  -2.443   1.041  1.00  0.00    -0.286 OA
HETATM   18  O5  UNL     1      -2.404   2.568  -1.598  1.00  0.00    -0.188 OA
ENDROOT
TORSDOF 0
