REMARK  11 active torsions:
REMARK  status: ('A' for Active; 'I' for Inactive)
REMARK    1  A    between atoms: C3_3  and  O3_21 
REMARK    2  A    between atoms: C5_5  and  C7_7 
REMARK    3  A    between atoms: C8_8  and  C9_9 
REMARK    4  A    between atoms: C9_9  and  C10_10 
REMARK    5  A    between atoms: C10_10  and  C11_11 
REMARK    6  A    between atoms: C11_11  and  C12_12 
REMARK    7  A    between atoms: C12_12  and  C13_13 
REMARK    8  A    between atoms: C13_13  and  C14_14 
REMARK    9  A    between atoms: C14_14  and  C15_15 
REMARK   10  A    between atoms: C15_15  and  C16_16 
REMARK   11  A    between atoms: C16_16  and  C17_17 
ROOT
HETATM    1  C9  UNL     1      -0.324  -0.098  -1.486  1.00  0.00     0.180 C 
HETATM    2  O2  UNL     1      -0.740   0.855  -2.104  1.00  0.00    -0.291 OA
ENDROOT
BRANCH   1   3
HETATM    3  C8  UNL     1      -1.049  -1.373  -1.512  1.00  0.00     0.038 C 
HETATM    4  C7  UNL     1      -2.254  -1.465  -2.094  1.00  0.00     0.003 C 
BRANCH   4   5
HETATM    5  C5  UNL     1      -2.953  -2.785  -2.094  1.00  0.00     0.002 A 
HETATM    6  C4  UNL     1      -4.359  -2.838  -2.094  1.00  0.00     0.026 A 
HETATM    7  C3  UNL     1      -5.020  -4.080  -2.094  1.00  0.00     0.119 A 
HETATM    8  C2  UNL     1      -4.274  -5.272  -2.094  1.00  0.00     0.153 A 
HETATM    9  C1  UNL     1      -2.867  -5.217  -2.094  1.00  0.00     0.029 A 
HETATM   10  O4  UNL     1      -4.885  -6.440  -2.094  1.00  0.00    -0.188 OA
HETATM   11  C6  UNL     1      -2.207  -3.977  -2.094  1.00  0.00     0.002 A 
BRANCH   7  12
HETATM   12  O3  UNL     1      -6.338  -4.121  -2.094  1.00  0.00    -0.326 OA
HETATM   13  C19 UNL     1      -7.045  -2.893  -2.022  1.00  0.00     0.181 C 
ENDBRANCH   7  12
ENDBRANCH   4   5
ENDBRANCH   1   3
BRANCH   1  14
HETATM   14  C10 UNL     1       0.943  -0.004  -0.680  1.00  0.00     0.134 C 
BRANCH  14  15
HETATM   15  C11 UNL     1       1.498   1.394  -0.730  1.00  0.00     0.158 C 
HETATM   16  O1  UNL     1       2.479   1.652  -1.393  1.00  0.00    -0.296 OA
BRANCH  15  17
HETATM   17  C12 UNL     1       0.799   2.463   0.064  1.00  0.00     0.065 C 
BRANCH  17  18
HETATM   18  C13 UNL     1       0.799   2.166   1.564  1.00  0.00     0.008 C 
BRANCH  18  19
HETATM   19  C14 UNL     1       2.201   1.904   2.115  1.00  0.00     0.000 C 
BRANCH  19  20
HETATM   20  C15 UNL     1       3.094   3.144   2.070  1.00  0.00     0.000 C 
BRANCH  20  21
HETATM   21  C16 UNL     1       4.455   2.914   2.727  1.00  0.00     0.000 C 
BRANCH  21  22
HETATM   22  C17 UNL     1       5.354   4.152   2.672  1.00  0.00     0.000 C 
HETATM   23  C18 UNL     1       6.719   3.920   3.320  1.00  0.00     0.000 C 
ENDBRANCH  21  22
ENDBRANCH  20  21
ENDBRANCH  19  20
ENDBRANCH  18  19
ENDBRANCH  17  18
ENDBRANCH  15  17
ENDBRANCH  14  15
ENDBRANCH   1  14
TORSDOF 11
