REMARK  16 active torsions:
REMARK  status: ('A' for Active; 'I' for Inactive)
REMARK    1  A    between atoms: C2_2  and  C33_50 
REMARK    2  A    between atoms: C3_3  and  C14_21 
REMARK    3  A    between atoms: C4_4  and  C12_19 
REMARK    4  A    between atoms: C5_5  and  O2_7 
REMARK    5  A    between atoms: O2_7  and  C6_8 
REMARK    6  A    between atoms: C10_15  and  C11_17 
REMARK    7  A    between atoms: C14_21  and  C32_48 
REMARK    8  A    between atoms: C15_22  and  C16_23 
REMARK    9  A    between atoms: C16_23  and  C17_24 
REMARK   10  A    between atoms: C18_25  and  C30_44 
REMARK   11  A    between atoms: C20_28  and  O9_32 
REMARK   12  A    between atoms: C21_29  and  C22_30 
REMARK   13  A    between atoms: O9_32  and  C24_33 
REMARK   14  A    between atoms: C28_40  and  C29_42 
REMARK   15  A    between atoms: C30_44  and  O16_46 
REMARK   16  A    between atoms: C33_50  and  O19_52 
ROOT
HETATM    1  C14 UNL     1       1.910  -0.465  -0.809  1.00  0.00     0.020 C 
HETATM    2  C15 UNL     1       2.088  -0.107   0.475  1.00  0.00    -0.026 C 
ENDROOT
BRANCH   1   3
HETATM    3  C3  UNL     1       0.570  -0.287  -1.482  1.00  0.00     0.064 C 
HETATM    4  C2  UNL     1       0.789  -0.109  -2.973  1.00  0.00     0.070 C 
HETATM    5  C1  UNL     1       0.498  -1.113  -3.830  1.00  0.00     0.120 C 
HETATM    6  O1  UNL     1       0.016  -2.318  -3.465  1.00  0.00    -0.303 OA
HETATM    7  C5  UNL     1       0.074  -2.666  -2.076  1.00  0.00     0.246 C 
HETATM    8  C4  UNL     1      -0.371  -1.477  -1.199  1.00  0.00     0.087 C 
BRANCH   4   9
HETATM    9  C33 UNL     1       1.315   1.178  -3.463  1.00  0.00     0.294 C 
HETATM   10  O18 UNL     1       1.270   2.162  -2.764  1.00  0.00    -0.259 OA
BRANCH   9  11
HETATM   11  O19 UNL     1       1.818   1.164  -4.693  1.00  0.00    -0.296 OA
HETATM   12  C34 UNL     1       2.238   2.451  -5.119  1.00  0.00     0.185 C 
ENDBRANCH   9  11
ENDBRANCH   4   9
BRANCH   7  13
HETATM   13  O2  UNL     1      -0.728  -3.803  -1.828  1.00  0.00    -0.303 OA
BRANCH  13  14
HETATM   14  C6  UNL     1      -0.301  -4.949  -2.533  1.00  0.00     0.272 C 
HETATM   15  C7  UNL     1      -1.396  -6.055  -2.471  1.00  0.00     0.241 C 
HETATM   16  O3  UNL     1      -2.307  -5.805  -3.531  1.00  0.00    -0.215 OA
HETATM   17  C8  UNL     1      -0.795  -7.492  -2.541  1.00  0.00     0.220 C 
HETATM   18  O4  UNL     1      -1.701  -8.442  -3.082  1.00  0.00    -0.218 OA
HETATM   19  C9  UNL     1       0.539  -7.469  -3.318  1.00  0.00     0.215 C 
HETATM   20  O5  UNL     1       1.131  -8.756  -3.350  1.00  0.00    -0.218 OA
HETATM   21  C10 UNL     1       1.557  -6.467  -2.699  1.00  0.00     0.184 C 
HETATM   22  O6  UNL     1       0.904  -5.436  -1.959  1.00  0.00    -0.326 OA
BRANCH  21  23
HETATM   23  C11 UNL     1       2.441  -5.803  -3.760  1.00  0.00     0.214 C 
HETATM   24  O7  UNL     1       3.455  -5.078  -3.098  1.00  0.00    -0.218 OA
ENDBRANCH  21  23
ENDBRANCH  13  14
ENDBRANCH   7  13
BRANCH   8  25
HETATM   25  C12 UNL     1      -1.812  -1.094  -1.443  1.00  0.00    -0.021 C 
HETATM   26  C13 UNL     1      -2.668  -1.117  -0.408  1.00  0.00    -0.005 C 
ENDBRANCH   8  25
ENDBRANCH   1   3
BRANCH   1  27
HETATM   27  C32 UNL     1       3.016  -1.035  -1.586  1.00  0.00     0.230 C 
HETATM   28  O17 UNL     1       2.791  -1.721  -2.557  1.00  0.00    -0.283 OA
ENDBRANCH   1  27
BRANCH   2  29
HETATM   29  C16 UNL     1       0.920   0.475   1.227  1.00  0.00     0.031 C 
BRANCH  29  30
HETATM   30  C17 UNL     1       1.266   0.789   2.689  1.00  0.00     0.043 C 
HETATM   31  C18 UNL     1       2.227   1.959   2.732  1.00  0.00     0.066 C 
HETATM   32  C19 UNL     1       1.795   3.180   3.121  1.00  0.00     0.120 C 
HETATM   33  O8  UNL     1       0.529   3.467   3.482  1.00  0.00    -0.303 OA
HETATM   34  C20 UNL     1      -0.490   2.498   3.211  1.00  0.00     0.246 C 
HETATM   35  C21 UNL     1       0.012   1.078   3.539  1.00  0.00     0.084 C 
BRANCH  31  36
HETATM   36  C30 UNL     1       3.631   1.736   2.352  1.00  0.00     0.294 C 
HETATM   37  O15 UNL     1       4.227   0.764   2.754  1.00  0.00    -0.259 OA
BRANCH  36  38
HETATM   38  O16 UNL     1       4.168   2.658   1.559  1.00  0.00    -0.296 OA
HETATM   39  C31 UNL     1       5.496   2.334   1.176  1.00  0.00     0.185 C 
ENDBRANCH  36  38
ENDBRANCH  31  36
BRANCH  34  40
HETATM   40  O9  UNL     1      -1.627   2.816   3.986  1.00  0.00    -0.303 OA
BRANCH  40  41
HETATM   41  C24 UNL     1      -2.193   4.070   3.656  1.00  0.00     0.272 C 
HETATM   42  C25 UNL     1      -3.326   4.514   4.645  1.00  0.00     0.241 C 
HETATM   43  O10 UNL     1      -3.992   3.414   5.258  1.00  0.00    -0.215 OA
HETATM   44  C26 UNL     1      -4.346   5.504   3.994  1.00  0.00     0.220 C 
HETATM   45  O11 UNL     1      -5.475   4.838   3.449  1.00  0.00    -0.218 OA
HETATM   46  C27 UNL     1      -3.678   6.277   2.838  1.00  0.00     0.215 C 
HETATM   47  O12 UNL     1      -2.713   7.150   3.404  1.00  0.00    -0.218 OA
HETATM   48  C28 UNL     1      -3.021   5.330   1.783  1.00  0.00     0.184 C 
HETATM   49  O13 UNL     1      -2.693   4.053   2.328  1.00  0.00    -0.326 OA
BRANCH  48  50
HETATM   50  C29 UNL     1      -1.771   5.891   1.086  1.00  0.00     0.214 C 
HETATM   51  O14 UNL     1      -1.465   5.055  -0.006  1.00  0.00    -0.218 OA
ENDBRANCH  48  50
ENDBRANCH  40  41
ENDBRANCH  34  40
BRANCH  35  52
HETATM   52  C22 UNL     1      -1.045   0.012   3.355  1.00  0.00    -0.021 C 
HETATM   53  C23 UNL     1      -1.353  -0.774   4.402  1.00  0.00    -0.005 C 
ENDBRANCH  35  52
ENDBRANCH  29  30
ENDBRANCH   2  29
TORSDOF 16
