REMARK  2 active torsions:
REMARK  status: ('A' for Active; 'I' for Inactive)
REMARK    1  A    between atoms: C7_7  and  C16_18 
REMARK    2  A    between atoms: C9_9  and  C15_15 
ROOT
HETATM    1  C1  UNL     1      -2.912   1.254  -0.143  1.00  0.00    -0.000 A 
HETATM    2  C2  UNL     1      -3.766   0.150   0.090  1.00  0.00     0.127 A 
HETATM    3  C3  UNL     1      -3.217  -1.121   0.357  1.00  0.00     0.027 A 
HETATM    4  C4  UNL     1      -1.816  -1.303   0.377  1.00  0.00     0.002 A 
HETATM    5  C5  UNL     1      -0.936  -0.217   0.100  1.00  0.00    -0.004 A 
HETATM    6  C6  UNL     1       0.551  -0.377   0.041  1.00  0.00    -0.004 A 
HETATM    7  C7  UNL     1       1.229  -1.606  -0.270  1.00  0.00    -0.000 A 
HETATM    8  C8  UNL     1       2.641  -1.678  -0.217  1.00  0.00     0.006 A 
HETATM    9  C9  UNL     1       3.402  -0.531   0.090  1.00  0.00     0.064 A 
HETATM   10  C10 UNL     1       2.762   0.699   0.338  1.00  0.00     0.002 A 
HETATM   11  C11 UNL     1       1.348   0.783   0.301  1.00  0.00    -0.022 A 
HETATM   12  C12 UNL     1       0.691   2.094   0.537  1.00  0.00     0.031 C 
HETATM   13  C13 UNL     1      -0.590   2.242  -0.303  1.00  0.00     0.031 C 
HETATM   14  C14 UNL     1      -1.500   1.082  -0.113  1.00  0.00    -0.024 A 
HETATM   15  O3  UNL     1      -5.096   0.303   0.062  1.00  0.00    -0.191 OA
HETATM   16  C18 UNL     1      -3.508   2.578  -0.410  1.00  0.00     0.033 C 
ENDROOT
BRANCH   9  17
HETATM   17  C15 UNL     1       4.875  -0.621   0.146  1.00  0.00     0.211 C 
HETATM   18  O1  UNL     1       5.586  -1.576  -0.065  1.00  0.00    -0.644 OA
HETATM   19  O2  UNL     1       5.332   0.582   0.486  1.00  0.00    -0.644 OA
ENDBRANCH   9  17
BRANCH   7  20
HETATM   20  C16 UNL     1       0.496  -2.826  -0.676  1.00  0.00    -0.000 C 
HETATM   21  C17 UNL     1       0.963  -4.022  -0.274  1.00  0.00    -0.000 C 
ENDBRANCH   7  20
TORSDOF 2
