REMARK  1 active torsions:
REMARK  status: ('A' for Active; 'I' for Inactive)
REMARK    1  A    between atoms: C12_13  and  C15_17 
ROOT
HETATM    1  C1  UNL     1      -3.551  -0.648   0.867  1.00  0.00     0.001 C 
HETATM    2  C2  UNL     1      -3.971   0.594   0.068  1.00  0.00     0.004 C 
HETATM    3  C3  UNL     1      -2.988   1.770   0.223  1.00  0.00     0.016 C 
HETATM    4  C4  UNL     1      -1.541   1.328   0.019  1.00  0.00    -0.038 A 
HETATM    5  C5  UNL     1      -1.248  -0.148  -0.264  1.00  0.00     0.034 A 
HETATM    6  C6  UNL     1      -2.039  -0.959   0.803  1.00  0.00     0.008 C 
HETATM    7  C7  UNL     1       0.209  -0.512  -0.248  1.00  0.00    -0.014 A 
HETATM    8  C8  UNL     1       1.231   0.477  -0.125  1.00  0.00     0.035 A 
HETATM    9  C9  UNL     1       0.873   1.910   0.019  1.00  0.00     0.195 A 
HETATM   10  C10 UNL     1      -0.555   2.244   0.117  1.00  0.00     0.034 A 
HETATM   11  O1  UNL     1       1.641   2.844   0.072  1.00  0.00    -0.287 OA
HETATM   12  C11 UNL     1       2.598   0.102  -0.141  1.00  0.00     0.001 A 
HETATM   13  C12 UNL     1       2.965  -1.256  -0.268  1.00  0.00     0.003 A 
HETATM   14  C13 UNL     1       1.963  -2.246  -0.381  1.00  0.00     0.127 A 
HETATM   15  C14 UNL     1       0.600  -1.875  -0.377  1.00  0.00     0.023 A 
HETATM   16  O2  UNL     1       2.297  -3.541  -0.496  1.00  0.00    -0.191 OA
HETATM   17  C18 UNL     1      -1.767  -0.467  -1.676  1.00  0.00     0.008 C 
HETATM   18  C19 UNL     1      -3.127   2.352   1.635  1.00  0.00     0.004 C 
HETATM   19  C20 UNL     1      -3.342   2.856  -0.801  1.00  0.00     0.004 C 
ENDROOT
BRANCH  13  20
HETATM   20  C15 UNL     1       4.389  -1.631  -0.279  1.00  0.00     0.024 C 
HETATM   21  C16 UNL     1       5.268  -0.486  -0.787  1.00  0.00     0.005 C 
HETATM   22  C17 UNL     1       4.842  -2.166   1.078  1.00  0.00     0.005 C 
ENDBRANCH  13  20
TORSDOF 1
