REMARK  0 active torsions:
REMARK  status: ('A' for Active; 'I' for Inactive)
ROOT
HETATM    1  C1  UNL     1       0.506  -1.162   0.178  1.00  0.00     0.008 C 
HETATM    2  C2  UNL     1      -0.473  -2.275   0.562  1.00  0.00     0.030 C 
HETATM    3  C3  UNL     1      -1.957  -2.041   0.162  1.00  0.00     0.069 C 
HETATM    4  C4  UNL     1      -2.359  -0.592   0.447  1.00  0.00     0.246 C 
HETATM    5  C5  UNL     1      -1.395   0.307  -0.270  1.00  0.00     0.029 C 
HETATM    6  C6  UNL     1       0.059   0.064  -0.195  1.00  0.00    -0.023 C 
HETATM    7  C7  UNL     1       1.033   1.178  -0.543  1.00  0.00     0.026 C 
HETATM    8  C8  UNL     1       2.418   0.998   0.102  1.00  0.00     0.012 C 
HETATM    9  C9  UNL     1       2.955  -0.412  -0.174  1.00  0.00     0.069 C 
HETATM   10  C10 UNL     1       1.957  -1.473   0.227  1.00  0.00     0.169 C 
HETATM   11  O1  UNL     1       2.342  -2.561   0.588  1.00  0.00    -0.292 OA
HETATM   12  C11 UNL     1       3.400   2.072  -0.371  1.00  0.00     0.001 C 
HETATM   13  C12 UNL     1      -2.092   1.221  -0.947  1.00  0.00     0.042 C 
HETATM   14  C13 UNL     1      -3.504   0.887  -0.813  1.00  0.00     0.294 C 
HETATM   15  O2  UNL     1      -3.645  -0.238  -0.096  1.00  0.00    -0.271 OA
HETATM   16  O3  UNL     1      -4.400   1.539  -1.293  1.00  0.00    -0.259 OA
HETATM   17  C14 UNL     1      -1.543   2.377  -1.744  1.00  0.00     0.036 C 
HETATM   18  O4  UNL     1      -2.357  -0.328   1.838  1.00  0.00    -0.190 OA
HETATM   19  C15 UNL     1      -0.346  -2.563   2.062  1.00  0.00     0.005 C 
ENDROOT
TORSDOF 0
