REMARK  1 active torsions:
REMARK  status: ('A' for Active; 'I' for Inactive)
REMARK    1  A    between atoms: C13_14  and  C15_17 
ROOT
HETATM    1  C1  UNL     1      -3.453   1.336   0.334  1.00  0.00     0.191 C 
HETATM    2  C2  UNL     1      -4.127   0.072  -0.192  1.00  0.00     0.075 C 
HETATM    3  C3  UNL     1      -3.317  -1.277  -0.080  1.00  0.00     0.026 C 
HETATM    4  C4  UNL     1      -1.830  -1.098  -0.199  1.00  0.00    -0.021 A 
HETATM    5  C5  UNL     1      -1.279   0.178   0.035  1.00  0.00     0.018 A 
HETATM    6  C6  UNL     1      -1.982   1.309   0.312  1.00  0.00     0.116 A 
HETATM    7  N1  UNL     1      -0.963   2.297   0.521  1.00  0.00    -0.239 NA
HETATM    8  C7  UNL     1       0.322   1.701   0.316  1.00  0.00     0.120 A 
HETATM    9  C8  UNL     1       0.016   0.412   0.025  1.00  0.00     0.022 A 
HETATM   10  C9  UNL     1       0.975  -0.566  -0.254  1.00  0.00     0.001 A 
HETATM   11  C10 UNL     1       0.512  -1.885  -0.537  1.00  0.00    -0.000 A 
HETATM   12  C11 UNL     1      -0.900  -2.149  -0.506  1.00  0.00    -0.004 A 
HETATM   13  C12 UNL     1       2.420  -0.162  -0.233  1.00  0.00    -0.001 A 
HETATM   14  C13 UNL     1       2.762   1.127   0.058  1.00  0.00     0.018 A 
HETATM   15  C14 UNL     1       1.727   2.170   0.361  1.00  0.00     0.209 A 
HETATM   16  O1  UNL     1       2.002   3.318   0.623  1.00  0.00    -0.285 OA
HETATM   17  C18 UNL     1      -3.824  -2.242  -1.160  1.00  0.00     0.005 C 
HETATM   18  C19 UNL     1      -3.596  -1.902   1.291  1.00  0.00     0.005 C 
HETATM   19  O2  UNL     1      -4.068   2.297   0.732  1.00  0.00    -0.290 OA
ENDROOT
BRANCH  14  20
HETATM   20  C15 UNL     1       4.219   1.510   0.076  1.00  0.00     0.025 C 
HETATM   21  C16 UNL     1       4.902   1.273  -1.272  1.00  0.00     0.005 C 
HETATM   22  C17 UNL     1       4.975   0.871   1.242  1.00  0.00     0.005 C 
ENDBRANCH  14  20
TORSDOF 1
