REMARK  5 active torsions:
REMARK  status: ('A' for Active; 'I' for Inactive)
REMARK    1  A    between atoms: C1_1  and  C2_2 
REMARK    2  A    between atoms: C3_3  and  C5_5 
REMARK    3  A    between atoms: C5_5  and  C6_6 
REMARK    4  A    between atoms: C6_6  and  C7_7 
REMARK    5  A    between atoms: C8_8  and  C10_10 
ROOT
HETATM    1  C5  UNL     1      -0.695  -0.367  -0.156  1.00  0.00     0.026 C 
ENDROOT
BRANCH   1   2
HETATM    2  C3  UNL     1      -0.078  -1.025   1.049  1.00  0.00    -0.045 C 
HETATM    3  C2  UNL     1      -0.232  -2.352   1.205  1.00  0.00     0.001 C 
HETATM    4  C4  UNL     1       0.703  -0.268   2.088  1.00  0.00     0.026 C 
BRANCH   3   5
HETATM    5  C1  UNL     1       0.383  -3.010   2.410  1.00  0.00     0.208 C 
HETATM    6  O2  UNL     1      -0.092  -4.332   2.517  1.00  0.00    -0.215 OA
ENDBRANCH   3   5
ENDBRANCH   1   2
BRANCH   1   7
HETATM    7  C6  UNL     1       0.354   0.125  -1.153  1.00  0.00     0.030 C 
BRANCH   7   8
HETATM    8  C7  UNL     1      -0.258   0.856  -2.317  1.00  0.00    -0.027 C 
HETATM    9  C8  UNL     1      -0.352   2.193  -2.258  1.00  0.00     0.016 C 
HETATM   10  C9  UNL     1       0.160   2.895  -1.027  1.00  0.00     0.034 C 
BRANCH   9  11
HETATM   11  C10 UNL     1      -0.932   3.004  -3.336  1.00  0.00     0.230 C 
HETATM   12  O1  UNL     1      -0.955   4.209  -3.250  1.00  0.00    -0.283 OA
ENDBRANCH   9  11
ENDBRANCH   7   8
ENDBRANCH   1   7
TORSDOF 5
