REMARK  2 active torsions:
REMARK  status: ('A' for Active; 'I' for Inactive)
REMARK    1  A    between atoms: C5_6  and  C20_25 
REMARK    2  A    between atoms: C8_10  and  C11_14 
ROOT
HETATM    1  O1  UNL     1       3.477   1.719  -1.066  1.00  0.00    -0.303 OA
HETATM    2  C1  UNL     1       3.367   1.580   0.250  1.00  0.00     0.272 C 
HETATM    3  C2  UNL     1       2.137   0.838   0.684  1.00  0.00     0.100 C 
HETATM    4  C3  UNL     1       1.633   0.223  -0.645  1.00  0.00     0.119 C 
HETATM    5  C4  UNL     1       2.307   1.166  -1.664  1.00  0.00     0.140 C 
HETATM    6  C5  UNL     1       1.225   2.238  -1.897  1.00  0.00     0.048 C 
HETATM    7  C6  UNL     1      -0.063   1.531  -1.565  1.00  0.00    -0.030 C 
HETATM    8  C7  UNL     1       0.156   0.377  -0.910  1.00  0.00     0.034 C 
HETATM    9  N1  UNL     1      -0.771  -0.576  -0.525  1.00  0.00    -0.350 N 
HETATM   10  C8  UNL     1      -0.348  -1.848   0.141  1.00  0.00     0.116 C 
HETATM   11  C9  UNL     1       1.182  -2.152   0.115  1.00  0.00     0.090 C 
HETATM   12  C10 UNL     1       2.006  -1.236  -0.758  1.00  0.00     0.160 C 
HETATM   13  O2  UNL     1       2.881  -1.648  -1.484  1.00  0.00    -0.295 OA
HETATM   14  C16 UNL     1      -2.227  -0.392  -0.775  1.00  0.00     0.101 C 
HETATM   15  C17 UNL     1      -2.789   0.879  -0.113  1.00  0.00     0.025 C 
HETATM   16  C18 UNL     1      -2.391   2.213  -0.779  1.00  0.00     0.006 C 
HETATM   17  C19 UNL     1      -1.406   2.106  -1.957  1.00  0.00     0.023 C 
HETATM   18  C22 UNL     1       1.156   1.791   1.369  1.00  0.00     0.011 C 
HETATM   19  O5  UNL     1       4.178   1.992   1.049  1.00  0.00    -0.264 OA
ENDROOT
BRANCH  10  20
HETATM   20  C11 UNL     1      -0.844  -1.877   1.588  1.00  0.00     0.145 C 
HETATM   21  O3  UNL     1      -2.266  -1.791   1.619  1.00  0.00    -0.302 OA
HETATM   22  C12 UNL     1      -2.678  -2.475   2.680  1.00  0.00     0.271 C 
HETATM   23  C13 UNL     1      -1.572  -3.215   3.375  1.00  0.00     0.089 C 
HETATM   24  O4  UNL     1      -3.824  -2.521   3.061  1.00  0.00    -0.264 OA
HETATM   25  C14 UNL     1      -0.465  -3.168   2.322  1.00  0.00     0.042 C 
HETATM   26  C15 UNL     1      -1.926  -4.650   3.748  1.00  0.00     0.011 C 
ENDBRANCH  10  20
BRANCH   6  27
HETATM   27  C20 UNL     1       1.295   2.756  -3.330  1.00  0.00     0.006 C 
HETATM   28  C21 UNL     1       2.619   3.488  -3.543  1.00  0.00     0.000 C 
ENDBRANCH   6  27
TORSDOF 2
