REMARK  4 active torsions:
REMARK  status: ('A' for Active; 'I' for Inactive)
REMARK    1  A    between atoms: C3_3  and  C8_9 
REMARK    2  A    between atoms: C6_6  and  O1_7 
REMARK    3  A    between atoms: C13_16  and  C14_17 
REMARK    4  A    between atoms: C17_20  and  O4_23 
ROOT
HETATM    1  C8  UNL     1      -1.531  -1.334  -0.275  1.00  0.00     0.140 C 
HETATM    2  O2  UNL     1      -2.174  -0.160  -0.707  1.00  0.00    -0.352 OA
HETATM    3  C9  UNL     1      -1.281   0.611  -1.475  1.00  0.00     0.145 C 
HETATM    4  C10 UNL     1       0.045   0.453  -0.725  1.00  0.00     0.066 C 
HETATM    5  C11 UNL     1      -0.137  -0.828   0.119  1.00  0.00     0.066 C 
HETATM    6  C12 UNL     1       1.035  -1.727  -0.289  1.00  0.00     0.145 C 
HETATM    7  O3  UNL     1       1.957  -0.816  -0.836  1.00  0.00    -0.352 OA
HETATM    8  C13 UNL     1       1.272   0.148  -1.596  1.00  0.00     0.140 C 
ENDROOT
BRANCH   1   9
HETATM    9  C3  UNL     1      -2.291  -1.967   0.838  1.00  0.00     0.007 A 
HETATM   10  C2  UNL     1      -2.727  -3.299   0.723  1.00  0.00     0.028 A 
HETATM   11  C1  UNL     1      -3.443  -3.900   1.772  1.00  0.00     0.153 A 
HETATM   12  C6  UNL     1      -3.727  -3.166   2.939  1.00  0.00     0.119 A 
HETATM   13  O6  UNL     1      -3.850  -5.149   1.658  1.00  0.00    -0.188 OA
HETATM   14  C5  UNL     1      -3.289  -1.834   3.051  1.00  0.00     0.026 A 
HETATM   15  C4  UNL     1      -2.572  -1.234   2.002  1.00  0.00     0.000 A 
BRANCH  12  16
HETATM   16  O1  UNL     1      -4.398  -3.723   3.928  1.00  0.00    -0.326 OA
HETATM   17  C7  UNL     1      -4.582  -2.969   5.117  1.00  0.00     0.181 C 
ENDBRANCH  12  16
ENDBRANCH   1   9
BRANCH   8  18
HETATM   18  C14 UNL     1       2.143   1.324  -1.857  1.00  0.00     0.007 A 
HETATM   19  C15 UNL     1       2.389   1.738  -3.178  1.00  0.00     0.028 A 
HETATM   20  C16 UNL     1       3.211   2.850  -3.432  1.00  0.00     0.153 A 
HETATM   21  C17 UNL     1       3.793   3.551  -2.356  1.00  0.00     0.119 A 
HETATM   22  O5  UNL     1       3.436   3.232  -4.672  1.00  0.00    -0.188 OA
HETATM   23  C18 UNL     1       3.547   3.135  -1.035  1.00  0.00     0.026 A 
HETATM   24  C19 UNL     1       2.725   2.023  -0.785  1.00  0.00     0.000 A 
BRANCH  21  25
HETATM   25  O4  UNL     1       4.567   4.594  -2.584  1.00  0.00    -0.326 OA
HETATM   26  C20 UNL     1       5.127   5.262  -1.465  1.00  0.00     0.181 C 
ENDBRANCH  21  25
ENDBRANCH   8  18
TORSDOF 4
