REMARK  2 active torsions:
REMARK  status: ('A' for Active; 'I' for Inactive)
REMARK    1  A    between atoms: C5_5  and  C9_9 
REMARK    2  A    between atoms: C10_10  and  C11_11 
ROOT
HETATM    1  C1  UNL     1      -1.439   2.151  -0.541  1.00  0.00     0.004 C 
HETATM    2  C2  UNL     1      -2.676   1.539   0.117  1.00  0.00     0.005 C 
HETATM    3  C3  UNL     1      -2.748   0.043  -0.203  1.00  0.00     0.022 C 
HETATM    4  C4  UNL     1      -1.426  -0.678  -0.039  1.00  0.00    -0.048 C 
HETATM    5  C5  UNL     1      -0.238  -0.031   0.031  1.00  0.00    -0.031 C 
HETATM    6  C6  UNL     1      -0.145   1.492  -0.019  1.00  0.00     0.018 C 
HETATM    7  C7  UNL     1       0.135   1.981   1.406  1.00  0.00     0.004 C 
HETATM    8  C8  UNL     1       1.018   1.920  -0.922  1.00  0.00     0.004 C 
HETATM    9  C13 UNL     1      -1.494  -2.184   0.047  1.00  0.00     0.026 C 
ENDROOT
BRANCH   5  10
HETATM   10  C9  UNL     1       1.020  -0.793   0.166  1.00  0.00    -0.002 C 
HETATM   11  C10 UNL     1       1.465  -1.560  -0.842  1.00  0.00     0.037 C 
BRANCH  11  12
HETATM   12  C11 UNL     1       2.715  -2.318  -0.707  1.00  0.00     0.173 C 
HETATM   13  C12 UNL     1       3.375  -2.387   0.643  1.00  0.00     0.077 C 
HETATM   14  O1  UNL     1       3.199  -2.873  -1.666  1.00  0.00    -0.291 OA
ENDBRANCH  11  12
ENDBRANCH   5  10
TORSDOF 2
