REMARK  9 active torsions:
REMARK  status: ('A' for Active; 'I' for Inactive)
REMARK    1  A    between atoms: C6_6  and  C7_7 
REMARK    2  A    between atoms: C7_7  and  C8_8 
REMARK    3  A    between atoms: C9_9  and  C11_11 
REMARK    4  A    between atoms: C11_11  and  C12_12 
REMARK    5  A    between atoms: C12_12  and  C13_13 
REMARK    6  A    between atoms: C14_14  and  C16_16 
REMARK    7  A    between atoms: C16_16  and  C17_17 
REMARK    8  A    between atoms: C17_17  and  C18_18 
REMARK    9  A    between atoms: C23_23  and  C26_27 
ROOT
HETATM    1  C1  UNL     1      -0.209  -2.707   2.148  1.00  0.00     0.129 A 
HETATM    2  C2  UNL     1       0.008  -4.102   2.129  1.00  0.00     0.054 A 
HETATM    3  C3  UNL     1       1.322  -4.615   2.072  1.00  0.00     0.135 A 
HETATM    4  C4  UNL     1       2.434  -3.733   2.035  1.00  0.00     0.056 A 
HETATM    5  C5  UNL     1       2.221  -2.320   2.061  1.00  0.00    -0.019 A 
HETATM    6  C6  UNL     1       0.891  -1.816   2.111  1.00  0.00     0.004 A 
HETATM    7  C22 UNL     1       3.375  -1.379   2.031  1.00  0.00     0.031 C 
HETATM    8  C23 UNL     1       4.666  -1.990   2.607  1.00  0.00     0.036 C 
HETATM    9  C24 UNL     1       4.980  -3.320   1.910  1.00  0.00     0.074 C 
HETATM   10  C25 UNL     1       3.822  -4.295   1.973  1.00  0.00     0.175 C 
HETATM   11  O1  UNL     1       4.119  -5.469   1.967  1.00  0.00    -0.291 OA
HETATM   12  O4  UNL     1       1.494  -5.945   2.051  1.00  0.00    -0.190 OA
HETATM   13  O5  UNL     1      -1.463  -2.236   2.201  1.00  0.00    -0.190 OA
ENDROOT
BRANCH   6  14
HETATM   14  C7  UNL     1       0.635  -0.365   2.121  1.00  0.00     0.053 C 
BRANCH  14  15
HETATM   15  C8  UNL     1      -0.270   0.061   0.996  1.00  0.00    -0.030 C 
HETATM   16  C9  UNL     1      -0.764   1.309   1.008  1.00  0.00    -0.048 C 
HETATM   17  C10 UNL     1      -0.387   2.221   2.145  1.00  0.00     0.026 C 
BRANCH  16  18
HETATM   18  C11 UNL     1      -1.668   1.734  -0.119  1.00  0.00     0.026 C 
BRANCH  18  19
HETATM   19  C12 UNL     1      -2.453   0.562  -0.711  1.00  0.00     0.030 C 
BRANCH  19  20
HETATM   20  C13 UNL     1      -3.559   1.016  -1.625  1.00  0.00    -0.034 C 
HETATM   21  C14 UNL     1      -4.104   0.119  -2.465  1.00  0.00    -0.048 C 
HETATM   22  C15 UNL     1      -3.580  -1.291  -2.447  1.00  0.00     0.026 C 
BRANCH  21  23
HETATM   23  C16 UNL     1      -5.209   0.572  -3.379  1.00  0.00     0.026 C 
BRANCH  23  24
HETATM   24  C17 UNL     1      -5.096   2.053  -3.742  1.00  0.00     0.030 C 
BRANCH  24  25
HETATM   25  C18 UNL     1      -6.014   2.439  -4.871  1.00  0.00    -0.034 C 
HETATM   26  C19 UNL     1      -6.315   3.738  -5.037  1.00  0.00    -0.048 C 
HETATM   27  C20 UNL     1      -7.289   4.117  -6.119  1.00  0.00     0.026 C 
HETATM   28  C21 UNL     1      -5.662   4.748  -4.131  1.00  0.00     0.026 C 
ENDBRANCH  24  25
ENDBRANCH  23  24
ENDBRANCH  21  23
ENDBRANCH  19  20
ENDBRANCH  18  19
ENDBRANCH  16  18
ENDBRANCH  14  15
ENDBRANCH   6  14
BRANCH   8  29
HETATM   29  C26 UNL     1       5.809  -1.043   2.512  1.00  0.00     0.004 A 
HETATM   30  C27 UNL     1       5.967  -0.018   3.465  1.00  0.00     0.129 A 
HETATM   31  C28 UNL     1       7.051   0.869   3.357  1.00  0.00     0.054 A 
HETATM   32  O3  UNL     1       5.105   0.115   4.453  1.00  0.00    -0.190 OA
HETATM   33  C29 UNL     1       7.977   0.740   2.309  1.00  0.00     0.133 A 
HETATM   34  C30 UNL     1       7.814  -0.283   1.359  1.00  0.00     0.027 A 
HETATM   35  O2  UNL     1       8.992   1.576   2.215  1.00  0.00    -0.190 OA
HETATM   36  C31 UNL     1       6.732  -1.174   1.459  1.00  0.00    -0.000 A 
ENDBRANCH   8  29
TORSDOF 9
