REMARK  6 active torsions:
REMARK  status: ('A' for Active; 'I' for Inactive)
REMARK    1  A    between atoms: C3_3  and  C17_19 
REMARK    2  A    between atoms: C5_5  and  C7_8 
REMARK    3  A    between atoms: C9_10  and  C14_16 
REMARK    4  A    between atoms: C10_11  and  O2_14 
REMARK    5  A    between atoms: C14_16  and  C15_17 
REMARK    6  A    between atoms: C17_19  and  C18_20 
ROOT
HETATM    1  C7  UNL     1       0.604   0.539   0.111  1.00  0.00     0.002 A 
HETATM    2  C8  UNL     1      -0.182   0.875  -1.008  1.00  0.00    -0.002 A 
HETATM    3  C9  UNL     1      -0.941   2.059  -1.008  1.00  0.00     0.004 A 
HETATM    4  C10 UNL     1      -0.922   2.910   0.113  1.00  0.00     0.090 A 
HETATM    5  C11 UNL     1      -0.137   2.574   1.229  1.00  0.00     0.024 A 
HETATM    6  C12 UNL     1       0.625   1.393   1.233  1.00  0.00     0.002 A 
ENDROOT
BRANCH   1   7
HETATM    7  C5  UNL     1       1.391  -0.683   0.111  1.00  0.00     0.025 A 
HETATM    8  C4  UNL     1       0.734  -1.930   0.111  1.00  0.00    -0.002 A 
HETATM    9  C3  UNL     1       1.481  -3.123   0.111  1.00  0.00    -0.018 A 
HETATM   10  C2  UNL     1       2.885  -3.070   0.111  1.00  0.00    -0.002 A 
HETATM   11  C1  UNL     1       3.541  -1.830   0.111  1.00  0.00     0.027 A 
HETATM   12  C6  UNL     1       2.803  -0.633   0.111  1.00  0.00     0.131 A 
HETATM   13  O1  UNL     1       3.440   0.522   0.111  1.00  0.00    -0.190 OA
BRANCH   9  14
HETATM   14  C17 UNL     1       0.785  -4.435   0.111  1.00  0.00     0.052 C 
BRANCH  14  15
HETATM   15  C18 UNL     1       0.248  -4.793   1.473  1.00  0.00    -0.021 C 
HETATM   16  C19 UNL     1       1.057  -5.428   2.334  1.00  0.00    -0.005 C 
ENDBRANCH  14  15
ENDBRANCH   9  14
ENDBRANCH   1   7
BRANCH   3  17
HETATM   17  C14 UNL     1      -1.768   2.401  -2.197  1.00  0.00     0.054 C 
BRANCH  17  18
HETATM   18  C15 UNL     1      -3.188   1.926  -2.057  1.00  0.00    -0.021 C 
HETATM   19  C16 UNL     1      -4.105   2.383  -2.926  1.00  0.00    -0.005 C 
ENDBRANCH  17  18
ENDBRANCH   3  17
BRANCH   4  20
HETATM   20  O2  UNL     1      -1.631   4.022   0.121  1.00  0.00    -0.328 OA
HETATM   21  C13 UNL     1      -1.613   4.813   1.301  1.00  0.00     0.181 C 
ENDBRANCH   4  20
TORSDOF 6
