REMARK  4 active torsions:
REMARK  status: ('A' for Active; 'I' for Inactive)
REMARK    1  A    between atoms: C1_1  and  O3_14 
REMARK    2  A    between atoms: C2_2  and  O2_12 
REMARK    3  A    between atoms: C4_4  and  O1_10 
REMARK    4  A    between atoms: C5_5  and  C7_7 
ROOT
HETATM    1  C1  UNL     1       0.445  -1.676  -0.010  1.00  0.00     0.116 A 
HETATM    2  C2  UNL     1      -0.961  -1.727  -0.010  1.00  0.00     0.118 A 
HETATM    3  C3  UNL     1      -1.703  -0.533  -0.010  1.00  0.00     0.050 A 
HETATM    4  C4  UNL     1      -1.053   0.713  -0.010  1.00  0.00     0.096 A 
HETATM    5  C5  UNL     1       0.355   0.762  -0.010  1.00  0.00     0.024 A 
HETATM    6  C6  UNL     1       1.100  -0.432  -0.010  1.00  0.00     0.028 A 
ENDROOT
BRANCH   5   7
HETATM    7  C7  UNL     1       1.066   2.076  -0.010  1.00  0.00    -0.003 C 
HETATM    8  C8  UNL     1       2.408   2.084  -0.012  1.00  0.00    -0.026 C 
HETATM    9  C9  UNL     1       3.121   3.410  -0.012  1.00  0.00     0.031 C 
ENDBRANCH   5   7
BRANCH   4  10
HETATM   10  O1  UNL     1      -1.764   1.822  -0.010  1.00  0.00    -0.328 OA
HETATM   11  C10 UNL     1      -3.180   1.707  -0.010  1.00  0.00     0.181 C 
ENDBRANCH   4  10
BRANCH   1  12
HETATM   12  O3  UNL     1       1.150  -2.789  -0.010  1.00  0.00    -0.326 OA
HETATM   13  C12 UNL     1       2.566  -2.682  -0.010  1.00  0.00     0.181 C 
ENDBRANCH   1  12
BRANCH   2  14
HETATM   14  O2  UNL     1      -1.584  -2.889  -0.010  1.00  0.00    -0.326 OA
HETATM   15  C11 UNL     1      -3.000  -2.887   0.080  1.00  0.00     0.181 C 
ENDBRANCH   2  14
TORSDOF 4
