REMARK  9 active torsions:
REMARK  status: ('A' for Active; 'I' for Inactive)
REMARK    1  A    between atoms: C2_2  and  O4_30 
REMARK    2  A    between atoms: O4_30  and  C27_31 
REMARK    3  A    between atoms: C28_33  and  C44_60 
REMARK    4  A    between atoms: C29_34  and  O12_50 
REMARK    5  A    between atoms: C31_36  and  O6_37 
REMARK    6  A    between atoms: O6_37  and  C32_38 
REMARK    7  A    between atoms: C32_38  and  C33_39 
REMARK    8  A    between atoms: O12_50  and  C39_51 
REMARK    9  A    between atoms: C42_54  and  C43_56 
ROOT
HETATM    1  C27 UNL     1       2.857  -1.049   0.197  1.00  0.00     0.266 C 
HETATM    2  O5  UNL     1       2.967  -2.270   0.916  1.00  0.00    -0.326 OA
HETATM    3  C28 UNL     1       3.953  -2.277   1.941  1.00  0.00     0.181 C 
HETATM    4  C29 UNL     1       5.346  -2.049   1.311  1.00  0.00     0.180 C 
HETATM    5  C30 UNL     1       5.377  -0.752   0.473  1.00  0.00     0.214 C 
HETATM    6  C31 UNL     1       4.195  -0.738  -0.523  1.00  0.00     0.204 C 
HETATM    7  O11 UNL     1       6.604  -0.664  -0.232  1.00  0.00    -0.218 OA
ENDROOT
BRANCH   1   8
HETATM    8  O4  UNL     1       1.811  -1.178  -0.744  1.00  0.00    -0.331 OA
BRANCH   8   9
HETATM    9  C2  UNL     1       0.578  -0.662  -0.281  1.00  0.00     0.122 C 
HETATM   10  C1  UNL     1       0.068  -1.523   0.881  1.00  0.00     0.030 C 
HETATM   11  C6  UNL     1      -1.367  -1.168   1.322  1.00  0.00     0.006 C 
HETATM   12  C5  UNL     1      -2.086  -0.055   0.508  1.00  0.00     0.015 C 
HETATM   13  C4  UNL     1      -1.824  -0.240  -0.984  1.00  0.00    -0.044 C 
HETATM   14  C7  UNL     1      -3.607  -0.080   0.830  1.00  0.00     0.006 C 
HETATM   15  C26 UNL     1      -1.504   1.316   0.883  1.00  0.00     0.004 C 
HETATM   16  C3  UNL     1      -0.432  -0.641  -1.436  1.00  0.00     0.051 C 
HETATM   17  C10 UNL     1      -2.779  -0.057  -1.922  1.00  0.00    -0.002 C 
HETATM   18  C9  UNL     1      -4.201   0.342  -1.596  1.00  0.00     0.173 C 
HETATM   19  C8  UNL     1      -4.402   0.828  -0.141  1.00  0.00     0.035 C 
HETATM   20  O1  UNL     1      -4.594   1.357  -2.498  1.00  0.00    -0.219 OA
HETATM   21  C11 UNL     1      -5.899   0.779   0.248  1.00  0.00     0.005 C 
HETATM   22  C12 UNL     1      -6.139   1.197   1.703  1.00  0.00     0.003 C 
HETATM   23  C17 UNL     1      -6.848   1.711  -0.516  1.00  0.00     0.030 C 
HETATM   24  C13 UNL     1      -5.412   0.217   2.633  1.00  0.00     0.000 C 
HETATM   25  C15 UNL     1      -7.680   1.281   1.772  1.00  0.00     0.032 C 
HETATM   26  C25 UNL     1      -5.625   2.625   1.961  1.00  0.00     0.000 C 
HETATM   27  C14 UNL     1      -3.910   0.244   2.315  1.00  0.00     0.000 C 
HETATM   28  C16 UNL     1      -7.986   2.027   0.469  1.00  0.00     0.118 C 
HETATM   29  C19 UNL     1      -8.639   0.063   1.699  1.00  0.00     0.054 C 
HETATM   30  O2  UNL     1      -9.240   1.557   0.033  1.00  0.00    -0.337 OA
HETATM   31  C18 UNL     1      -9.451   0.207   0.385  1.00  0.00     0.187 C 
HETATM   32  C21 UNL     1      -9.072  -0.682  -0.832  1.00  0.00     0.056 C 
HETATM   33  O3  UNL     1     -10.852   0.086   0.635  1.00  0.00    -0.335 OA
HETATM   34  C22 UNL     1      -9.610  -2.119  -0.723  1.00  0.00     0.008 C 
HETATM   35  C23 UNL     1     -11.086  -2.111  -0.324  1.00  0.00     0.032 C 
HETATM   36  C24 UNL     1     -11.317  -1.229   0.908  1.00  0.00     0.145 C 
HETATM   37  C20 UNL     1      -8.010  -1.316   1.859  1.00  0.00     0.005 C 
ENDBRANCH   8   9
ENDBRANCH   1   8
BRANCH   6  38
HETATM   38  O6  UNL     1       4.113   0.539  -1.137  1.00  0.00    -0.346 OA
BRANCH  38  39
HETATM   39  C32 UNL     1       5.002   0.691  -2.221  1.00  0.00     0.175 C 
BRANCH  39  40
HETATM   40  C33 UNL     1       4.502   1.850  -3.090  1.00  0.00     0.178 C 
HETATM   41  O7  UNL     1       4.617   3.031  -2.309  1.00  0.00    -0.351 OA
HETATM   42  C34 UNL     1       4.113   4.213  -2.920  1.00  0.00     0.148 C 
HETATM   43  C35 UNL     1       4.908   4.500  -4.213  1.00  0.00     0.212 C 
HETATM   44  C38 UNL     1       4.233   5.334  -1.883  1.00  0.00     0.035 C 
HETATM   45  C36 UNL     1       4.887   3.283  -5.166  1.00  0.00     0.217 C 
HETATM   46  O10 UNL     1       4.336   5.625  -4.856  1.00  0.00    -0.218 OA
HETATM   47  C37 UNL     1       5.311   2.014  -4.397  1.00  0.00     0.214 C 
HETATM   48  O9  UNL     1       5.768   3.508  -6.254  1.00  0.00    -0.218 OA
HETATM   49  O8  UNL     1       5.102   0.869  -5.207  1.00  0.00    -0.218 OA
ENDBRANCH  39  40
ENDBRANCH  38  39
ENDBRANCH   6  38
BRANCH   3  50
HETATM   50  C44 UNL     1       3.836  -3.627   2.656  1.00  0.00     0.214 C 
HETATM   51  O17 UNL     1       2.594  -3.666   3.322  1.00  0.00    -0.218 OA
ENDBRANCH   3  50
BRANCH   4  52
HETATM   52  O12 UNL     1       6.307  -1.973   2.350  1.00  0.00    -0.326 OA
BRANCH  52  53
HETATM   53  C39 UNL     1       7.621  -2.248   1.914  1.00  0.00     0.270 C 
HETATM   54  C40 UNL     1       8.365  -3.152   2.897  1.00  0.00     0.241 C 
HETATM   55  C41 UNL     1       9.811  -2.891   2.441  1.00  0.00     0.217 C 
HETATM   56  O16 UNL     1       8.008  -4.510   2.725  1.00  0.00    -0.215 OA
HETATM   57  C42 UNL     1       9.787  -1.432   1.951  1.00  0.00     0.184 C 
HETATM   58  O15 UNL     1      10.715  -3.051   3.520  1.00  0.00    -0.218 OA
HETATM   59  O13 UNL     1       8.418  -1.090   1.914  1.00  0.00    -0.326 OA
BRANCH  57  60
HETATM   60  C43 UNL     1      10.352  -1.301   0.539  1.00  0.00     0.214 C 
HETATM   61  O14 UNL     1      10.381   0.066   0.201  1.00  0.00    -0.218 OA
ENDBRANCH  57  60
ENDBRANCH  52  53
ENDBRANCH   4  52
TORSDOF 9
