REMARK  20 active torsions:
REMARK  status: ('A' for Active; 'I' for Inactive)
REMARK    1  A    between atoms: C5_5  and  C7_7 
REMARK    2  A    between atoms: C8_8  and  C9_9 
REMARK    3  A    between atoms: C9_9  and  O1_10 
REMARK    4  A    between atoms: O1_10  and  C10_11 
REMARK    5  A    between atoms: C10_11  and  C11_12 
REMARK    6  A    between atoms: C15_16  and  O3_18 
REMARK    7  A    between atoms: O3_18  and  C16_19 
REMARK    8  A    between atoms: C16_19  and  C17_20 
REMARK    9  A    between atoms: C16_19  and  C36_49 
REMARK   10  A    between atoms: C17_20  and  C18_21 
REMARK   11  A    between atoms: C18_21  and  O4_22 
REMARK   12  A    between atoms: O4_22  and  C19_23 
REMARK   13  A    between atoms: C19_23  and  C20_24 
REMARK   14  A    between atoms: C21_25  and  C22_26 
REMARK   15  A    between atoms: C24_28  and  O12_46 
REMARK   16  A    between atoms: C25_29  and  O6_34 
REMARK   17  A    between atoms: C26_30  and  O5_32 
REMARK   18  A    between atoms: O6_34  and  C29_35 
REMARK   19  A    between atoms: C33_42  and  C34_44 
REMARK   20  A    between atoms: C36_49  and  C37_50 
ROOT
HETATM    1  C16 UNL     1       3.340   2.988  -1.234  1.00  0.00     0.112 C 
HETATM    2  C39 UNL     1       2.979   1.682  -1.943  1.00  0.00     0.031 C 
ENDROOT
BRANCH   1   3
HETATM    3  O3  UNL     1       2.262   3.883  -1.387  1.00  0.00    -0.333 OA
BRANCH   3   4
HETATM    4  C15 UNL     1       1.814   3.998  -2.725  1.00  0.00     0.270 C 
HETATM    5  C14 UNL     1       1.494   5.479  -3.047  1.00  0.00     0.241 C 
HETATM    6  C13 UNL     1       0.199   5.938  -2.334  1.00  0.00     0.220 C 
HETATM    7  O15 UNL     1       1.365   5.609  -4.455  1.00  0.00    -0.215 OA
HETATM    8  C12 UNL     1      -0.945   4.936  -2.600  1.00  0.00     0.215 C 
HETATM    9  O16 UNL     1      -0.162   7.250  -2.734  1.00  0.00    -0.218 OA
HETATM   10  C11 UNL     1      -0.510   3.488  -2.272  1.00  0.00     0.181 C 
HETATM   11  O17 UNL     1      -2.068   5.264  -1.799  1.00  0.00    -0.218 OA
HETATM   12  O2  UNL     1       0.684   3.162  -2.981  1.00  0.00    -0.326 OA
BRANCH  10  13
HETATM   13  C10 UNL     1      -1.559   2.449  -2.682  1.00  0.00     0.184 C 
BRANCH  13  14
HETATM   14  O1  UNL     1      -1.016   1.145  -2.533  1.00  0.00    -0.296 OA
BRANCH  14  15
HETATM   15  C9  UNL     1      -1.844   0.199  -2.967  1.00  0.00     0.296 C 
HETATM   16  O18 UNL     1      -2.986   0.406  -3.301  1.00  0.00    -0.259 OA
BRANCH  15  17
HETATM   17  C8  UNL     1      -1.289  -1.158  -3.020  1.00  0.00     0.068 C 
HETATM   18  C7  UNL     1      -0.010  -1.391  -2.680  1.00  0.00     0.005 C 
BRANCH  18  19
HETATM   19  C5  UNL     1       0.510  -2.787  -2.750  1.00  0.00     0.000 A 
HETATM   20  C4  UNL     1       1.533  -3.205  -1.881  1.00  0.00     0.002 A 
HETATM   21  C3  UNL     1       2.022  -4.520  -1.949  1.00  0.00     0.027 A 
HETATM   22  C2  UNL     1       1.488  -5.426  -2.885  1.00  0.00     0.131 A 
HETATM   23  C1  UNL     1       0.465  -5.006  -3.754  1.00  0.00     0.027 A 
HETATM   24  O19 UNL     1       1.947  -6.660  -2.947  1.00  0.00    -0.190 OA
HETATM   25  C6  UNL     1      -0.025  -3.691  -3.688  1.00  0.00     0.002 A 
ENDBRANCH  18  19
ENDBRANCH  15  17
ENDBRANCH  14  15
ENDBRANCH  13  14
ENDBRANCH  10  13
ENDBRANCH   3   4
ENDBRANCH   1   3
BRANCH   1  26
HETATM   26  C17 UNL     1       3.399   2.838   0.285  1.00  0.00     0.123 C 
BRANCH  26  27
HETATM   27  C18 UNL     1       2.139   2.244   0.853  1.00  0.00     0.275 C 
HETATM   28  O13 UNL     1       2.010   1.049   0.969  1.00  0.00    -0.264 OA
BRANCH  27  29
HETATM   29  O4  UNL     1       1.207   3.127   1.207  1.00  0.00    -0.297 OA
BRANCH  29  30
HETATM   30  C19 UNL     1       0.191   2.547   2.012  1.00  0.00     0.178 C 
BRANCH  30  31
HETATM   31  C20 UNL     1      -0.805   3.605   2.402  1.00  0.00     0.006 C 
HETATM   32  C21 UNL     1      -1.992   3.217   2.895  1.00  0.00    -0.002 C 
BRANCH  32  33
HETATM   33  C22 UNL     1      -2.270   1.756   3.029  1.00  0.00     0.004 A 
HETATM   34  C23 UNL     1      -3.326   1.168   2.312  1.00  0.00     0.026 A 
HETATM   35  C24 UNL     1      -3.590  -0.207   2.437  1.00  0.00     0.118 A 
HETATM   36  C25 UNL     1      -2.791  -0.998   3.287  1.00  0.00     0.141 A 
HETATM   37  C26 UNL     1      -1.734  -0.412   4.006  1.00  0.00     0.118 A 
HETATM   38  C27 UNL     1      -1.475   0.963   3.877  1.00  0.00     0.026 A 
BRANCH  35  39
HETATM   39  O12 UNL     1      -4.580  -0.750   1.762  1.00  0.00    -0.326 OA
HETATM   40  C35 UNL     1      -5.293   0.068   0.846  1.00  0.00     0.181 C 
ENDBRANCH  35  39
BRANCH  36  41
HETATM   41  O6  UNL     1      -3.037  -2.289   3.406  1.00  0.00    -0.300 OA
BRANCH  41  42
HETATM   42  C29 UNL     1      -2.041  -3.199   2.961  1.00  0.00     0.274 C 
HETATM   43  C30 UNL     1      -2.102  -3.359   1.424  1.00  0.00     0.241 C 
HETATM   44  O7  UNL     1      -3.430  -3.660   1.025  1.00  0.00    -0.215 OA
HETATM   45  C31 UNL     1      -1.111  -4.455   0.959  1.00  0.00     0.220 C 
HETATM   46  O8  UNL     1      -1.197  -4.692  -0.438  1.00  0.00    -0.218 OA
HETATM   47  C32 UNL     1      -1.268  -5.762   1.775  1.00  0.00     0.215 C 
HETATM   48  O9  UNL     1      -2.469  -6.443   1.434  1.00  0.00    -0.218 OA
HETATM   49  C33 UNL     1      -1.252  -5.449   3.293  1.00  0.00     0.184 C 
HETATM   50  O10 UNL     1      -2.223  -4.455   3.613  1.00  0.00    -0.326 OA
BRANCH  49  51
HETATM   51  C34 UNL     1      -1.531  -6.672   4.176  1.00  0.00     0.214 C 
HETATM   52  O11 UNL     1      -1.191  -6.346   5.504  1.00  0.00    -0.218 OA
ENDBRANCH  49  51
ENDBRANCH  41  42
ENDBRANCH  36  41
BRANCH  37  53
HETATM   53  O5  UNL     1      -0.984  -1.150   4.801  1.00  0.00    -0.326 OA
HETATM   54  C28 UNL     1       0.074  -0.512   5.500  1.00  0.00     0.181 C 
ENDBRANCH  37  53
ENDBRANCH  32  33
ENDBRANCH  30  31
ENDBRANCH  29  30
ENDBRANCH  27  29
ENDBRANCH  26  27
ENDBRANCH   1  26
BRANCH   1  55
HETATM   55  C36 UNL     1       4.592   3.647  -1.813  1.00  0.00     0.092 C 
BRANCH  55  56
HETATM   56  C37 UNL     1       5.707   2.660  -2.041  1.00  0.00     0.153 C 
HETATM   57  C38 UNL     1       6.504   2.207  -0.848  1.00  0.00     0.072 C 
HETATM   58  O14 UNL     1       5.951   2.244  -3.149  1.00  0.00    -0.296 OA
ENDBRANCH  55  56
ENDBRANCH   1  55
TORSDOF 20
