REMARK  15 active torsions:
REMARK  status: ('A' for Active; 'I' for Inactive)
REMARK    1  A    between atoms: C2_2  and  O18_65 
REMARK    2  A    between atoms: C3_3  and  C47_63 
REMARK    3  A    between atoms: C16_16  and  C25_25 
REMARK    4  A    between atoms: C21_21  and  C22_22 
REMARK    5  A    between atoms: C25_25  and  O1_26 
REMARK    6  A    between atoms: O1_26  and  C26_27 
REMARK    7  A    between atoms: C30_31  and  C31_32 
REMARK    8  A    between atoms: C31_32  and  O2_33 
REMARK    9  A    between atoms: O2_33  and  C32_34 
REMARK   10  A    between atoms: C35_37  and  O3_38 
REMARK   11  A    between atoms: O3_38  and  C36_39 
REMARK   12  A    between atoms: C42_49  and  C43_51 
REMARK   13  A    between atoms: O18_65  and  C48_66 
REMARK   14  A    between atoms: C49_67  and  O23_75 
REMARK   15  A    between atoms: O23_75  and  C53_76 
ROOT
HETATM    1  C1  UNL     1      -5.518  -2.574  -1.092  1.00  0.00     0.030 C 
HETATM    2  C2  UNL     1      -6.229  -3.725  -0.371  1.00  0.00     0.120 C 
HETATM    3  C3  UNL     1      -5.480  -4.135   0.918  1.00  0.00     0.060 C 
HETATM    4  C4  UNL     1      -3.932  -4.039   0.785  1.00  0.00     0.005 C 
HETATM    5  C5  UNL     1      -3.420  -4.068  -0.682  1.00  0.00     0.000 C 
HETATM    6  C6  UNL     1      -4.107  -2.975  -1.553  1.00  0.00     0.003 C 
HETATM    7  C7  UNL     1      -1.859  -3.967  -0.715  1.00  0.00     0.000 C 
HETATM    8  C8  UNL     1      -1.221  -2.826   0.150  1.00  0.00     0.000 C 
HETATM    9  C9  UNL     1      -1.824  -2.867   1.572  1.00  0.00     0.000 C 
HETATM   10  C10 UNL     1      -3.357  -2.842   1.560  1.00  0.00     0.000 C 
HETATM   11  C11 UNL     1       0.338  -3.006   0.176  1.00  0.00     0.000 C 
HETATM   12  C12 UNL     1       0.877  -2.963  -1.287  1.00  0.00     0.001 C 
HETATM   13  C13 UNL     1       0.244  -4.061  -2.160  1.00  0.00     0.000 C 
HETATM   14  C14 UNL     1      -1.287  -3.969  -2.150  1.00  0.00     0.000 C 
HETATM   15  C15 UNL     1       2.414  -2.924  -1.447  1.00  0.00     0.013 C 
HETATM   16  C16 UNL     1       3.045  -1.842  -0.557  1.00  0.00     0.078 C 
HETATM   17  C17 UNL     1       2.574  -1.979   0.904  1.00  0.00     0.009 C 
HETATM   18  C18 UNL     1       1.041  -1.898   0.996  1.00  0.00     0.001 C 
HETATM   19  C19 UNL     1       4.526  -2.207  -0.695  1.00  0.00     0.010 C 
HETATM   20  C20 UNL     1       4.565  -3.729  -0.621  1.00  0.00     0.004 C 
HETATM   21  C21 UNL     1       3.215  -4.211  -1.170  1.00  0.00     0.019 C 
HETATM   22  C44 UNL     1       0.680  -4.354   0.834  1.00  0.00     0.000 C 
HETATM   23  C45 UNL     1      -1.547  -1.441  -0.434  1.00  0.00     0.000 C 
HETATM   24  C46 UNL     1      -3.809  -5.440  -1.266  1.00  0.00     0.000 C 
ENDROOT
BRANCH  16  25
HETATM   25  C25 UNL     1       2.791  -0.441  -1.070  1.00  0.00     0.273 C 
HETATM   26  O16 UNL     1       2.588   0.475  -0.309  1.00  0.00    -0.264 OA
BRANCH  25  27
HETATM   27  O1  UNL     1       2.807  -0.314  -2.395  1.00  0.00    -0.273 OA
BRANCH  27  28
HETATM   28  C26 UNL     1       2.594   1.027  -2.813  1.00  0.00     0.276 C 
HETATM   29  C27 UNL     1       2.309   1.070  -4.328  1.00  0.00     0.241 C 
HETATM   30  C28 UNL     1       2.211   2.525  -4.836  1.00  0.00     0.220 C 
HETATM   31  O15 UNL     1       1.092   0.389  -4.576  1.00  0.00    -0.215 OA
HETATM   32  C29 UNL     1       3.443   3.328  -4.363  1.00  0.00     0.215 C 
HETATM   33  O14 UNL     1       2.143   2.537  -6.252  1.00  0.00    -0.218 OA
HETATM   34  C30 UNL     1       3.670   3.168  -2.842  1.00  0.00     0.180 C 
HETATM   35  O13 UNL     1       3.264   4.703  -4.656  1.00  0.00    -0.218 OA
HETATM   36  O12 UNL     1       3.760   1.787  -2.520  1.00  0.00    -0.326 OA
BRANCH  34  37
HETATM   37  C31 UNL     1       4.969   3.822  -2.359  1.00  0.00     0.177 C 
BRANCH  37  38
HETATM   38  O2  UNL     1       4.992   3.770  -0.951  1.00  0.00    -0.326 OA
BRANCH  38  39
HETATM   39  C32 UNL     1       6.176   4.305  -0.395  1.00  0.00     0.270 C 
HETATM   40  C33 UNL     1       6.236   4.016   1.127  1.00  0.00     0.241 C 
HETATM   41  C34 UNL     1       7.444   4.731   1.781  1.00  0.00     0.217 C 
HETATM   42  O11 UNL     1       6.352   2.617   1.336  1.00  0.00    -0.215 OA
HETATM   43  C35 UNL     1       7.455   6.221   1.375  1.00  0.00     0.181 C 
HETATM   44  O10 UNL     1       7.363   4.615   3.193  1.00  0.00    -0.218 OA
HETATM   45  C42 UNL     1       7.344   6.387  -0.156  1.00  0.00     0.181 C 
HETATM   46  O8  UNL     1       6.184   5.709  -0.621  1.00  0.00    -0.326 OA
BRANCH  43  47
HETATM   47  O3  UNL     1       8.658   6.826   1.810  1.00  0.00    -0.326 OA
BRANCH  47  48
HETATM   48  C36 UNL     1       8.647   7.164   3.184  1.00  0.00     0.270 C 
HETATM   49  C37 UNL     1       9.098   8.635   3.385  1.00  0.00     0.241 C 
HETATM   50  C38 UNL     1       9.244   8.969   4.887  1.00  0.00     0.220 C 
HETATM   51  O7  UNL     1       8.141   9.504   2.801  1.00  0.00    -0.215 OA
HETATM   52  C39 UNL     1      10.108   7.897   5.584  1.00  0.00     0.212 C 
HETATM   53  O6  UNL     1       9.846  10.246   5.039  1.00  0.00    -0.218 OA
HETATM   54  C40 UNL     1       9.592   6.473   5.277  1.00  0.00     0.151 C 
HETATM   55  O5  UNL     1      10.080   8.096   6.988  1.00  0.00    -0.218 OA
HETATM   56  O4  UNL     1       9.533   6.287   3.869  1.00  0.00    -0.329 OA
HETATM   57  C41 UNL     1      10.506   5.373   5.828  1.00  0.00     0.035 C 
ENDBRANCH  47  48
ENDBRANCH  43  47
BRANCH  45  58
HETATM   58  C43 UNL     1       7.201   7.850  -0.590  1.00  0.00     0.214 C 
HETATM   59  O9  UNL     1       7.281   7.902  -1.996  1.00  0.00    -0.218 OA
ENDBRANCH  45  58
ENDBRANCH  38  39
ENDBRANCH  37  38
ENDBRANCH  34  37
ENDBRANCH  27  28
ENDBRANCH  25  27
ENDBRANCH  16  25
BRANCH  21  60
HETATM   60  C22 UNL     1       3.360  -5.090  -2.387  1.00  0.00    -0.044 C 
HETATM   61  C23 UNL     1       2.930  -4.623  -3.570  1.00  0.00    -0.009 C 
HETATM   62  C24 UNL     1       3.965  -6.469  -2.336  1.00  0.00     0.026 C 
ENDBRANCH  21  60
BRANCH   3  63
HETATM   63  C47 UNL     1      -5.922  -5.533   1.371  1.00  0.00     0.185 C 
HETATM   64  O17 UNL     1      -7.156  -5.412   2.041  1.00  0.00    -0.221 OA
ENDBRANCH   3  63
BRANCH   2  65
HETATM   65  O18 UNL     1      -7.549  -3.330  -0.055  1.00  0.00    -0.332 OA
BRANCH  65  66
HETATM   66  C48 UNL     1      -8.430  -3.393  -1.160  1.00  0.00     0.268 C 
HETATM   67  C49 UNL     1      -9.746  -2.637  -0.846  1.00  0.00     0.207 C 
HETATM   68  C50 UNL     1     -10.779  -2.828  -1.979  1.00  0.00     0.220 C 
HETATM   69  C51 UNL     1     -10.934  -4.328  -2.315  1.00  0.00     0.244 C 
HETATM   70  O22 UNL     1     -12.033  -2.293  -1.580  1.00  0.00    -0.218 OA
HETATM   71  C52 UNL     1      -9.551  -4.988  -2.553  1.00  0.00     0.304 C 
HETATM   72  O21 UNL     1     -11.729  -4.471  -3.483  1.00  0.00    -0.215 OA
HETATM   73  O19 UNL     1      -8.711  -4.760  -1.430  1.00  0.00    -0.300 OA
HETATM   74  O20 UNL     1      -9.693  -6.385  -2.723  1.00  0.00    -0.187 OA
BRANCH  67  75
HETATM   75  O23 UNL     1      -9.467  -1.254  -0.693  1.00  0.00    -0.324 OA
BRANCH  75  76
HETATM   76  C53 UNL     1      -9.080  -0.906   0.621  1.00  0.00     0.270 C 
HETATM   77  O24 UNL     1      -7.850  -0.199   0.555  1.00  0.00    -0.329 OA
HETATM   78  C54 UNL     1      -7.303   0.178   1.810  1.00  0.00     0.151 C 
HETATM   79  C55 UNL     1      -8.283   1.133   2.529  1.00  0.00     0.212 C 
HETATM   80  C58 UNL     1      -5.943   0.824   1.525  1.00  0.00     0.035 C 
HETATM   81  C56 UNL     1      -9.686   0.500   2.662  1.00  0.00     0.220 C 
HETATM   82  O27 UNL     1      -7.766   1.430   3.814  1.00  0.00    -0.218 OA
HETATM   83  C57 UNL     1     -10.162  -0.020   1.287  1.00  0.00     0.241 C 
HETATM   84  O26 UNL     1     -10.602   1.463   3.158  1.00  0.00    -0.218 OA
HETATM   85  O25 UNL     1     -11.350  -0.777   1.459  1.00  0.00    -0.215 OA
ENDBRANCH  75  76
ENDBRANCH  67  75
ENDBRANCH  65  66
ENDBRANCH   2  65
TORSDOF 15
