REMARK  1 active torsions:
REMARK  status: ('A' for Active; 'I' for Inactive)
REMARK    1  A    between atoms: C13_16  and  O5_20 
ROOT
HETATM    1  C1  UNL     1      -3.451  -3.389  -0.015  1.00  0.00     0.156 A 
HETATM    2  C2  UNL     1      -2.339  -4.281  -0.019  1.00  0.00     0.158 A 
HETATM    3  C3  UNL     1      -1.011  -3.776  -0.014  1.00  0.00     0.054 A 
HETATM    4  C4  UNL     1      -0.844  -2.376  -0.007  1.00  0.00     0.102 A 
HETATM    5  C5  UNL     1      -1.917  -1.501  -0.004  1.00  0.00     0.032 A 
HETATM    6  C6  UNL     1      -3.247  -1.982  -0.007  1.00  0.00     0.032 A 
HETATM    7  C7  UNL     1      -1.477  -0.217   0.001  1.00  0.00     0.088 A 
HETATM    8  C8  UNL     1      -0.096  -0.368   0.001  1.00  0.00     0.109 A 
HETATM    9  O1  UNL     1       0.377  -1.697  -0.004  1.00  0.00    -0.307 OA
HETATM   10  C9  UNL     1       0.746   0.862   0.004  1.00  0.00     0.071 A 
HETATM   11  C10 UNL     1       0.058   2.120   0.005  1.00  0.00     0.109 A 
HETATM   12  O2  UNL     1      -1.302   2.193   0.007  1.00  0.00    -0.273 OA
HETATM   13  C11 UNL     1      -2.125   1.114   0.006  1.00  0.00     0.302 A 
HETATM   14  O3  UNL     1      -3.330   1.205   0.008  1.00  0.00    -0.259 OA
HETATM   15  C12 UNL     1       0.813   3.316   0.005  1.00  0.00     0.049 A 
HETATM   16  C13 UNL     1       2.227   3.270   0.004  1.00  0.00     0.098 A 
HETATM   17  C14 UNL     1       2.899   2.024   0.004  1.00  0.00     0.052 A 
HETATM   18  C15 UNL     1       2.163   0.815   0.004  1.00  0.00     0.137 A 
HETATM   19  O4  UNL     1       2.820  -0.354   0.004  1.00  0.00    -0.190 OA
HETATM   20  O6  UNL     1      -2.541  -5.606  -0.026  1.00  0.00    -0.188 OA
HETATM   21  O7  UNL     1      -4.700  -3.876  -0.019  1.00  0.00    -0.188 OA
ENDROOT
BRANCH  16  22
HETATM   22  O5  UNL     1       2.933   4.409   0.002  1.00  0.00    -0.328 OA
HETATM   23  C16 UNL     1       4.349   4.316   0.045  1.00  0.00     0.181 C 
ENDBRANCH  16  22
TORSDOF 1
