REMARK  11 active torsions:
REMARK  status: ('A' for Active; 'I' for Inactive)
REMARK    1  A    between atoms: C2_2  and  C32_35 
REMARK    2  A    between atoms: C4_4  and  C12_13 
REMARK    3  A    between atoms: C6_6  and  C7_7 
REMARK    4  A    between atoms: C7_7  and  C8_8 
REMARK    5  A    between atoms: C12_13  and  C13_14 
REMARK    6  A    between atoms: C16_18  and  C26_28 
REMARK    7  A    between atoms: C17_19  and  C20_22 
REMARK    8  A    between atoms: C20_22  and  C21_23 
REMARK    9  A    between atoms: C26_28  and  C27_29 
REMARK   10  A    between atoms: C27_29  and  C28_30 
REMARK   11  A    between atoms: C32_35  and  C33_36 
ROOT
HETATM    1  C1  UNL     1      -1.346   1.842  -0.031  1.00  0.00     0.114 C 
HETATM    2  C2  UNL     1      -0.295   2.119  -1.094  1.00  0.00     0.099 C 
HETATM    3  C3  UNL     1      -0.035   0.892  -1.957  1.00  0.00     0.169 C 
HETATM    4  C4  UNL     1       0.103  -0.463  -1.279  1.00  0.00     0.158 C 
HETATM    5  C5  UNL     1      -0.834  -0.580  -0.086  1.00  0.00     0.183 C 
HETATM    6  C6  UNL     1      -1.567   0.594   0.424  1.00  0.00     0.039 C 
HETATM    7  O1  UNL     1      -0.996  -1.647   0.463  1.00  0.00    -0.291 OA
HETATM    8  C16 UNL     1       1.592  -0.725  -0.877  1.00  0.00     0.020 C 
HETATM    9  C17 UNL     1       2.152   0.355   0.096  1.00  0.00     0.005 C 
HETATM   10  C18 UNL     1       2.262   1.771  -0.518  1.00  0.00     0.001 C 
HETATM   11  C19 UNL     1       0.998   2.644  -0.412  1.00  0.00     0.013 C 
HETATM   12  C25 UNL     1       2.478  -0.779  -2.133  1.00  0.00     0.001 C 
HETATM   13  O3  UNL     1       0.064   0.998  -3.160  1.00  0.00    -0.295 OA
HETATM   14  O4  UNL     1      -2.059   2.853   0.467  1.00  0.00    -0.195 OA
ENDROOT
BRANCH   8  15
HETATM   15  C26 UNL     1       1.709  -2.106  -0.207  1.00  0.00     0.006 C 
BRANCH  15  16
HETATM   16  C27 UNL     1       1.607  -2.031   1.318  1.00  0.00     0.025 C 
BRANCH  16  17
HETATM   17  C28 UNL     1       2.295  -3.188   1.994  1.00  0.00    -0.035 C 
HETATM   18  C29 UNL     1       2.295  -3.237   3.338  1.00  0.00    -0.048 C 
HETATM   19  C30 UNL     1       2.941  -4.311   4.168  1.00  0.00     0.026 C 
HETATM   20  C31 UNL     1       1.598  -2.137   4.096  1.00  0.00     0.026 C 
ENDBRANCH  16  17
ENDBRANCH  15  16
ENDBRANCH   8  15
BRANCH   4  21
HETATM   21  C12 UNL     1      -0.354  -1.520  -2.268  1.00  0.00     0.163 C 
HETATM   22  O2  UNL     1       0.445  -2.209  -2.857  1.00  0.00    -0.295 OA
BRANCH  21  23
HETATM   23  C13 UNL     1      -1.834  -1.686  -2.490  1.00  0.00     0.059 C 
HETATM   24  C14 UNL     1      -2.149  -2.752  -3.541  1.00  0.00     0.008 C 
HETATM   25  C15 UNL     1      -2.533  -0.356  -2.770  1.00  0.00     0.008 C 
ENDBRANCH  21  23
ENDBRANCH   4  21
BRANCH   9  26
HETATM   26  C20 UNL     1       3.529  -0.067   0.635  1.00  0.00     0.025 C 
BRANCH  26  27
HETATM   27  C21 UNL     1       3.830   0.541   1.979  1.00  0.00    -0.035 C 
HETATM   28  C22 UNL     1       4.852   0.041   2.693  1.00  0.00    -0.048 C 
HETATM   29  C23 UNL     1       5.254   0.498   4.068  1.00  0.00     0.026 C 
HETATM   30  C24 UNL     1       5.676  -1.065   2.090  1.00  0.00     0.026 C 
ENDBRANCH  26  27
ENDBRANCH   9  26
BRANCH   2  31
HETATM   31  C32 UNL     1      -0.877   3.223  -1.998  1.00  0.00     0.038 C 
BRANCH  31  32
HETATM   32  C33 UNL     1      -2.209   2.840  -2.586  1.00  0.00    -0.034 C 
HETATM   33  C34 UNL     1      -2.481   3.203  -3.850  1.00  0.00    -0.048 C 
HETATM   34  C35 UNL     1      -3.709   2.807  -4.623  1.00  0.00     0.026 C 
HETATM   35  C36 UNL     1      -1.490   4.076  -4.574  1.00  0.00     0.026 C 
ENDBRANCH  31  32
ENDBRANCH   2  31
BRANCH   6  36
HETATM   36  C7  UNL     1      -2.604   0.379   1.500  1.00  0.00     0.056 C 
BRANCH  36  37
HETATM   37  C8  UNL     1      -3.990   0.430   0.914  1.00  0.00    -0.030 C 
HETATM   38  C9  UNL     1      -5.035   0.176   1.719  1.00  0.00    -0.048 C 
HETATM   39  C10 UNL     1      -6.481   0.199   1.297  1.00  0.00     0.026 C 
HETATM   40  C11 UNL     1      -4.768  -0.160   3.160  1.00  0.00     0.026 C 
ENDBRANCH  36  37
ENDBRANCH   6  36
TORSDOF 11
