REMARK  26 active torsions:
REMARK  status: ('A' for Active; 'I' for Inactive)
REMARK    1  A    between atoms: C2_2  and  C3_3 
REMARK    2  A    between atoms: C3_3  and  C4_4 
REMARK    3  A    between atoms: C4_4  and  C5_5 
REMARK    4  A    between atoms: C5_5  and  C6_6 
REMARK    5  A    between atoms: C6_6  and  C7_7 
REMARK    6  A    between atoms: C7_7  and  C8_8 
REMARK    7  A    between atoms: C8_8  and  C9_9 
REMARK    8  A    between atoms: C9_9  and  C10_10 
REMARK    9  A    between atoms: C10_10  and  C11_11 
REMARK   10  A    between atoms: C11_11  and  C12_12 
REMARK   11  A    between atoms: C12_12  and  C13_13 
REMARK   12  A    between atoms: C13_13  and  C14_14 
REMARK   13  A    between atoms: C14_14  and  C15_15 
REMARK   14  A    between atoms: C15_15  and  C16_16 
REMARK   15  A    between atoms: C16_16  and  C17_17 
REMARK   16  A    between atoms: C17_17  and  C18_18 
REMARK   17  A    between atoms: C18_18  and  C19_19 
REMARK   18  A    between atoms: C19_19  and  C20_20 
REMARK   19  A    between atoms: C20_20  and  C21_21 
REMARK   20  A    between atoms: C21_21  and  C22_22 
REMARK   21  A    between atoms: C22_22  and  C23_23 
REMARK   22  A    between atoms: C23_23  and  C24_24 
REMARK   23  A    between atoms: C24_24  and  C25_25 
REMARK   24  A    between atoms: C25_25  and  C26_26 
REMARK   25  A    between atoms: C26_26  and  C27_27 
REMARK   26  A    between atoms: C27_27  and  C28_28 
ROOT
HETATM    1  C13 UNL     1      -0.544   1.060   2.090  1.00  0.00     0.000 C 
ENDROOT
BRANCH   1   2
HETATM    2  C12 UNL     1      -1.171   0.595   3.405  1.00  0.00     0.003 C 
BRANCH   2   3
HETATM    3  C11 UNL     1      -1.100   1.660   4.501  1.00  0.00     0.036 C 
BRANCH   3   4
HETATM    4  C10 UNL     1      -1.823   1.238   5.781  1.00  0.00     0.182 C 
HETATM    5  O1  UNL     1      -1.155   0.117   6.315  1.00  0.00    -0.221 OA
BRANCH   4   6
HETATM    6  C9  UNL     1      -1.834   2.339   6.841  1.00  0.00     0.185 C 
HETATM    7  O2  UNL     1      -2.472   3.471   6.295  1.00  0.00    -0.221 OA
BRANCH   6   8
HETATM    8  C8  UNL     1      -2.587   1.930   8.108  1.00  0.00     0.069 C 
BRANCH   8   9
HETATM    9  C7  UNL     1      -2.205   2.778   9.321  1.00  0.00     0.155 C 
HETATM   10  O3  UNL     1      -2.793   4.051   9.173  1.00  0.00    -0.223 OA
BRANCH   9  11
HETATM   11  C6  UNL     1      -2.693   2.176  10.639  1.00  0.00     0.033 C 
BRANCH  11  12
HETATM   12  C5  UNL     1      -2.151   2.916  11.863  1.00  0.00     0.003 C 
BRANCH  12  13
HETATM   13  C4  UNL     1      -2.608   2.291  13.181  1.00  0.00     0.000 C 
BRANCH  13  14
HETATM   14  C3  UNL     1      -2.067   3.032  14.404  1.00  0.00     0.000 C 
BRANCH  14  15
HETATM   15  C2  UNL     1      -2.524   2.406  15.723  1.00  0.00     0.000 C 
HETATM   16  C1  UNL     1      -1.983   3.147  16.946  1.00  0.00     0.000 C 
ENDBRANCH  14  15
ENDBRANCH  13  14
ENDBRANCH  12  13
ENDBRANCH  11  12
ENDBRANCH   9  11
ENDBRANCH   8   9
ENDBRANCH   6   8
ENDBRANCH   4   6
ENDBRANCH   3   4
ENDBRANCH   2   3
ENDBRANCH   1   2
BRANCH   1  17
HETATM   17  C14 UNL     1      -0.612  -0.006   0.996  1.00  0.00     0.000 C 
BRANCH  17  18
HETATM   18  C15 UNL     1       0.015   0.458  -0.319  1.00  0.00     0.000 C 
BRANCH  18  19
HETATM   19  C16 UNL     1      -0.052  -0.608  -1.414  1.00  0.00     0.000 C 
BRANCH  19  20
HETATM   20  C17 UNL     1       0.574  -0.143  -2.729  1.00  0.00     0.000 C 
BRANCH  20  21
HETATM   21  C18 UNL     1       0.507  -1.209  -3.823  1.00  0.00     0.000 C 
BRANCH  21  22
HETATM   22  C19 UNL     1       1.133  -0.745  -5.138  1.00  0.00     0.000 C 
BRANCH  22  23
HETATM   23  C20 UNL     1       1.066  -1.811  -6.233  1.00  0.00     0.000 C 
BRANCH  23  24
HETATM   24  C21 UNL     1       1.692  -1.346  -7.548  1.00  0.00     0.000 C 
BRANCH  24  25
HETATM   25  C22 UNL     1       1.625  -2.412  -8.642  1.00  0.00     0.000 C 
BRANCH  25  26
HETATM   26  C23 UNL     1       2.251  -1.948  -9.957  1.00  0.00     0.000 C 
BRANCH  26  27
HETATM   27  C24 UNL     1       2.184  -3.014 -11.052  1.00  0.00     0.000 C 
BRANCH  27  28
HETATM   28  C25 UNL     1       2.811  -2.549 -12.367  1.00  0.00     0.000 C 
BRANCH  28  29
HETATM   29  C26 UNL     1       2.743  -3.615 -13.461  1.00  0.00     0.000 C 
BRANCH  29  30
HETATM   30  C27 UNL     1       3.370  -3.151 -14.776  1.00  0.00     0.000 C 
BRANCH  30  31
HETATM   31  C28 UNL     1       3.303  -4.217 -15.871  1.00  0.00     0.000 C 
HETATM   32  C29 UNL     1       3.929  -3.752 -17.186  1.00  0.00     0.000 C 
ENDBRANCH  30  31
ENDBRANCH  29  30
ENDBRANCH  28  29
ENDBRANCH  27  28
ENDBRANCH  26  27
ENDBRANCH  25  26
ENDBRANCH  24  25
ENDBRANCH  23  24
ENDBRANCH  22  23
ENDBRANCH  21  22
ENDBRANCH  20  21
ENDBRANCH  19  20
ENDBRANCH  18  19
ENDBRANCH  17  18
ENDBRANCH   1  17
TORSDOF 26
