REMARK  2 active torsions:
REMARK  status: ('A' for Active; 'I' for Inactive)
REMARK    1  A    between atoms: C9_11  and  C10_12 
REMARK    2  A    between atoms: C10_12  and  C11_13 
ROOT
HETATM    1  C1  UNL     1      -2.075  -0.944   0.702  1.00  0.00     0.030 C 
HETATM    2  C2  UNL     1      -1.788  -2.377   0.268  1.00  0.00    -0.026 C 
HETATM    3  C3  UNL     1      -0.549  -2.764  -0.044  1.00  0.00     0.000 C 
HETATM    4  C4  UNL     1       0.511  -1.778  -0.036  1.00  0.00     0.060 C 
HETATM    5  C5  UNL     1       0.299  -0.485   0.040  1.00  0.00     0.015 C 
HETATM    6  C6  UNL     1      -1.088   0.089   0.086  1.00  0.00     0.032 C 
HETATM    7  C7  UNL     1       1.647   0.236  -0.026  1.00  0.00     0.237 A 
HETATM    8  O1  UNL     1       2.581  -0.811  -0.296  1.00  0.00    -0.271 OA
HETATM    9  C8  UNL     1       1.919  -2.011  -0.203  1.00  0.00     0.297 C 
HETATM   10  O2  UNL     1       2.439  -3.122  -0.356  1.00  0.00    -0.259 OA
HETATM   11  C9  UNL     1       1.940   1.704  -0.307  1.00  0.00     0.174 A 
HETATM   12  O3  UNL     1       1.515   0.940  -1.367  1.00  0.00    -0.327 OA
ENDROOT
BRANCH  11  13
HETATM   13  C10 UNL     1       0.973   2.748   0.317  1.00  0.00     0.035 C 
BRANCH  13  14
HETATM   14  C11 UNL     1       1.086   4.117  -0.386  1.00  0.00     0.003 C 
HETATM   15  C12 UNL     1       2.485   4.723  -0.161  1.00  0.00     0.000 C 
ENDBRANCH  13  14
ENDBRANCH  11  13
TORSDOF 2
