REMARK  7 active torsions:
REMARK  status: ('A' for Active; 'I' for Inactive)
REMARK    1  A    between atoms: C4_4  and  C7_7 
REMARK    2  A    between atoms: C7_7  and  O2_9 
REMARK    3  A    between atoms: O2_9  and  C8_10 
REMARK    4  A    between atoms: C8_10  and  C9_11 
REMARK    5  A    between atoms: C10_12  and  O4_18 
REMARK    6  A    between atoms: O4_18  and  C15_19 
REMARK    7  A    between atoms: C19_23  and  C20_25 
ROOT
HETATM    1  C9  UNL     1       1.662  -1.709   1.424  1.00  0.00     0.032 A 
HETATM    2  C10 UNL     1       0.463  -0.980   1.549  1.00  0.00     0.095 A 
HETATM    3  C11 UNL     1      -0.506  -1.391   2.480  1.00  0.00     0.026 A 
HETATM    4  C12 UNL     1      -0.283  -2.523   3.281  1.00  0.00     0.029 A 
HETATM    5  C13 UNL     1       0.912  -3.254   3.156  1.00  0.00     0.131 A 
HETATM    6  C14 UNL     1       1.883  -2.844   2.225  1.00  0.00     0.028 A 
HETATM    7  O3  UNL     1       1.121  -4.316   3.906  1.00  0.00    -0.190 OA
ENDROOT
BRANCH   2   8
HETATM    8  O4  UNL     1       0.244   0.084   0.803  1.00  0.00    -0.304 OA
BRANCH   8   9
HETATM    9  C15 UNL     1      -0.648   1.074   1.297  1.00  0.00     0.274 C 
HETATM   10  C16 UNL     1      -0.256   2.463   0.750  1.00  0.00     0.241 C 
HETATM   11  C17 UNL     1      -1.287   3.537   1.160  1.00  0.00     0.220 C 
HETATM   12  O9  UNL     1       1.023   2.801   1.256  1.00  0.00    -0.215 OA
HETATM   13  C18 UNL     1      -2.709   3.055   0.799  1.00  0.00     0.215 C 
HETATM   14  O8  UNL     1      -1.006   4.754   0.486  1.00  0.00    -0.218 OA
HETATM   15  C19 UNL     1      -2.979   1.633   1.346  1.00  0.00     0.184 C 
HETATM   16  O7  UNL     1      -3.670   3.941   1.348  1.00  0.00    -0.218 OA
HETATM   17  O5  UNL     1      -1.967   0.750   0.879  1.00  0.00    -0.326 OA
BRANCH  15  18
HETATM   18  C20 UNL     1      -4.318   1.057   0.877  1.00  0.00     0.214 C 
HETATM   19  O6  UNL     1      -4.541  -0.156   1.562  1.00  0.00    -0.218 OA
ENDBRANCH  15  18
ENDBRANCH   8   9
ENDBRANCH   2   8
BRANCH   1  20
HETATM   20  C8  UNL     1       2.697  -1.287   0.443  1.00  0.00     0.181 C 
BRANCH  20  21
HETATM   21  O2  UNL     1       2.193  -1.443  -0.875  1.00  0.00    -0.293 OA
BRANCH  21  22
HETATM   22  C7  UNL     1       3.076  -1.078  -1.801  1.00  0.00     0.296 C 
HETATM   23  O1  UNL     1       4.186  -0.668  -1.549  1.00  0.00    -0.259 OA
BRANCH  22  24
HETATM   24  C4  UNL     1       2.609  -1.209  -3.213  1.00  0.00     0.063 A 
HETATM   25  C3  UNL     1       3.459  -0.848  -4.274  1.00  0.00     0.005 A 
HETATM   26  C2  UNL     1       3.018  -0.971  -5.604  1.00  0.00     0.000 A 
HETATM   27  C1  UNL     1       1.727  -1.453  -5.873  1.00  0.00     0.000 A 
HETATM   28  C6  UNL     1       0.875  -1.814  -4.815  1.00  0.00     0.000 A 
HETATM   29  C5  UNL     1       1.315  -1.691  -3.485  1.00  0.00     0.005 A 
ENDBRANCH  22  24
ENDBRANCH  21  22
ENDBRANCH  20  21
ENDBRANCH   1  20
TORSDOF 7
