REMARK  1 active torsions:
REMARK  status: ('A' for Active; 'I' for Inactive)
REMARK    1  A    between atoms: C3_3  and  C20_22 
ROOT
HETATM    1  C1  UNL     1       3.061  -1.680   0.689  1.00  0.00     0.153 C 
HETATM    2  C2  UNL     1       3.699  -0.848  -0.438  1.00  0.00     0.035 C 
HETATM    3  C3  UNL     1       3.152   0.602  -0.545  1.00  0.00     0.034 C 
HETATM    4  C4  UNL     1       1.688   0.689  -0.016  1.00  0.00     0.006 C 
HETATM    5  C5  UNL     1       0.875  -0.609  -0.254  1.00  0.00     0.017 C 
HETATM    6  C6  UNL     1       1.518  -1.752   0.580  1.00  0.00     0.037 C 
HETATM    7  C7  UNL     1      -0.605  -0.457   0.098  1.00  0.00    -0.050 C 
HETATM    8  C8  UNL     1      -1.197   0.752   0.273  1.00  0.00    -0.025 C 
HETATM    9  C9  UNL     1      -0.410   2.045   0.219  1.00  0.00     0.024 C 
HETATM   10  C10 UNL     1       0.920   1.920  -0.522  1.00  0.00     0.005 C 
HETATM   11  C11 UNL     1      -2.688   0.883   0.539  1.00  0.00     0.135 C 
HETATM   12  C12 UNL     1      -3.475  -0.404   0.838  1.00  0.00     0.060 C 
HETATM   13  C13 UNL     1      -2.914  -1.543  -0.031  1.00  0.00     0.009 C 
HETATM   14  C14 UNL     1      -1.418  -1.731   0.240  1.00  0.00     0.022 C 
HETATM   15  C15 UNL     1      -4.900  -0.051   0.320  1.00  0.00     0.184 C 
HETATM   16  C16 UNL     1      -4.734   1.273  -0.436  1.00  0.00     0.175 C 
HETATM   17  O1  UNL     1      -3.344   1.385  -0.602  1.00  0.00    -0.350 OA
HETATM   18  O2  UNL     1      -5.836   0.117   1.371  1.00  0.00    -0.221 OA
HETATM   19  C17 UNL     1      -3.363  -0.734   2.332  1.00  0.00     0.005 C 
HETATM   20  C18 UNL     1       0.900  -0.971  -1.746  1.00  0.00     0.004 C 
HETATM   21  C19 UNL     1       4.037   1.549   0.277  1.00  0.00     0.003 C 
HETATM   22  O4  UNL     1       3.434  -1.123   1.937  1.00  0.00    -0.223 OA
ENDROOT
BRANCH   3  23
HETATM   23  C20 UNL     1       3.246   1.045  -2.012  1.00  0.00     0.182 C 
HETATM   24  O3  UNL     1       4.606   1.049  -2.385  1.00  0.00    -0.221 OA
ENDBRANCH   3  23
TORSDOF 1
