REMARK  11 active torsions:
REMARK  status: ('A' for Active; 'I' for Inactive)
REMARK    1  A    between atoms: C3_3  and  C49_65 
REMARK    2  A    between atoms: C16_16  and  C25_25 
REMARK    3  A    between atoms: C21_21  and  C22_22 
REMARK    4  A    between atoms: C25_25  and  O2_27 
REMARK    5  A    between atoms: O2_27  and  C26_28 
REMARK    6  A    between atoms: C30_35  and  C31_37 
REMARK    7  A    between atoms: C31_37  and  O7_38 
REMARK    8  A    between atoms: O7_38  and  C32_39 
REMARK    9  A    between atoms: C35_44  and  O10_45 
REMARK   10  A    between atoms: O10_45  and  C36_46 
REMARK   11  A    between atoms: C42_56  and  C43_58 
ROOT
HETATM    1  C25 UNL     1       1.352   1.236  -1.801  1.00  0.00     0.273 C 
HETATM    2  O1  UNL     1       0.893   1.393  -0.695  1.00  0.00    -0.264 OA
ENDROOT
BRANCH   1   3
HETATM    3  C16 UNL     1       0.658   0.350  -2.818  1.00  0.00     0.078 C 
HETATM    4  C15 UNL     1       0.311   1.051  -4.172  1.00  0.00     0.012 C 
HETATM    5  C12 UNL     1      -1.172   1.531  -4.330  1.00  0.00     0.001 C 
HETATM    6  C21 UNL     1       0.760   0.000  -5.215  1.00  0.00     0.019 C 
HETATM    7  C44 UNL     1       1.260   2.250  -4.367  1.00  0.00     0.001 C 
HETATM    8  C11 UNL     1      -1.773   2.008  -2.977  1.00  0.00     0.000 C 
HETATM    9  C13 UNL     1      -2.127   0.559  -5.051  1.00  0.00     0.000 C 
HETATM   10  C8  UNL     1      -3.232   2.590  -3.176  1.00  0.00     0.000 C 
HETATM   11  C18 UNL     1      -1.682   0.875  -1.918  1.00  0.00     0.001 C 
HETATM   12  C45 UNL     1      -0.883   3.154  -2.449  1.00  0.00     0.000 C 
HETATM   13  C7  UNL     1      -4.205   1.721  -4.055  1.00  0.00     0.000 C 
HETATM   14  C9  UNL     1      -3.896   2.988  -1.828  1.00  0.00     0.000 C 
HETATM   15  C46 UNL     1      -3.062   3.912  -3.959  1.00  0.00     0.000 C 
HETATM   16  C5  UNL     1      -5.121   0.662  -3.348  1.00  0.00     0.001 C 
HETATM   17  C14 UNL     1      -3.486   1.209  -5.324  1.00  0.00     0.000 C 
HETATM   18  C4  UNL     1      -5.770   1.287  -2.072  1.00  0.00     0.012 C 
HETATM   19  C6  UNL     1      -6.277   0.236  -4.293  1.00  0.00     0.003 C 
HETATM   20  C47 UNL     1      -4.342  -0.619  -3.027  1.00  0.00     0.000 C 
HETATM   21  C3  UNL     1      -6.779   0.348  -1.344  1.00  0.00     0.106 C 
HETATM   22  C10 UNL     1      -4.717   1.898  -1.129  1.00  0.00     0.001 C 
HETATM   23  C2  UNL     1      -7.871  -0.102  -2.352  1.00  0.00     0.162 C 
HETATM   24  C48 UNL     1      -6.057  -0.855  -0.719  1.00  0.00     0.013 C 
HETATM   25  C1  UNL     1      -7.277  -0.719  -3.625  1.00  0.00     0.034 C 
HETATM   26  O19 UNL     1      -8.754  -1.043  -1.762  1.00  0.00    -0.223 OA
HETATM   27  C17 UNL     1      -0.623  -0.209  -2.188  1.00  0.00     0.009 C 
HETATM   28  C20 UNL     1       2.037  -0.568  -4.606  1.00  0.00     0.004 C 
HETATM   29  C19 UNL     1       1.572  -0.838  -3.184  1.00  0.00     0.010 C 
BRANCH  21  30
HETATM   30  C49 UNL     1      -7.449   1.090  -0.207  1.00  0.00     0.187 C 
HETATM   31  O17 UNL     1      -7.479   2.297  -0.184  1.00  0.00    -0.647 OA
HETATM   32  O18 UNL     1      -7.988   0.316   0.732  1.00  0.00    -0.647 OA
ENDBRANCH  21  30
BRANCH   6  33
HETATM   33  C22 UNL     1       0.957   0.516  -6.621  1.00  0.00    -0.044 C 
HETATM   34  C23 UNL     1       0.113   1.453  -7.086  1.00  0.00    -0.009 C 
HETATM   35  C24 UNL     1       2.059   0.029  -7.526  1.00  0.00     0.026 C 
ENDBRANCH   6  33
ENDBRANCH   1   3
BRANCH   1  36
HETATM   36  O2  UNL     1       2.477   1.807  -2.223  1.00  0.00    -0.273 OA
BRANCH  36  37
HETATM   37  C26 UNL     1       3.141   2.523  -1.191  1.00  0.00     0.276 C 
HETATM   38  C27 UNL     1       4.289   3.365  -1.785  1.00  0.00     0.241 C 
HETATM   39  O3  UNL     1       3.731   4.346  -2.643  1.00  0.00    -0.215 OA
HETATM   40  C28 UNL     1       5.115   4.047  -0.674  1.00  0.00     0.220 C 
HETATM   41  O4  UNL     1       6.270   4.652  -1.234  1.00  0.00    -0.218 OA
HETATM   42  C29 UNL     1       5.533   3.000   0.383  1.00  0.00     0.215 C 
HETATM   43  O5  UNL     1       6.115   3.650   1.498  1.00  0.00    -0.218 OA
HETATM   44  C30 UNL     1       4.318   2.176   0.869  1.00  0.00     0.180 C 
HETATM   45  O6  UNL     1       3.664   1.594  -0.252  1.00  0.00    -0.326 OA
BRANCH  44  46
HETATM   46  C31 UNL     1       4.709   1.025   1.801  1.00  0.00     0.177 C 
BRANCH  46  47
HETATM   47  O7  UNL     1       3.531   0.371   2.213  1.00  0.00    -0.326 OA
BRANCH  47  48
HETATM   48  C32 UNL     1       3.777  -0.760   3.027  1.00  0.00     0.270 C 
HETATM   49  C33 UNL     1       2.465  -1.543   3.275  1.00  0.00     0.241 C 
HETATM   50  O8  UNL     1       2.002  -2.088   2.051  1.00  0.00    -0.215 OA
HETATM   51  C34 UNL     1       2.686  -2.688   4.291  1.00  0.00     0.217 C 
HETATM   52  O9  UNL     1       1.438  -3.258   4.654  1.00  0.00    -0.218 OA
HETATM   53  C35 UNL     1       3.399  -2.145   5.551  1.00  0.00     0.181 C 
HETATM   54  C42 UNL     1       4.664  -1.342   5.178  1.00  0.00     0.181 C 
HETATM   55  O15 UNL     1       4.317  -0.311   4.264  1.00  0.00    -0.326 OA
BRANCH  53  56
HETATM   56  O10 UNL     1       3.774  -3.221   6.393  1.00  0.00    -0.326 OA
BRANCH  56  57
HETATM   57  C36 UNL     1       2.738  -3.635   7.264  1.00  0.00     0.270 C 
HETATM   58  C37 UNL     1       3.139  -3.377   8.738  1.00  0.00     0.241 C 
HETATM   59  O11 UNL     1       3.246  -1.979   8.959  1.00  0.00    -0.215 OA
HETATM   60  C38 UNL     1       2.088  -3.967   9.707  1.00  0.00     0.220 C 
HETATM   61  O12 UNL     1       2.570  -3.898  11.041  1.00  0.00    -0.218 OA
HETATM   62  C39 UNL     1       1.793  -5.438   9.334  1.00  0.00     0.212 C 
HETATM   63  O13 UNL     1       0.697  -5.916  10.094  1.00  0.00    -0.218 OA
HETATM   64  C40 UNL     1       1.455  -5.576   7.832  1.00  0.00     0.151 C 
HETATM   65  O14 UNL     1       2.508  -5.022   7.059  1.00  0.00    -0.329 OA
HETATM   66  C41 UNL     1       1.301  -7.035   7.389  1.00  0.00     0.035 C 
ENDBRANCH  56  57
ENDBRANCH  53  56
BRANCH  54  67
HETATM   67  C43 UNL     1       5.319  -0.660   6.385  1.00  0.00     0.214 C 
HETATM   68  O16 UNL     1       6.496  -0.023   5.947  1.00  0.00    -0.218 OA
ENDBRANCH  54  67
ENDBRANCH  47  48
ENDBRANCH  46  47
ENDBRANCH  44  46
ENDBRANCH  36  37
ENDBRANCH   1  36
TORSDOF 11
