REMARK  0 active torsions:
REMARK  status: ('A' for Active; 'I' for Inactive)
ROOT
HETATM    1  C1  UNL     1      -2.529  -0.291   0.461  1.00  0.00    -0.048 C 
HETATM    2  C2  UNL     1      -2.012   1.094   0.773  1.00  0.00     0.022 C 
HETATM    3  C3  UNL     1      -0.922   1.551  -0.197  1.00  0.00     0.004 C 
HETATM    4  C4  UNL     1       0.189   0.520  -0.400  1.00  0.00     0.004 C 
HETATM    5  C5  UNL     1      -0.324  -0.937  -0.545  1.00  0.00     0.021 C 
HETATM    6  C6  UNL     1      -1.777  -1.244  -0.141  1.00  0.00    -0.035 C 
HETATM    7  C7  UNL     1       0.760  -1.392   0.475  1.00  0.00     0.004 C 
HETATM    8  C8  UNL     1       0.934   0.102   0.885  1.00  0.00     0.001 C 
HETATM    9  C9  UNL     1       2.314   0.734   0.773  1.00  0.00     0.000 C 
HETATM   10  C10 UNL     1       2.324   1.604  -0.481  1.00  0.00     0.000 C 
HETATM   11  C11 UNL     1       1.281   0.953  -1.399  1.00  0.00     0.000 C 
HETATM   12  C12 UNL     1       0.875   1.914  -2.512  1.00  0.00     0.000 C 
HETATM   13  C13 UNL     1       0.260  -2.262   1.623  1.00  0.00     0.000 C 
HETATM   14  C14 UNL     1       1.961  -2.051  -0.203  1.00  0.00     0.000 C 
HETATM   15  C15 UNL     1      -3.963  -0.568   0.853  1.00  0.00     0.026 C 
ENDROOT
TORSDOF 0
