REMARK  3 active torsions:
REMARK  status: ('A' for Active; 'I' for Inactive)
REMARK    1  A    between atoms: C4_4  and  C7_8 
REMARK    2  A    between atoms: C7_8  and  C8_9 
REMARK    3  A    between atoms: C8_9  and  C9_10 
ROOT
HETATM    1  C8  UNL     1      -1.801   0.810   0.260  1.00  0.00     0.031 C 
ENDROOT
BRANCH   1   2
HETATM    2  C7  UNL     1      -1.229   0.502   1.643  1.00  0.00     0.033 C 
BRANCH   2   3
HETATM    3  C4  UNL     1      -0.447  -0.764   1.643  1.00  0.00     0.004 A 
HETATM    4  C3  UNL     1       0.957  -0.715   1.643  1.00  0.00    -0.002 A 
HETATM    5  C2  UNL     1       1.705  -1.904   1.643  1.00  0.00    -0.000 A 
HETATM    6  C1  UNL     1       1.047  -3.147   1.643  1.00  0.00     0.002 A 
HETATM    7  C6  UNL     1      -0.357  -3.195   1.643  1.00  0.00     0.027 A 
HETATM    8  C5  UNL     1      -1.109  -2.008   1.643  1.00  0.00     0.127 A 
HETATM    9  O1  UNL     1      -2.426  -2.067   1.643  1.00  0.00    -0.191 OA
ENDBRANCH   2   3
ENDBRANCH   1   2
BRANCH   1  10
HETATM   10  C9  UNL     1      -0.727   1.131  -0.719  1.00  0.00    -0.018 A 
HETATM   11  C10 UNL     1      -0.299   2.459  -0.885  1.00  0.00     0.023 A 
HETATM   12  C11 UNL     1       0.717   2.764  -1.806  1.00  0.00     0.133 A 
HETATM   13  C12 UNL     1       1.303   1.734  -2.564  1.00  0.00     0.055 A 
HETATM   14  O3  UNL     1       1.117   4.010  -1.963  1.00  0.00    -0.190 OA
HETATM   15  C13 UNL     1       0.879   0.402  -2.400  1.00  0.00     0.133 A 
HETATM   16  C14 UNL     1      -0.137   0.103  -1.476  1.00  0.00     0.023 A 
HETATM   17  O2  UNL     1       1.432  -0.561  -3.111  1.00  0.00    -0.190 OA
ENDBRANCH   1  10
TORSDOF 3
