REMARK  4 active torsions:
REMARK  status: ('A' for Active; 'I' for Inactive)
REMARK    1  A    between atoms: C1_1  and  C2_2 
REMARK    2  A    between atoms: C1_1  and  S1_4 
REMARK    3  A    between atoms: S1_4  and  S2_6 
REMARK    4  A    between atoms: S2_6  and  C4_7 
ROOT
HETATM    1  S1  UNL     1       1.967   0.479  -0.685  1.00  0.00     0.101 S 
HETATM    2  O1  UNL     1       1.348  -0.344  -1.713  1.00  0.00    -0.245 OA
ENDROOT
BRANCH   1   3
HETATM    3  C1  UNL     1       1.643  -0.254   0.912  1.00  0.00     0.129 C 
BRANCH   3   4
HETATM    4  C2  UNL     1       2.233  -1.594   1.262  1.00  0.00    -0.011 C 
HETATM    5  C3  UNL     1       1.692  -2.695   0.715  1.00  0.00    -0.004 C 
ENDBRANCH   3   4
ENDBRANCH   1   3
BRANCH   1   6
HETATM    6  S2  UNL     1       0.858   2.045  -0.678  1.00  0.00    -0.023 SA
BRANCH   6   7
HETATM    7  C4  UNL     1      -0.830   2.045  -0.678  1.00  0.00     0.040 C 
HETATM    8  C5  UNL     1      -1.558   0.916  -0.678  1.00  0.00    -0.018 C 
HETATM    9  C6  UNL     1      -3.058   1.029  -0.678  1.00  0.00     0.031 C 
ENDBRANCH   6   7
ENDBRANCH   1   6
TORSDOF 4
