REMARK  10 active torsions:
REMARK  status: ('A' for Active; 'I' for Inactive)
REMARK    1  A    between atoms: C5_6  and  O2_7 
REMARK    2  A    between atoms: O2_7  and  C6_8 
REMARK    3  A    between atoms: C7_9  and  O6_17 
REMARK    4  A    between atoms: O6_17  and  C12_18 
REMARK    5  A    between atoms: C13_19  and  C14_20 
REMARK    6  A    between atoms: C25_34  and  O10_41 
REMARK    7  A    between atoms: C26_35  and  C27_36 
REMARK    8  A    between atoms: C27_36  and  C28_37 
REMARK    9  A    between atoms: O10_41  and  C32_42 
REMARK   10  A    between atoms: C34_44  and  C38_51 
ROOT
HETATM    1  C12 UNL     1       1.516  -0.525   0.021  1.00  0.00     0.158 A 
HETATM    2  C13 UNL     1       0.568  -0.644  -0.941  1.00  0.00     0.125 A 
HETATM    3  O8  UNL     1      -0.736  -0.800  -0.635  1.00  0.00    -0.305 OA
HETATM    4  C20 UNL     1      -1.213  -0.852   0.628  1.00  0.00     0.103 A 
HETATM    5  C21 UNL     1      -0.323  -0.739   1.728  1.00  0.00     0.089 A 
HETATM    6  C22 UNL     1       1.130  -0.567   1.452  1.00  0.00     0.224 A 
HETATM    7  O9  UNL     1       2.019  -0.458   2.265  1.00  0.00    -0.284 OA
HETATM    8  C23 UNL     1      -0.818  -0.790   3.057  1.00  0.00     0.138 A 
HETATM    9  C24 UNL     1      -2.204  -0.955   3.280  1.00  0.00     0.051 A 
HETATM   10  C25 UNL     1      -3.095  -1.069   2.186  1.00  0.00     0.094 A 
HETATM   11  C26 UNL     1      -2.601  -1.018   0.859  1.00  0.00     0.028 A 
HETATM   12  O15 UNL     1       0.010  -0.684   4.107  1.00  0.00    -0.190 OA
ENDROOT
BRANCH   1  13
HETATM   13  O6  UNL     1       2.804  -0.371  -0.295  1.00  0.00    -0.298 OA
BRANCH  13  14
HETATM   14  C7  UNL     1       3.098   0.946  -0.739  1.00  0.00     0.271 C 
HETATM   15  C6  UNL     1       4.626   1.148  -0.822  1.00  0.00     0.207 C 
HETATM   16  C10 UNL     1       4.978   2.611  -1.168  1.00  0.00     0.217 C 
HETATM   17  C9  UNL     1       4.227   3.568  -0.215  1.00  0.00     0.212 C 
HETATM   18  O4  UNL     1       6.377   2.810  -1.047  1.00  0.00    -0.218 OA
HETATM   19  C8  UNL     1       2.717   3.242  -0.166  1.00  0.00     0.151 C 
HETATM   20  O5  UNL     1       4.390   4.906  -0.653  1.00  0.00    -0.218 OA
HETATM   21  O3  UNL     1       2.539   1.874   0.180  1.00  0.00    -0.329 OA
HETATM   22  C11 UNL     1       1.961   4.066   0.881  1.00  0.00     0.035 C 
BRANCH  15  23
HETATM   23  O2  UNL     1       5.142   0.279  -1.814  1.00  0.00    -0.324 OA
BRANCH  23  24
HETATM   24  C5  UNL     1       5.472  -1.003  -1.316  1.00  0.00     0.272 C 
HETATM   25  C1  UNL     1       6.991  -1.096  -1.026  1.00  0.00     0.241 C 
HETATM   26  C2  UNL     1       7.395  -2.535  -0.632  1.00  0.00     0.223 C 
HETATM   27  O19 UNL     1       7.323  -0.209   0.030  1.00  0.00    -0.215 OA
HETATM   28  C3  UNL     1       6.846  -3.546  -1.664  1.00  0.00     0.244 C 
HETATM   29  O18 UNL     1       8.808  -2.637  -0.565  1.00  0.00    -0.218 OA
HETATM   30  C4  UNL     1       5.333  -3.319  -1.914  1.00  0.00     0.304 C 
HETATM   31  O17 UNL     1       7.050  -4.866  -1.185  1.00  0.00    -0.215 OA
HETATM   32  O1  UNL     1       5.105  -1.969  -2.291  1.00  0.00    -0.300 OA
HETATM   33  O16 UNL     1       4.873  -4.156  -2.957  1.00  0.00    -0.187 OA
ENDBRANCH  23  24
ENDBRANCH  15  23
ENDBRANCH  13  14
ENDBRANCH   1  13
BRANCH   2  34
HETATM   34  C14 UNL     1       0.970  -0.600  -2.379  1.00  0.00     0.025 A 
HETATM   35  C15 UNL     1       0.278   0.229  -3.279  1.00  0.00     0.004 A 
HETATM   36  C16 UNL     1       0.658   0.269  -4.632  1.00  0.00     0.028 A 
HETATM   37  C17 UNL     1       1.729  -0.518  -5.090  1.00  0.00     0.131 A 
HETATM   38  C18 UNL     1       2.419  -1.347  -4.188  1.00  0.00     0.028 A 
HETATM   39  O7  UNL     1       2.084  -0.480  -6.359  1.00  0.00    -0.190 OA
HETATM   40  C19 UNL     1       2.042  -1.389  -2.835  1.00  0.00     0.004 A 
ENDBRANCH   2  34
BRANCH  11  41
HETATM   41  C27 UNL     1      -3.528  -1.137  -0.279  1.00  0.00     0.056 C 
BRANCH  41  42
HETATM   42  C28 UNL     1      -3.814   0.195  -0.919  1.00  0.00    -0.030 C 
HETATM   43  C29 UNL     1      -4.514   0.219  -2.065  1.00  0.00    -0.048 C 
HETATM   44  C30 UNL     1      -5.048  -0.992  -2.782  1.00  0.00     0.026 C 
HETATM   45  C31 UNL     1      -4.800   1.551  -2.705  1.00  0.00     0.026 C 
ENDBRANCH  41  42
ENDBRANCH  11  41
BRANCH  10  46
HETATM   46  O10 UNL     1      -4.406  -1.226   2.415  1.00  0.00    -0.331 OA
BRANCH  46  47
HETATM   47  C32 UNL     1      -5.233  -0.069   2.379  1.00  0.00     0.154 C 
HETATM   48  C33 UNL     1      -4.835   0.861   3.532  1.00  0.00     0.038 C 
HETATM   49  C34 UNL     1      -5.731   2.107   3.602  1.00  0.00     0.069 C 
HETATM   50  C35 UNL     1      -7.222   1.709   3.696  1.00  0.00     0.188 C 
HETATM   51  C36 UNL     1      -7.646   0.750   2.554  1.00  0.00     0.215 C 
HETATM   52  O13 UNL     1      -8.011   2.885   3.648  1.00  0.00    -0.221 OA
HETATM   53  C37 UNL     1      -6.714  -0.484   2.475  1.00  0.00     0.212 C 
HETATM   54  O12 UNL     1      -8.979   0.316   2.775  1.00  0.00    -0.218 OA
HETATM   55  O11 UNL     1      -7.037  -1.267   1.339  1.00  0.00    -0.218 OA
BRANCH  49  56
HETATM   56  C38 UNL     1      -5.301   3.008   4.769  1.00  0.00     0.185 C 
HETATM   57  O14 UNL     1      -3.994   3.469   4.511  1.00  0.00    -0.221 OA
ENDBRANCH  49  56
ENDBRANCH  46  47
ENDBRANCH  10  46
TORSDOF 10
