REMARK  8 active torsions:
REMARK  status: ('A' for Active; 'I' for Inactive)
REMARK    1  A    between atoms: C4_4  and  O6_15 
REMARK    2  A    between atoms: C5_6  and  C6_7 
REMARK    3  A    between atoms: C6_7  and  O2_8 
REMARK    4  A    between atoms: O2_8  and  C7_9 
REMARK    5  A    between atoms: C7_9  and  C8_11 
REMARK    6  A    between atoms: C8_11  and  C9_12 
REMARK    7  A    between atoms: O6_15  and  C10_16 
REMARK    8  A    between atoms: C17_24  and  C19_27 
ROOT
HETATM    1  C10 UNL     1       0.148   1.705  -0.084  1.00  0.00     0.099 A 
HETATM    2  C11 UNL     1       0.287   0.297  -0.084  1.00  0.00     0.025 A 
HETATM    3  C12 UNL     1      -0.861  -0.529  -0.057  1.00  0.00     0.007 A 
HETATM    4  C13 UNL     1      -2.148   0.059  -0.031  1.00  0.00     0.062 A 
HETATM    5  C14 UNL     1      -2.291   1.473  -0.027  1.00  0.00     0.105 A 
HETATM    6  C15 UNL     1      -1.139   2.293  -0.057  1.00  0.00     0.049 A 
HETATM    7  O7  UNL     1      -3.520   2.033   0.002  1.00  0.00    -0.305 OA
HETATM    8  C16 UNL     1      -4.658   1.312   0.031  1.00  0.00     0.126 A 
HETATM    9  C17 UNL     1      -4.658  -0.041   0.029  1.00  0.00     0.064 A 
HETATM   10  C18 UNL     1      -3.373  -0.787  -0.004  1.00  0.00     0.199 A 
HETATM   11  O8  UNL     1      -3.412  -1.998  -0.008  1.00  0.00    -0.286 OA
ENDROOT
BRANCH   1  12
HETATM   12  O6  UNL     1       1.238   2.486  -0.111  1.00  0.00    -0.304 OA
BRANCH  12  13
HETATM   13  C4  UNL     1       2.463   1.937   0.356  1.00  0.00     0.274 C 
HETATM   14  C3  UNL     1       3.361   3.057   0.924  1.00  0.00     0.241 C 
HETATM   15  C2  UNL     1       4.750   2.510   1.318  1.00  0.00     0.220 C 
HETATM   16  O10 UNL     1       2.723   3.619   2.057  1.00  0.00    -0.215 OA
HETATM   17  C1  UNL     1       5.348   1.713   0.137  1.00  0.00     0.215 C 
HETATM   18  O11 UNL     1       5.611   3.584   1.660  1.00  0.00    -0.218 OA
HETATM   19  C5  UNL     1       4.350   0.658  -0.392  1.00  0.00     0.181 C 
HETATM   20  O12 UNL     1       6.529   1.055   0.551  1.00  0.00    -0.218 OA
HETATM   21  O1  UNL     1       3.123   1.295  -0.728  1.00  0.00    -0.326 OA
BRANCH  19  22
HETATM   22  C6  UNL     1       4.848  -0.047  -1.658  1.00  0.00     0.184 C 
BRANCH  22  23
HETATM   23  O2  UNL     1       3.986  -1.135  -1.963  1.00  0.00    -0.299 OA
BRANCH  23  24
HETATM   24  C7  UNL     1       4.199  -2.186  -1.176  1.00  0.00     0.283 C 
HETATM   25  O3  UNL     1       5.043  -2.219  -0.310  1.00  0.00    -0.264 OA
BRANCH  24  26
HETATM   26  C8  UNL     1       3.305  -3.369  -1.432  1.00  0.00     0.193 C 
BRANCH  26  27
HETATM   27  C9  UNL     1       2.057  -3.276  -0.598  1.00  0.00     0.196 C 
HETATM   28  O4  UNL     1       0.977  -3.100  -1.111  1.00  0.00    -0.647 OA
HETATM   29  O5  UNL     1       2.242  -3.399   0.715  1.00  0.00    -0.647 OA
ENDBRANCH  26  27
ENDBRANCH  24  26
ENDBRANCH  23  24
ENDBRANCH  22  23
ENDBRANCH  19  22
ENDBRANCH  12  13
ENDBRANCH   1  12
BRANCH   9  30
HETATM   30  C19 UNL     1      -5.961  -0.779   0.059  1.00  0.00     0.005 A 
HETATM   31  C20 UNL     1      -7.080  -0.264  -0.621  1.00  0.00     0.002 A 
HETATM   32  C21 UNL     1      -8.301  -0.957  -0.590  1.00  0.00     0.027 A 
HETATM   33  C22 UNL     1      -8.412  -2.166   0.117  1.00  0.00     0.131 A 
HETATM   34  C23 UNL     1      -7.293  -2.680   0.797  1.00  0.00     0.027 A 
HETATM   35  O9  UNL     1      -9.559  -2.815   0.145  1.00  0.00    -0.190 OA
HETATM   36  C24 UNL     1      -6.070  -1.988   0.768  1.00  0.00     0.002 A 
ENDBRANCH   9  30
TORSDOF 8
