REMARK  16 active torsions:
REMARK  status: ('A' for Active; 'I' for Inactive)
REMARK    1  A    between atoms: C3_3  and  O4_26 
REMARK    2  A    between atoms: C5_5  and  C7_7 
REMARK    3  A    between atoms: C7_7  and  C8_8 
REMARK    4  A    between atoms: C8_8  and  C9_9 
REMARK    5  A    between atoms: C9_9  and  C10_10 
REMARK    6  A    between atoms: C10_10  and  C11_11 
REMARK    7  A    between atoms: C11_11  and  C12_12 
REMARK    8  A    between atoms: C11_11  and  O1_21 
REMARK    9  A    between atoms: C12_12  and  C13_13 
REMARK   10  A    between atoms: C13_13  and  C14_14 
REMARK   11  A    between atoms: C14_14  and  C15_15 
REMARK   12  A    between atoms: C15_15  and  C16_16 
REMARK   13  A    between atoms: C16_16  and  C17_17 
REMARK   14  A    between atoms: C17_17  and  C18_18 
REMARK   15  A    between atoms: C18_18  and  C19_19 
REMARK   16  A    between atoms: O1_21  and  C21_22 
ROOT
HETATM    1  C10 UNL     1      -1.762  -0.129  -2.674  1.00  0.00     0.095 C 
ENDROOT
BRANCH   1   2
HETATM    2  C9  UNL     1      -0.351  -0.025  -3.190  1.00  0.00     0.153 C 
HETATM    3  O3  UNL     1       0.231  -0.998  -3.612  1.00  0.00    -0.296 OA
BRANCH   2   4
HETATM    4  C8  UNL     1       0.315   1.324  -3.164  1.00  0.00     0.069 C 
BRANCH   4   5
HETATM    5  C7  UNL     1       0.680   1.768  -1.746  1.00  0.00     0.034 C 
BRANCH   5   6
HETATM    6  C5  UNL     1       1.377   3.080  -1.746  1.00  0.00    -0.020 A 
HETATM    7  C4  UNL     1       0.633   4.274  -1.746  1.00  0.00     0.022 A 
HETATM    8  C3  UNL     1       1.287   5.518  -1.746  1.00  0.00     0.119 A 
HETATM    9  C2  UNL     1       2.695   5.569  -1.746  1.00  0.00     0.153 A 
HETATM   10  C1  UNL     1       3.438   4.375  -1.746  1.00  0.00     0.029 A 
HETATM   11  O5  UNL     1       3.317   6.731  -1.746  1.00  0.00    -0.188 OA
HETATM   12  C6  UNL     1       2.781   3.133  -1.746  1.00  0.00    -0.002 A 
BRANCH   8  13
HETATM   13  O4  UNL     1       0.582   6.631  -1.746  1.00  0.00    -0.326 OA
HETATM   14  C23 UNL     1       0.525   7.383  -0.543  1.00  0.00     0.181 C 
ENDBRANCH   8  13
ENDBRANCH   5   6
ENDBRANCH   4   5
ENDBRANCH   2   4
ENDBRANCH   1   2
BRANCH   1  15
HETATM   15  C11 UNL     1      -2.205  -1.578  -2.475  1.00  0.00     0.132 C 
BRANCH  15  16
HETATM   16  C12 UNL     1      -1.807  -2.133  -1.108  1.00  0.00     0.031 C 
BRANCH  16  17
HETATM   17  C13 UNL     1      -0.299  -2.349  -0.975  1.00  0.00     0.003 C 
BRANCH  17  18
HETATM   18  C14 UNL     1       0.080  -3.109   0.297  1.00  0.00     0.000 C 
BRANCH  18  19
HETATM   19  C15 UNL     1      -0.142  -2.283   1.564  1.00  0.00     0.000 C 
BRANCH  19  20
HETATM   20  C16 UNL     1       0.311  -3.014   2.830  1.00  0.00     0.000 C 
BRANCH  20  21
HETATM   21  C17 UNL     1       0.092  -2.187   4.098  1.00  0.00     0.000 C 
BRANCH  21  22
HETATM   22  C18 UNL     1       0.440  -2.959   5.371  1.00  0.00     0.000 C 
BRANCH  22  23
HETATM   23  C19 UNL     1       1.940  -3.215   5.518  1.00  0.00     0.000 C 
HETATM   24  C20 UNL     1       2.736  -1.932   5.750  1.00  0.00     0.000 C 
ENDBRANCH  22  23
ENDBRANCH  21  22
ENDBRANCH  20  21
ENDBRANCH  19  20
ENDBRANCH  18  19
ENDBRANCH  17  18
ENDBRANCH  16  17
ENDBRANCH  15  16
BRANCH  15  25
HETATM   25  O1  UNL     1      -3.613  -1.666  -2.629  1.00  0.00    -0.304 OA
BRANCH  25  26
HETATM   26  C21 UNL     1      -4.025  -2.920  -2.799  1.00  0.00     0.272 C 
HETATM   27  O2  UNL     1      -3.279  -3.865  -2.908  1.00  0.00    -0.264 OA
HETATM   28  C22 UNL     1      -5.520  -3.101  -2.850  1.00  0.00     0.106 C 
ENDBRANCH  25  26
ENDBRANCH  15  25
ENDBRANCH   1  15
TORSDOF 16
