REMARK  15 active torsions:
REMARK  status: ('A' for Active; 'I' for Inactive)
REMARK    1  A    between atoms: C5_5  and  C7_7 
REMARK    2  A    between atoms: C8_8  and  C49_64 
REMARK    3  A    between atoms: C14_15  and  C15_16 
REMARK    4  A    between atoms: C16_17  and  C43_56 
REMARK    5  A    between atoms: C19_21  and  C35_48 
REMARK    6  A    between atoms: C21_23  and  O3_25 
REMARK    7  A    between atoms: O3_25  and  C23_26 
REMARK    8  A    between atoms: C27_33  and  C28_35 
REMARK    9  A    between atoms: C28_35  and  O8_36 
REMARK   10  A    between atoms: O8_36  and  C29_37 
REMARK   11  A    between atoms: C33_44  and  C34_46 
REMARK   12  A    between atoms: C36_49  and  C37_50 
REMARK   13  A    between atoms: C51_66  and  O17_71 
REMARK   14  A    between atoms: O17_71  and  C55_72 
REMARK   15  A    between atoms: C59_79  and  C60_81 
ROOT
HETATM    1  C15 UNL     1       1.822  -0.162  -0.717  1.00  0.00     0.078 A 
HETATM    2  C16 UNL     1       2.484   1.232  -1.010  1.00  0.00     0.152 A 
HETATM    3  O2  UNL     1       1.400   2.166  -1.156  1.00  0.00    -0.329 OA
HETATM    4  C17 UNL     1       0.223   1.568  -0.979  1.00  0.00     0.093 A 
HETATM    5  C18 UNL     1       0.351   0.197  -0.705  1.00  0.00     0.007 A 
HETATM    6  C19 UNL     1      -0.809  -0.592  -0.467  1.00  0.00     0.000 A 
HETATM    7  C20 UNL     1      -2.100  -0.021  -0.516  1.00  0.00     0.024 A 
HETATM    8  C21 UNL     1      -2.236   1.350  -0.799  1.00  0.00     0.099 A 
HETATM    9  C22 UNL     1      -1.082   2.129  -1.025  1.00  0.00     0.048 A 
ENDROOT
BRANCH   1  10
HETATM   10  C14 UNL     1       2.105  -1.164  -1.766  1.00  0.00    -0.015 A 
HETATM   11  C9  UNL     1       2.617  -2.441  -1.404  1.00  0.00     0.003 A 
HETATM   12  C8  UNL     1       2.963  -3.035  -0.055  1.00  0.00     0.078 A 
HETATM   13  C10 UNL     1       2.875  -3.402  -2.396  1.00  0.00     0.092 A 
HETATM   14  C7  UNL     1       3.434  -4.479  -0.457  1.00  0.00     0.152 A 
HETATM   15  O1  UNL     1       3.332  -4.547  -1.891  1.00  0.00    -0.329 OA
HETATM   16  C11 UNL     1       2.631  -3.057  -3.750  1.00  0.00     0.051 A 
HETATM   17  C12 UNL     1       2.129  -1.789  -4.117  1.00  0.00     0.133 A 
HETATM   18  C13 UNL     1       1.861  -0.836  -3.117  1.00  0.00     0.023 A 
HETATM   19  O15 UNL     1       1.908  -1.496  -5.406  1.00  0.00    -0.190 OA
BRANCH  12  20
HETATM   20  C49 UNL     1       4.035  -2.238   0.607  1.00  0.00    -0.012 A 
HETATM   21  C50 UNL     1       3.949  -1.947   1.981  1.00  0.00     0.021 A 
HETATM   22  C51 UNL     1       4.957  -1.195   2.609  1.00  0.00     0.099 A 
HETATM   23  C52 UNL     1       6.053  -0.736   1.857  1.00  0.00     0.052 A 
HETATM   24  C53 UNL     1       6.145  -1.023   0.484  1.00  0.00     0.133 A 
HETATM   25  C54 UNL     1       5.133  -1.775  -0.139  1.00  0.00     0.024 A 
HETATM   26  O16 UNL     1       7.174  -0.592  -0.217  1.00  0.00    -0.190 OA
BRANCH  22  27
HETATM   27  O17 UNL     1       4.877  -0.924   3.897  1.00  0.00    -0.304 OA
BRANCH  27  28
HETATM   28  C55 UNL     1       6.088  -0.779   4.625  1.00  0.00     0.274 C 
HETATM   29  C56 UNL     1       5.898  -1.299   6.067  1.00  0.00     0.241 C 
HETATM   30  O18 UNL     1       5.592  -2.682   6.041  1.00  0.00    -0.215 OA
HETATM   31  C57 UNL     1       7.133  -1.022   6.957  1.00  0.00     0.220 C 
HETATM   32  O19 UNL     1       8.231  -1.828   6.561  1.00  0.00    -0.218 OA
HETATM   33  C58 UNL     1       7.545   0.461   6.830  1.00  0.00     0.215 C 
HETATM   34  O20 UNL     1       6.592   1.256   7.516  1.00  0.00    -0.218 OA
HETATM   35  C59 UNL     1       7.625   0.939   5.356  1.00  0.00     0.184 C 
HETATM   36  O21 UNL     1       6.428   0.605   4.650  1.00  0.00    -0.326 OA
BRANCH  35  37
HETATM   37  C60 UNL     1       8.826   0.363   4.594  1.00  0.00     0.214 C 
HETATM   38  O22 UNL     1       8.908   1.010   3.344  1.00  0.00    -0.218 OA
ENDBRANCH  35  37
ENDBRANCH  27  28
ENDBRANCH  22  27
ENDBRANCH  12  20
BRANCH  14  39
HETATM   39  C5  UNL     1       2.600  -5.557   0.147  1.00  0.00     0.006 A 
HETATM   40  C4  UNL     1       1.394  -5.942  -0.465  1.00  0.00     0.000 A 
HETATM   41  C3  UNL     1       0.609  -6.957   0.107  1.00  0.00     0.027 A 
HETATM   42  C2  UNL     1       1.027  -7.594   1.289  1.00  0.00     0.131 A 
HETATM   43  C1  UNL     1       2.234  -7.207   1.898  1.00  0.00     0.027 A 
HETATM   44  O23 UNL     1       0.291  -8.547   1.824  1.00  0.00    -0.190 OA
HETATM   45  C6  UNL     1       3.021  -6.192   1.328  1.00  0.00     0.000 A 
ENDBRANCH  14  39
ENDBRANCH   1  10
BRANCH   2  46
HETATM   46  C43 UNL     1       3.385   1.691   0.084  1.00  0.00     0.006 A 
HETATM   47  C44 UNL     1       4.746   1.926  -0.180  1.00  0.00     0.000 A 
HETATM   48  C45 UNL     1       5.598   2.361   0.852  1.00  0.00     0.027 A 
HETATM   49  C46 UNL     1       5.092   2.563   2.148  1.00  0.00     0.131 A 
HETATM   50  C47 UNL     1       3.730   2.326   2.410  1.00  0.00     0.027 A 
HETATM   51  O14 UNL     1       5.891   2.969   3.113  1.00  0.00    -0.190 OA
HETATM   52  C48 UNL     1       2.877   1.893   1.381  1.00  0.00     0.000 A 
ENDBRANCH   2  46
BRANCH   6  53
HETATM   53  C35 UNL     1      -0.666  -2.031  -0.164  1.00  0.00    -0.000 C 
HETATM   54  C36 UNL     1      -1.350  -2.918  -0.904  1.00  0.00    -0.000 C 
BRANCH  54  55
HETATM   55  C37 UNL     1      -2.229  -2.408  -2.002  1.00  0.00    -0.000 A 
HETATM   56  C38 UNL     1      -3.580  -2.795  -2.059  1.00  0.00    -0.000 A 
HETATM   57  C39 UNL     1      -4.404  -2.316  -3.090  1.00  0.00     0.000 A 
HETATM   58  C40 UNL     1      -3.881  -1.451  -4.066  1.00  0.00     0.000 A 
HETATM   59  C41 UNL     1      -2.531  -1.064  -4.010  1.00  0.00     0.000 A 
HETATM   60  C42 UNL     1      -1.703  -1.543  -2.979  1.00  0.00    -0.000 A 
ENDBRANCH  54  55
ENDBRANCH   6  53
BRANCH   8  61
HETATM   61  O3  UNL     1      -3.451   1.912  -0.852  1.00  0.00    -0.304 OA
BRANCH  61  62
HETATM   62  C23 UNL     1      -4.336   1.689   0.240  1.00  0.00     0.274 C 
HETATM   63  C24 UNL     1      -3.945   2.555   1.459  1.00  0.00     0.241 C 
HETATM   64  O4  UNL     1      -2.609   2.285   1.840  1.00  0.00    -0.215 OA
HETATM   65  C25 UNL     1      -4.170   4.065   1.211  1.00  0.00     0.220 C 
HETATM   66  O5  UNL     1      -3.229   4.559   0.266  1.00  0.00    -0.218 OA
HETATM   67  C26 UNL     1      -5.611   4.260   0.688  1.00  0.00     0.215 C 
HETATM   68  O6  UNL     1      -5.848   5.611   0.332  1.00  0.00    -0.218 OA
HETATM   69  C27 UNL     1      -5.922   3.336  -0.516  1.00  0.00     0.180 C 
HETATM   70  O7  UNL     1      -5.674   1.982  -0.148  1.00  0.00    -0.326 OA
BRANCH  69  71
HETATM   71  C28 UNL     1      -7.387   3.408  -0.965  1.00  0.00     0.177 C 
BRANCH  71  72
HETATM   72  O8  UNL     1      -7.531   2.619  -2.123  1.00  0.00    -0.326 OA
BRANCH  72  73
HETATM   73  C29 UNL     1      -7.233   3.320  -3.314  1.00  0.00     0.270 C 
HETATM   74  C30 UNL     1      -6.953   2.316  -4.467  1.00  0.00     0.241 C 
HETATM   75  O9  UNL     1      -6.238   2.988  -5.490  1.00  0.00    -0.215 OA
HETATM   76  C31 UNL     1      -8.242   1.713  -5.070  1.00  0.00     0.220 C 
HETATM   77  O10 UNL     1      -8.746   0.729  -4.184  1.00  0.00    -0.218 OA
HETATM   78  C32 UNL     1      -9.332   2.785  -5.299  1.00  0.00     0.215 C 
HETATM   79  O11 UNL     1      -9.010   3.531  -6.463  1.00  0.00    -0.218 OA
HETATM   80  C33 UNL     1      -9.500   3.756  -4.104  1.00  0.00     0.184 C 
HETATM   81  O12 UNL     1      -8.238   4.273  -3.670  1.00  0.00    -0.326 OA
BRANCH  80  82
HETATM   82  C34 UNL     1     -10.250   3.127  -2.922  1.00  0.00     0.214 C 
HETATM   83  O13 UNL     1     -10.280   4.063  -1.869  1.00  0.00    -0.218 OA
ENDBRANCH  80  82
ENDBRANCH  72  73
ENDBRANCH  71  72
ENDBRANCH  69  71
ENDBRANCH  61  62
ENDBRANCH   8  61
TORSDOF 15
