REMARK  12 active torsions:
REMARK  status: ('A' for Active; 'I' for Inactive)
REMARK    1  A    between atoms: C2_2  and  O11_48 
REMARK    2  A    between atoms: C3_3  and  C37_46 
REMARK    3  A    between atoms: C16_16  and  C26_28 
REMARK    4  A    between atoms: C21_21  and  C24_24 
REMARK    5  A    between atoms: C24_24  and  O2_26 
REMARK    6  A    between atoms: C26_28  and  O3_29 
REMARK    7  A    between atoms: O3_29  and  C27_30 
REMARK    8  A    between atoms: C31_34  and  C32_36 
REMARK    9  A    between atoms: O11_48  and  C38_49 
REMARK   10  A    between atoms: C41_52  and  O12_53 
REMARK   11  A    between atoms: O12_53  and  C42_54 
REMARK   12  A    between atoms: C46_58  and  C47_60 
ROOT
HETATM    1  C1  UNL     1      -2.203  -1.545   0.002  1.00  0.00     0.178 C 
HETATM    2  C2  UNL     1      -2.869  -1.082   1.279  1.00  0.00     0.177 C 
HETATM    3  C3  UNL     1      -2.020  -1.416   2.531  1.00  0.00     0.063 C 
HETATM    4  C4  UNL     1      -0.566  -0.840   2.434  1.00  0.00     0.006 C 
HETATM    5  C5  UNL     1       0.008  -0.752   0.975  1.00  0.00     0.007 C 
HETATM    6  C6  UNL     1      -0.707  -1.764   0.049  1.00  0.00     0.067 C 
HETATM    7  C7  UNL     1       1.568  -0.912   0.934  1.00  0.00     0.005 C 
HETATM    8  C8  UNL     1       2.266  -0.250   2.152  1.00  0.00     0.004 C 
HETATM    9  C9  UNL     1       1.834  -1.014   3.434  1.00  0.00     0.000 C 
HETATM   10  C10 UNL     1       0.389  -1.545   3.424  1.00  0.00     0.000 C 
HETATM   11  C11 UNL     1       3.828  -0.262   1.979  1.00  0.00     0.015 C 
HETATM   12  C12 UNL     1       4.361  -1.537   1.324  1.00  0.00    -0.049 C 
HETATM   13  C13 UNL     1       3.563  -2.492   0.803  1.00  0.00    -0.035 C 
HETATM   14  C14 UNL     1       2.059  -2.369   0.775  1.00  0.00     0.025 C 
HETATM   15  C15 UNL     1       5.877  -1.617   1.229  1.00  0.00     0.027 C 
HETATM   16  C16 UNL     1       6.320  -0.525   0.225  1.00  0.00     0.082 C 
HETATM   17  C17 UNL     1       5.867   0.844   0.785  1.00  0.00     0.010 C 
HETATM   18  C18 UNL     1       4.342   0.895   1.068  1.00  0.00     0.004 C 
HETATM   19  C19 UNL     1       7.846  -0.619   0.061  1.00  0.00     0.010 C 
HETATM   20  C20 UNL     1       8.318  -1.973  -0.518  1.00  0.00     0.010 C 
HETATM   21  C21 UNL     1       7.389  -3.189  -0.236  1.00  0.00     0.078 C 
HETATM   22  C22 UNL     1       6.578  -2.996   1.064  1.00  0.00     0.014 C 
HETATM   23  C23 UNL     1       8.235  -4.463  -0.123  1.00  0.00     0.010 C 
HETATM   24  C33 UNL     1       4.479  -0.072   3.363  1.00  0.00     0.004 C 
HETATM   25  C34 UNL     1       1.793   1.207   2.314  1.00  0.00     0.000 C 
HETATM   26  C35 UNL     1      -0.303   0.647   0.402  1.00  0.00     0.000 C 
HETATM   27  C36 UNL     1      -2.000  -2.949   2.662  1.00  0.00     0.005 C 
HETATM   28  O21 UNL     1      -2.838  -1.734  -1.012  1.00  0.00    -0.293 OA
ENDROOT
BRANCH   2  29
HETATM   29  O11 UNL     1      -3.127   0.307   1.201  1.00  0.00    -0.324 OA
BRANCH  29  30
HETATM   30  C38 UNL     1      -4.248   0.621   0.398  1.00  0.00     0.270 C 
HETATM   31  C39 UNL     1      -4.336   2.152   0.166  1.00  0.00     0.241 C 
HETATM   32  C40 UNL     1      -5.639   2.529  -0.578  1.00  0.00     0.217 C 
HETATM   33  O20 UNL     1      -3.219   2.580  -0.596  1.00  0.00    -0.215 OA
HETATM   34  C41 UNL     1      -6.850   1.885   0.131  1.00  0.00     0.180 C 
HETATM   35  O19 UNL     1      -5.791   3.940  -0.600  1.00  0.00    -0.218 OA
HETATM   36  C48 UNL     1      -6.629   0.373   0.346  1.00  0.00     0.177 C 
HETATM   37  O18 UNL     1      -5.420   0.164   1.063  1.00  0.00    -0.326 OA
BRANCH  34  38
HETATM   38  O12 UNL     1      -8.022   2.057  -0.645  1.00  0.00    -0.326 OA
BRANCH  38  39
HETATM   39  C42 UNL     1      -9.211   1.916   0.105  1.00  0.00     0.270 C 
HETATM   40  C43 UNL     1     -10.436   1.787  -0.838  1.00  0.00     0.241 C 
HETATM   41  C44 UNL     1     -11.756   1.793  -0.037  1.00  0.00     0.220 C 
HETATM   42  O17 UNL     1     -10.336   0.576  -1.572  1.00  0.00    -0.215 OA
HETATM   43  C45 UNL     1     -11.778   2.992   0.936  1.00  0.00     0.215 C 
HETATM   44  O16 UNL     1     -12.858   1.875  -0.926  1.00  0.00    -0.218 OA
HETATM   45  C46 UNL     1     -10.490   3.045   1.791  1.00  0.00     0.184 C 
HETATM   46  O15 UNL     1     -12.893   2.887   1.803  1.00  0.00    -0.218 OA
HETATM   47  O13 UNL     1      -9.358   3.063   0.934  1.00  0.00    -0.326 OA
BRANCH  45  48
HETATM   48  C47 UNL     1     -10.404   4.301   2.662  1.00  0.00     0.214 C 
HETATM   49  O14 UNL     1      -9.295   4.164   3.523  1.00  0.00    -0.218 OA
ENDBRANCH  45  48
ENDBRANCH  38  39
ENDBRANCH  34  38
ENDBRANCH  29  30
ENDBRANCH   2  29
BRANCH   3  50
HETATM   50  C37 UNL     1      -2.703  -0.881   3.801  1.00  0.00     0.185 C 
HETATM   51  O10 UNL     1      -4.012  -1.404   3.850  1.00  0.00    -0.221 OA
ENDBRANCH   3  50
BRANCH  16  52
HETATM   52  C26 UNL     1       5.678  -0.672  -1.141  1.00  0.00     0.273 C 
HETATM   53  O9  UNL     1       4.643  -1.281  -1.279  1.00  0.00    -0.264 OA
BRANCH  52  54
HETATM   54  O3  UNL     1       6.334  -0.088  -2.141  1.00  0.00    -0.273 OA
BRANCH  54  55
HETATM   55  C27 UNL     1       5.570  -0.045  -3.338  1.00  0.00     0.276 C 
HETATM   56  C28 UNL     1       6.459   0.402  -4.518  1.00  0.00     0.241 C 
HETATM   57  C29 UNL     1       5.627   0.590  -5.805  1.00  0.00     0.220 C 
HETATM   58  O8  UNL     1       7.457  -0.582  -4.727  1.00  0.00    -0.215 OA
HETATM   59  C30 UNL     1       4.406   1.490  -5.508  1.00  0.00     0.215 C 
HETATM   60  O7  UNL     1       6.430   1.184  -6.813  1.00  0.00    -0.218 OA
HETATM   61  C31 UNL     1       3.621   0.984  -4.275  1.00  0.00     0.184 C 
HETATM   62  O6  UNL     1       3.539   1.504  -6.627  1.00  0.00    -0.218 OA
HETATM   63  O4  UNL     1       4.500   0.875  -3.166  1.00  0.00    -0.326 OA
BRANCH  61  64
HETATM   64  C32 UNL     1       2.494   1.934  -3.856  1.00  0.00     0.214 C 
HETATM   65  O5  UNL     1       1.725   1.293  -2.863  1.00  0.00    -0.218 OA
ENDBRANCH  61  64
ENDBRANCH  54  55
ENDBRANCH  52  54
ENDBRANCH  16  52
BRANCH  21  66
HETATM   66  C24 UNL     1       6.445  -3.441  -1.389  1.00  0.00     0.271 C 
HETATM   67  O1  UNL     1       5.389  -4.002  -1.217  1.00  0.00    -0.264 OA
BRANCH  66  68
HETATM   68  O2  UNL     1       6.869  -3.008  -2.572  1.00  0.00    -0.299 OA
HETATM   69  C25 UNL     1       6.168  -3.605  -3.650  1.00  0.00     0.184 C 
ENDBRANCH  66  68
ENDBRANCH  21  66
TORSDOF 12
