REMARK  6 active torsions:
REMARK  status: ('A' for Active; 'I' for Inactive)
REMARK    1  A    between atoms: C15_15  and  C18_19 
REMARK    2  A    between atoms: C18_19  and  C19_20 
REMARK    3  A    between atoms: C18_19  and  C26_28 
REMARK    4  A    between atoms: C19_20  and  C20_21 
REMARK    5  A    between atoms: C20_21  and  C21_22 
REMARK    6  A    between atoms: C21_22  and  C22_23 
ROOT
HETATM    1  C1  UNL     1       6.414  -1.189  -0.020  1.00  0.00     0.065 C 
HETATM    2  C2  UNL     1       6.992   0.063  -0.633  1.00  0.00     0.150 C 
HETATM    3  C3  UNL     1       6.231   1.356  -0.408  1.00  0.00     0.052 C 
HETATM    4  C4  UNL     1       4.713   1.137  -0.666  1.00  0.00     0.010 C 
HETATM    5  C5  UNL     1       4.106  -0.082   0.082  1.00  0.00     0.015 C 
HETATM    6  C6  UNL     1       4.914  -1.340  -0.305  1.00  0.00     0.011 C 
HETATM    7  C7  UNL     1       2.615  -0.234  -0.232  1.00  0.00    -0.053 C 
HETATM    8  C8  UNL     1       1.861   0.814  -0.660  1.00  0.00    -0.053 C 
HETATM    9  C9  UNL     1       2.442   2.193  -0.912  1.00  0.00     0.021 C 
HETATM   10  C10 UNL     1       3.867   2.389  -0.393  1.00  0.00     0.005 C 
HETATM   11  C11 UNL     1       0.379   0.625  -0.918  1.00  0.00     0.017 C 
HETATM   12  C12 UNL     1      -0.228  -0.441   0.016  1.00  0.00     0.006 C 
HETATM   13  C13 UNL     1       0.481  -1.756  -0.311  1.00  0.00     0.005 C 
HETATM   14  C14 UNL     1       1.992  -1.613  -0.023  1.00  0.00     0.021 C 
HETATM   15  C15 UNL     1      -1.717  -0.361  -0.348  1.00  0.00     0.041 C 
HETATM   16  C16 UNL     1      -1.947   1.160  -0.422  1.00  0.00     0.153 C 
HETATM   17  C17 UNL     1      -0.560   1.803  -0.619  1.00  0.00     0.037 C 
HETATM   18  O1  UNL     1      -2.801   1.473  -1.506  1.00  0.00    -0.223 OA
HETATM   19  C27 UNL     1      -0.049  -0.082   1.500  1.00  0.00     0.000 C 
HETATM   20  C28 UNL     1       0.203   0.311  -2.410  1.00  0.00     0.004 C 
HETATM   21  C29 UNL     1       4.182   0.111   1.604  1.00  0.00     0.004 C 
HETATM   22  C30 UNL     1       6.764   2.430  -1.365  1.00  0.00     0.007 C 
HETATM   23  C31 UNL     1       6.502   1.824   1.027  1.00  0.00     0.007 C 
HETATM   24  O5  UNL     1       8.018   0.020  -1.275  1.00  0.00    -0.296 OA
ENDROOT
BRANCH  15  25
HETATM   25  C18 UNL     1      -2.643  -1.049   0.652  1.00  0.00     0.090 C 
BRANCH  25  26
HETATM   26  C19 UNL     1      -4.000  -0.793  -0.004  1.00  0.00     0.015 C 
BRANCH  26  27
HETATM   27  C20 UNL     1      -5.131  -1.586   0.650  1.00  0.00     0.025 C 
BRANCH  27  28
HETATM   28  C21 UNL     1      -6.475  -1.275   0.045  1.00  0.00    -0.017 C 
HETATM   29  C25 UNL     1      -6.670  -1.547  -1.256  1.00  0.00    -0.007 C 
BRANCH  28  30
HETATM   30  C22 UNL     1      -7.609  -0.674   0.832  1.00  0.00     0.142 C 
HETATM   31  C23 UNL     1      -8.879  -0.520  -0.004  1.00  0.00     0.037 C 
HETATM   32  C24 UNL     1      -7.207   0.619   1.541  1.00  0.00     0.037 C 
HETATM   33  O2  UNL     1      -7.844  -1.660   1.813  1.00  0.00    -0.222 OA
ENDBRANCH  28  30
ENDBRANCH  27  28
ENDBRANCH  26  27
ENDBRANCH  25  26
BRANCH  25  34
HETATM   34  C26 UNL     1      -2.344  -2.518   0.797  1.00  0.00     0.185 C 
HETATM   35  O3  UNL     1      -2.355  -3.252  -0.162  1.00  0.00    -0.647 OA
HETATM   36  O4  UNL     1      -2.074  -2.920   2.035  1.00  0.00    -0.647 OA
ENDBRANCH  25  34
ENDBRANCH  15  25
TORSDOF 6
