REMARK  2 active torsions:
REMARK  status: ('A' for Active; 'I' for Inactive)
REMARK    1  A    between atoms: C4_4  and  O3_18 
REMARK    2  A    between atoms: C12_12  and  O1_15 
ROOT
HETATM    1  C1  UNL     1      -2.541  -0.853   0.053  1.00  0.00     0.030 A 
HETATM    2  C2  UNL     1      -3.243   0.336   0.299  1.00  0.00     0.158 A 
HETATM    3  C3  UNL     1      -2.532   1.533   0.490  1.00  0.00     0.178 A 
HETATM    4  C4  UNL     1      -1.116   1.555   0.435  1.00  0.00     0.121 A 
HETATM    5  C5  UNL     1      -0.352   0.352   0.189  1.00  0.00     0.027 A 
HETATM    6  C6  UNL     1       1.105   0.252   0.119  1.00  0.00     0.029 A 
HETATM    7  C7  UNL     1       2.039   1.342   0.291  1.00  0.00     0.131 A 
HETATM    8  C8  UNL     1       3.435   1.139   0.199  1.00  0.00     0.027 A 
HETATM    9  C9  UNL     1       3.967  -0.133  -0.061  1.00  0.00     0.002 A 
HETATM   10  C10 UNL     1       3.097  -1.221  -0.232  1.00  0.00     0.002 A 
HETATM   11  C11 UNL     1       1.689  -1.045  -0.145  1.00  0.00     0.024 A 
HETATM   12  C12 UNL     1       0.885  -2.195  -0.328  1.00  0.00     0.094 A 
HETATM   13  C13 UNL     1      -0.508  -2.096  -0.256  1.00  0.00     0.024 A 
HETATM   14  C14 UNL     1      -1.125  -0.853  -0.002  1.00  0.00     0.006 A 
HETATM   15  O2  UNL     1       1.703   2.609   0.549  1.00  0.00    -0.190 OA
HETATM   16  O4  UNL     1      -3.209   2.666   0.723  1.00  0.00    -0.186 OA
HETATM   17  O5  UNL     1      -4.582   0.328   0.352  1.00  0.00    -0.188 OA
ENDROOT
BRANCH   4  18
HETATM   18  O3  UNL     1      -0.588   2.766   0.629  1.00  0.00    -0.326 OA
HETATM   19  C16 UNL     1      -0.723   3.725  -0.408  1.00  0.00     0.181 C 
ENDBRANCH   4  18
BRANCH  12  20
HETATM   20  O1  UNL     1       1.422  -3.402  -0.572  1.00  0.00    -0.328 OA
HETATM   21  C15 UNL     1       0.623  -4.551  -0.326  1.00  0.00     0.181 C 
ENDBRANCH  12  20
TORSDOF 2
