REMARK  3 active torsions:
REMARK  status: ('A' for Active; 'I' for Inactive)
REMARK    1  A    between atoms: C1_1  and  C2_2 
REMARK    2  A    between atoms: C2_2  and  O1_3 
REMARK    3  A    between atoms: O1_3  and  C3_4 
ROOT
HETATM    1  C2  UNL     1      -2.648  -1.117  -0.301  1.00  0.00     0.152 C 
HETATM    2  C5  UNL     1      -3.547   0.074   0.019  1.00  0.00     0.035 C 
HETATM    3  C6  UNL     1      -2.529   1.148   0.381  1.00  0.00     0.003 C 
HETATM    4  C7  UNL     1      -1.404   0.416   1.127  1.00  0.00     0.003 C 
HETATM    5  C8  UNL     1      -0.016   0.857   0.639  1.00  0.00     0.001 C 
HETATM    6  C9  UNL     1       0.229   2.375   0.818  1.00  0.00     0.004 C 
HETATM    7  C10 UNL     1       1.725   2.738   0.957  1.00  0.00     0.018 C 
HETATM    8  C11 UNL     1       1.973   4.215   0.615  1.00  0.00     0.004 C 
HETATM    9  C12 UNL     1       2.582   1.740   0.193  1.00  0.00    -0.042 C 
HETATM   10  C13 UNL     1       3.393   2.109  -0.826  1.00  0.00     0.029 C 
HETATM   11  C14 UNL     1       4.160   1.135  -1.623  1.00  0.00     0.172 C 
HETATM   12  C15 UNL     1       3.942  -0.340  -1.383  1.00  0.00     0.070 C 
HETATM   13  C16 UNL     1       2.621  -0.611  -0.645  1.00  0.00     0.012 C 
HETATM   14  C17 UNL     1       2.465   0.275   0.615  1.00  0.00     0.016 C 
HETATM   15  C18 UNL     1       3.606  -0.029   1.598  1.00  0.00     0.004 C 
HETATM   16  C19 UNL     1       1.102   0.047   1.338  1.00  0.00     0.004 C 
HETATM   17  C20 UNL     1       0.727  -1.438   1.560  1.00  0.00     0.000 C 
HETATM   18  C21 UNL     1      -0.373  -1.906   0.598  1.00  0.00     0.003 C 
HETATM   19  C22 UNL     1      -1.656  -1.096   0.879  1.00  0.00     0.030 C 
HETATM   20  C23 UNL     1      -2.359  -1.637   2.133  1.00  0.00     0.003 C 
HETATM   21  O3  UNL     1       4.947   1.516  -2.459  1.00  0.00    -0.291 OA
ENDROOT
BRANCH   1  22
HETATM   22  C1  UNL     1      -3.406  -2.412  -0.475  1.00  0.00     0.176 C 
HETATM   23  C24 UNL     1      -2.633  -3.637  -0.879  1.00  0.00     0.075 C 
HETATM   24  O4  UNL     1      -4.602  -2.461  -0.291  1.00  0.00    -0.294 OA
ENDBRANCH   1  22
BRANCH   1  25
HETATM   25  O1  UNL     1      -1.965  -0.854  -1.522  1.00  0.00    -0.300 OA
BRANCH  25  26
HETATM   26  C3  UNL     1      -2.795  -0.748  -2.555  1.00  0.00     0.273 C 
HETATM   27  C4  UNL     1      -2.182  -0.205  -3.817  1.00  0.00     0.106 C 
HETATM   28  O2  UNL     1      -3.963  -1.059  -2.514  1.00  0.00    -0.264 OA
ENDBRANCH  25  26
ENDBRANCH   1  25
TORSDOF 3
