REMARK  9 active torsions:
REMARK  status: ('A' for Active; 'I' for Inactive)
REMARK    1  A    between atoms: C5_5  and  C7_7 
REMARK    2  A    between atoms: C7_7  and  C8_8 
REMARK    3  A    between atoms: C10_12  and  C43_55 
REMARK    4  A    between atoms: C12_16  and  C13_17 
REMARK    5  A    between atoms: C13_17  and  C14_18 
REMARK    6  A    between atoms: C21_27  and  C22_28 
REMARK    7  A    between atoms: C26_34  and  C34_46 
REMARK    8  A    between atoms: C28_37  and  C31_42 
REMARK    9  A    between atoms: C34_46  and  C35_47 
ROOT
HETATM    1  C8  UNL     1      -2.617   0.682  -1.199  1.00  0.00     0.175 C 
HETATM    2  C9  UNL     1      -2.480  -0.738  -0.678  1.00  0.00     0.293 C 
HETATM    3  O1  UNL     1      -2.463  -1.627  -1.500  1.00  0.00    -0.262 OA
HETATM    4  O2  UNL     1      -2.393  -0.961   0.646  1.00  0.00    -0.293 OA
HETATM    5  C10 UNL     1      -2.594  -2.291   1.143  1.00  0.00     0.202 C 
HETATM    6  C11 UNL     1      -1.506  -3.262   0.707  1.00  0.00     0.262 C 
HETATM    7  O3  UNL     1      -1.689  -3.967  -0.260  1.00  0.00    -0.270 OA
HETATM    8  N1  UNL     1      -0.312  -3.356   1.402  1.00  0.00    -0.309 N 
HETATM    9  C12 UNL     1       0.748  -4.326   0.996  1.00  0.00     0.175 C 
HETATM   10  C20 UNL     1       1.650  -3.758  -0.076  1.00  0.00     0.293 C 
HETATM   11  O4  UNL     1       1.941  -4.463  -1.018  1.00  0.00    -0.262 OA
HETATM   12  O5  UNL     1       2.080  -2.494   0.068  1.00  0.00    -0.293 OA
HETATM   13  C21 UNL     1       2.811  -1.891  -1.006  1.00  0.00     0.202 C 
HETATM   14  C25 UNL     1       3.191  -0.484  -0.584  1.00  0.00     0.262 C 
HETATM   15  O6  UNL     1       4.344  -0.129  -0.676  1.00  0.00    -0.270 OA
HETATM   16  N2  UNL     1       2.231   0.383  -0.092  1.00  0.00    -0.309 N 
HETATM   17  C26 UNL     1       2.584   1.762   0.352  1.00  0.00     0.175 C 
HETATM   18  C27 UNL     1       1.350   2.576   0.674  1.00  0.00     0.293 C 
HETATM   19  O7  UNL     1       0.955   3.504  -0.209  1.00  0.00    -0.293 OA
HETATM   20  C28 UNL     1      -0.441   3.807  -0.252  1.00  0.00     0.202 C 
HETATM   21  C29 UNL     1      -1.156   2.717  -1.035  1.00  0.00     0.262 C 
HETATM   22  N3  UNL     1      -1.902   1.732  -0.410  1.00  0.00    -0.309 N 
HETATM   23  C30 UNL     1      -2.021   1.721   1.061  1.00  0.00     0.129 C 
HETATM   24  O8  UNL     1      -1.062   2.725  -2.242  1.00  0.00    -0.270 OA
HETATM   25  O9  UNL     1       0.762   2.356   1.711  1.00  0.00    -0.262 OA
HETATM   26  C41 UNL     1       0.824  -0.070  -0.004  1.00  0.00     0.129 C 
HETATM   27  C42 UNL     1      -0.066  -2.479   2.564  1.00  0.00     0.129 C 
ENDROOT
BRANCH   1  28
HETATM   28  C7  UNL     1      -4.100   1.051  -1.299  1.00  0.00     0.059 C 
BRANCH  28  29
HETATM   29  C5  UNL     1      -4.311   2.242  -2.162  1.00  0.00    -0.020 A 
HETATM   30  C4  UNL     1      -4.932   3.391  -1.639  1.00  0.00    -0.004 A 
HETATM   31  C3  UNL     1      -5.131   4.516  -2.457  1.00  0.00    -0.000 A 
HETATM   32  C2  UNL     1      -4.711   4.494  -3.797  1.00  0.00    -0.000 A 
HETATM   33  C1  UNL     1      -4.092   3.348  -4.322  1.00  0.00    -0.000 A 
HETATM   34  C6  UNL     1      -3.891   2.221  -3.504  1.00  0.00    -0.004 A 
ENDBRANCH  28  29
ENDBRANCH   1  28
BRANCH   5  35
HETATM   35  C43 UNL     1      -4.008  -2.773   0.785  1.00  0.00     0.037 C 
HETATM   36  C44 UNL     1      -4.988  -1.621   0.572  1.00  0.00     0.003 C 
HETATM   37  C45 UNL     1      -4.014  -3.773  -0.373  1.00  0.00     0.003 C 
ENDBRANCH   5  35
BRANCH  20  38
HETATM   38  C31 UNL     1      -0.607   5.170  -0.924  1.00  0.00     0.037 C 
HETATM   39  C32 UNL     1      -0.371   6.336   0.035  1.00  0.00     0.003 C 
HETATM   40  C33 UNL     1       0.203   5.295  -2.215  1.00  0.00     0.003 C 
ENDBRANCH  20  38
BRANCH   9  41
HETATM   41  C13 UNL     1       1.578  -4.789   2.199  1.00  0.00     0.059 C 
BRANCH  41  42
HETATM   42  C14 UNL     1       2.441  -5.949   1.853  1.00  0.00    -0.020 A 
HETATM   43  C15 UNL     1       3.809  -5.752   1.584  1.00  0.00    -0.004 A 
HETATM   44  C16 UNL     1       4.625  -6.850   1.258  1.00  0.00    -0.000 A 
HETATM   45  C17 UNL     1       4.076  -8.143   1.201  1.00  0.00    -0.000 A 
HETATM   46  C18 UNL     1       2.711  -8.338   1.471  1.00  0.00    -0.000 A 
HETATM   47  C19 UNL     1       1.895  -7.242   1.797  1.00  0.00    -0.004 A 
ENDBRANCH  41  42
ENDBRANCH   9  41
BRANCH  17  48
HETATM   48  C34 UNL     1       3.537   1.715   1.553  1.00  0.00     0.059 C 
BRANCH  48  49
HETATM   49  C35 UNL     1       3.750   3.066   2.135  1.00  0.00    -0.020 A 
HETATM   50  C36 UNL     1       3.348   3.336   3.455  1.00  0.00    -0.004 A 
HETATM   51  C37 UNL     1       3.549   4.613   4.004  1.00  0.00    -0.000 A 
HETATM   52  C38 UNL     1       4.152   5.623   3.234  1.00  0.00    -0.000 A 
HETATM   53  C39 UNL     1       4.555   5.356   1.916  1.00  0.00    -0.000 A 
HETATM   54  C40 UNL     1       4.354   4.078   1.365  1.00  0.00    -0.004 A 
ENDBRANCH  48  49
ENDBRANCH  17  48
BRANCH  13  55
HETATM   55  C22 UNL     1       1.973  -1.873  -2.293  1.00  0.00     0.037 C 
HETATM   56  C23 UNL     1       0.520  -2.287  -2.057  1.00  0.00     0.003 C 
HETATM   57  C24 UNL     1       2.094  -0.555  -3.061  1.00  0.00     0.003 C 
ENDBRANCH  13  55
TORSDOF 9
