REMARK  2 active torsions:
REMARK  status: ('A' for Active; 'I' for Inactive)
REMARK    1  A    between atoms: C1_1  and  C18_24 
REMARK    2  A    between atoms: C2_2  and  C17_21 
ROOT
HETATM    1  C1  UNL     1      -0.504  -1.631   0.055  1.00  0.00     0.070 A 
HETATM    2  C2  UNL     1      -1.881  -1.980   0.131  1.00  0.00     0.070 A 
HETATM    3  C3  UNL     1      -2.883  -0.990   0.129  1.00  0.00     0.006 A 
HETATM    4  C4  UNL     1      -2.524   0.369   0.049  1.00  0.00     0.002 A 
HETATM    5  C5  UNL     1      -1.147   0.742  -0.027  1.00  0.00     0.025 A 
HETATM    6  C6  UNL     1      -0.100  -0.246  -0.023  1.00  0.00     0.010 A 
HETATM    7  C7  UNL     1       1.320   0.252  -0.102  1.00  0.00     0.025 A 
HETATM    8  C8  UNL     1       1.514   1.672  -0.182  1.00  0.00     0.102 A 
HETATM    9  O1  UNL     1       0.469   2.520  -0.186  1.00  0.00    -0.305 OA
HETATM   10  C9  UNL     1      -0.816   2.125  -0.111  1.00  0.00     0.125 A 
HETATM   11  C10 UNL     1      -1.836   3.107  -0.115  1.00  0.00     0.154 A 
HETATM   12  C11 UNL     1      -3.193   2.725  -0.035  1.00  0.00     0.029 A 
HETATM   13  C12 UNL     1      -3.539   1.357   0.047  1.00  0.00     0.002 A 
HETATM   14  O2  UNL     1      -1.518   4.406  -0.195  1.00  0.00    -0.188 OA
HETATM   15  C13 UNL     1       2.809   2.231  -0.260  1.00  0.00     0.054 A 
HETATM   16  C14 UNL     1       3.945   1.398  -0.256  1.00  0.00     0.158 A 
HETATM   17  C15 UNL     1       3.785   0.000  -0.176  1.00  0.00     0.156 A 
HETATM   18  C16 UNL     1       2.492  -0.568  -0.100  1.00  0.00     0.032 A 
HETATM   19  O3  UNL     1       4.863  -0.797  -0.172  1.00  0.00    -0.188 OA
HETATM   20  O4  UNL     1       5.170   1.938  -0.328  1.00  0.00    -0.188 OA
ENDROOT
BRANCH   1  21
HETATM   21  C18 UNL     1       0.473  -2.740   0.059  1.00  0.00     0.211 C 
HETATM   22  O7  UNL     1       0.842  -2.938   1.320  1.00  0.00    -0.644 OA
HETATM   23  O8  UNL     1       0.893  -3.383  -0.875  1.00  0.00    -0.644 OA
ENDBRANCH   1  21
BRANCH   2  24
HETATM   24  C17 UNL     1      -2.289  -3.402   0.213  1.00  0.00     0.211 C 
HETATM   25  O5  UNL     1      -3.590  -3.459  -0.059  1.00  0.00    -0.644 OA
HETATM   26  O6  UNL     1      -1.613  -4.371   0.473  1.00  0.00    -0.644 OA
ENDBRANCH   2  24
TORSDOF 2
