REMARK  5 active torsions:
REMARK  status: ('A' for Active; 'I' for Inactive)
REMARK    1  A    between atoms: C3_3  and  O6_24 
REMARK    2  A    between atoms: C6_6  and  O1_7 
REMARK    3  A    between atoms: C9_11  and  C11_14 
REMARK    4  A    between atoms: C11_14  and  C12_15 
REMARK    5  A    between atoms: C15_18  and  O4_21 
ROOT
HETATM    1  C1  UNL     1       3.729  -1.338   1.391  1.00  0.00     0.153 A 
HETATM    2  C2  UNL     1       3.607   0.008   0.969  1.00  0.00     0.028 A 
HETATM    3  C3  UNL     1       2.326   0.598   0.844  1.00  0.00     0.097 A 
HETATM    4  C4  UNL     1       1.164  -0.162   1.141  1.00  0.00     0.081 A 
HETATM    5  C5  UNL     1       1.291  -1.502   1.604  1.00  0.00     0.123 A 
HETATM    6  C6  UNL     1       2.574  -2.092   1.705  1.00  0.00     0.141 A 
HETATM    7  O2  UNL     1       0.205  -2.228   1.947  1.00  0.00    -0.328 OA
HETATM    8  C8  UNL     1      -1.033  -1.574   2.244  1.00  0.00     0.157 C 
HETATM    9  C9  UNL     1      -1.365  -0.517   1.178  1.00  0.00     0.097 C 
HETATM   10  C10 UNL     1      -0.197   0.424   0.965  1.00  0.00     0.179 C 
HETATM   11  O3  UNL     1      -0.459   1.569   0.668  1.00  0.00    -0.291 OA
HETATM   12  C20 UNL     1       4.815   0.793   0.658  1.00  0.00     0.035 C 
HETATM   13  O7  UNL     1       4.940  -1.904   1.498  1.00  0.00    -0.188 OA
ENDROOT
BRANCH   9  14
HETATM   14  C11 UNL     1      -1.764  -1.168  -0.150  1.00  0.00     0.039 C 
BRANCH  14  15
HETATM   15  C12 UNL     1      -2.272  -0.164  -1.123  1.00  0.00     0.004 A 
HETATM   16  C13 UNL     1      -1.424   0.356  -2.121  1.00  0.00     0.129 A 
HETATM   17  C14 UNL     1      -1.922   1.303  -3.031  1.00  0.00     0.051 A 
HETATM   18  O5  UNL     1      -0.170  -0.043  -2.207  1.00  0.00    -0.190 OA
HETATM   19  C15 UNL     1      -3.256   1.737  -2.951  1.00  0.00     0.096 A 
HETATM   20  C16 UNL     1      -4.098   1.217  -1.953  1.00  0.00     0.024 A 
HETATM   21  C17 UNL     1      -3.607   0.268  -1.041  1.00  0.00    -0.000 A 
BRANCH  19  22
HETATM   22  O4  UNL     1      -3.717   2.627  -3.809  1.00  0.00    -0.328 OA
HETATM   23  C18 UNL     1      -5.088   2.985  -3.725  1.00  0.00     0.181 C 
ENDBRANCH  19  22
ENDBRANCH  14  15
ENDBRANCH   9  14
BRANCH   3  24
HETATM   24  O6  UNL     1       2.219   1.871   0.434  1.00  0.00    -0.328 OA
HETATM   25  C19 UNL     1       2.268   2.895   1.416  1.00  0.00     0.181 C 
ENDBRANCH   3  24
BRANCH   6  26
HETATM   26  O1  UNL     1       2.693  -3.363   2.111  1.00  0.00    -0.324 OA
HETATM   27  C7  UNL     1       1.766  -4.314   1.608  1.00  0.00     0.182 C 
ENDBRANCH   6  26
TORSDOF 5
