REMARK  10 active torsions:
REMARK  status: ('A' for Active; 'I' for Inactive)
REMARK    1  A    between atoms: C2_2  and  O2_23 
REMARK    2  A    between atoms: C15_15  and  C18_18 
REMARK    3  A    between atoms: O2_23  and  O3_24 
REMARK    4  A    between atoms: O3_24  and  C22_25 
REMARK    5  A    between atoms: C23_26  and  O13_45 
REMARK    6  A    between atoms: C25_28  and  O6_32 
REMARK    7  A    between atoms: O6_32  and  O7_33 
REMARK    8  A    between atoms: O7_33  and  C27_34 
REMARK    9  A    between atoms: O13_45  and  O14_46 
REMARK   10  A    between atoms: O14_46  and  C33_47 
ROOT
HETATM    1  C22 UNL     1       2.568   0.527  -0.018  1.00  0.00     0.304 C 
HETATM    2  C23 UNL     1       3.207   0.639  -1.426  1.00  0.00     0.244 C 
HETATM    3  C24 UNL     1       4.748   0.703  -1.336  1.00  0.00     0.223 C 
HETATM    4  C25 UNL     1       5.178   1.785  -0.318  1.00  0.00     0.244 C 
HETATM    5  C26 UNL     1       4.434   1.609   1.029  1.00  0.00     0.304 C 
HETATM    6  O4  UNL     1       3.031   1.590   0.805  1.00  0.00    -0.298 OA
HETATM    7  O5  UNL     1       4.729   2.682   1.900  1.00  0.00    -0.187 OA
HETATM    8  O12 UNL     1       5.293   1.000  -2.611  1.00  0.00    -0.218 OA
ENDROOT
BRANCH   1   9
HETATM    9  O3  UNL     1       1.160   0.611  -0.105  1.00  0.00    -0.190 OA
BRANCH   9  10
HETATM   10  O2  UNL     1       0.611   0.260   1.182  1.00  0.00    -0.221 OA
BRANCH  10  11
HETATM   11  C2  UNL     1      -0.797   0.350   1.096  1.00  0.00     0.156 C 
HETATM   12  C1  UNL     1      -1.320  -0.762   0.178  1.00  0.00     0.034 C 
HETATM   13  C6  UNL     1      -2.854  -0.729   0.113  1.00  0.00     0.006 C 
HETATM   14  C5  UNL     1      -3.535  -0.858   1.500  1.00  0.00     0.015 C 
HETATM   15  C4  UNL     1      -2.914   0.148   2.469  1.00  0.00    -0.046 C 
HETATM   16  C7  UNL     1      -5.076  -0.676   1.342  1.00  0.00     0.004 C 
HETATM   17  C21 UNL     1      -3.227  -2.242   2.092  1.00  0.00     0.004 C 
HETATM   18  C3  UNL     1      -1.399   0.242   2.506  1.00  0.00     0.055 C 
HETATM   19  C10 UNL     1      -3.652   0.932   3.287  1.00  0.00    -0.035 C 
HETATM   20  C9  UNL     1      -5.160   0.896   3.311  1.00  0.00     0.025 C 
HETATM   21  C8  UNL     1      -5.738  -0.391   2.701  1.00  0.00     0.005 C 
HETATM   22  C11 UNL     1      -7.276  -0.307   2.639  1.00  0.00     0.009 C 
HETATM   23  C12 UNL     1      -7.975  -1.416   1.813  1.00  0.00     0.022 C 
HETATM   24  C17 UNL     1      -7.918   0.965   2.057  1.00  0.00     0.026 C 
HETATM   25  C13 UNL     1      -7.262  -1.645   0.469  1.00  0.00     0.004 C 
HETATM   26  C15 UNL     1      -9.336  -0.818   1.557  1.00  0.00     0.008 C 
HETATM   27  C20 UNL     1      -8.039  -2.693   2.650  1.00  0.00     0.004 C 
HETATM   28  C14 UNL     1      -5.758  -1.873   0.652  1.00  0.00     0.001 C 
HETATM   29  C16 UNL     1      -9.301   0.514   1.684  1.00  0.00    -0.028 C 
BRANCH  26  30
HETATM   30  C18 UNL     1     -10.533  -1.602   1.215  1.00  0.00     0.169 C 
HETATM   31  C19 UNL     1     -11.858  -0.895   1.129  1.00  0.00     0.077 C 
HETATM   32  O1  UNL     1     -10.447  -2.789   1.006  1.00  0.00    -0.292 OA
ENDBRANCH  26  30
ENDBRANCH  10  11
ENDBRANCH   9  10
ENDBRANCH   1   9
BRANCH   2  33
HETATM   33  O13 UNL     1       2.828  -0.484  -2.205  1.00  0.00    -0.213 OA
BRANCH  33  34
HETATM   34  O14 UNL     1       1.523  -0.221  -2.764  1.00  0.00    -0.189 OA
BRANCH  34  35
HETATM   35  C33 UNL     1       1.148  -1.340  -3.543  1.00  0.00     0.303 C 
HETATM   36  C34 UNL     1      -0.117  -1.020  -4.379  1.00  0.00     0.244 C 
HETATM   37  C35 UNL     1      -0.629  -2.277  -5.115  1.00  0.00     0.220 C 
HETATM   38  O18 UNL     1       0.191  -0.012  -5.328  1.00  0.00    -0.215 OA
HETATM   39  C36 UNL     1      -0.758  -3.453  -4.121  1.00  0.00     0.212 C 
HETATM   40  O17 UNL     1      -1.891  -2.008  -5.705  1.00  0.00    -0.218 OA
HETATM   41  C37 UNL     1       0.545  -3.649  -3.311  1.00  0.00     0.151 C 
HETATM   42  O16 UNL     1      -1.035  -4.651  -4.828  1.00  0.00    -0.218 OA
HETATM   43  O15 UNL     1       0.885  -2.428  -2.668  1.00  0.00    -0.327 OA
HETATM   44  C38 UNL     1       0.408  -4.703  -2.209  1.00  0.00     0.035 C 
ENDBRANCH  34  35
ENDBRANCH  33  34
ENDBRANCH   2  33
BRANCH   4  45
HETATM   45  O6  UNL     1       6.576   1.697  -0.100  1.00  0.00    -0.213 OA
BRANCH  45  46
HETATM   46  O7  UNL     1       7.043   2.990   0.334  1.00  0.00    -0.189 OA
BRANCH  46  47
HETATM   47  C27 UNL     1       8.440   2.906   0.539  1.00  0.00     0.303 C 
HETATM   48  C28 UNL     1       8.961   4.180   1.250  1.00  0.00     0.244 C 
HETATM   49  C29 UNL     1      10.504   4.170   1.342  1.00  0.00     0.220 C 
HETATM   50  O11 UNL     1       8.414   4.246   2.557  1.00  0.00    -0.215 OA
HETATM   51  C30 UNL     1      11.113   3.875  -0.047  1.00  0.00     0.212 C 
HETATM   52  O10 UNL     1      10.965   5.428   1.811  1.00  0.00    -0.218 OA
HETATM   53  C31 UNL     1      10.483   2.613  -0.680  1.00  0.00     0.151 C 
HETATM   54  O9  UNL     1      12.510   3.672   0.074  1.00  0.00    -0.218 OA
HETATM   55  O8  UNL     1       9.070   2.766  -0.727  1.00  0.00    -0.327 OA
HETATM   56  C32 UNL     1      10.947   2.373  -2.119  1.00  0.00     0.035 C 
ENDBRANCH  46  47
ENDBRANCH  45  46
ENDBRANCH   4  45
TORSDOF 10
