REMARK  1 active torsions:
REMARK  status: ('A' for Active; 'I' for Inactive)
REMARK    1  A    between atoms: C17_17  and  C18_18 
ROOT
HETATM    1  C1  UNL     1      -5.608   0.453  -0.930  1.00  0.00     0.150 C 
HETATM    2  C2  UNL     1      -4.639   1.590  -1.162  1.00  0.00     0.065 C 
HETATM    3  C3  UNL     1      -3.748   1.818   0.064  1.00  0.00     0.008 C 
HETATM    4  C4  UNL     1      -2.910   0.572   0.463  1.00  0.00     0.001 C 
HETATM    5  C5  UNL     1      -3.676  -0.760   0.135  1.00  0.00     0.006 C 
HETATM    6  C6  UNL     1      -5.223  -0.588   0.105  1.00  0.00     0.051 C 
HETATM    7  C7  UNL     1      -5.733  -0.119   1.473  1.00  0.00     0.007 C 
HETATM    8  C8  UNL     1      -5.912  -1.922  -0.211  1.00  0.00     0.007 C 
HETATM    9  C9  UNL     1      -3.149  -1.424  -1.158  1.00  0.00     0.000 C 
HETATM   10  C10 UNL     1      -1.650  -1.764  -1.096  1.00  0.00     0.000 C 
HETATM   11  C11 UNL     1      -0.799  -0.752  -0.285  1.00  0.00     0.004 C 
HETATM   12  C12 UNL     1      -0.658  -1.279   1.156  1.00  0.00     0.000 C 
HETATM   13  C13 UNL     1       0.623  -0.580  -0.902  1.00  0.00     0.015 C 
HETATM   14  C14 UNL     1       0.520   0.058  -2.301  1.00  0.00     0.004 C 
HETATM   15  C15 UNL     1       1.352  -1.934  -1.025  1.00  0.00     0.004 C 
HETATM   16  C16 UNL     1       2.750  -1.742  -1.609  1.00  0.00     0.011 C 
HETATM   17  C17 UNL     1       3.668  -0.885  -0.705  1.00  0.00     0.082 C 
HETATM   18  C19 UNL     1       4.572  -0.006  -1.596  1.00  0.00     0.011 C 
HETATM   19  C20 UNL     1       5.656   0.758  -0.818  1.00  0.00     0.001 C 
HETATM   20  C21 UNL     1       5.260   1.070   0.637  1.00  0.00     0.000 C 
HETATM   21  C22 UNL     1       6.045   2.283   1.152  1.00  0.00     0.000 C 
HETATM   22  C23 UNL     1       3.736   1.254   0.793  1.00  0.00     0.004 C 
HETATM   23  C24 UNL     1       3.416   1.627   2.250  1.00  0.00     0.000 C 
HETATM   24  C25 UNL     1       2.893   0.017   0.328  1.00  0.00     0.028 C 
HETATM   25  C26 UNL     1       1.439   0.367  -0.033  1.00  0.00    -0.049 C 
HETATM   26  C27 UNL     1       0.832   1.486   0.430  1.00  0.00    -0.035 C 
HETATM   27  C28 UNL     1      -0.623   1.805   0.168  1.00  0.00     0.025 C 
HETATM   28  C29 UNL     1      -1.529   0.621  -0.271  1.00  0.00     0.005 C 
HETATM   29  C30 UNL     1      -2.690   0.635   1.986  1.00  0.00     0.000 C 
HETATM   30  O3  UNL     1      -6.647   0.389  -1.549  1.00  0.00    -0.296 OA
ENDROOT
BRANCH  17  31
HETATM   31  C18 UNL     1       4.549  -1.861   0.051  1.00  0.00     0.184 C 
HETATM   32  O1  UNL     1       5.719  -1.988  -0.230  1.00  0.00    -0.647 OA
HETATM   33  O2  UNL     1       3.941  -2.543   1.018  1.00  0.00    -0.647 OA
ENDBRANCH  17  31
TORSDOF 1
