REMARK  13 active torsions:
REMARK  status: ('A' for Active; 'I' for Inactive)
REMARK    1  A    between atoms: C2_2  and  C36_57 
REMARK    2  A    between atoms: C4_4  and  C13_20 
REMARK    3  A    between atoms: C6_6  and  C7_8 
REMARK    4  A    between atoms: C11_12  and  C12_14 
REMARK    5  A    between atoms: C13_20  and  C14_21 
REMARK    6  A    between atoms: C13_20  and  C35_53 
REMARK    7  A    between atoms: C16_23  and  C26_41 
REMARK    8  A    between atoms: C18_25  and  C20_29 
REMARK    9  A    between atoms: C24_33  and  C25_35 
REMARK   10  A    between atoms: C26_41  and  C27_42 
REMARK   11  A    between atoms: C28_43  and  C29_44 
REMARK   12  A    between atoms: C36_57  and  C37_58 
REMARK   13  A    between atoms: C38_59  and  C39_60 
ROOT
HETATM    1  C13 UNL     1       0.648   1.836   2.467  1.00  0.00     0.141 C 
ENDROOT
BRANCH   1   2
HETATM    2  C4  UNL     1       1.670   1.730   1.359  1.00  0.00     0.055 A 
HETATM    3  C3  UNL     1       2.148   0.398   0.959  1.00  0.00     0.199 A 
HETATM    4  C2  UNL     1       3.133   0.275  -0.131  1.00  0.00     0.102 A 
HETATM    5  O21 UNL     1       1.732  -0.590   1.522  1.00  0.00    -0.287 OA
HETATM    6  C1  UNL     1       3.607   1.379  -0.754  1.00  0.00     0.151 A 
HETATM    7  C6  UNL     1       3.164   2.779  -0.350  1.00  0.00     0.237 A 
HETATM    8  O24 UNL     1       4.488   1.242  -1.750  1.00  0.00    -0.192 OA
HETATM    9  C5  UNL     1       2.127   2.850   0.762  1.00  0.00     0.144 A 
HETATM   10  O1  UNL     1       4.309   3.484   0.088  1.00  0.00    -0.210 OA
HETATM   11  O7  UNL     1       1.656   4.037   1.150  1.00  0.00    -0.192 OA
BRANCH   4  12
HETATM   12  C36 UNL     1       3.596  -1.061  -0.543  1.00  0.00     0.201 C 
HETATM   13  O23 UNL     1       3.895  -1.887   0.289  1.00  0.00    -0.286 OA
BRANCH  12  14
HETATM   14  C37 UNL     1       3.689  -1.379  -1.973  1.00  0.00     0.042 C 
HETATM   15  C38 UNL     1       4.328  -2.484  -2.389  1.00  0.00     0.003 C 
BRANCH  15  16
HETATM   16  C39 UNL     1       4.396  -2.766  -3.854  1.00  0.00     0.000 A 
HETATM   17  C40 UNL     1       3.801  -1.879  -4.768  1.00  0.00     0.002 A 
HETATM   18  C41 UNL     1       3.867  -2.145  -6.147  1.00  0.00     0.027 A 
HETATM   19  C42 UNL     1       4.527  -3.293  -6.617  1.00  0.00     0.131 A 
HETATM   20  C43 UNL     1       5.123  -4.178  -5.699  1.00  0.00     0.027 A 
HETATM   21  O22 UNL     1       4.590  -3.541  -7.910  1.00  0.00    -0.190 OA
HETATM   22  C44 UNL     1       5.059  -3.916  -4.320  1.00  0.00     0.002 A 
ENDBRANCH  15  16
ENDBRANCH  12  14
ENDBRANCH   4  12
BRANCH   7  23
HETATM   23  C7  UNL     1       2.645   3.531  -1.586  1.00  0.00     0.188 C 
HETATM   24  C8  UNL     1       2.652   5.090  -1.471  1.00  0.00     0.215 C 
HETATM   25  C9  UNL     1       1.502   5.750  -2.262  1.00  0.00     0.218 C 
HETATM   26  O6  UNL     1       2.535   5.496  -0.119  1.00  0.00    -0.218 OA
HETATM   27  C10 UNL     1       0.131   5.104  -1.908  1.00  0.00     0.214 C 
HETATM   28  O5  UNL     1       1.756   5.561  -3.643  1.00  0.00    -0.218 OA
HETATM   29  C11 UNL     1       0.258   3.680  -1.301  1.00  0.00     0.181 C 
HETATM   30  O4  UNL     1      -0.537   5.922  -0.969  1.00  0.00    -0.218 OA
HETATM   31  O2  UNL     1       1.353   3.014  -1.910  1.00  0.00    -0.348 OA
BRANCH  29  32
HETATM   32  C12 UNL     1      -0.990   2.826  -1.543  1.00  0.00     0.214 C 
HETATM   33  O3  UNL     1      -0.670   1.484  -1.252  1.00  0.00    -0.218 OA
ENDBRANCH  29  32
ENDBRANCH   7  23
ENDBRANCH   1   2
BRANCH   1  34
HETATM   34  C14 UNL     1      -0.406   0.768   2.316  1.00  0.00     0.055 A 
HETATM   35  C15 UNL     1      -1.572   1.031   1.461  1.00  0.00     0.199 A 
HETATM   36  C16 UNL     1      -2.604  -0.008   1.289  1.00  0.00     0.102 A 
HETATM   37  O18 UNL     1      -1.682   2.100   0.898  1.00  0.00    -0.287 OA
HETATM   38  C17 UNL     1      -2.490  -1.195   1.924  1.00  0.00     0.151 A 
HETATM   39  C18 UNL     1      -1.316  -1.504   2.846  1.00  0.00     0.237 A 
HETATM   40  O15 UNL     1      -3.430  -2.129   1.740  1.00  0.00    -0.192 OA
HETATM   41  C19 UNL     1      -0.266  -0.406   2.965  1.00  0.00     0.144 A 
HETATM   42  O9  UNL     1      -1.834  -1.744   4.137  1.00  0.00    -0.210 OA
HETATM   43  O8  UNL     1       0.814  -0.609   3.725  1.00  0.00    -0.192 OA
BRANCH  36  44
HETATM   44  C26 UNL     1      -3.760   0.258   0.416  1.00  0.00     0.201 C 
HETATM   45  O17 UNL     1      -3.608   0.410  -0.773  1.00  0.00    -0.286 OA
BRANCH  44  46
HETATM   46  C27 UNL     1      -5.102   0.334   1.008  1.00  0.00     0.042 C 
HETATM   47  C28 UNL     1      -6.195   0.184   0.244  1.00  0.00     0.003 C 
BRANCH  47  48
HETATM   48  C29 UNL     1      -7.539   0.270   0.893  1.00  0.00     0.000 A 
HETATM   49  C30 UNL     1      -7.641   0.504   2.275  1.00  0.00     0.002 A 
HETATM   50  C31 UNL     1      -8.904   0.584   2.883  1.00  0.00     0.027 A 
HETATM   51  C32 UNL     1     -10.071   0.432   2.113  1.00  0.00     0.131 A 
HETATM   52  C33 UNL     1      -9.967   0.197   0.730  1.00  0.00     0.027 A 
HETATM   53  O16 UNL     1     -11.256   0.508   2.686  1.00  0.00    -0.190 OA
HETATM   54  C34 UNL     1      -8.705   0.115   0.119  1.00  0.00     0.002 A 
ENDBRANCH  47  48
ENDBRANCH  44  46
ENDBRANCH  36  44
BRANCH  39  55
HETATM   55  C20 UNL     1      -0.645  -2.809   2.404  1.00  0.00     0.188 C 
HETATM   56  C21 UNL     1       0.094  -3.551   3.545  1.00  0.00     0.215 C 
HETATM   57  C22 UNL     1       0.703  -4.883   3.037  1.00  0.00     0.218 C 
HETATM   58  O14 UNL     1       1.121  -2.725   4.070  1.00  0.00    -0.218 OA
HETATM   59  C23 UNL     1       0.920  -4.852   1.500  1.00  0.00     0.214 C 
HETATM   60  O13 UNL     1      -0.180  -5.945   3.348  1.00  0.00    -0.218 OA
HETATM   61  C24 UNL     1       1.271  -3.424   1.023  1.00  0.00     0.181 C 
HETATM   62  O12 UNL     1       1.965  -5.740   1.154  1.00  0.00    -0.218 OA
HETATM   63  O10 UNL     1       0.211  -2.506   1.299  1.00  0.00    -0.348 OA
BRANCH  61  64
HETATM   64  C25 UNL     1       1.561  -3.324  -0.479  1.00  0.00     0.214 C 
HETATM   65  O11 UNL     1       1.107  -2.070  -0.934  1.00  0.00    -0.218 OA
ENDBRANCH  61  64
ENDBRANCH  39  55
ENDBRANCH   1  34
BRANCH   1  66
HETATM   66  C35 UNL     1       1.316   1.732   3.811  1.00  0.00     0.194 C 
HETATM   67  O19 UNL     1       0.674   1.496   4.809  1.00  0.00    -0.647 OA
HETATM   68  O20 UNL     1       2.633   1.920   3.805  1.00  0.00    -0.647 OA
ENDBRANCH   1  66
TORSDOF 13
