REMARK  6 active torsions:
REMARK  status: ('A' for Active; 'I' for Inactive)
REMARK    1  A    between atoms: C1_1  and  C19_21 
REMARK    2  A    between atoms: C5_5  and  C7_7 
REMARK    3  A    between atoms: C7_7  and  C8_8 
REMARK    4  A    between atoms: C8_8  and  C9_9 
REMARK    5  A    between atoms: C9_9  and  O1_12 
REMARK    6  A    between atoms: O1_12  and  C12_13 
ROOT
HETATM    1  C1  UNL     1       0.844   1.379   0.039  1.00  0.00     0.005 A 
HETATM    2  C2  UNL     1       0.654   1.262   1.434  1.00  0.00    -0.004 A 
HETATM    3  C3  UNL     1       1.117   0.113   2.123  1.00  0.00    -0.000 A 
HETATM    4  C4  UNL     1       1.770  -0.932   1.404  1.00  0.00     0.086 A 
HETATM    5  C5  UNL     1       1.965  -0.801   0.006  1.00  0.00    -0.000 A 
HETATM    6  C6  UNL     1       1.502   0.350  -0.674  1.00  0.00    -0.004 A 
HETATM    7  O2  UNL     1       2.217  -2.045   2.027  1.00  0.00    -0.336 OA
HETATM    8  C14 UNL     1       1.836  -2.354   3.377  1.00  0.00     0.099 C 
HETATM    9  C15 UNL     1       1.848  -1.061   4.213  1.00  0.00     0.033 C 
HETATM   10  C16 UNL     1       0.924  -0.002   3.590  1.00  0.00     0.031 C 
HETATM   11  C17 UNL     1       2.846  -3.365   3.924  1.00  0.00     0.030 C 
HETATM   12  C18 UNL     1       0.440  -2.988   3.352  1.00  0.00     0.030 C 
ENDROOT
BRANCH   1  13
HETATM   13  C19 UNL     1       0.361   2.574  -0.672  1.00  0.00     0.151 C 
HETATM   14  C20 UNL     1       1.209   3.822  -0.369  1.00  0.00     0.104 C 
HETATM   15  C21 UNL     1       0.604   5.067  -0.982  1.00  0.00     0.178 C 
HETATM   16  C22 UNL     1      -0.885   5.092  -1.072  1.00  0.00     0.057 A 
HETATM   17  O5  UNL     1       1.363   5.936  -1.344  1.00  0.00    -0.291 OA
HETATM   18  C23 UNL     1      -1.551   6.258  -1.518  1.00  0.00     0.007 A 
HETATM   19  C30 UNL     1      -1.631   3.942  -0.697  1.00  0.00     0.095 A 
HETATM   20  C24 UNL     1      -2.963   6.293  -1.559  1.00  0.00     0.024 A 
HETATM   21  C25 UNL     1      -3.717   5.164  -1.158  1.00  0.00     0.092 A 
HETATM   22  O3  UNL     1      -5.066   5.240  -1.205  1.00  0.00    -0.336 OA
HETATM   23  C29 UNL     1      -3.049   3.986  -0.715  1.00  0.00     0.023 A 
HETATM   24  C26 UNL     1      -5.887   4.072  -1.070  1.00  0.00     0.099 C 
HETATM   25  C27 UNL     1      -5.301   3.170   0.031  1.00  0.00     0.033 C 
HETATM   26  C31 UNL     1      -5.926   3.348  -2.422  1.00  0.00     0.030 C 
HETATM   27  C32 UNL     1      -7.297   4.535  -0.699  1.00  0.00     0.030 C 
HETATM   28  C28 UNL     1      -3.840   2.807  -0.281  1.00  0.00     0.033 C 
HETATM   29  O4  UNL     1      -1.010   2.803  -0.322  1.00  0.00    -0.329 OA
ENDBRANCH   1  13
BRANCH   5  30
HETATM   30  C7  UNL     1       2.649  -1.865  -0.750  1.00  0.00     0.031 C 
BRANCH  30  31
HETATM   31  C8  UNL     1       1.701  -3.016  -1.086  1.00  0.00     0.032 C 
BRANCH  31  32
HETATM   32  C9  UNL     1       2.404  -4.172  -1.797  1.00  0.00     0.093 C 
HETATM   33  C10 UNL     1       1.441  -5.283  -2.213  1.00  0.00     0.030 C 
HETATM   34  C11 UNL     1       3.295  -3.703  -2.947  1.00  0.00     0.030 C 
BRANCH  32  35
HETATM   35  O1  UNL     1       3.234  -4.668  -0.771  1.00  0.00    -0.359 OA
BRANCH  35  36
HETATM   36  C12 UNL     1       4.008  -5.775  -1.170  1.00  0.00     0.142 C 
HETATM   37  C13 UNL     1       4.885  -6.197   0.010  1.00  0.00     0.035 C 
ENDBRANCH  35  36
ENDBRANCH  32  35
ENDBRANCH  31  32
ENDBRANCH  30  31
ENDBRANCH   5  30
TORSDOF 6
