REMARK  4 active torsions:
REMARK  status: ('A' for Active; 'I' for Inactive)
REMARK    1  A    between atoms: C4_5  and  C5_6 
REMARK    2  A    between atoms: C5_6  and  C6_7 
REMARK    3  A    between atoms: C6_7  and  C7_8 
REMARK    4  A    between atoms: C7_8  and  C8_9 
ROOT
HETATM    1  O1  UNL     1       2.594  -0.797  -1.086  1.00  0.00    -0.281 OA
HETATM    2  C1  UNL     1       3.852  -0.348  -0.967  1.00  0.00     0.280 A 
HETATM    3  C2  UNL     1       3.941   1.141  -0.781  1.00  0.00     0.124 A 
HETATM    4  C3  UNL     1       2.481   1.437  -0.822  1.00  0.00     0.005 A 
HETATM    5  C4  UNL     1       1.813   0.287  -0.996  1.00  0.00     0.077 A 
HETATM    6  O2  UNL     1       4.836  -1.047  -1.000  1.00  0.00    -0.264 OA
ENDROOT
BRANCH   5   7
HETATM    7  C5  UNL     1       0.309   0.246  -1.080  1.00  0.00     0.051 C 
BRANCH   7   8
HETATM    8  C6  UNL     1      -0.334  -0.223   0.227  1.00  0.00     0.007 C 
BRANCH   8   9
HETATM    9  C7  UNL     1      -1.861  -0.270   0.148  1.00  0.00     0.000 C 
BRANCH   9  10
HETATM   10  C8  UNL     1      -2.504  -0.738   1.453  1.00  0.00     0.000 C 
HETATM   11  C9  UNL     1      -4.031  -0.785   1.375  1.00  0.00     0.000 C 
ENDBRANCH   9  10
ENDBRANCH   8   9
ENDBRANCH   7   8
ENDBRANCH   5   7
TORSDOF 4
