REMARK  14 active torsions:
REMARK  status: ('A' for Active; 'I' for Inactive)
REMARK    1  A    between atoms: C2_2  and  O19_67 
REMARK    2  A    between atoms: C3_3  and  C47_63 
REMARK    3  A    between atoms: C3_3  and  C48_65 
REMARK    4  A    between atoms: C16_16  and  C25_26 
REMARK    5  A    between atoms: C25_26  and  C26_27 
REMARK    6  A    between atoms: C25_26  and  O15_58 
REMARK    7  A    between atoms: C27_28  and  O2_29 
REMARK    8  A    between atoms: O2_29  and  C28_30 
REMARK    9  A    between atoms: C30_33  and  O4_34 
REMARK   10  A    between atoms: O4_34  and  C31_35 
REMARK   11  A    between atoms: C33_38  and  O6_39 
REMARK   12  A    between atoms: O6_39  and  C34_40 
REMARK   13  A    between atoms: O19_67  and  C49_68 
REMARK   14  A    between atoms: C53_75  and  C54_77 
ROOT
HETATM    1  C1  UNL     1       6.625   3.344  -1.633  1.00  0.00     0.179 C 
HETATM    2  C2  UNL     1       6.934   2.020  -0.893  1.00  0.00     0.153 C 
HETATM    3  C3  UNL     1       6.129   1.826   0.422  1.00  0.00     0.089 C 
HETATM    4  C4  UNL     1       4.600   1.988   0.146  1.00  0.00     0.007 C 
HETATM    5  C5  UNL     1       4.234   3.322  -0.584  1.00  0.00     0.003 C 
HETATM    6  C6  UNL     1       5.108   3.500  -1.859  1.00  0.00     0.035 C 
HETATM    7  C7  UNL     1       2.692   3.379  -0.891  1.00  0.00     0.005 C 
HETATM    8  C8  UNL     1       2.106   2.147  -1.645  1.00  0.00     0.004 C 
HETATM    9  C9  UNL     1       2.475   0.887  -0.826  1.00  0.00     0.000 C 
HETATM   10  C10 UNL     1       3.988   0.768  -0.580  1.00  0.00     0.000 C 
HETATM   11  C11 UNL     1       0.559   2.336  -1.897  1.00  0.00     0.017 C 
HETATM   12  C12 UNL     1      -0.228   2.969  -0.754  1.00  0.00    -0.049 C 
HETATM   13  C13 UNL     1       0.397   3.518   0.307  1.00  0.00    -0.035 C 
HETATM   14  C14 UNL     1       1.895   3.596   0.424  1.00  0.00     0.025 C 
HETATM   15  C15 UNL     1      -1.754   2.992  -0.883  1.00  0.00     0.023 C 
HETATM   16  C16 UNL     1      -2.334   1.592  -1.217  1.00  0.00     0.062 C 
HETATM   17  C17 UNL     1      -1.627   1.004  -2.465  1.00  0.00     0.155 C 
HETATM   18  C18 UNL     1      -0.098   0.981  -2.293  1.00  0.00     0.037 C 
HETATM   19  O1  UNL     1      -1.955   1.725  -3.641  1.00  0.00    -0.223 OA
HETATM   20  C19 UNL     1      -3.865   1.688  -1.441  1.00  0.00     0.005 C 
HETATM   21  C20 UNL     1      -4.598   2.342  -0.262  1.00  0.00     0.000 C 
HETATM   22  C21 UNL     1      -4.041   3.738   0.066  1.00  0.00     0.000 C 
HETATM   23  C22 UNL     1      -2.518   3.652   0.293  1.00  0.00     0.004 C 
HETATM   24  C23 UNL     1      -4.719   4.272   1.336  1.00  0.00     0.000 C 
HETATM   25  C24 UNL     1      -4.346   4.709  -1.080  1.00  0.00     0.000 C 
HETATM   26  C44 UNL     1       0.377   3.354  -3.041  1.00  0.00     0.004 C 
HETATM   27  C45 UNL     1       2.736   1.959  -3.035  1.00  0.00     0.000 C 
HETATM   28  C46 UNL     1       4.561   4.516   0.334  1.00  0.00     0.000 C 
HETATM   29  O25 UNL     1       7.137   4.473  -0.947  1.00  0.00    -0.221 OA
ENDROOT
BRANCH  16  30
HETATM   30  C25 UNL     1      -2.086   0.645  -0.031  1.00  0.00     0.187 C 
BRANCH  30  31
HETATM   31  C26 UNL     1      -2.807   1.092   1.244  1.00  0.00     0.176 C 
HETATM   32  C27 UNL     1      -3.906   0.100   1.711  1.00  0.00     0.180 C 
HETATM   33  C41 UNL     1      -4.490   0.482   3.090  1.00  0.00     0.214 C 
HETATM   34  O12 UNL     1      -5.330   1.609   2.918  1.00  0.00    -0.218 OA
HETATM   35  C42 UNL     1      -3.385   0.857   4.104  1.00  0.00     0.214 C 
HETATM   36  O13 UNL     1      -2.758  -0.320   4.580  1.00  0.00    -0.218 OA
HETATM   37  C43 UNL     1      -2.318   1.793   3.488  1.00  0.00     0.178 C 
HETATM   38  O14 UNL     1      -1.826   1.266   2.260  1.00  0.00    -0.349 OA
BRANCH  32  39
HETATM   39  O2  UNL     1      -3.381  -1.217   1.779  1.00  0.00    -0.326 OA
BRANCH  39  40
HETATM   40  C28 UNL     1      -4.379  -2.217   1.752  1.00  0.00     0.270 C 
HETATM   41  C29 UNL     1      -3.734  -3.617   1.957  1.00  0.00     0.238 C 
HETATM   42  O3  UNL     1      -3.623  -3.846   3.352  1.00  0.00    -0.215 OA
HETATM   43  C30 UNL     1      -4.549  -4.752   1.283  1.00  0.00     0.189 C 
HETATM   44  C33 UNL     1      -6.029  -4.346   1.184  1.00  0.00     0.175 C 
HETATM   45  C39 UNL     1      -6.223  -2.998   0.422  1.00  0.00     0.148 C 
HETATM   46  O11 UNL     1      -5.055  -2.184   0.504  1.00  0.00    -0.329 OA
HETATM   47  C40 UNL     1      -6.525  -3.131  -1.078  1.00  0.00     0.035 C 
BRANCH  43  48
HETATM   48  O4  UNL     1      -4.404  -5.988   1.975  1.00  0.00    -0.299 OA
BRANCH  48  49
HETATM   49  C31 UNL     1      -3.193  -6.516   1.820  1.00  0.00     0.273 C 
HETATM   50  O5  UNL     1      -2.316  -6.008   1.164  1.00  0.00    -0.264 OA
HETATM   51  C32 UNL     1      -2.971  -7.822   2.533  1.00  0.00     0.106 C 
ENDBRANCH  48  49
ENDBRANCH  43  48
BRANCH  44  52
HETATM   52  O6  UNL     1      -6.781  -5.385   0.582  1.00  0.00    -0.326 OA
BRANCH  52  53
HETATM   53  C34 UNL     1      -8.174  -5.258   0.789  1.00  0.00     0.270 C 
HETATM   54  C35 UNL     1      -8.938  -6.141  -0.232  1.00  0.00     0.241 C 
HETATM   55  O7  UNL     1     -10.297  -5.734  -0.256  1.00  0.00    -0.215 OA
HETATM   56  C36 UNL     1      -8.805  -7.643   0.123  1.00  0.00     0.220 C 
HETATM   57  O8  UNL     1      -9.576  -8.463  -0.740  1.00  0.00    -0.218 OA
HETATM   58  C37 UNL     1      -9.111  -7.920   1.613  1.00  0.00     0.215 C 
HETATM   59  O9  UNL     1     -10.498  -7.803   1.895  1.00  0.00    -0.218 OA
HETATM   60  C38 UNL     1      -8.328  -6.943   2.520  1.00  0.00     0.181 C 
HETATM   61  O10 UNL     1      -8.539  -5.586   2.131  1.00  0.00    -0.326 OA
ENDBRANCH  52  53
ENDBRANCH  44  52
ENDBRANCH  39  40
ENDBRANCH  32  39
ENDBRANCH  30  31
BRANCH  30  62
HETATM   62  O15 UNL     1      -0.701   0.619   0.230  1.00  0.00    -0.189 OA
HETATM   63  O16 UNL     1      -0.365  -0.691   0.730  1.00  0.00    -0.035 OA
ENDBRANCH  30  62
ENDBRANCH  16  30
BRANCH   3  64
HETATM   64  C47 UNL     1       6.412   0.432   1.004  1.00  0.00     0.187 C 
HETATM   65  O17 UNL     1       7.811   0.266   1.086  1.00  0.00    -0.221 OA
ENDBRANCH   3  64
BRANCH   3  66
HETATM   66  C48 UNL     1       6.580   2.828   1.494  1.00  0.00     0.187 C 
HETATM   67  O18 UNL     1       7.928   2.561   1.811  1.00  0.00    -0.221 OA
ENDBRANCH   3  66
BRANCH   2  68
HETATM   68  O19 UNL     1       8.328   1.895  -0.662  1.00  0.00    -0.329 OA
BRANCH  68  69
HETATM   69  C49 UNL     1       9.112   2.225  -1.791  1.00  0.00     0.270 C 
HETATM   70  C50 UNL     1      10.625   2.299  -1.404  1.00  0.00     0.241 C 
HETATM   71  O20 UNL     1      11.209   3.445  -2.006  1.00  0.00    -0.215 OA
HETATM   72  C51 UNL     1      11.418   1.000  -1.725  1.00  0.00     0.220 C 
HETATM   73  O21 UNL     1      12.008   1.037  -3.022  1.00  0.00    -0.218 OA
HETATM   74  C52 UNL     1      10.455  -0.203  -1.650  1.00  0.00     0.215 C 
HETATM   75  O22 UNL     1      11.137  -1.422  -1.902  1.00  0.00    -0.218 OA
HETATM   76  C53 UNL     1       9.237  -0.062  -2.606  1.00  0.00     0.184 C 
HETATM   77  O23 UNL     1       8.912   1.307  -2.867  1.00  0.00    -0.326 OA
BRANCH  76  78
HETATM   78  C54 UNL     1       7.988  -0.770  -2.066  1.00  0.00     0.214 C 
HETATM   79  O24 UNL     1       6.965  -0.656  -3.029  1.00  0.00    -0.218 OA
ENDBRANCH  76  78
ENDBRANCH  68  69
ENDBRANCH   2  68
TORSDOF 14
