REMARK  2 active torsions:
REMARK  status: ('A' for Active; 'I' for Inactive)
REMARK    1  A    between atoms: C1_1  and  O4_19 
REMARK    2  A    between atoms: C3_3  and  O2_16 
ROOT
HETATM    1  C1  UNL     1      -2.789   0.031   0.285  1.00  0.00     0.121 A 
HETATM    2  C2  UNL     1      -2.057   1.221   0.473  1.00  0.00     0.175 A 
HETATM    3  C3  UNL     1      -0.641   1.213   0.418  1.00  0.00     0.121 A 
HETATM    4  C4  UNL     1       0.080  -0.006   0.168  1.00  0.00     0.025 A 
HETATM    5  C5  UNL     1      -0.697  -1.203  -0.023  1.00  0.00     0.004 A 
HETATM    6  C6  UNL     1      -2.113  -1.176   0.035  1.00  0.00     0.026 A 
HETATM    7  C7  UNL     1      -0.074  -2.447  -0.277  1.00  0.00     0.000 A 
HETATM    8  C8  UNL     1       1.326  -2.539  -0.348  1.00  0.00     0.000 A 
HETATM    9  C9  UNL     1       2.123  -1.387  -0.164  1.00  0.00     0.002 A 
HETATM   10  C10 UNL     1       1.522  -0.105   0.096  1.00  0.00     0.002 A 
HETATM   11  C11 UNL     1       2.406   1.006   0.271  1.00  0.00     0.002 A 
HETATM   12  C12 UNL     1       3.809   0.852   0.189  1.00  0.00     0.027 A 
HETATM   13  C13 UNL     1       4.371  -0.414  -0.068  1.00  0.00     0.131 A 
HETATM   14  C14 UNL     1       3.533  -1.533  -0.246  1.00  0.00     0.027 A 
HETATM   15  O1  UNL     1       5.703  -0.553  -0.145  1.00  0.00    -0.190 OA
HETATM   16  O3  UNL     1      -2.711   2.367   0.709  1.00  0.00    -0.186 OA
ENDROOT
BRANCH   1  17
HETATM   17  O4  UNL     1      -4.129   0.049   0.340  1.00  0.00    -0.326 OA
HETATM   18  C16 UNL     1      -4.822  -1.160   0.066  1.00  0.00     0.181 C 
ENDBRANCH   1  17
BRANCH   3  19
HETATM   19  O2  UNL     1      -0.045   2.397   0.607  1.00  0.00    -0.326 OA
HETATM   20  C15 UNL     1      -0.283   3.426  -0.342  1.00  0.00     0.181 C 
ENDBRANCH   3  19
TORSDOF 2
