REMARK  3 active torsions:
REMARK  status: ('A' for Active; 'I' for Inactive)
REMARK    1  A    between atoms: C1_1  and  C10_14 
REMARK    2  A    between atoms: C10_14  and  C11_15 
REMARK    3  A    between atoms: C11_15  and  C12_16 
ROOT
HETATM    1  C1  UNL     1       0.371   0.422   0.303  1.00  0.00     0.081 A 
HETATM    2  C2  UNL     1       0.676   1.717   0.525  1.00  0.00     0.062 A 
HETATM    3  C3  UNL     1      -0.393   2.715   0.475  1.00  0.00     0.195 A 
HETATM    4  O1  UNL     1      -0.170   3.887   0.672  1.00  0.00    -0.287 OA
HETATM    5  C4  UNL     1      -1.736   2.211   0.178  1.00  0.00     0.038 A 
HETATM    6  C5  UNL     1      -2.924   3.154   0.100  1.00  0.00     0.067 C 
HETATM    7  C6  UNL     1      -4.274   2.566   0.586  1.00  0.00     0.187 C 
HETATM    8  C7  UNL     1      -4.285   1.014   0.723  1.00  0.00     0.189 C 
HETATM    9  C8  UNL     1      -3.303   0.387  -0.281  1.00  0.00     0.087 C 
HETATM   10  C9  UNL     1      -1.897   0.881  -0.024  1.00  0.00     0.079 A 
HETATM   11  O2  UNL     1      -0.879  -0.020   0.012  1.00  0.00    -0.316 OA
HETATM   12  O3  UNL     1      -3.918   0.580   2.027  1.00  0.00    -0.220 OA
HETATM   13  O4  UNL     1      -4.695   3.215   1.779  1.00  0.00    -0.220 OA
ENDROOT
BRANCH   1  14
HETATM   14  C10 UNL     1       1.500  -0.572   0.387  1.00  0.00     0.056 C 
BRANCH  14  15
HETATM   15  C11 UNL     1       2.002  -1.002  -0.992  1.00  0.00     0.033 C 
BRANCH  15  16
HETATM   16  C12 UNL     1       3.121  -1.977  -0.887  1.00  0.00    -0.022 A 
HETATM   17  C13 UNL     1       4.451  -1.522  -0.854  1.00  0.00    -0.004 A 
HETATM   18  C14 UNL     1       5.508  -2.443  -0.754  1.00  0.00    -0.000 A 
HETATM   19  C15 UNL     1       5.234  -3.820  -0.690  1.00  0.00    -0.000 A 
HETATM   20  C16 UNL     1       3.906  -4.275  -0.723  1.00  0.00    -0.000 A 
HETATM   21  C17 UNL     1       2.850  -3.356  -0.822  1.00  0.00    -0.004 A 
ENDBRANCH  15  16
ENDBRANCH  14  15
ENDBRANCH   1  14
TORSDOF 3
