REMARK  7 active torsions:
REMARK  status: ('A' for Active; 'I' for Inactive)
REMARK    1  A    between atoms: C2_2  and  O7_21 
REMARK    2  A    between atoms: C4_4  and  O3_9 
REMARK    3  A    between atoms: C5_6  and  C6_7 
REMARK    4  A    between atoms: O3_9  and  C7_10 
REMARK    5  A    between atoms: C7_10  and  C8_11 
REMARK    6  A    between atoms: C8_11  and  C9_12 
REMARK    7  A    between atoms: O7_21  and  C15_22 
ROOT
HETATM    1  C1  UNL     1       1.393  -0.291  -0.807  1.00  0.00     0.211 C 
HETATM    2  C2  UNL     1       0.348   0.842  -1.002  1.00  0.00     0.186 C 
HETATM    3  C3  UNL     1      -1.000   0.488  -0.316  1.00  0.00     0.238 C 
HETATM    4  C4  UNL     1      -0.775  -0.551   0.813  1.00  0.00     0.270 C 
HETATM    5  O1  UNL     1      -0.205  -1.771   0.334  1.00  0.00    -0.326 OA
HETATM    6  C5  UNL     1       0.709  -1.676  -0.760  1.00  0.00     0.184 C 
HETATM    7  O6  UNL     1      -1.900  -0.020  -1.289  1.00  0.00    -0.215 OA
HETATM    8  O12 UNL     1       2.324  -0.256  -1.875  1.00  0.00    -0.218 OA
ENDROOT
BRANCH   2   9
HETATM    9  O7  UNL     1       0.861   2.033  -0.430  1.00  0.00    -0.326 OA
BRANCH   9  10
HETATM   10  C15 UNL     1       1.938   2.584  -1.162  1.00  0.00     0.270 C 
HETATM   11  C16 UNL     1       1.881   4.135  -1.127  1.00  0.00     0.241 C 
HETATM   12  C17 UNL     1       3.129   4.770  -1.791  1.00  0.00     0.220 C 
HETATM   13  O11 UNL     1       0.693   4.609  -1.746  1.00  0.00    -0.215 OA
HETATM   14  C18 UNL     1       4.412   4.137  -1.213  1.00  0.00     0.212 C 
HETATM   15  O10 UNL     1       3.123   4.541  -3.191  1.00  0.00    -0.218 OA
HETATM   16  C19 UNL     1       4.342   2.588  -1.223  1.00  0.00     0.151 C 
HETATM   17  O9  UNL     1       4.594   4.611   0.111  1.00  0.00    -0.218 OA
HETATM   18  O8  UNL     1       3.154   2.135  -0.578  1.00  0.00    -0.329 OA
HETATM   19  C20 UNL     1       5.533   1.918  -0.529  1.00  0.00     0.035 C 
ENDBRANCH   9  10
ENDBRANCH   2   9
BRANCH   6  20
HETATM   20  C6  UNL     1       1.686  -2.848  -0.619  1.00  0.00     0.214 C 
HETATM   21  O2  UNL     1       0.963  -4.047  -0.783  1.00  0.00    -0.218 OA
ENDBRANCH   6  20
BRANCH   4  22
HETATM   22  O3  UNL     1      -1.973  -0.814   1.514  1.00  0.00    -0.329 OA
BRANCH  22  23
HETATM   23  C7  UNL     1      -1.779  -1.594   2.672  1.00  0.00     0.150 C 
BRANCH  23  24
HETATM   24  C8  UNL     1      -3.125  -1.738   3.383  1.00  0.00     0.059 C 
BRANCH  24  25
HETATM   25  C9  UNL     1      -4.088  -2.533   2.576  1.00  0.00    -0.018 A 
HETATM   26  C10 UNL     1      -4.000  -3.936   2.557  1.00  0.00    -0.002 A 
HETATM   27  C11 UNL     1      -4.912  -4.684   1.793  1.00  0.00     0.029 A 
HETATM   28  C12 UNL     1      -5.912  -4.035   1.047  1.00  0.00     0.156 A 
HETATM   29  C13 UNL     1      -5.998  -2.631   1.065  1.00  0.00     0.156 A 
HETATM   30  O5  UNL     1      -6.762  -4.744   0.332  1.00  0.00    -0.188 OA
HETATM   31  C14 UNL     1      -5.086  -1.883   1.830  1.00  0.00     0.025 A 
HETATM   32  O4  UNL     1      -6.934  -2.014   0.369  1.00  0.00    -0.188 OA
ENDBRANCH  24  25
ENDBRANCH  23  24
ENDBRANCH  22  23
ENDBRANCH   4  22
TORSDOF 7
