REMARK  7 active torsions:
REMARK  status: ('A' for Active; 'I' for Inactive)
REMARK    1  A    between atoms: C4_4  and  O7_18 
REMARK    2  A    between atoms: C5_6  and  C6_7 
REMARK    3  A    between atoms: C6_7  and  O2_8 
REMARK    4  A    between atoms: O2_8  and  C7_9 
REMARK    5  A    between atoms: O7_18  and  C12_19 
REMARK    6  A    between atoms: C12_19  and  C13_20 
REMARK    7  A    between atoms: C14_21  and  C15_22 
ROOT
HETATM    1  C1  UNL     1      -1.154   3.889   0.461  1.00  0.00     0.215 C 
HETATM    2  C2  UNL     1      -2.461   3.883  -0.363  1.00  0.00     0.220 C 
HETATM    3  C3  UNL     1      -3.109   2.481  -0.316  1.00  0.00     0.241 C 
HETATM    4  C4  UNL     1      -2.080   1.379  -0.672  1.00  0.00     0.270 C 
HETATM    5  O1  UNL     1      -0.941   1.492   0.170  1.00  0.00    -0.326 OA
HETATM    6  C5  UNL     1      -0.231   2.717   0.057  1.00  0.00     0.180 C 
HETATM    7  O8  UNL     1      -4.190   2.432  -1.234  1.00  0.00    -0.215 OA
HETATM    8  O9  UNL     1      -3.361   4.848   0.156  1.00  0.00    -0.218 OA
HETATM    9  O10 UNL     1      -0.461   5.106   0.254  1.00  0.00    -0.218 OA
ENDROOT
BRANCH   6  10
HETATM   10  C6  UNL     1       1.004   2.594   0.957  1.00  0.00     0.177 C 
BRANCH  10  11
HETATM   11  O2  UNL     1       1.855   1.615   0.408  1.00  0.00    -0.326 OA
BRANCH  11  12
HETATM   12  C7  UNL     1       3.010   1.377   1.190  1.00  0.00     0.270 C 
HETATM   13  C8  UNL     1       3.781   0.141   0.656  1.00  0.00     0.241 C 
HETATM   14  C9  UNL     1       5.121  -0.035   1.408  1.00  0.00     0.220 C 
HETATM   15  O6  UNL     1       2.986  -1.021   0.834  1.00  0.00    -0.215 OA
HETATM   16  C10 UNL     1       5.920   1.289   1.420  1.00  0.00     0.215 C 
HETATM   17  O5  UNL     1       5.893  -1.086   0.848  1.00  0.00    -0.218 OA
HETATM   18  C11 UNL     1       5.031   2.453   1.908  1.00  0.00     0.181 C 
HETATM   19  O4  UNL     1       6.418   1.605   0.129  1.00  0.00    -0.218 OA
HETATM   20  O3  UNL     1       3.836   2.533   1.139  1.00  0.00    -0.326 OA
ENDBRANCH  11  12
ENDBRANCH  10  11
ENDBRANCH   6  10
BRANCH   4  21
HETATM   21  O7  UNL     1      -2.645   0.096  -0.486  1.00  0.00    -0.324 OA
BRANCH  21  22
HETATM   22  C12 UNL     1      -1.826  -0.945  -0.969  1.00  0.00     0.171 C 
BRANCH  22  23
HETATM   23  C13 UNL     1      -2.551  -2.258  -0.834  1.00  0.00     0.006 C 
HETATM   24  C14 UNL     1      -2.129  -3.301  -1.568  1.00  0.00    -0.002 C 
BRANCH  24  25
HETATM   25  C15 UNL     1      -2.846  -4.604  -1.437  1.00  0.00    -0.000 A 
HETATM   26  C16 UNL     1      -2.152  -5.813  -1.641  1.00  0.00    -0.000 A 
HETATM   27  C17 UNL     1      -2.828  -7.039  -1.516  1.00  0.00    -0.000 A 
HETATM   28  C18 UNL     1      -4.195  -7.061  -1.189  1.00  0.00    -0.000 A 
HETATM   29  C19 UNL     1      -4.887  -5.856  -0.988  1.00  0.00    -0.000 A 
HETATM   30  C20 UNL     1      -4.215  -4.627  -1.111  1.00  0.00    -0.000 A 
ENDBRANCH  24  25
ENDBRANCH  22  23
ENDBRANCH  21  22
ENDBRANCH   4  21
TORSDOF 7
