REMARK  7 active torsions:
REMARK  status: ('A' for Active; 'I' for Inactive)
REMARK    1  A    between atoms: C5_5  and  C9_9 
REMARK    2  A    between atoms: C10_10  and  C11_11 
REMARK    3  A    between atoms: C11_11  and  O1_13 
REMARK    4  A    between atoms: O1_13  and  C13_14 
REMARK    5  A    between atoms: C17_21  and  C18_23 
REMARK    6  A    between atoms: C18_23  and  O6_24 
REMARK    7  A    between atoms: O6_24  and  C19_25 
ROOT
HETATM    1  C13 UNL     1      -0.690  -0.135  -2.838  1.00  0.00     0.270 C 
HETATM    2  C14 UNL     1      -2.151  -0.277  -3.340  1.00  0.00     0.241 C 
HETATM    3  O2  UNL     1      -2.569   0.967  -3.873  1.00  0.00    -0.215 OA
HETATM    4  C15 UNL     1      -3.127  -0.709  -2.213  1.00  0.00     0.220 C 
HETATM    5  O3  UNL     1      -3.340  -2.107  -2.287  1.00  0.00    -0.218 OA
HETATM    6  C16 UNL     1      -2.563  -0.363  -0.811  1.00  0.00     0.215 C 
HETATM    7  O4  UNL     1      -3.637  -0.168   0.090  1.00  0.00    -0.218 OA
HETATM    8  C17 UNL     1      -1.693   0.912  -0.867  1.00  0.00     0.180 C 
HETATM    9  O5  UNL     1      -0.551   0.729  -1.705  1.00  0.00    -0.326 OA
ENDROOT
BRANCH   1  10
HETATM   10  O1  UNL     1      -0.188  -1.416  -2.514  1.00  0.00    -0.327 OA
BRANCH  10  11
HETATM   11  C11 UNL     1       1.213  -1.437  -2.355  1.00  0.00     0.140 C 
HETATM   12  C12 UNL     1       1.851  -1.553  -3.740  1.00  0.00     0.037 C 
BRANCH  11  13
HETATM   13  C10 UNL     1       1.598  -2.576  -1.449  1.00  0.00    -0.001 C 
HETATM   14  C9  UNL     1       2.162  -2.291  -0.264  1.00  0.00    -0.025 C 
BRANCH  14  15
HETATM   15  C5  UNL     1       2.547  -3.436   0.645  1.00  0.00     0.040 C 
HETATM   16  C4  UNL     1       4.033  -3.389   0.973  1.00  0.00    -0.037 C 
HETATM   17  C3  UNL     1       4.506  -3.906   2.125  1.00  0.00     0.029 C 
HETATM   18  C24 UNL     1       4.994  -2.758  -0.006  1.00  0.00     0.027 C 
HETATM   19  C2  UNL     1       3.627  -4.537   3.127  1.00  0.00     0.172 C 
HETATM   20  C1  UNL     1       2.146  -4.623   2.836  1.00  0.00     0.070 C 
HETATM   21  O11 UNL     1       4.086  -4.971   4.158  1.00  0.00    -0.291 OA
HETATM   22  C6  UNL     1       1.662  -3.482   1.918  1.00  0.00     0.015 C 
HETATM   23  C7  UNL     1       1.738  -2.148   2.678  1.00  0.00     0.001 C 
HETATM   24  C8  UNL     1       0.199  -3.734   1.535  1.00  0.00     0.001 C 
ENDBRANCH  14  15
ENDBRANCH  11  13
ENDBRANCH  10  11
ENDBRANCH   1  10
BRANCH   8  25
HETATM   25  C18 UNL     1      -1.162   1.359   0.498  1.00  0.00     0.177 C 
BRANCH  25  26
HETATM   26  O6  UNL     1      -0.549   2.619   0.342  1.00  0.00    -0.326 OA
BRANCH  26  27
HETATM   27  C19 UNL     1      -1.320   3.682   0.859  1.00  0.00     0.270 C 
HETATM   28  C20 UNL     1      -0.524   5.016   0.762  1.00  0.00     0.241 C 
HETATM   29  O7  UNL     1       0.279   5.139   1.920  1.00  0.00    -0.215 OA
HETATM   30  C21 UNL     1      -1.436   6.272   0.648  1.00  0.00     0.220 C 
HETATM   31  O8  UNL     1      -1.578   6.610  -0.721  1.00  0.00    -0.218 OA
HETATM   32  C22 UNL     1      -2.848   6.002   1.213  1.00  0.00     0.215 C 
HETATM   33  O9  UNL     1      -2.752   5.932   2.625  1.00  0.00    -0.218 OA
HETATM   34  C23 UNL     1      -3.488   4.688   0.686  1.00  0.00     0.181 C 
HETATM   35  O10 UNL     1      -2.527   3.797   0.123  1.00  0.00    -0.326 OA
ENDBRANCH  26  27
ENDBRANCH  25  26
ENDBRANCH   8  25
TORSDOF 7
