REMARK  0 active torsions:
REMARK  status: ('A' for Active; 'I' for Inactive)
ROOT
HETATM    1  C1  UNL     1      -3.277   0.164   0.119  1.00  0.00     0.004 C 
HETATM    2  C2  UNL     1      -2.508   1.504   0.170  1.00  0.00     0.021 C 
HETATM    3  C3  UNL     1      -1.039   1.414   0.535  1.00  0.00    -0.052 C 
HETATM    4  C4  UNL     1      -0.344   0.258   0.459  1.00  0.00    -0.053 C 
HETATM    5  C5  UNL     1      -1.018  -1.004  -0.059  1.00  0.00     0.015 C 
HETATM    6  C6  UNL     1      -2.437  -1.053   0.537  1.00  0.00     0.004 C 
HETATM    7  C7  UNL     1      -0.236  -2.273   0.348  1.00  0.00     0.004 C 
HETATM    8  C8  UNL     1       1.242  -2.238  -0.074  1.00  0.00     0.001 C 
HETATM    9  C9  UNL     1       1.932  -1.062   0.617  1.00  0.00     0.004 A 
HETATM   10  C10 UNL     1       1.117   0.186   0.904  1.00  0.00     0.018 A 
HETATM   11  C11 UNL     1       2.254   0.240  -0.100  1.00  0.00     0.004 A 
HETATM   12  C12 UNL     1       3.525   0.963   0.330  1.00  0.00     0.000 C 
HETATM   13  C13 UNL     1       1.912   0.395  -1.578  1.00  0.00     0.000 C 
HETATM   14  C14 UNL     1      -1.084  -0.928  -1.592  1.00  0.00     0.004 C 
HETATM   15  C15 UNL     1      -0.373   2.684   1.006  1.00  0.00     0.026 C 
ENDROOT
TORSDOF 0
