REMARK  2 active torsions:
REMARK  status: ('A' for Active; 'I' for Inactive)
REMARK    1  A    between atoms: C3_3  and  C20_21 
REMARK    2  A    between atoms: C12_12  and  C16_17 
ROOT
HETATM    1  C1  UNL     1       2.928   1.221   0.488  1.00  0.00     0.153 C 
HETATM    2  C2  UNL     1       3.740  -0.096   0.443  1.00  0.00     0.043 C 
HETATM    3  C3  UNL     1       2.971  -1.316  -0.137  1.00  0.00     0.081 C 
HETATM    4  C4  UNL     1       1.445  -1.115   0.051  1.00  0.00     0.014 C 
HETATM    5  C5  UNL     1       0.889   0.115  -0.725  1.00  0.00     0.007 C 
HETATM    6  C6  UNL     1       1.877   1.317  -0.633  1.00  0.00     0.033 C 
HETATM    7  C7  UNL     1      -0.510   0.432  -0.121  1.00  0.00     0.021 C 
HETATM    8  C8  UNL     1      -1.398  -0.807  -0.027  1.00  0.00    -0.048 C 
HETATM    9  C9  UNL     1      -0.902  -2.064  -0.078  1.00  0.00    -0.035 C 
HETATM   10  C10 UNL     1       0.574  -2.353  -0.240  1.00  0.00     0.026 C 
HETATM   11  C11 UNL     1      -2.895  -0.594   0.121  1.00  0.00     0.028 C 
HETATM   12  C12 UNL     1      -3.256   0.799   0.680  1.00  0.00     0.051 C 
HETATM   13  C13 UNL     1      -2.629   1.922  -0.201  1.00  0.00     0.156 C 
HETATM   14  C14 UNL     1      -1.293   1.526  -0.885  1.00  0.00     0.037 C 
HETATM   15  O1  UNL     1      -3.525   2.322  -1.227  1.00  0.00    -0.223 OA
HETATM   16  C15 UNL     1      -4.783   0.926   0.814  1.00  0.00     0.007 C 
HETATM   17  C18 UNL     1       0.709  -0.232  -2.217  1.00  0.00     0.000 C 
HETATM   18  C19 UNL     1       3.313  -1.504  -1.621  1.00  0.00     0.011 C 
HETATM   19  O4  UNL     1       2.283   1.356   1.740  1.00  0.00    -0.223 OA
ENDROOT
BRANCH   3  20
HETATM   20  C20 UNL     1       3.441  -2.566   0.568  1.00  0.00     0.184 C 
HETATM   21  O2  UNL     1       3.856  -2.523   1.703  1.00  0.00    -0.647 OA
HETATM   22  O3  UNL     1       3.361  -3.684  -0.146  1.00  0.00    -0.647 OA
ENDBRANCH   3  20
BRANCH  12  23
HETATM   23  C16 UNL     1      -2.729   0.908   2.092  1.00  0.00    -0.024 C 
HETATM   24  C17 UNL     1      -2.982   2.029   2.785  1.00  0.00    -0.005 C 
ENDBRANCH  12  23
TORSDOF 2
