REMARK  11 active torsions:
REMARK  status: ('A' for Active; 'I' for Inactive)
REMARK    1  A    between atoms: C3_3  and  C7_8 
REMARK    2  A    between atoms: C7_8  and  O3_10 
REMARK    3  A    between atoms: O3_10  and  C8_11 
REMARK    4  A    between atoms: C8_11  and  C9_12 
REMARK    5  A    between atoms: C13_16  and  O5_18 
REMARK    6  A    between atoms: O5_18  and  C14_19 
REMARK    7  A    between atoms: C19_24  and  O6_25 
REMARK    8  A    between atoms: C22_29  and  C23_30 
REMARK    9  A    between atoms: C23_30  and  O8_31 
REMARK   10  A    between atoms: O8_31  and  C24_32 
REMARK   11  A    between atoms: C24_32  and  C25_34 
ROOT
HETATM    1  C14 UNL     1      -5.523   0.110   0.547  1.00  0.00     0.125 C 
HETATM    2  C15 UNL     1      -5.553  -0.580   1.728  1.00  0.00     0.035 C 
HETATM    3  C16 UNL     1      -5.939  -1.748   0.818  1.00  0.00     0.064 C 
HETATM    4  C17 UNL     1      -7.199  -1.574  -0.248  1.00  0.00     0.222 C 
HETATM    5  C18 UNL     1      -8.121  -0.939   0.658  1.00  0.00     0.091 C 
HETATM    6  C19 UNL     1      -7.226   0.525   0.554  1.00  0.00     0.145 C 
HETATM    7  O7  UNL     1      -7.165  -2.776  -0.763  1.00  0.00    -0.332 OA
HETATM    8  C21 UNL     1      -5.739  -2.637  -1.176  1.00  0.00     0.150 C 
HETATM    9  C22 UNL     1      -5.001  -1.526  -0.154  1.00  0.00     0.085 C 
HETATM   10  O11 UNL     1      -7.279  -0.627  -1.457  1.00  0.00    -0.195 OA
ENDROOT
BRANCH   1  11
HETATM   11  O5  UNL     1      -4.406   1.167   0.704  1.00  0.00    -0.331 OA
BRANCH  11  12
HETATM   12  C13 UNL     1      -4.202   2.470  -0.062  1.00  0.00     0.270 C 
HETATM   13  C12 UNL     1      -5.237   3.603   0.357  1.00  0.00     0.241 C 
HETATM   14  C11 UNL     1      -4.925   4.914  -0.335  1.00  0.00     0.220 C 
HETATM   15  O12 UNL     1      -6.529   3.288   0.011  1.00  0.00    -0.215 OA
HETATM   16  C10 UNL     1      -3.565   5.354   0.082  1.00  0.00     0.215 C 
HETATM   17  O13 UNL     1      -5.865   5.911   0.078  1.00  0.00    -0.218 OA
HETATM   18  C9  UNL     1      -2.522   4.276  -0.322  1.00  0.00     0.181 C 
HETATM   19  O14 UNL     1      -3.312   6.643  -0.551  1.00  0.00    -0.218 OA
HETATM   20  O4  UNL     1      -2.853   2.989   0.325  1.00  0.00    -0.326 OA
BRANCH  18  21
HETATM   21  C8  UNL     1      -1.183   4.875   0.168  1.00  0.00     0.184 C 
BRANCH  21  22
HETATM   22  O3  UNL     1       0.057   4.234  -0.081  1.00  0.00    -0.296 OA
BRANCH  22  23
HETATM   23  C7  UNL     1       0.947   5.308   0.154  1.00  0.00     0.296 C 
HETATM   24  O2  UNL     1       0.469   6.415   0.448  1.00  0.00    -0.259 OA
BRANCH  23  25
HETATM   25  C3  UNL     1       2.395   5.225   0.056  1.00  0.00     0.063 A 
HETATM   26  C2  UNL     1       3.160   6.453   0.271  1.00  0.00     0.007 A 
HETATM   27  C1  UNL     1       4.485   6.447   0.204  1.00  0.00     0.028 A 
HETATM   28  C6  UNL     1       5.188   5.205  -0.082  1.00  0.00     0.131 A 
HETATM   29  C5  UNL     1       4.502   4.078  -0.283  1.00  0.00     0.028 A 
HETATM   30  O1  UNL     1       6.577   5.206  -0.138  1.00  0.00    -0.190 OA
HETATM   31  C4  UNL     1       3.028   4.082  -0.214  1.00  0.00     0.007 A 
ENDBRANCH  23  25
ENDBRANCH  22  23
ENDBRANCH  21  22
ENDBRANCH  18  21
ENDBRANCH  11  12
ENDBRANCH   1  11
BRANCH   6  32
HETATM   32  O6  UNL     1      -7.624   1.325  -0.619  1.00  0.00    -0.351 OA
HETATM   33  C20 UNL     1      -9.036   1.675  -0.550  1.00  0.00     0.174 C 
ENDBRANCH   6  32
BRANCH   9  34
HETATM   34  C23 UNL     1      -3.554  -1.986   0.195  1.00  0.00     0.157 C 
BRANCH  34  35
HETATM   35  O8  UNL     1      -3.417  -3.452   0.202  1.00  0.00    -0.298 OA
BRANCH  35  36
HETATM   36  C24 UNL     1      -2.031  -3.735   0.196  1.00  0.00     0.296 C 
HETATM   37  O9  UNL     1      -1.242  -2.785   0.193  1.00  0.00    -0.259 OA
BRANCH  36  38
HETATM   38  C25 UNL     1      -1.458  -5.113   0.150  1.00  0.00     0.063 A 
HETATM   39  C26 UNL     1      -0.130  -5.230   0.104  1.00  0.00     0.007 A 
HETATM   40  C27 UNL     1       0.510  -6.542   0.044  1.00  0.00     0.028 A 
HETATM   41  C28 UNL     1      -0.231  -7.645   0.033  1.00  0.00     0.131 A 
HETATM   42  C29 UNL     1      -1.705  -7.537   0.082  1.00  0.00     0.028 A 
HETATM   43  O10 UNL     1       0.400  -8.894  -0.024  1.00  0.00    -0.190 OA
HETATM   44  C30 UNL     1      -2.292  -6.332   0.137  1.00  0.00     0.007 A 
ENDBRANCH  36  38
ENDBRANCH  35  36
ENDBRANCH  34  35
ENDBRANCH   9  34
TORSDOF 11
