REMARK  2 active torsions:
REMARK  status: ('A' for Active; 'I' for Inactive)
REMARK    1  A    between atoms: C2_3  and  C30_34 
REMARK    2  A    between atoms: C16_18  and  C25_28 
ROOT
HETATM    1  O1  UNL     1       5.194  -2.795   0.018  1.00  0.00    -0.223 OA
HETATM    2  C1  UNL     1       4.272  -1.736   0.209  1.00  0.00     0.154 C 
HETATM    3  C2  UNL     1       4.908  -0.373  -0.158  1.00  0.00     0.059 C 
HETATM    4  C3  UNL     1       3.822   0.746  -0.019  1.00  0.00     0.005 C 
HETATM    5  C4  UNL     1       2.916   0.639   1.272  1.00  0.00     0.007 C 
HETATM    6  C5  UNL     1       3.526  -0.389   2.260  1.00  0.00     0.003 C 
HETATM    7  C6  UNL     1       3.735  -1.783   1.656  1.00  0.00     0.033 C 
HETATM    8  C7  UNL     1       1.451   0.252   0.877  1.00  0.00     0.062 C 
HETATM    9  C8  UNL     1       0.758   1.268  -0.084  1.00  0.00     0.010 C 
HETATM   10  C9  UNL     1       1.774   1.785  -1.141  1.00  0.00     0.001 C 
HETATM   11  C10 UNL     1       2.983   0.867  -1.314  1.00  0.00     0.000 C 
HETATM   12  C11 UNL     1      -0.496   0.570  -0.738  1.00  0.00     0.018 C 
HETATM   13  C12 UNL     1      -1.371  -0.140   0.307  1.00  0.00    -0.042 C 
HETATM   14  C13 UNL     1      -0.918  -0.355   1.565  1.00  0.00     0.029 C 
HETATM   15  C14 UNL     1       0.455  -0.025   1.984  1.00  0.00     0.172 C 
HETATM   16  O2  UNL     1       0.731   0.020   3.158  1.00  0.00    -0.291 OA
HETATM   17  C15 UNL     1      -2.758  -0.611  -0.139  1.00  0.00     0.023 C 
HETATM   18  C16 UNL     1      -3.557   0.506  -0.855  1.00  0.00     0.062 C 
HETATM   19  C17 UNL     1      -2.693   1.043  -2.023  1.00  0.00     0.155 C 
HETATM   20  C18 UNL     1      -1.350   1.602  -1.529  1.00  0.00     0.037 C 
HETATM   21  O3  UNL     1      -3.377   2.069  -2.723  1.00  0.00    -0.223 OA
HETATM   22  C19 UNL     1      -4.887  -0.076  -1.395  1.00  0.00     0.005 C 
HETATM   23  C20 UNL     1      -5.729  -0.748  -0.299  1.00  0.00     0.000 C 
HETATM   24  C21 UNL     1      -4.953  -1.857   0.434  1.00  0.00     0.000 C 
HETATM   25  C22 UNL     1      -3.613  -1.301   0.957  1.00  0.00     0.004 C 
HETATM   26  C23 UNL     1      -5.789  -2.371   1.609  1.00  0.00     0.000 C 
HETATM   27  C24 UNL     1      -4.693  -3.027  -0.521  1.00  0.00     0.000 C 
HETATM   28  C26 UNL     1      -0.035  -0.523  -1.715  1.00  0.00     0.004 C 
HETATM   29  C27 UNL     1       0.289   2.496   0.727  1.00  0.00     0.001 C 
HETATM   30  C28 UNL     1       2.899   1.996   1.994  1.00  0.00     0.000 C 
HETATM   31  C29 UNL     1       6.110  -0.066   0.754  1.00  0.00     0.005 C 
ENDROOT
BRANCH   3  32
HETATM   32  C30 UNL     1       5.473  -0.416  -1.590  1.00  0.00     0.185 C 
HETATM   33  O5  UNL     1       5.940   0.873  -1.918  1.00  0.00    -0.221 OA
ENDBRANCH   3  32
BRANCH  18  34
HETATM   34  C25 UNL     1      -3.871   1.639   0.143  1.00  0.00     0.185 C 
HETATM   35  O4  UNL     1      -4.721   2.565  -0.496  1.00  0.00    -0.221 OA
ENDBRANCH  18  34
TORSDOF 2
