REMARK  3 active torsions:
REMARK  status: ('A' for Active; 'I' for Inactive)
REMARK    1  A    between atoms: C6_6  and  C7_7 
REMARK    2  A    between atoms: C9_11  and  C24_34 
REMARK    3  A    between atoms: C11_14  and  C22_31 
ROOT
HETATM    1  C7  UNL     1      -2.143  -2.211  -0.338  1.00  0.00     0.138 C 
HETATM    2  N1  UNL     1      -2.588  -1.119   0.564  1.00  0.00    -0.233 NA
HETATM    3  C8  UNL     1      -3.424  -0.094   0.172  1.00  0.00     0.277 C 
HETATM    4  O1  UNL     1      -3.934  -0.100  -0.930  1.00  0.00    -0.268 OA
HETATM    5  C9  UNL     1      -3.668   1.057   1.137  1.00  0.00     0.219 C 
HETATM    6  N2  UNL     1      -2.381   1.656   1.588  1.00  0.00    -0.226 NA
HETATM    7  C10 UNL     1      -1.453   2.152   0.697  1.00  0.00     0.274 C 
HETATM    8  C11 UNL     1      -0.109   2.646   1.197  1.00  0.00     0.186 C 
HETATM    9  N3  UNL     1       0.998   1.844   0.611  1.00  0.00    -0.229 NA
HETATM   10  C12 UNL     1       2.115   1.477   1.328  1.00  0.00     0.272 C 
HETATM   11  C13 UNL     1       3.244   0.682   0.680  1.00  0.00     0.165 C 
HETATM   12  N4  UNL     1       2.973  -0.746   0.559  1.00  0.00    -0.312 N 
HETATM   13  C14 UNL     1       2.809  -1.582   1.697  1.00  0.00     0.256 C 
HETATM   14  C15 UNL     1       2.559  -3.068   1.481  1.00  0.00     0.184 C 
HETATM   15  N5  UNL     1       1.217  -3.459   0.953  1.00  0.00    -0.230 NA
HETATM   16  C16 UNL     1       0.096  -2.652   0.936  1.00  0.00     0.254 C 
HETATM   17  C17 UNL     1      -1.213  -3.215   0.393  1.00  0.00     0.118 C 
HETATM   18  O2  UNL     1       0.148  -1.512   1.346  1.00  0.00    -0.270 OA
HETATM   19  C18 UNL     1       3.672  -3.736   0.666  1.00  0.00     0.037 C 
HETATM   20  O3  UNL     1       2.873  -1.115   2.813  1.00  0.00    -0.270 OA
HETATM   21  C19 UNL     1       2.920  -1.199  -0.822  1.00  0.00     0.105 C 
HETATM   22  C20 UNL     1       2.928   0.078  -1.662  1.00  0.00     0.027 C 
HETATM   23  C21 UNL     1       3.615   1.109  -0.752  1.00  0.00     0.034 C 
HETATM   24  O4  UNL     1       2.215   1.793   2.494  1.00  0.00    -0.269 OA
HETATM   25  O5  UNL     1      -1.705   2.188  -0.486  1.00  0.00    -0.268 OA
ENDROOT
BRANCH   1  26
HETATM   26  C6  UNL     1      -1.473  -1.674  -1.562  1.00  0.00     0.000 A 
HETATM   27  C1  UNL     1      -0.861  -0.408  -1.531  1.00  0.00    -0.002 A 
HETATM   28  C2  UNL     1      -0.230   0.096  -2.682  1.00  0.00    -0.000 A 
HETATM   29  C3  UNL     1      -0.213  -0.664  -3.863  1.00  0.00    -0.000 A 
HETATM   30  C4  UNL     1      -0.824  -1.928  -3.895  1.00  0.00    -0.000 A 
HETATM   31  C5  UNL     1      -1.453  -2.434  -2.744  1.00  0.00    -0.002 A 
ENDBRANCH   1  26
BRANCH   5  32
HETATM   32  C24 UNL     1      -4.568   2.146   0.541  1.00  0.00     0.216 C 
HETATM   33  O6  UNL     1      -5.861   1.607   0.379  1.00  0.00    -0.218 OA
ENDBRANCH   5  32
BRANCH   8  34
HETATM   34  C22 UNL     1       0.084   4.121   0.850  1.00  0.00     0.034 C 
HETATM   35  C23 UNL     1      -0.959   5.025   1.506  1.00  0.00     0.003 C 
ENDBRANCH   8  34
TORSDOF 3
