REMARK  0 active torsions:
REMARK  status: ('A' for Active; 'I' for Inactive)
ROOT
HETATM    1  C1  UNL     1       0.393   1.883  -0.135  1.00  0.00     0.028 C 
HETATM    2  C2  UNL     1       1.604   1.049   0.236  1.00  0.00    -0.034 C 
HETATM    3  C3  UNL     1       1.498  -0.291   0.119  1.00  0.00    -0.046 C 
HETATM    4  C4  UNL     1       0.156  -0.855  -0.377  1.00  0.00     0.049 C 
HETATM    5  C5  UNL     1      -1.066  -0.215   0.357  1.00  0.00     0.009 C 
HETATM    6  C6  UNL     1      -0.793   0.998  -0.592  1.00  0.00     0.035 C 
HETATM    7  C7  UNL     1      -0.385  -0.096  -1.625  1.00  0.00     0.156 C 
HETATM    8  O1  UNL     1       0.531   0.260  -2.635  1.00  0.00    -0.223 OA
HETATM    9  C8  UNL     1      -2.404  -0.926   0.133  1.00  0.00     0.001 C 
HETATM   10  C9  UNL     1      -0.869   0.063   1.848  1.00  0.00     0.001 C 
HETATM   11  C10 UNL     1       2.647  -1.201   0.459  1.00  0.00     0.026 C 
ENDROOT
TORSDOF 0
