REMARK  2 active torsions:
REMARK  status: ('A' for Active; 'I' for Inactive)
REMARK    1  A    between atoms: C3_3  and  C20_21 
REMARK    2  A    between atoms: C12_13  and  C15_16 
ROOT
HETATM    1  C1  UNL     1       3.457   1.379  -0.342  1.00  0.00     0.001 C 
HETATM    2  C2  UNL     1       3.875  -0.098  -0.301  1.00  0.00     0.010 C 
HETATM    3  C3  UNL     1       3.061  -0.934   0.705  1.00  0.00     0.079 C 
HETATM    4  C4  UNL     1       1.510  -0.758   0.504  1.00  0.00     0.021 C 
HETATM    5  C5  UNL     1       1.088   0.342  -0.523  1.00  0.00     0.020 C 
HETATM    6  C6  UNL     1       1.937   1.607  -0.230  1.00  0.00     0.004 C 
HETATM    7  C7  UNL     1      -0.397   0.574  -0.430  1.00  0.00    -0.020 A 
HETATM    8  C8  UNL     1      -1.277  -0.514  -0.129  1.00  0.00     0.030 A 
HETATM    9  C9  UNL     1      -0.744  -1.885   0.129  1.00  0.00     0.173 C 
HETATM   10  C10 UNL     1       0.756  -2.068   0.199  1.00  0.00     0.070 C 
HETATM   11  O1  UNL     1      -1.408  -2.883   0.301  1.00  0.00    -0.291 OA
HETATM   12  C11 UNL     1      -2.680  -0.303  -0.070  1.00  0.00    -0.002 A 
HETATM   13  C12 UNL     1      -3.221   0.980  -0.293  1.00  0.00    -0.022 A 
HETATM   14  C13 UNL     1      -2.363   2.062  -0.582  1.00  0.00    -0.005 A 
HETATM   15  C14 UNL     1      -0.967   1.861  -0.652  1.00  0.00    -0.004 A 
HETATM   16  C18 UNL     1       1.363  -0.113  -1.967  1.00  0.00     0.004 C 
HETATM   17  C19 UNL     1       3.512  -2.395   0.588  1.00  0.00     0.011 C 
ENDROOT
BRANCH   3  18
HETATM   18  C20 UNL     1       3.457  -0.498   2.098  1.00  0.00     0.184 C 
HETATM   19  O2  UNL     1       4.330   0.318   2.270  1.00  0.00    -0.647 OA
HETATM   20  O3  UNL     1       2.779  -1.076   3.086  1.00  0.00    -0.647 OA
ENDBRANCH   3  18
BRANCH  13  21
HETATM   21  C15 UNL     1      -4.674   1.191  -0.224  1.00  0.00     0.022 C 
HETATM   22  C16 UNL     1      -5.410   0.393  -1.299  1.00  0.00     0.005 C 
HETATM   23  C17 UNL     1      -5.215   0.926   1.182  1.00  0.00     0.005 C 
ENDBRANCH  13  21
TORSDOF 2
