REMARK  9 active torsions:
REMARK  status: ('A' for Active; 'I' for Inactive)
REMARK    1  A    between atoms: C1_1  and  C19_21 
REMARK    2  A    between atoms: C3_3  and  C16_18 
REMARK    3  A    between atoms: C5_5  and  O2_8 
REMARK    4  A    between atoms: O2_8  and  C7_9 
REMARK    5  A    between atoms: C10_12  and  C13_15 
REMARK    6  A    between atoms: C13_15  and  C14_16 
REMARK    7  A    between atoms: C16_18  and  C17_19 
REMARK    8  A    between atoms: C21_23  and  C25_28 
REMARK    9  A    between atoms: C25_28  and  C26_29 
ROOT
HETATM    1  C1  UNL     1       0.065  -1.627   0.154  1.00  0.00     0.029 A 
HETATM    2  C2  UNL     1       0.668  -1.356  -1.088  1.00  0.00    -0.002 A 
HETATM    3  C3  UNL     1       0.695  -0.043  -1.588  1.00  0.00    -0.016 A 
HETATM    4  C4  UNL     1       0.117   1.002  -0.846  1.00  0.00     0.023 A 
HETATM    5  C5  UNL     1      -0.486   0.738   0.396  1.00  0.00     0.125 A 
HETATM    6  C6  UNL     1      -0.516  -0.578   0.900  1.00  0.00     0.154 A 
HETATM    7  O1  UNL     1      -1.086  -0.813   2.066  1.00  0.00    -0.188 OA
ENDROOT
BRANCH   1   8
HETATM    8  C19 UNL     1       0.045  -2.994   0.658  1.00  0.00     0.027 A 
HETATM    9  C20 UNL     1      -0.787  -3.947   0.041  1.00  0.00    -0.002 A 
HETATM   10  C21 UNL     1      -0.816  -5.272   0.516  1.00  0.00    -0.018 A 
HETATM   11  C22 UNL     1      -0.016  -5.645   1.607  1.00  0.00    -0.002 A 
HETATM   12  C23 UNL     1       0.816  -4.695   2.223  1.00  0.00     0.027 A 
HETATM   13  C24 UNL     1       0.852  -3.369   1.756  1.00  0.00     0.131 A 
HETATM   14  O3  UNL     1       1.639  -2.494   2.350  1.00  0.00    -0.190 OA
BRANCH  10  15
HETATM   15  C25 UNL     1      -1.697  -6.276  -0.139  1.00  0.00     0.052 C 
BRANCH  15  16
HETATM   16  C26 UNL     1      -2.857  -6.668   0.736  1.00  0.00    -0.021 C 
HETATM   17  C27 UNL     1      -3.744  -5.721   1.086  1.00  0.00    -0.005 C 
ENDBRANCH  15  16
ENDBRANCH  10  15
ENDBRANCH   1   8
BRANCH   3  18
HETATM   18  C16 UNL     1       1.332   0.242  -2.900  1.00  0.00     0.052 C 
BRANCH  18  19
HETATM   19  C17 UNL     1       0.488  -0.227  -4.053  1.00  0.00    -0.021 C 
HETATM   20  C18 UNL     1      -0.699   0.367  -4.262  1.00  0.00    -0.005 C 
ENDBRANCH  18  19
ENDBRANCH   3  18
BRANCH   5  21
HETATM   21  O2  UNL     1      -1.025   1.723   1.086  1.00  0.00    -0.305 OA
BRANCH  21  22
HETATM   22  C7  UNL     1      -0.408   2.887   1.086  1.00  0.00     0.100 A 
HETATM   23  C8  UNL     1      -1.150   4.082   1.086  1.00  0.00     0.024 A 
HETATM   24  C9  UNL     1      -0.494   5.324   1.086  1.00  0.00    -0.002 A 
HETATM   25  C10 UNL     1       0.910   5.377   1.086  1.00  0.00    -0.018 A 
HETATM   26  C11 UNL     1       1.656   4.184   1.086  1.00  0.00    -0.002 A 
HETATM   27  C12 UNL     1       0.998   2.943   1.086  1.00  0.00     0.024 A 
BRANCH  25  28
HETATM   28  C13 UNL     1       1.608   6.690   1.086  1.00  0.00     0.052 C 
BRANCH  28  29
HETATM   29  C14 UNL     1       2.291   6.967  -0.225  1.00  0.00    -0.021 C 
HETATM   30  C15 UNL     1       1.539   7.059  -1.334  1.00  0.00    -0.005 C 
ENDBRANCH  28  29
ENDBRANCH  25  28
ENDBRANCH  21  22
ENDBRANCH   5  21
TORSDOF 9
