REMARK  3 active torsions:
REMARK  status: ('A' for Active; 'I' for Inactive)
REMARK    1  A    between atoms: C2_2  and  O3_22 
REMARK    2  A    between atoms: C9_10  and  C10_11 
REMARK    3  A    between atoms: C10_11  and  C11_12 
ROOT
HETATM    1  C1  UNL     1      -3.897  -1.309   0.273  1.00  0.00     0.026 A 
HETATM    2  C2  UNL     1      -3.494   0.037   0.412  1.00  0.00     0.119 A 
HETATM    3  C3  UNL     1      -2.121   0.373   0.395  1.00  0.00     0.151 A 
HETATM    4  C4  UNL     1      -1.133  -0.639   0.232  1.00  0.00     0.030 A 
HETATM    5  C5  UNL     1      -1.543  -2.002   0.104  1.00  0.00    -0.020 A 
HETATM    6  C6  UNL     1      -2.924  -2.322   0.123  1.00  0.00    -0.002 A 
HETATM    7  C7  UNL     1      -0.559  -3.105  -0.039  1.00  0.00     0.059 C 
HETATM    8  C8  UNL     1       0.881  -2.643  -0.324  1.00  0.00     0.222 C 
HETATM    9  N1  UNL     1       1.270  -1.424   0.527  1.00  0.00    -0.000 N 
HETATM   10  C9  UNL     1       0.309  -0.256   0.189  1.00  0.00     0.217 C 
HETATM   11  C17 UNL     1       2.723  -1.031   0.231  1.00  0.00     0.250 C 
HETATM   12  C18 UNL     1       1.182  -1.777   2.020  1.00  0.00     0.250 C 
HETATM   13  O2  UNL     1      -1.756   1.656   0.525  1.00  0.00    -0.188 OA
ENDROOT
BRANCH  10  14
HETATM   14  C10 UNL     1       0.621   0.361  -1.182  1.00  0.00     0.062 C 
BRANCH  14  15
HETATM   15  C11 UNL     1       1.631   1.447  -1.074  1.00  0.00    -0.020 A 
HETATM   16  C12 UNL     1       2.822   1.375  -1.816  1.00  0.00    -0.002 A 
HETATM   17  C13 UNL     1       3.777   2.400  -1.715  1.00  0.00     0.027 A 
HETATM   18  C14 UNL     1       3.545   3.504  -0.873  1.00  0.00     0.131 A 
HETATM   19  C15 UNL     1       2.352   3.574  -0.133  1.00  0.00     0.027 A 
HETATM   20  O1  UNL     1       4.439   4.465  -0.779  1.00  0.00    -0.190 OA
HETATM   21  C16 UNL     1       1.395   2.549  -0.232  1.00  0.00    -0.002 A 
ENDBRANCH  14  15
ENDBRANCH  10  14
BRANCH   2  22
HETATM   22  O3  UNL     1      -4.420   0.996   0.559  1.00  0.00    -0.326 OA
HETATM   23  C19 UNL     1      -5.787   0.613   0.518  1.00  0.00     0.181 C 
ENDBRANCH   2  22
TORSDOF 3
