REMARK  2 active torsions:
REMARK  status: ('A' for Active; 'I' for Inactive)
REMARK    1  A    between atoms: C2_2  and  O6_21 
REMARK    2  A    between atoms: C7_8  and  C10_12 
ROOT
HETATM    1  C1  UNL     1      -3.551   0.049   0.537  1.00  0.00     0.157 A 
HETATM    2  C2  UNL     1      -3.443   1.340   1.105  1.00  0.00     0.145 A 
HETATM    3  C3  UNL     1      -2.172   1.939   1.270  1.00  0.00     0.160 A 
HETATM    4  C4  UNL     1      -1.004   1.242   0.863  1.00  0.00     0.085 A 
HETATM    5  C5  UNL     1      -1.111  -0.072   0.328  1.00  0.00     0.101 A 
HETATM    6  C6  UNL     1      -2.387  -0.654   0.150  1.00  0.00     0.054 A 
HETATM    7  O1  UNL     1      -0.014  -0.779  -0.018  1.00  0.00    -0.328 OA
HETATM    8  C7  UNL     1       1.271  -0.422   0.500  1.00  0.00     0.151 C 
HETATM    9  C8  UNL     1       1.496   1.098   0.387  1.00  0.00     0.104 C 
HETATM   10  C9  UNL     1       0.340   1.877   0.980  1.00  0.00     0.180 C 
HETATM   11  O2  UNL     1       0.598   2.943   1.490  1.00  0.00    -0.291 OA
HETATM   12  O5  UNL     1      -2.088   3.168   1.801  1.00  0.00    -0.188 OA
HETATM   13  O7  UNL     1      -4.756  -0.514   0.371  1.00  0.00    -0.188 OA
ENDROOT
BRANCH   8  14
HETATM   14  C10 UNL     1       2.320  -1.203  -0.209  1.00  0.00     0.008 A 
HETATM   15  C11 UNL     1       3.287  -1.912   0.523  1.00  0.00     0.000 A 
HETATM   16  C12 UNL     1       4.277  -2.650  -0.150  1.00  0.00     0.029 A 
HETATM   17  C13 UNL     1       4.301  -2.682  -1.557  1.00  0.00     0.156 A 
HETATM   18  C14 UNL     1       3.332  -1.971  -2.291  1.00  0.00     0.156 A 
HETATM   19  O4  UNL     1       5.232  -3.375  -2.182  1.00  0.00    -0.188 OA
HETATM   20  C15 UNL     1       2.344  -1.234  -1.615  1.00  0.00     0.028 A 
HETATM   21  O3  UNL     1       3.348  -1.996  -3.607  1.00  0.00    -0.188 OA
ENDBRANCH   8  14
BRANCH   2  22
HETATM   22  O6  UNL     1      -4.549   1.998   1.484  1.00  0.00    -0.324 OA
HETATM   23  C16 UNL     1      -5.190   2.830   0.529  1.00  0.00     0.182 C 
ENDBRANCH   2  22
TORSDOF 2
