REMARK  10 active torsions:
REMARK  status: ('A' for Active; 'I' for Inactive)
REMARK    1  A    between atoms: C14_15  and  O2_16 
REMARK    2  A    between atoms: O2_16  and  C15_17 
REMARK    3  A    between atoms: C15_17  and  C16_18 
REMARK    4  A    between atoms: C16_18  and  C17_19 
REMARK    5  A    between atoms: C17_19  and  C18_20 
REMARK    6  A    between atoms: C18_20  and  C19_21 
REMARK    7  A    between atoms: C21_24  and  C24_27 
REMARK    8  A    between atoms: C26_29  and  C30_36 
REMARK    9  A    between atoms: C27_31  and  O5_32 
REMARK   10  A    between atoms: O5_32  and  C28_33 
ROOT
HETATM    1  C1  UNL     1      -5.645  -0.203  -0.410  1.00  0.00     0.033 C 
HETATM    2  C2  UNL     1      -6.361  -1.248  -1.174  1.00  0.00     0.172 C 
HETATM    3  C3  UNL     1      -5.592  -2.420  -1.760  1.00  0.00     0.056 C 
HETATM    4  C4  UNL     1      -4.068  -2.129  -1.699  1.00  0.00     0.013 C 
HETATM    5  C5  UNL     1      -3.600  -1.621  -0.301  1.00  0.00     0.022 C 
HETATM    6  C6  UNL     1      -4.363  -0.342  -0.012  1.00  0.00    -0.024 C 
HETATM    7  C7  UNL     1      -2.047  -1.514  -0.365  1.00  0.00     0.037 C 
HETATM    8  C8  UNL     1      -1.367  -2.928  -0.402  1.00  0.00     0.046 C 
HETATM    9  C9  UNL     1      -2.256  -3.910  -1.254  1.00  0.00     0.155 C 
HETATM   10  C10 UNL     1      -3.156  -3.230  -2.299  1.00  0.00     0.034 C 
HETATM   11  O1  UNL     1      -1.524  -4.934  -1.893  1.00  0.00    -0.223 OA
HETATM   12  C11 UNL     1       0.100  -2.699  -0.771  1.00  0.00    -0.047 C 
HETATM   13  C12 UNL     1       0.736  -1.344  -0.562  1.00  0.00     0.018 C 
HETATM   14  C13 UNL     1       0.168  -0.715   0.719  1.00  0.00     0.034 C 
HETATM   15  C14 UNL     1      -1.365  -0.537   0.633  1.00  0.00     0.125 C 
HETATM   16  C21 UNL     1       2.236  -1.691  -0.439  1.00  0.00     0.013 C 
HETATM   17  C22 UNL     1       2.348  -2.920  -1.355  1.00  0.00     0.026 C 
HETATM   18  C23 UNL     1       1.004  -3.578  -1.229  1.00  0.00    -0.035 C 
HETATM   19  C34 UNL     1       0.541  -0.449  -1.791  1.00  0.00     0.004 C 
HETATM   20  C35 UNL     1      -1.277  -3.510   1.020  1.00  0.00     0.007 C 
HETATM   21  C36 UNL     1      -4.014  -2.557   0.848  1.00  0.00     0.004 C 
HETATM   22  C37 UNL     1      -5.953  -3.695  -0.988  1.00  0.00     0.008 C 
HETATM   23  C38 UNL     1      -6.029  -2.598  -3.221  1.00  0.00     0.008 C 
HETATM   24  O8  UNL     1      -7.559  -1.150  -1.326  1.00  0.00    -0.291 OA
ENDROOT
BRANCH  16  25
HETATM   25  C24 UNL     1       3.221  -0.586  -0.807  1.00  0.00     0.060 C 
HETATM   26  C25 UNL     1       4.689  -0.994  -0.627  1.00  0.00     0.037 C 
HETATM   27  C26 UNL     1       5.398   0.289  -0.178  1.00  0.00     0.147 C 
HETATM   28  O4  UNL     1       4.377   1.258  -0.129  1.00  0.00    -0.331 OA
HETATM   29  C27 UNL     1       3.137   0.639   0.100  1.00  0.00     0.242 C 
BRANCH  27  30
HETATM   30  C30 UNL     1       6.482   0.774  -1.135  1.00  0.00     0.167 A 
HETATM   31  C31 UNL     1       7.543   1.846  -0.697  1.00  0.00     0.120 A 
HETATM   32  O7  UNL     1       7.721   0.473  -0.580  1.00  0.00    -0.354 OA
HETATM   33  C32 UNL     1       7.508   2.442   0.703  1.00  0.00     0.032 C 
HETATM   34  C33 UNL     1       8.547   2.371  -1.713  1.00  0.00     0.032 C 
ENDBRANCH  27  30
BRANCH  29  35
HETATM   35  O5  UNL     1       3.025   0.254   1.465  1.00  0.00    -0.276 OA
BRANCH  35  36
HETATM   36  C28 UNL     1       2.859   1.299   2.272  1.00  0.00     0.274 C 
HETATM   37  O6  UNL     1       2.781   2.442   1.887  1.00  0.00    -0.264 OA
HETATM   38  C29 UNL     1       2.768   0.965   3.736  1.00  0.00     0.106 C 
ENDBRANCH  35  36
ENDBRANCH  29  35
ENDBRANCH  16  25
BRANCH  15  39
HETATM   39  O2  UNL     1      -1.615   0.801   0.217  1.00  0.00    -0.304 OA
BRANCH  39  40
HETATM   40  C15 UNL     1      -1.385   1.682   1.186  1.00  0.00     0.272 C 
HETATM   41  O3  UNL     1      -1.037   1.379   2.303  1.00  0.00    -0.264 OA
BRANCH  40  42
HETATM   42  C16 UNL     1      -1.588   3.123   0.801  1.00  0.00     0.096 C 
BRANCH  42  43
HETATM   43  C17 UNL     1      -1.297   4.082   1.955  1.00  0.00     0.010 C 
BRANCH  43  44
HETATM   44  C18 UNL     1      -1.494   5.549   1.568  1.00  0.00     0.001 C 
BRANCH  44  45
HETATM   45  C19 UNL     1      -1.205   6.508   2.725  1.00  0.00     0.000 C 
HETATM   46  C20 UNL     1      -1.400   7.973   2.338  1.00  0.00     0.000 C 
ENDBRANCH  44  45
ENDBRANCH  43  44
ENDBRANCH  42  43
ENDBRANCH  40  42
ENDBRANCH  39  40
ENDBRANCH  15  39
TORSDOF 10
