REMARK  16 active torsions:
REMARK  status: ('A' for Active; 'I' for Inactive)
REMARK    1  A    between atoms: C2_2  and  O7_38 
REMARK    2  A    between atoms: C9_9  and  C11_12 
REMARK    3  A    between atoms: C13_15  and  O3_22 
REMARK    4  A    between atoms: O3_22  and  C20_23 
REMARK    5  A    between atoms: C20_23  and  C21_25 
REMARK    6  A    between atoms: C21_25  and  C22_26 
REMARK    7  A    between atoms: C22_26  and  C23_27 
REMARK    8  A    between atoms: C23_27  and  C24_28 
REMARK    9  A    between atoms: C24_28  and  C25_29 
REMARK   10  A    between atoms: C25_29  and  C26_30 
REMARK   11  A    between atoms: C26_30  and  C27_31 
REMARK   12  A    between atoms: C27_31  and  C28_32 
REMARK   13  A    between atoms: C28_32  and  C29_33 
REMARK   14  A    between atoms: C29_33  and  C30_34 
REMARK   15  A    between atoms: O7_38  and  C32_39 
REMARK   16  A    between atoms: C32_39  and  C33_40 
ROOT
HETATM    1  C1  UNL     1      -4.793  -0.365   1.482  1.00  0.00    -0.018 C 
HETATM    2  C2  UNL     1      -4.932  -1.070   2.787  1.00  0.00     0.174 C 
HETATM    3  C3  UNL     1      -3.666  -1.980   2.865  1.00  0.00     0.197 C 
HETATM    4  C4  UNL     1      -2.619  -1.229   1.936  1.00  0.00     0.104 C 
HETATM    5  C5  UNL     1      -3.541  -0.428   1.029  1.00  0.00    -0.023 C 
HETATM    6  C6  UNL     1      -1.834  -2.152   0.998  1.00  0.00     0.174 C 
HETATM    7  C7  UNL     1      -0.871  -3.184   1.533  1.00  0.00     0.015 C 
HETATM    8  C8  UNL     1      -1.465  -4.240   2.443  1.00  0.00    -0.005 C 
HETATM    9  C9  UNL     1      -2.758  -4.397   2.799  1.00  0.00     0.021 C 
HETATM   10  C10 UNL     1      -3.885  -3.447   2.377  1.00  0.00     0.204 C 
HETATM   11  O1  UNL     1      -5.131  -3.943   2.840  1.00  0.00    -0.216 OA
HETATM   12  C12 UNL     1       0.512  -2.666   1.961  1.00  0.00     0.053 A 
HETATM   13  C13 UNL     1       0.904  -1.201   2.176  1.00  0.00     0.105 A 
HETATM   14  C14 UNL     1      -0.226  -0.131   2.115  1.00  0.00     0.029 C 
HETATM   15  C15 UNL     1      -1.656  -0.252   2.695  1.00  0.00     0.015 C 
HETATM   16  C16 UNL     1      -2.269   1.154   2.838  1.00  0.00     0.001 C 
HETATM   17  C17 UNL     1       0.861  -2.207   3.346  1.00  0.00     0.030 A 
HETATM   18  C18 UNL     1      -0.205  -2.291   4.428  1.00  0.00     0.003 C 
HETATM   19  C19 UNL     1       2.233  -2.596   3.885  1.00  0.00     0.003 C 
HETATM   20  O5  UNL     1      -1.961  -2.080  -0.205  1.00  0.00    -0.291 OA
HETATM   21  O6  UNL     1      -3.271  -2.055   4.233  1.00  0.00    -0.219 OA
HETATM   22  C39 UNL     1      -5.932   0.328   0.785  1.00  0.00     0.029 C 
ENDROOT
BRANCH  13  23
HETATM   23  O3  UNL     1       1.914  -0.373   1.611  1.00  0.00    -0.306 OA
BRANCH  23  24
HETATM   24  C20 UNL     1       2.047  -0.555   0.301  1.00  0.00     0.272 C 
HETATM   25  O4  UNL     1       1.365  -1.318  -0.344  1.00  0.00    -0.264 OA
BRANCH  24  26
HETATM   26  C21 UNL     1       3.123   0.268  -0.355  1.00  0.00     0.096 C 
BRANCH  26  27
HETATM   27  C22 UNL     1       3.063   0.197  -1.881  1.00  0.00     0.010 C 
BRANCH  27  28
HETATM   28  C23 UNL     1       4.139   1.051  -2.555  1.00  0.00     0.001 C 
BRANCH  28  29
HETATM   29  C24 UNL     1       4.080   0.977  -4.080  1.00  0.00     0.000 C 
BRANCH  29  30
HETATM   30  C25 UNL     1       5.156   1.830  -4.752  1.00  0.00     0.000 C 
BRANCH  30  31
HETATM   31  C26 UNL     1       5.098   1.758  -6.279  1.00  0.00     0.000 C 
BRANCH  31  32
HETATM   32  C27 UNL     1       6.172   2.611  -6.951  1.00  0.00     0.000 C 
BRANCH  32  33
HETATM   33  C28 UNL     1       6.113   2.539  -8.479  1.00  0.00     0.000 C 
BRANCH  33  34
HETATM   34  C29 UNL     1       7.190   3.391  -9.151  1.00  0.00     0.000 C 
BRANCH  34  35
HETATM   35  C30 UNL     1       7.131   3.318 -10.678  1.00  0.00     0.000 C 
HETATM   36  C31 UNL     1       8.207   4.172 -11.350  1.00  0.00     0.000 C 
ENDBRANCH  34  35
ENDBRANCH  33  34
ENDBRANCH  32  33
ENDBRANCH  31  32
ENDBRANCH  30  31
ENDBRANCH  29  30
ENDBRANCH  28  29
ENDBRANCH  27  28
ENDBRANCH  26  27
ENDBRANCH  24  26
ENDBRANCH  23  24
ENDBRANCH  13  23
BRANCH   9  37
HETATM   37  C11 UNL     1      -3.084  -5.580   3.684  1.00  0.00     0.207 C 
HETATM   38  O2  UNL     1      -3.426  -5.121   4.973  1.00  0.00    -0.216 OA
ENDBRANCH   9  37
BRANCH   2  39
HETATM   39  O7  UNL     1      -4.934  -0.070   3.801  1.00  0.00    -0.294 OA
BRANCH  39  40
HETATM   40  C32 UNL     1      -6.131   0.492   3.953  1.00  0.00     0.296 C 
HETATM   41  O8  UNL     1      -7.121   0.139   3.359  1.00  0.00    -0.259 OA
BRANCH  40  42
HETATM   42  C33 UNL     1      -6.182   1.621   4.932  1.00  0.00     0.063 A 
HETATM   43  C34 UNL     1      -7.385   2.324   5.133  1.00  0.00     0.005 A 
HETATM   44  C35 UNL     1      -7.432   3.385   6.053  1.00  0.00     0.000 A 
HETATM   45  C36 UNL     1      -6.279   3.744   6.774  1.00  0.00     0.000 A 
HETATM   46  C37 UNL     1      -5.078   3.043   6.572  1.00  0.00     0.000 A 
HETATM   47  C38 UNL     1      -5.029   1.980   5.652  1.00  0.00     0.005 A 
ENDBRANCH  40  42
ENDBRANCH  39  40
ENDBRANCH   2  39
TORSDOF 16
