REMARK  7 active torsions:
REMARK  status: ('A' for Active; 'I' for Inactive)
REMARK    1  A    between atoms: C1_2  and  S1_12 
REMARK    2  A    between atoms: C5_6  and  C6_7 
REMARK    3  A    between atoms: S1_12  and  C7_13 
REMARK    4  A    between atoms: C7_13  and  C8_14 
REMARK    5  A    between atoms: C8_14  and  C9_15 
REMARK    6  A    between atoms: N2_25  and  O7_26 
REMARK    7  A    between atoms: O7_26  and  S2_27 
ROOT
HETATM    1  C7  UNL     1       0.434   0.400   1.525  1.00  0.00     0.119 C 
HETATM    2  N2  UNL     1       0.226   0.854   2.707  1.00  0.00    -0.110 NA
ENDROOT
BRANCH   1   3
HETATM    3  S1  UNL     1       1.928  -0.313   1.195  1.00  0.00    -0.065 SA
BRANCH   3   4
HETATM    4  C1  UNL     1       1.514  -1.535   0.012  1.00  0.00     0.201 C 
HETATM    5  O1  UNL     1       1.799  -1.029  -1.287  1.00  0.00    -0.340 OA
HETATM    6  C5  UNL     1       1.445  -1.891  -2.361  1.00  0.00     0.182 C 
HETATM    7  C4  UNL     1       2.246  -3.209  -2.248  1.00  0.00     0.215 C 
HETATM    8  C3  UNL     1       2.047  -3.869  -0.865  1.00  0.00     0.218 C 
HETATM    9  O3  UNL     1       1.816  -4.092  -3.270  1.00  0.00    -0.218 OA
HETATM   10  C2  UNL     1       2.316  -2.832   0.246  1.00  0.00     0.223 C 
HETATM   11  O4  UNL     1       2.932  -4.969  -0.723  1.00  0.00    -0.218 OA
HETATM   12  O5  UNL     1       1.951  -3.363   1.506  1.00  0.00    -0.217 OA
BRANCH   6  13
HETATM   13  C6  UNL     1       1.734  -1.127  -3.656  1.00  0.00     0.214 C 
HETATM   14  O2  UNL     1       0.842  -0.037  -3.734  1.00  0.00    -0.218 OA
ENDBRANCH   6  13
ENDBRANCH   3   4
ENDBRANCH   1   3
BRANCH   1  15
HETATM   15  C8  UNL     1      -0.664   0.529   0.502  1.00  0.00     0.083 C 
BRANCH  15  16
HETATM   16  C9  UNL     1      -1.104   1.977   0.412  1.00  0.00     0.007 A 
HETATM   17  C10 UNL     1      -2.367   2.461   0.375  1.00  0.00     0.041 A 
HETATM   18  C11 UNL     1      -2.393   3.832   0.291  1.00  0.00     0.083 A 
HETATM   19  C16 UNL     1      -3.559   1.684   0.418  1.00  0.00     0.132 A 
HETATM   20  N1  UNL     1      -1.074   4.258   0.271  1.00  0.00    -0.244 NA
HETATM   21  C13 UNL     1      -3.606   4.551   0.242  1.00  0.00     0.019 A 
HETATM   22  C12 UNL     1      -0.262   3.102   0.348  1.00  0.00     0.095 A 
HETATM   23  C14 UNL     1      -4.817   3.816   0.281  1.00  0.00     0.004 A 
HETATM   24  C15 UNL     1      -4.787   2.400   0.369  1.00  0.00     0.028 A 
HETATM   25  O6  UNL     1      -3.682   0.352   0.498  1.00  0.00    -0.190 OA
ENDBRANCH  15  16
ENDBRANCH   1  15
BRANCH   2  26
HETATM   26  O7  UNL     1       1.252   0.748   3.705  1.00  0.00    -0.106 OA
BRANCH  26  27
HETATM   27  S2  UNL     1       1.135   1.246   5.158  1.00  0.00     0.275 S 
HETATM   28  O8  UNL     1       2.367   1.109   5.912  1.00  0.00    -0.571 OA
HETATM   29  O9  UNL     1       0.543   2.568   5.264  1.00  0.00    -0.571 OA
HETATM   30  O10 UNL     1       0.125   0.221   5.693  1.00  0.00    -0.571 OA
ENDBRANCH  26  27
ENDBRANCH   2  26
TORSDOF 7
