REMARK  2 active torsions:
REMARK  status: ('A' for Active; 'I' for Inactive)
REMARK    1  A    between atoms: C1_1  and  C11_12 
REMARK    2  A    between atoms: C5_5  and  C7_7 
ROOT
HETATM    1  C1  UNL     1      -0.793  -0.896   0.065  1.00  0.00     0.002 A 
HETATM    2  C2  UNL     1      -0.047  -2.092   0.065  1.00  0.00     0.127 A 
HETATM    3  C3  UNL     1       1.359  -2.035   0.065  1.00  0.00     0.027 A 
HETATM    4  C4  UNL     1       2.018  -0.793   0.065  1.00  0.00    -0.002 A 
HETATM    5  C5  UNL     1       1.272   0.398   0.065  1.00  0.00    -0.023 A 
HETATM    6  C6  UNL     1      -0.133   0.346   0.065  1.00  0.00    -0.006 A 
HETATM    7  O1  UNL     1      -0.654  -3.262   0.065  1.00  0.00    -0.191 OA
ENDROOT
BRANCH   1   8
HETATM    8  C11 UNL     1      -2.279  -0.939   0.065  1.00  0.00     0.021 C 
HETATM    9  C12 UNL     1      -2.383  -1.252  -1.427  1.00  0.00     0.004 C 
HETATM   10  C13 UNL     1      -2.881   0.418   0.428  1.00  0.00     0.004 C 
HETATM   11  C14 UNL     1      -2.811  -2.074   0.944  1.00  0.00     0.004 C 
ENDBRANCH   1   8
BRANCH   5  12
HETATM   12  C7  UNL     1       1.967   1.711   0.065  1.00  0.00     0.019 C 
HETATM   13  C8  UNL     1       3.377   1.602   0.647  1.00  0.00     0.004 C 
HETATM   14  C9  UNL     1       1.129   2.791   0.750  1.00  0.00     0.004 C 
HETATM   15  C10 UNL     1       1.965   1.840  -1.459  1.00  0.00     0.004 C 
ENDBRANCH   5  12
TORSDOF 2
