REMARK  4 active torsions:
REMARK  status: ('A' for Active; 'I' for Inactive)
REMARK    1  A    between atoms: C2_2  and  C3_3 
REMARK    2  A    between atoms: C3_3  and  C4_4 
REMARK    3  A    between atoms: C4_4  and  C5_5 
REMARK    4  A    between atoms: C6_6  and  C7_7 
ROOT
HETATM    1  C4  UNL     1      -0.174  -0.201   0.227  1.00  0.00     0.063 C 
ENDROOT
BRANCH   1   2
HETATM    2  C3  UNL     1      -1.662  -0.289  -0.113  1.00  0.00     0.175 C 
HETATM    3  O1  UNL     1      -1.973  -1.637  -0.387  1.00  0.00    -0.219 OA
BRANCH   2   4
HETATM    4  C2  UNL     1      -2.537   0.209   1.006  1.00  0.00    -0.014 C 
HETATM    5  C1  UNL     1      -3.330   1.269   0.774  1.00  0.00    -0.007 C 
HETATM    6  C10 UNL     1      -2.565  -0.424   2.369  1.00  0.00     0.029 C 
ENDBRANCH   2   4
ENDBRANCH   1   2
BRANCH   1   7
HETATM    7  C5  UNL     1       0.705  -0.545  -0.945  1.00  0.00    -0.027 C 
HETATM    8  C6  UNL     1       2.004  -0.211  -0.893  1.00  0.00    -0.026 C 
HETATM    9  C9  UNL     1       2.515   0.490   0.336  1.00  0.00     0.031 C 
BRANCH   8  10
HETATM   10  C7  UNL     1       2.947  -0.498  -1.978  1.00  0.00    -0.005 C 
HETATM   11  C8  UNL     1       3.892   0.394  -2.320  1.00  0.00    -0.000 C 
ENDBRANCH   8  10
ENDBRANCH   1   7
TORSDOF 4
