REMARK  9 active torsions:
REMARK  status: ('A' for Active; 'I' for Inactive)
REMARK    1  A    between atoms: C5_5  and  C7_7 
REMARK    2  A    between atoms: C7_7  and  C8_8 
REMARK    3  A    between atoms: C8_8  and  C9_9 
REMARK    4  A    between atoms: C9_9  and  C10_10 
REMARK    5  A    between atoms: C9_9  and  C17_17 
REMARK    6  A    between atoms: C11_11  and  C12_12 
REMARK    7  A    between atoms: C12_12  and  C13_13 
REMARK    8  A    between atoms: C13_13  and  C14_14 
REMARK    9  A    between atoms: C14_14  and  C15_15 
ROOT
HETATM    1  C9  UNL     1      -1.070   0.633   1.709  1.00  0.00     0.087 C 
ENDROOT
BRANCH   1   2
HETATM    2  C8  UNL     1      -0.311   1.959   1.680  1.00  0.00     0.017 C 
BRANCH   2   3
HETATM    3  C7  UNL     1      -0.057   2.461   0.258  1.00  0.00     0.027 C 
BRANCH   3   4
HETATM    4  C5  UNL     1       0.639   3.773   0.258  1.00  0.00    -0.022 A 
HETATM    5  C4  UNL     1       2.045   3.826   0.258  1.00  0.00    -0.002 A 
HETATM    6  C3  UNL     1       2.701   5.068   0.258  1.00  0.00     0.027 A 
HETATM    7  C2  UNL     1       1.959   6.264   0.258  1.00  0.00     0.131 A 
HETATM    8  C1  UNL     1       0.553   6.207   0.258  1.00  0.00     0.027 A 
HETATM    9  O2  UNL     1       2.576   7.428   0.258  1.00  0.00    -0.190 OA
HETATM   10  C6  UNL     1      -0.106   4.967   0.258  1.00  0.00    -0.002 A 
ENDBRANCH   3   4
ENDBRANCH   2   3
ENDBRANCH   1   2
BRANCH   1  11
HETATM   11  C10 UNL     1      -0.322  -0.473   1.014  1.00  0.00    -0.023 C 
HETATM   12  C11 UNL     1      -0.904  -1.080  -0.033  1.00  0.00    -0.030 C 
BRANCH  12  13
HETATM   13  C12 UNL     1      -0.156  -2.188  -0.729  1.00  0.00     0.026 C 
BRANCH  13  14
HETATM   14  C13 UNL     1      -0.981  -3.471  -0.834  1.00  0.00     0.005 C 
BRANCH  14  15
HETATM   15  C14 UNL     1      -0.231  -4.596  -1.549  1.00  0.00     0.000 C 
BRANCH  15  16
HETATM   16  C15 UNL     1      -1.051  -5.881  -1.651  1.00  0.00     0.000 C 
HETATM   17  C16 UNL     1      -0.301  -7.006  -2.365  1.00  0.00     0.000 C 
ENDBRANCH  15  16
ENDBRANCH  14  15
ENDBRANCH  13  14
ENDBRANCH  12  13
ENDBRANCH   1  11
BRANCH   1  18
HETATM   18  C17 UNL     1      -1.445   0.217   3.105  1.00  0.00     0.211 C 
HETATM   19  O1  UNL     1      -1.045   0.832   4.066  1.00  0.00    -0.288 OA
ENDBRANCH   1  18
TORSDOF 9
