REMARK  5 active torsions:
REMARK  status: ('A' for Active; 'I' for Inactive)
REMARK    1  A    between atoms: C1_2  and  C2_3 
REMARK    2  A    between atoms: C2_3  and  C3_5 
REMARK    3  A    between atoms: C3_5  and  C4_7 
REMARK    4  A    between atoms: C4_7  and  C5_9 
REMARK    5  A    between atoms: C5_9  and  C6_11 
ROOT
HETATM    1  C3  UNL     1       1.252  -0.133  -0.056  1.00  0.00     0.223 C 
HETATM    2  O3  UNL     1       1.713   0.729  -1.074  1.00  0.00    -0.217 OA
ENDROOT
BRANCH   1   3
HETATM    3  C2  UNL     1       1.844  -1.521  -0.302  1.00  0.00     0.249 C 
HETATM    4  O2  UNL     1       3.240  -1.443  -0.123  1.00  0.00    -0.212 OA
BRANCH   3   5
HETATM    5  C1  UNL     1       1.275  -2.559   0.627  1.00  0.00     0.243 C 
HETATM    6  O1  UNL     1       0.707  -3.537   0.196  1.00  0.00    -0.285 OA
ENDBRANCH   3   5
ENDBRANCH   1   3
BRANCH   1   7
HETATM    7  C4  UNL     1      -0.275  -0.129  -0.084  1.00  0.00     0.218 C 
HETATM    8  O4  UNL     1      -0.697  -0.627  -1.334  1.00  0.00    -0.218 OA
BRANCH   7   9
HETATM    9  C5  UNL     1      -0.867   1.270   0.096  1.00  0.00     0.218 C 
HETATM   10  O5  UNL     1      -0.426   1.779   1.334  1.00  0.00    -0.218 OA
BRANCH   9  11
HETATM   11  C6  UNL     1      -2.394   1.270   0.096  1.00  0.00     0.218 C 
HETATM   12  O6  UNL     1      -2.836   2.609   0.096  1.00  0.00    -0.218 OA
ENDBRANCH   9  11
ENDBRANCH   7   9
ENDBRANCH   1   7
TORSDOF 5
