REMARK  7 active torsions:
REMARK  status: ('A' for Active; 'I' for Inactive)
REMARK    1  A    between atoms: C3_3  and  O4_14 
REMARK    2  A    between atoms: C6_6  and  O1_7 
REMARK    3  A    between atoms: O4_14  and  C11_15 
REMARK    4  A    between atoms: C11_15  and  C12_16 
REMARK    5  A    between atoms: C12_16  and  C13_17 
REMARK    6  A    between atoms: C12_16  and  O6_21 
REMARK    7  A    between atoms: O6_21  and  C16_22 
ROOT
HETATM    1  C1  UNL     1      -1.822   1.322   2.656  1.00  0.00     0.049 A 
HETATM    2  C2  UNL     1      -1.690   0.480   1.590  1.00  0.00     0.126 A 
HETATM    3  C3  UNL     1      -0.451   0.006   1.105  1.00  0.00     0.140 A 
HETATM    4  C4  UNL     1       0.697   0.465   1.809  1.00  0.00     0.129 A 
HETATM    5  C5  UNL     1       0.570   1.352   2.930  1.00  0.00     0.047 A 
HETATM    6  C6  UNL     1      -0.707   1.805   3.383  1.00  0.00     0.098 A 
HETATM    7  C8  UNL     1       1.816   1.789   3.615  1.00  0.00     0.009 A 
HETATM    8  C9  UNL     1       3.006   1.346   3.168  1.00  0.00     0.069 A 
HETATM    9  C10 UNL     1       3.066   0.434   2.006  1.00  0.00     0.300 A 
HETATM   10  O2  UNL     1       1.922   0.055   1.404  1.00  0.00    -0.271 OA
HETATM   11  O3  UNL     1       4.150   0.053   1.629  1.00  0.00    -0.259 OA
HETATM   12  O8  UNL     1      -2.934   0.168   1.070  1.00  0.00    -0.303 OA
HETATM   13  C18 UNL     1      -3.838   0.889   1.902  1.00  0.00     0.123 A 
HETATM   14  C19 UNL     1      -3.127   1.604   2.889  1.00  0.00     0.031 A 
ENDROOT
BRANCH   3  15
HETATM   15  O4  UNL     1      -0.225  -0.818   0.072  1.00  0.00    -0.324 OA
BRANCH  15  16
HETATM   16  C11 UNL     1       0.672  -0.385  -0.942  1.00  0.00     0.182 C 
BRANCH  16  17
HETATM   17  C12 UNL     1       0.238  -0.967  -2.287  1.00  0.00     0.182 C 
BRANCH  17  18
HETATM   18  C13 UNL     1       1.197  -0.605  -3.422  1.00  0.00     0.155 C 
HETATM   19  C14 UNL     1       0.742  -1.154  -4.776  1.00  0.00     0.036 C 
HETATM   20  C15 UNL     1       1.519   0.889  -3.469  1.00  0.00     0.036 C 
HETATM   21  O5  UNL     1       2.363  -1.295  -3.035  1.00  0.00    -0.223 OA
ENDBRANCH  17  18
BRANCH  17  22
HETATM   22  O6  UNL     1       0.139  -2.379  -2.182  1.00  0.00    -0.299 OA
BRANCH  22  23
HETATM   23  C16 UNL     1      -0.887  -2.867  -2.873  1.00  0.00     0.273 C 
HETATM   24  O7  UNL     1      -1.623  -2.191  -3.553  1.00  0.00    -0.264 OA
HETATM   25  C17 UNL     1      -1.086  -4.356  -2.756  1.00  0.00     0.106 C 
ENDBRANCH  22  23
ENDBRANCH  17  22
ENDBRANCH  16  17
ENDBRANCH  15  16
ENDBRANCH   3  15
BRANCH   6  26
HETATM   26  O1  UNL     1      -0.711   2.631   4.439  1.00  0.00    -0.328 OA
HETATM   27  C7  UNL     1      -1.844   2.617   5.295  1.00  0.00     0.181 C 
ENDBRANCH   6  26
TORSDOF 7
