REMARK  14 active torsions:
REMARK  status: ('A' for Active; 'I' for Inactive)
REMARK    1  A    between atoms: C2_2  and  O6_25 
REMARK    2  A    between atoms: C7_7  and  C17_20 
REMARK    3  A    between atoms: C8_8  and  O1_11 
REMARK    4  A    between atoms: O1_11  and  C11_12 
REMARK    5  A    between atoms: C11_12  and  C12_13 
REMARK    6  A    between atoms: C17_20  and  C18_21 
REMARK    7  A    between atoms: O6_25  and  C20_26 
REMARK    8  A    between atoms: C22_29  and  O8_30 
REMARK    9  A    between atoms: O8_30  and  C23_31 
REMARK   10  A    between atoms: C25_33  and  O14_49 
REMARK   11  A    between atoms: C26_34  and  O9_35 
REMARK   12  A    between atoms: O9_35  and  C27_36 
REMARK   13  A    between atoms: C29_38  and  O12_44 
REMARK   14  A    between atoms: C37_51  and  O15_53 
ROOT
HETATM    1  C20 UNL     1      -0.403   0.557   2.124  1.00  0.00     0.238 C 
HETATM    2  O7  UNL     1       0.239   0.676   0.860  1.00  0.00    -0.331 OA
HETATM    3  C21 UNL     1      -0.426   0.025  -0.213  1.00  0.00     0.147 C 
HETATM    4  C22 UNL     1      -1.840   0.632  -0.391  1.00  0.00     0.172 C 
HETATM    5  C37 UNL     1      -2.638   0.588   0.931  1.00  0.00     0.150 C 
HETATM    6  C38 UNL     1      -1.801   1.202   2.065  1.00  0.00     0.094 C 
HETATM    7  C40 UNL     1       0.455   0.196  -1.454  1.00  0.00     0.035 C 
ENDROOT
BRANCH   1   8
HETATM    8  O6  UNL     1       0.370   1.205   3.113  1.00  0.00    -0.331 OA
BRANCH   8   9
HETATM    9  C2  UNL     1       1.239   0.329   3.805  1.00  0.00     0.152 C 
HETATM   10  C1  UNL     1       1.899   1.053   4.997  1.00  0.00     0.180 C 
HETATM   11  C6  UNL     1       2.901   0.124   5.705  1.00  0.00     0.039 C 
HETATM   12  O16 UNL     1       0.916   1.449   5.939  1.00  0.00    -0.221 OA
HETATM   13  C5  UNL     1       4.004  -0.421   4.767  1.00  0.00     0.020 C 
HETATM   14  C4  UNL     1       3.377  -1.003   3.500  1.00  0.00    -0.046 C 
HETATM   15  C7  UNL     1       4.856  -1.468   5.537  1.00  0.00     0.042 C 
HETATM   16  C19 UNL     1       4.905   0.737   4.308  1.00  0.00     0.004 C 
HETATM   17  C3  UNL     1       2.297  -0.186   2.816  1.00  0.00     0.054 C 
HETATM   18  C10 UNL     1       3.755  -2.190   2.972  1.00  0.00    -0.032 C 
HETATM   19  C9  UNL     1       4.827  -3.057   3.592  1.00  0.00     0.056 C 
HETATM   20  C8  UNL     1       5.719  -2.291   4.574  1.00  0.00     0.130 C 
BRANCH  20  21
HETATM   21  O1  UNL     1       6.511  -3.220   5.302  1.00  0.00    -0.301 OA
BRANCH  21  22
HETATM   22  C11 UNL     1       7.480  -3.748   4.561  1.00  0.00     0.297 C 
HETATM   23  O3  UNL     1       7.732  -3.401   3.431  1.00  0.00    -0.259 OA
BRANCH  22  24
HETATM   24  C12 UNL     1       8.259  -4.808   5.188  1.00  0.00     0.084 A 
HETATM   25  C13 UNL     1       8.092  -5.317   6.475  1.00  0.00     0.034 A 
HETATM   26  C14 UNL     1       9.069  -6.309   6.618  1.00  0.00     0.122 A 
HETATM   27  O2  UNL     1       9.832  -6.444   5.494  1.00  0.00    -0.309 OA
HETATM   28  C15 UNL     1       9.325  -5.519   4.628  1.00  0.00     0.083 A 
HETATM   29  C16 UNL     1       9.901  -5.339   3.239  1.00  0.00     0.059 C 
ENDBRANCH  22  24
ENDBRANCH  21  22
ENDBRANCH  20  21
BRANCH  15  30
HETATM   30  C17 UNL     1       5.703  -0.828   6.647  1.00  0.00     0.100 C 
BRANCH  30  31
HETATM   31  C18 UNL     1       6.194  -1.837   7.649  1.00  0.00     0.185 C 
HETATM   32  O4  UNL     1       5.516  -2.791   7.954  1.00  0.00    -0.647 OA
HETATM   33  O5  UNL     1       7.402  -1.596   8.150  1.00  0.00    -0.647 OA
ENDBRANCH  30  31
ENDBRANCH  15  30
ENDBRANCH   8   9
ENDBRANCH   1   8
BRANCH   5  34
HETATM   34  O15 UNL     1      -3.847   1.312   0.808  1.00  0.00    -0.351 OA
HETATM   35  C39 UNL     1      -4.942   0.506   0.437  1.00  0.00     0.174 C 
ENDBRANCH   5  34
BRANCH   4  36
HETATM   36  O8  UNL     1      -2.528  -0.097  -1.390  1.00  0.00    -0.328 OA
BRANCH  36  37
HETATM   37  C23 UNL     1      -2.556   0.562  -2.639  1.00  0.00     0.238 C 
HETATM   38  C24 UNL     1      -2.988  -0.434  -3.733  1.00  0.00     0.094 C 
HETATM   39  C25 UNL     1      -3.126   0.272  -5.091  1.00  0.00     0.150 C 
HETATM   40  C26 UNL     1      -4.030   1.516  -4.943  1.00  0.00     0.172 C 
HETATM   41  C34 UNL     1      -3.558   2.419  -3.777  1.00  0.00     0.147 C 
HETATM   42  O13 UNL     1      -3.471   1.647  -2.585  1.00  0.00    -0.331 OA
HETATM   43  C35 UNL     1      -4.521   3.576  -3.489  1.00  0.00     0.035 C 
BRANCH  39  44
HETATM   44  O14 UNL     1      -3.677  -0.636  -6.028  1.00  0.00    -0.351 OA
HETATM   45  C36 UNL     1      -3.189  -0.446  -7.335  1.00  0.00     0.174 C 
ENDBRANCH  39  44
BRANCH  40  46
HETATM   46  O9  UNL     1      -4.011   2.269  -6.141  1.00  0.00    -0.328 OA
BRANCH  46  47
HETATM   47  C27 UNL     1      -5.285   2.744  -6.522  1.00  0.00     0.238 C 
HETATM   48  C28 UNL     1      -5.125   3.806  -7.627  1.00  0.00     0.094 C 
HETATM   49  C29 UNL     1      -6.497   4.272  -8.139  1.00  0.00     0.153 C 
HETATM   50  C30 UNL     1      -7.353   3.047  -8.525  1.00  0.00     0.206 C 
HETATM   51  C31 UNL     1      -7.399   2.008  -7.381  1.00  0.00     0.151 C 
HETATM   52  O11 UNL     1      -8.677   3.459  -8.821  1.00  0.00    -0.218 OA
HETATM   53  O10 UNL     1      -6.074   1.661  -7.002  1.00  0.00    -0.331 OA
HETATM   54  C32 UNL     1      -8.100   0.706  -7.784  1.00  0.00     0.035 C 
BRANCH  49  55
HETATM   55  O12 UNL     1      -6.307   5.121  -9.254  1.00  0.00    -0.351 OA
HETATM   56  C33 UNL     1      -5.661   6.332  -8.928  1.00  0.00     0.174 C 
ENDBRANCH  49  55
ENDBRANCH  46  47
ENDBRANCH  40  46
ENDBRANCH  36  37
ENDBRANCH   4  36
TORSDOF 14
