REMARK  1 active torsions:
REMARK  status: ('A' for Active; 'I' for Inactive)
REMARK    1  A    between atoms: C2_2  and  C4_4 
ROOT
HETATM    1  C4  UNL     1      -1.180  -0.490   0.174  1.00  0.00     0.000 C 
HETATM    2  C5  UNL     1      -1.107   0.551   1.297  1.00  0.00     0.000 C 
HETATM    3  C6  UNL     1      -1.232   1.865   0.535  1.00  0.00     0.000 C 
HETATM    4  C7  UNL     1      -0.525   1.695  -0.805  1.00  0.00     0.001 A 
HETATM    5  C8  UNL     1      -0.508   0.172  -1.043  1.00  0.00     0.004 A 
HETATM    6  C9  UNL     1       1.039   0.223  -1.207  1.00  0.00     0.018 A 
HETATM    7  C10 UNL     1       1.033   1.717  -0.834  1.00  0.00     0.004 A 
HETATM    8  C11 UNL     1       1.832   1.926   0.471  1.00  0.00     0.004 A 
HETATM    9  C12 UNL     1       2.398   0.561   0.879  1.00  0.00     0.022 A 
HETATM   10  C13 UNL     1       1.920  -0.416  -0.154  1.00  0.00    -0.044 A 
HETATM   11  C14 UNL     1       2.268  -1.713  -0.141  1.00  0.00    -0.009 C 
HETATM   12  C15 UNL     1      -1.162   2.504  -1.934  1.00  0.00     0.000 C 
ENDROOT
BRANCH   1  13
HETATM   13  C2  UNL     1      -0.656  -1.846   0.627  1.00  0.00     0.000 C 
HETATM   14  C1  UNL     1      -0.539  -2.775  -0.582  1.00  0.00     0.000 C 
HETATM   15  C3  UNL     1      -1.570  -2.408   1.717  1.00  0.00     0.000 C 
ENDBRANCH   1  13
TORSDOF 1
