REMARK  3 active torsions:
REMARK  status: ('A' for Active; 'I' for Inactive)
REMARK    1  A    between atoms: C2_2  and  C3_3 
REMARK    2  A    between atoms: C4_4  and  C5_5 
REMARK    3  A    between atoms: C6_6  and  C7_7 
ROOT
HETATM    1  C3  UNL     1       1.426  -0.033  -0.110  1.00  0.00     0.003 C 
HETATM    2  C4  UNL     1       0.082  -0.033  -0.110  1.00  0.00    -0.003 C 
ENDROOT
BRANCH   2   3
HETATM    3  C5  UNL     1      -0.666  -1.297  -0.110  1.00  0.00    -0.004 C 
HETATM    4  C6  UNL     1      -2.008  -1.297  -0.123  1.00  0.00    -0.022 C 
HETATM    5  C9  UNL     1      -2.727   0.025  -0.137  1.00  0.00     0.031 C 
BRANCH   4   6
HETATM    6  C7  UNL     1      -2.756  -2.561  -0.123  1.00  0.00    -0.004 C 
HETATM    7  C8  UNL     1      -2.322  -3.611   0.590  1.00  0.00    -0.000 C 
ENDBRANCH   4   6
ENDBRANCH   2   3
BRANCH   1   8
HETATM    8  C2  UNL     1       2.144   1.289  -0.110  1.00  0.00     0.145 C 
HETATM    9  C1  UNL     1       2.646   1.680   1.279  1.00  0.00     0.038 C 
HETATM   10  O1  UNL     1       3.264   1.018  -0.924  1.00  0.00    -0.222 OA
HETATM   11  C10 UNL     1       1.326   2.397  -0.776  1.00  0.00     0.038 C 
ENDBRANCH   1   8
TORSDOF 3
