REMARK  6 active torsions:
REMARK  status: ('A' for Active; 'I' for Inactive)
REMARK    1  A    between atoms: C2_2  and  O5_25 
REMARK    2  A    between atoms: C3_3  and  C19_22 
REMARK    3  A    between atoms: C7_7  and  C12_12 
REMARK    4  A    between atoms: C12_12  and  C13_13 
REMARK    5  A    between atoms: O5_25  and  C21_26 
REMARK    6  A    between atoms: C25_30  and  C26_32 
ROOT
HETATM    1  C1  UNL     1      -1.333   0.223  -1.404  1.00  0.00     0.030 C 
HETATM    2  C2  UNL     1      -1.139   1.569  -0.694  1.00  0.00     0.120 C 
HETATM    3  C3  UNL     1       0.262   2.191  -0.995  1.00  0.00     0.056 C 
HETATM    4  C4  UNL     1       1.309   1.103  -1.411  1.00  0.00     0.005 C 
HETATM    5  C5  UNL     1       1.128  -0.262  -0.684  1.00  0.00     0.004 C 
HETATM    6  C6  UNL     1      -0.293  -0.830  -0.974  1.00  0.00     0.003 C 
HETATM    7  C7  UNL     1       2.190  -1.289  -1.172  1.00  0.00     0.023 C 
HETATM    8  C8  UNL     1       3.596  -0.718  -1.107  1.00  0.00    -0.044 C 
HETATM    9  C9  UNL     1       3.792   0.601  -1.815  1.00  0.00     0.022 C 
HETATM   10  C10 UNL     1       2.763   1.626  -1.328  1.00  0.00     0.004 C 
HETATM   11  C11 UNL     1       4.620  -1.318  -0.465  1.00  0.00    -0.009 C 
HETATM   12  C18 UNL     1       1.308  -0.052   0.830  1.00  0.00     0.000 C 
HETATM   13  C20 UNL     1       0.764   3.038   0.190  1.00  0.00     0.005 C 
ENDROOT
BRANCH   2  14
HETATM   14  O5  UNL     1      -1.353   1.363   0.693  1.00  0.00    -0.332 OA
BRANCH  14  15
HETATM   15  C21 UNL     1      -2.722   1.315   1.044  1.00  0.00     0.270 C 
HETATM   16  C22 UNL     1      -2.897   0.722   2.465  1.00  0.00     0.241 C 
HETATM   17  C23 UNL     1      -4.371   0.803   2.921  1.00  0.00     0.220 C 
HETATM   18  O10 UNL     1      -2.478  -0.634   2.465  1.00  0.00    -0.215 OA
HETATM   19  C24 UNL     1      -4.909   2.237   2.717  1.00  0.00     0.215 C 
HETATM   20  O9  UNL     1      -4.474   0.441   4.289  1.00  0.00    -0.218 OA
HETATM   21  C25 UNL     1      -4.632   2.745   1.284  1.00  0.00     0.184 C 
HETATM   22  O8  UNL     1      -6.307   2.262   2.944  1.00  0.00    -0.218 OA
HETATM   23  O6  UNL     1      -3.243   2.637   1.005  1.00  0.00    -0.326 OA
BRANCH  21  24
HETATM   24  C26 UNL     1      -5.009   4.217   1.090  1.00  0.00     0.214 C 
HETATM   25  O7  UNL     1      -4.875   4.531  -0.278  1.00  0.00    -0.218 OA
ENDBRANCH  21  24
ENDBRANCH  14  15
ENDBRANCH   2  14
BRANCH   3  26
HETATM   26  C19 UNL     1       0.109   3.161  -2.175  1.00  0.00     0.184 C 
HETATM   27  O4  UNL     1      -0.738   4.214  -1.774  1.00  0.00    -0.221 OA
ENDBRANCH   3  26
BRANCH   7  28
HETATM   28  C12 UNL     1       2.037  -2.646  -0.464  1.00  0.00     0.030 C 
BRANCH  28  29
HETATM   29  C13 UNL     1       2.760  -3.755  -1.184  1.00  0.00    -0.022 C 
HETATM   30  C14 UNL     1       3.031  -4.938  -0.597  1.00  0.00     0.069 C 
HETATM   31  C15 UNL     1       2.697  -5.359   0.761  1.00  0.00     0.294 C 
HETATM   32  C17 UNL     1       3.745  -6.069  -1.271  1.00  0.00     0.209 C 
HETATM   33  O1  UNL     1       3.075  -6.620   0.975  1.00  0.00    -0.295 OA
HETATM   34  O3  UNL     1       2.157  -4.647   1.576  1.00  0.00    -0.259 OA
HETATM   35  C16 UNL     1       3.510  -7.205  -0.261  1.00  0.00     0.190 C 
HETATM   36  O2  UNL     1       5.125  -5.786  -1.381  1.00  0.00    -0.216 OA
ENDBRANCH  28  29
ENDBRANCH   7  28
TORSDOF 6
