REMARK  15 active torsions:
REMARK  status: ('A' for Active; 'I' for Inactive)
REMARK    1  A    between atoms: C1_1  and  C2_2 
REMARK    2  A    between atoms: C2_2  and  C3_3 
REMARK    3  A    between atoms: C3_3  and  C4_4 
REMARK    4  A    between atoms: C4_4  and  C5_5 
REMARK    5  A    between atoms: C5_5  and  C6_6 
REMARK    6  A    between atoms: C7_7  and  C8_8 
REMARK    7  A    between atoms: C8_8  and  C9_9 
REMARK    8  A    between atoms: C9_9  and  C10_10 
REMARK    9  A    between atoms: C10_10  and  C11_11 
REMARK   10  A    between atoms: C11_11  and  C12_12 
REMARK   11  A    between atoms: C12_12  and  C13_13 
REMARK   12  A    between atoms: C13_13  and  C14_14 
REMARK   13  A    between atoms: C14_14  and  C15_15 
REMARK   14  A    between atoms: C15_15  and  C16_16 
REMARK   15  A    between atoms: C16_16  and  C17_17 
ROOT
HETATM    1  C8  UNL     1       1.383   0.531  -1.742  1.00  0.00     0.000 C 
ENDROOT
BRANCH   1   2
HETATM    2  C7  UNL     1       2.542   1.507  -1.890  1.00  0.00     0.000 A 
HETATM    3  C6  UNL     1       3.288   1.586  -3.207  1.00  0.00     0.000 A 
HETATM    4  C19 UNL     1       2.389   2.726  -2.775  1.00  0.00     0.000 A 
BRANCH   3   5
HETATM    5  C5  UNL     1       4.799   1.774  -3.204  1.00  0.00     0.000 C 
BRANCH   5   6
HETATM    6  C4  UNL     1       5.482   0.407  -3.185  1.00  0.00     0.001 C 
BRANCH   6   7
HETATM    7  C3  UNL     1       7.008   0.509  -3.177  1.00  0.00     0.011 C 
BRANCH   7   8
HETATM    8  C2  UNL     1       7.691  -0.858  -3.156  1.00  0.00     0.098 C 
BRANCH   8   9
HETATM    9  C1  UNL     1       9.192  -0.750  -3.156  1.00  0.00     0.185 C 
HETATM   10  O1  UNL     1       9.738   0.329  -3.156  1.00  0.00    -0.647 OA
HETATM   11  O2  UNL     1       9.843  -1.910  -3.156  1.00  0.00    -0.647 OA
ENDBRANCH   8   9
ENDBRANCH   7   8
ENDBRANCH   6   7
ENDBRANCH   5   6
ENDBRANCH   3   5
ENDBRANCH   1   2
BRANCH   1  12
HETATM   12  C9  UNL     1       0.502   0.961  -0.569  1.00  0.00     0.000 C 
BRANCH  12  13
HETATM   13  C10 UNL     1      -0.693   0.030  -0.356  1.00  0.00     0.000 C 
BRANCH  13  14
HETATM   14  C11 UNL     1      -1.573   0.460   0.818  1.00  0.00     0.000 C 
BRANCH  14  15
HETATM   15  C12 UNL     1      -2.768  -0.471   1.031  1.00  0.00     0.000 C 
BRANCH  15  16
HETATM   16  C13 UNL     1      -3.649  -0.041   2.204  1.00  0.00     0.000 C 
BRANCH  16  17
HETATM   17  C14 UNL     1      -4.843  -0.972   2.417  1.00  0.00     0.000 C 
BRANCH  17  18
HETATM   18  C15 UNL     1      -5.724  -0.542   3.591  1.00  0.00     0.000 C 
BRANCH  18  19
HETATM   19  C16 UNL     1      -6.918  -1.473   3.804  1.00  0.00     0.000 C 
BRANCH  19  20
HETATM   20  C17 UNL     1      -7.799  -1.043   4.977  1.00  0.00     0.000 C 
HETATM   21  C18 UNL     1      -8.994  -1.974   5.190  1.00  0.00     0.000 C 
ENDBRANCH  19  20
ENDBRANCH  18  19
ENDBRANCH  17  18
ENDBRANCH  16  17
ENDBRANCH  15  16
ENDBRANCH  14  15
ENDBRANCH  13  14
ENDBRANCH  12  13
ENDBRANCH   1  12
TORSDOF 15
