REMARK  1 active torsions:
REMARK  status: ('A' for Active; 'I' for Inactive)
REMARK    1  A    between atoms: C2_2  and  O3_26 
ROOT
HETATM    1  C1  UNL     1       2.429   0.038   2.468  1.00  0.00     0.153 C 
HETATM    2  C2  UNL     1       2.458   1.451   2.412  1.00  0.00     0.121 C 
HETATM    3  C3  UNL     1       1.864   2.117   1.322  1.00  0.00     0.043 C 
HETATM    4  C4  UNL     1       1.284   1.322   0.307  1.00  0.00     0.060 C 
HETATM    5  C5  UNL     1       1.382  -0.094   0.201  1.00  0.00    -0.001 C 
HETATM    6  C6  UNL     1       1.893  -0.709   1.388  1.00  0.00     0.027 C 
HETATM    7  C7  UNL     1       0.982  -0.645  -1.219  1.00  0.00     0.071 C 
HETATM    8  C8  UNL     1       0.046   0.578  -1.608  1.00  0.00     0.096 C 
HETATM    9  N1  UNL     1       0.376   1.716  -0.767  1.00  0.00    -0.301 N 
HETATM   10  C9  UNL     1      -0.423   2.891  -0.631  1.00  0.00     0.240 C 
HETATM   11  C10 UNL     1      -1.846   2.663  -1.171  1.00  0.00     0.118 C 
HETATM   12  C11 UNL     1      -2.310   1.337  -0.484  1.00  0.00     0.133 C 
HETATM   13  C12 UNL     1      -1.350   0.231  -0.969  1.00  0.00     0.053 C 
HETATM   14  C13 UNL     1      -2.034  -0.999  -1.591  1.00  0.00     0.026 C 
HETATM   15  C14 UNL     1      -1.218  -1.585  -2.675  1.00  0.00     0.038 C 
HETATM   16  C15 UNL     1       0.097  -1.784  -1.949  1.00  0.00     0.225 C 
HETATM   17  N2  UNL     1       0.053  -2.963  -1.167  1.00  0.00     0.139 N 
HETATM   18  C16 UNL     1       1.503  -2.993  -0.884  1.00  0.00     0.251 C 
HETATM   19  C17 UNL     1       2.158  -1.658  -1.448  1.00  0.00     0.043 C 
HETATM   20  C18 UNL     1      -1.068  -2.951  -0.144  1.00  0.00     0.273 C 
HETATM   21  C19 UNL     1      -2.163  -1.874  -0.385  1.00  0.00    -0.009 C 
HETATM   22  C20 UNL     1      -3.170  -1.515   0.450  1.00  0.00     0.020 C 
HETATM   23  C21 UNL     1      -4.043  -0.233   0.292  1.00  0.00     0.116 C 
HETATM   24  O1  UNL     1      -3.666   0.882  -0.579  1.00  0.00    -0.331 OA
HETATM   25  O2  UNL     1      -0.064   3.899  -0.066  1.00  0.00    -0.272 OA
HETATM   26  O4  UNL     1       2.923  -0.601   3.538  1.00  0.00    -0.188 OA
ENDROOT
BRANCH   2  27
HETATM   27  O3  UNL     1       3.021   2.157   3.403  1.00  0.00    -0.326 OA
HETATM   28  C22 UNL     1       3.072   3.569   3.269  1.00  0.00     0.181 C 
ENDBRANCH   2  27
TORSDOF 1
