REMARK  1 active torsions:
REMARK  status: ('A' for Active; 'I' for Inactive)
REMARK    1  A    between atoms: C16_19  and  C17_20 
ROOT
HETATM    1  C1  UNL     1      -4.043  -0.641  -2.723  1.00  0.00     0.197 C 
HETATM    2  C2  UNL     1      -3.580  -0.576  -1.334  1.00  0.00     0.038 C 
HETATM    3  C3  UNL     1      -2.328  -0.180  -1.041  1.00  0.00    -0.013 C 
HETATM    4  C4  UNL     1      -1.299   0.184  -2.117  1.00  0.00     0.081 C 
HETATM    5  C5  UNL     1      -1.918   0.326  -3.510  1.00  0.00     0.082 C 
HETATM    6  C6  UNL     1      -3.170  -0.104  -3.772  1.00  0.00     0.062 C 
HETATM    7  O1  UNL     1      -1.213   0.869  -4.512  1.00  0.00    -0.334 OA
HETATM    8  C7  UNL     1      -0.440   2.033  -4.201  1.00  0.00     0.149 C 
HETATM    9  C8  UNL     1       0.326   1.941  -2.859  1.00  0.00     0.037 C 
HETATM   10  C9  UNL     1       1.477   0.902  -2.922  1.00  0.00     0.029 C 
HETATM   11  C10 UNL     1       1.090  -0.510  -2.658  1.00  0.00    -0.023 A 
HETATM   12  C11 UNL     1      -0.234  -0.869  -2.256  1.00  0.00    -0.015 A 
HETATM   13  C12 UNL     1      -0.527  -2.242  -2.016  1.00  0.00     0.026 A 
HETATM   14  C13 UNL     1       0.465  -3.234  -2.168  1.00  0.00     0.156 A 
HETATM   15  C14 UNL     1       1.770  -2.871  -2.568  1.00  0.00     0.156 A 
HETATM   16  C15 UNL     1       2.078  -1.516  -2.813  1.00  0.00     0.025 A 
HETATM   17  O2  UNL     1       2.715  -3.811  -2.717  1.00  0.00    -0.188 OA
HETATM   18  O3  UNL     1       0.164  -4.520  -1.936  1.00  0.00    -0.188 OA
HETATM   19  C16 UNL     1      -0.676   1.559  -1.754  1.00  0.00     0.041 C 
HETATM   20  C33 UNL     1       0.928   3.328  -2.578  1.00  0.00     0.003 C 
HETATM   21  O9  UNL     1      -5.121  -1.117  -2.994  1.00  0.00    -0.286 OA
ENDROOT
BRANCH  19  22
HETATM   22  C17 UNL     1      -0.041   1.598  -0.379  1.00  0.00     0.014 C 
HETATM   23  C18 UNL     1       0.320   0.449   0.227  1.00  0.00    -0.018 C 
HETATM   24  C19 UNL     1       0.889   0.422   1.645  1.00  0.00     0.079 C 
HETATM   25  C20 UNL     1       1.463   1.772   2.078  1.00  0.00     0.082 C 
HETATM   26  C25 UNL     1       2.127  -0.492   1.652  1.00  0.00     0.048 C 
HETATM   27  C28 UNL     1      -0.164  -0.037   2.623  1.00  0.00    -0.015 A 
HETATM   28  C21 UNL     1       1.061   2.908   1.473  1.00  0.00     0.062 C 
HETATM   29  O5  UNL     1       2.404   1.867   3.035  1.00  0.00    -0.332 OA
HETATM   30  C22 UNL     1       0.182   2.887   0.295  1.00  0.00     0.193 C 
HETATM   31  O4  UNL     1      -0.326   3.904  -0.113  1.00  0.00    -0.287 OA
HETATM   32  C23 UNL     1       2.717   0.723   3.844  1.00  0.00     0.179 C 
HETATM   33  C24 UNL     1       2.572  -0.650   3.111  1.00  0.00     0.159 C 
HETATM   34  O6  UNL     1       3.813  -1.334   3.137  1.00  0.00    -0.223 OA
HETATM   35  C26 UNL     1       1.516  -1.533   3.809  1.00  0.00     0.059 C 
HETATM   36  C27 UNL     1       0.139  -0.988   3.650  1.00  0.00    -0.021 A 
HETATM   37  C32 UNL     1      -0.877  -1.422   4.537  1.00  0.00     0.025 A 
HETATM   38  C31 UNL     1      -2.188  -0.908   4.432  1.00  0.00     0.156 A 
HETATM   39  C30 UNL     1      -2.490   0.049   3.439  1.00  0.00     0.156 A 
HETATM   40  O7  UNL     1      -3.141  -1.328   5.275  1.00  0.00    -0.188 OA
HETATM   41  C29 UNL     1      -1.486   0.482   2.545  1.00  0.00     0.026 A 
HETATM   42  O8  UNL     1      -3.731   0.549   3.340  1.00  0.00    -0.188 OA
ENDBRANCH  19  22
TORSDOF 1
