REMARK  4 active torsions:
REMARK  status: ('A' for Active; 'I' for Inactive)
REMARK    1  A    between atoms: C5_7  and  C8_10 
REMARK    2  A    between atoms: C8_10  and  C9_11 
REMARK    3  A    between atoms: C10_12  and  C13_17 
REMARK    4  A    between atoms: C13_17  and  C14_18 
ROOT
HETATM    1  C9  UNL     1      -0.781   0.269  -0.578  1.00  0.00     0.039 C 
HETATM    2  C10 UNL     1       0.600  -0.412  -0.594  1.00  0.00     0.067 C 
HETATM    3  C11 UNL     1       0.596  -1.125  -1.949  1.00  0.00     0.270 C 
HETATM    4  O3  UNL     1      -0.086  -0.199  -2.762  1.00  0.00    -0.329 OA
HETATM    5  C12 UNL     1      -1.174   0.361  -2.059  1.00  0.00     0.145 C 
HETATM    6  O4  UNL     1      -0.096  -2.362  -1.891  1.00  0.00    -0.190 OA
ENDROOT
BRANCH   1   7
HETATM    7  C8  UNL     1      -0.723   1.640   0.094  1.00  0.00     0.029 C 
BRANCH   7   8
HETATM    8  C5  UNL     1      -2.053   2.264   0.172  1.00  0.00    -0.020 A 
HETATM    9  C4  UNL     1      -3.004   1.799   1.105  1.00  0.00     0.022 A 
HETATM   10  C3  UNL     1      -4.293   2.387   1.199  1.00  0.00     0.119 A 
HETATM   11  C2  UNL     1      -4.627   3.445   0.348  1.00  0.00     0.119 A 
HETATM   12  O2  UNL     1      -5.332   2.119   1.990  1.00  0.00    -0.300 OA
HETATM   13  O1  UNL     1      -5.875   3.836   0.611  1.00  0.00    -0.300 OA
HETATM   14  C7  UNL     1      -3.674   3.912  -0.592  1.00  0.00     0.026 A 
HETATM   15  C1  UNL     1      -6.412   3.023   1.678  1.00  0.00     0.304 A 
HETATM   16  C6  UNL     1      -2.391   3.330  -0.686  1.00  0.00    -0.002 A 
ENDBRANCH   7   8
ENDBRANCH   1   7
BRANCH   2  17
HETATM   17  C13 UNL     1       0.840  -1.305   0.627  1.00  0.00     0.032 C 
BRANCH  17  18
HETATM   18  C14 UNL     1       2.154  -1.963   0.566  1.00  0.00    -0.020 A 
HETATM   19  C15 UNL     1       2.250  -3.338   0.277  1.00  0.00    -0.002 A 
HETATM   20  C16 UNL     1       3.521  -3.947   0.225  1.00  0.00     0.026 A 
HETATM   21  C17 UNL     1       4.707  -3.201   0.455  1.00  0.00     0.119 A 
HETATM   22  C18 UNL     1       4.613  -1.834   0.740  1.00  0.00     0.119 A 
HETATM   23  O6  UNL     1       5.992  -3.557   0.453  1.00  0.00    -0.300 OA
HETATM   24  C19 UNL     1       3.334  -1.221   0.795  1.00  0.00     0.022 A 
HETATM   25  O5  UNL     1       5.838  -1.342   0.918  1.00  0.00    -0.300 OA
HETATM   26  C20 UNL     1       6.807  -2.401   0.744  1.00  0.00     0.304 A 
ENDBRANCH  17  18
ENDBRANCH   2  17
TORSDOF 4
