REMARK  3 active torsions:
REMARK  status: ('A' for Active; 'I' for Inactive)
REMARK    1  A    between atoms: C5_5  and  C7_7 
REMARK    2  A    between atoms: C7_7  and  C8_8 
REMARK    3  A    between atoms: C8_8  and  C9_9 
ROOT
HETATM    1  C1  UNL     1      -2.596   1.846   0.598  1.00  0.00     0.129 A 
HETATM    2  C2  UNL     1      -1.934   3.090   0.590  1.00  0.00     0.029 A 
HETATM    3  C3  UNL     1      -0.526   3.143   0.583  1.00  0.00     0.129 A 
HETATM    4  C4  UNL     1       0.217   1.949   0.583  1.00  0.00     0.023 A 
HETATM    5  C5  UNL     1      -0.440   0.707   0.590  1.00  0.00    -0.018 A 
HETATM    6  C6  UNL     1      -1.846   0.658   0.598  1.00  0.00     0.023 A 
HETATM    7  O1  UNL     1       0.099   4.303   0.577  1.00  0.00    -0.190 OA
HETATM    8  C15 UNL     1      -2.725   4.352   0.590  1.00  0.00     0.035 C 
HETATM    9  O2  UNL     1      -3.912   1.789   0.606  1.00  0.00    -0.190 OA
ENDROOT
BRANCH   5  10
HETATM   10  C7  UNL     1       0.349  -0.553   0.590  1.00  0.00     0.031 C 
BRANCH  10  11
HETATM   11  C8  UNL     1       0.640  -1.033  -0.832  1.00  0.00     0.031 C 
BRANCH  11  12
HETATM   12  C9  UNL     1       1.430  -2.293  -0.832  1.00  0.00    -0.022 A 
HETATM   13  C10 UNL     1       0.771  -3.537  -0.832  1.00  0.00    -0.004 A 
HETATM   14  C11 UNL     1       1.519  -4.727  -0.832  1.00  0.00    -0.000 A 
HETATM   15  C12 UNL     1       2.924  -4.676  -0.832  1.00  0.00    -0.000 A 
HETATM   16  C13 UNL     1       3.582  -3.436  -0.832  1.00  0.00    -0.000 A 
HETATM   17  C14 UNL     1       2.836  -2.244  -0.832  1.00  0.00    -0.004 A 
ENDBRANCH  11  12
ENDBRANCH  10  11
ENDBRANCH   5  10
TORSDOF 3
