REMARK  8 active torsions:
REMARK  status: ('A' for Active; 'I' for Inactive)
REMARK    1  A    between atoms: C6_6  and  C7_7 
REMARK    2  A    between atoms: C7_7  and  O2_9 
REMARK    3  A    between atoms: O2_9  and  C8_10 
REMARK    4  A    between atoms: C22_25  and  O6_34 
REMARK    5  A    between atoms: C24_27  and  O4_29 
REMARK    6  A    between atoms: O4_29  and  C26_30 
REMARK    7  A    between atoms: O6_34  and  C29_35 
REMARK    8  A    between atoms: C29_35  and  C30_37 
ROOT
HETATM    1  C8  UNL     1       3.037  -1.334   0.649  1.00  0.00     0.132 C 
HETATM    2  C9  UNL     1       1.773  -0.484   0.922  1.00  0.00     0.091 C 
HETATM    3  C10 UNL     1       0.719  -1.274   0.209  1.00  0.00     0.183 C 
HETATM    4  C11 UNL     1       0.285  -2.578   0.846  1.00  0.00     0.192 C 
HETATM    5  C12 UNL     1       1.512  -3.473   0.531  1.00  0.00     0.044 C 
HETATM    6  C13 UNL     1       2.863  -2.846   1.026  1.00  0.00     0.032 C 
HETATM    7  C14 UNL     1       3.061  -3.070   2.529  1.00  0.00     0.003 C 
HETATM    8  O3  UNL     1       0.199  -2.514   2.264  1.00  0.00    -0.214 OA
HETATM    9  C15 UNL     1      -1.094  -2.902   0.262  1.00  0.00    -0.014 C 
HETATM   10  C16 UNL     1      -2.201  -2.229   0.682  1.00  0.00    -0.032 C 
HETATM   11  C17 UNL     1      -3.469  -2.225  -0.154  1.00  0.00     0.021 A 
HETATM   12  C18 UNL     1      -4.852  -2.254   0.471  1.00  0.00     0.004 A 
HETATM   13  C19 UNL     1      -4.301  -0.943  -0.080  1.00  0.00     0.004 A 
HETATM   14  C20 UNL     1      -4.010   0.219   0.899  1.00  0.00     0.003 C 
HETATM   15  C21 UNL     1      -3.090   1.359   0.402  1.00  0.00     0.035 C 
HETATM   16  C22 UNL     1      -1.715   0.855  -0.057  1.00  0.00     0.145 C 
HETATM   17  C23 UNL     1      -0.580   1.859  -0.178  1.00  0.00     0.010 C 
HETATM   18  C24 UNL     1       0.559   1.830   0.840  1.00  0.00     0.145 C 
HETATM   19  C25 UNL     1       1.820   0.996   0.465  1.00  0.00     0.044 C 
HETATM   20  C28 UNL     1      -0.586   2.760  -1.178  1.00  0.00    -0.004 C 
HETATM   21  C36 UNL     1      -5.961  -2.930  -0.324  1.00  0.00     0.000 C 
HETATM   22  C37 UNL     1      -4.957  -2.443   1.981  1.00  0.00     0.000 C 
HETATM   23  C38 UNL     1      -1.170  -3.934  -0.838  1.00  0.00     0.029 C 
HETATM   24  O8  UNL     1       0.297  -0.908  -0.863  1.00  0.00    -0.293 OA
ENDROOT
BRANCH   1  25
HETATM   25  O2  UNL     1       4.143  -0.783   1.354  1.00  0.00    -0.301 OA
BRANCH  25  26
HETATM   26  C7  UNL     1       5.301  -1.027   0.748  1.00  0.00     0.296 C 
HETATM   27  O1  UNL     1       5.582  -2.084   0.235  1.00  0.00    -0.259 OA
BRANCH  26  28
HETATM   28  C6  UNL     1       6.268   0.111   0.740  1.00  0.00     0.063 A 
HETATM   29  C1  UNL     1       7.486  -0.004   0.045  1.00  0.00     0.005 A 
HETATM   30  C2  UNL     1       8.395   1.068   0.037  1.00  0.00     0.000 A 
HETATM   31  C3  UNL     1       8.086   2.256   0.723  1.00  0.00     0.000 A 
HETATM   32  C4  UNL     1       6.869   2.373   1.416  1.00  0.00     0.000 A 
HETATM   33  C5  UNL     1       5.961   1.301   1.426  1.00  0.00     0.005 A 
ENDBRANCH  26  28
ENDBRANCH  25  26
ENDBRANCH   1  25
BRANCH  18  34
HETATM   34  O4  UNL     1       0.969   3.170   1.090  1.00  0.00    -0.300 OA
BRANCH  34  35
HETATM   35  C26 UNL     1       0.057   3.859   1.768  1.00  0.00     0.273 C 
HETATM   36  C27 UNL     1       0.346   5.330   1.914  1.00  0.00     0.106 C 
HETATM   37  O5  UNL     1      -0.941   3.373   2.242  1.00  0.00    -0.264 OA
ENDBRANCH  34  35
ENDBRANCH  18  34
BRANCH  16  38
HETATM   38  O6  UNL     1      -1.898   0.201  -1.307  1.00  0.00    -0.297 OA
BRANCH  38  39
HETATM   39  C29 UNL     1      -1.232   0.797  -2.291  1.00  0.00     0.296 C 
HETATM   40  O7  UNL     1      -0.033   0.734  -2.430  1.00  0.00    -0.259 OA
BRANCH  39  41
HETATM   41  C30 UNL     1      -2.076   1.574  -3.250  1.00  0.00     0.063 A 
HETATM   42  C31 UNL     1      -1.469   2.365  -4.242  1.00  0.00     0.005 A 
HETATM   43  C32 UNL     1      -2.262   3.098  -5.143  1.00  0.00     0.000 A 
HETATM   44  C33 UNL     1      -3.662   3.039  -5.053  1.00  0.00     0.000 A 
HETATM   45  C34 UNL     1      -4.272   2.248  -4.062  1.00  0.00     0.000 A 
HETATM   46  C35 UNL     1      -3.479   1.518  -3.160  1.00  0.00     0.005 A 
ENDBRANCH  39  41
ENDBRANCH  38  39
ENDBRANCH  16  38
TORSDOF 8
