REMARK  2 active torsions:
REMARK  status: ('A' for Active; 'I' for Inactive)
REMARK    1  A    between atoms: C3_3  and  C15_16 
REMARK    2  A    between atoms: C9_9  and  C11_11 
ROOT
HETATM    1  C1  UNL     1      -2.992   1.279  -0.895  1.00  0.00     0.005 C 
HETATM    2  C2  UNL     1      -3.201  -0.232  -0.830  1.00  0.00     0.032 C 
HETATM    3  C3  UNL     1      -1.914  -0.984  -0.565  1.00  0.00     0.034 C 
HETATM    4  C4  UNL     1      -0.865  -0.381   0.053  1.00  0.00    -0.040 C 
HETATM    5  C5  UNL     1      -0.902   1.062   0.562  1.00  0.00     0.043 C 
HETATM    6  C6  UNL     1      -2.291   1.732   0.383  1.00  0.00     0.006 C 
HETATM    7  C7  UNL     1       0.211   1.820  -0.217  1.00  0.00     0.156 C 
HETATM    8  C8  UNL     1       1.602   1.162  -0.059  1.00  0.00     0.038 C 
HETATM    9  C9  UNL     1       1.586  -0.320  -0.471  1.00  0.00     0.025 C 
HETATM   10  C10 UNL     1       0.465  -1.088   0.256  1.00  0.00     0.026 C 
HETATM   11  O1  UNL     1       0.312   3.162   0.223  1.00  0.00    -0.223 OA
HETATM   12  C14 UNL     1      -0.582   1.051   2.068  1.00  0.00     0.007 C 
ENDROOT
BRANCH   3  13
HETATM   13  C15 UNL     1      -1.863  -2.385  -1.022  1.00  0.00     0.206 C 
HETATM   14  O2  UNL     1      -1.918  -2.645  -2.201  1.00  0.00    -0.644 OA
HETATM   15  O3  UNL     1      -1.756  -3.301  -0.065  1.00  0.00    -0.644 OA
ENDBRANCH   3  13
BRANCH   9  16
HETATM   16  C11 UNL     1       2.930  -0.967  -0.242  1.00  0.00    -0.044 C 
HETATM   17  C12 UNL     1       3.615  -1.416  -1.307  1.00  0.00    -0.009 C 
HETATM   18  C13 UNL     1       3.539  -1.131   1.125  1.00  0.00     0.026 C 
ENDBRANCH   9  16
TORSDOF 2
