REMARK  2 active torsions:
REMARK  status: ('A' for Active; 'I' for Inactive)
REMARK    1  A    between atoms: C1_1  and  C7_8 
REMARK    2  A    between atoms: C10_12  and  O3_14 
ROOT
HETATM    1  C7  UNL     1      -0.127   0.508  -0.514  1.00  0.00     0.107 A 
HETATM    2  O2  UNL     1      -0.635   1.524  -1.256  1.00  0.00    -0.273 OA
HETATM    3  C8  UNL     1       0.023   2.707  -1.246  1.00  0.00     0.302 A 
HETATM    4  C9  UNL     1       1.256   2.899  -0.453  1.00  0.00     0.093 A 
HETATM    5  C10 UNL     1       1.736   1.879   0.273  1.00  0.00     0.101 A 
HETATM    6  C11 UNL     1       0.994   0.613   0.232  1.00  0.00     0.049 A 
HETATM    7  O4  UNL     1      -0.373   3.653  -1.885  1.00  0.00    -0.259 OA
ENDROOT
BRANCH   1   8
HETATM    8  C1  UNL     1      -0.838  -0.807  -0.514  1.00  0.00     0.048 A 
HETATM    9  C2  UNL     1      -0.092  -2.000  -0.514  1.00  0.00     0.004 A 
HETATM   10  C3  UNL     1      -0.750  -3.240  -0.514  1.00  0.00     0.000 A 
HETATM   11  C4  UNL     1      -2.154  -3.291  -0.514  1.00  0.00     0.002 A 
HETATM   12  C5  UNL     1      -2.901  -2.101  -0.514  1.00  0.00     0.028 A 
HETATM   13  C6  UNL     1      -2.246  -0.855  -0.514  1.00  0.00     0.133 A 
HETATM   14  O1  UNL     1      -2.959   0.254  -0.514  1.00  0.00    -0.190 OA
ENDBRANCH   1   8
BRANCH   5  15
HETATM   15  O3  UNL     1       2.842   2.008   1.004  1.00  0.00    -0.328 OA
HETATM   16  C12 UNL     1       2.846   1.153   2.137  1.00  0.00     0.181 C 
ENDBRANCH   5  15
TORSDOF 2
