REMARK  4 active torsions:
REMARK  status: ('A' for Active; 'I' for Inactive)
REMARK    1  A    between atoms: C15_15  and  C18_18 
REMARK    2  A    between atoms: C18_18  and  C19_19 
REMARK    3  A    between atoms: C20_20  and  C21_21 
REMARK    4  A    between atoms: C21_21  and  C22_22 
ROOT
HETATM    1  C1  UNL     1       5.762   1.480  -2.063  1.00  0.00     0.033 C 
HETATM    2  C2  UNL     1       6.580   0.512  -1.193  1.00  0.00     0.155 C 
HETATM    3  C3  UNL     1       5.988   0.332   0.227  1.00  0.00     0.068 C 
HETATM    4  C4  UNL     1       4.480   0.678   0.344  1.00  0.00     0.147 C 
HETATM    5  C5  UNL     1       3.660   0.371  -0.955  1.00  0.00     0.032 C 
HETATM    6  C6  UNL     1       4.270   1.107  -2.188  1.00  0.00     0.005 C 
HETATM    7  C7  UNL     1       2.170   0.828  -0.707  1.00  0.00     0.035 C 
HETATM    8  C8  UNL     1       2.019   1.381   0.740  1.00  0.00     0.145 C 
HETATM    9  C9  UNL     1       2.533   0.334   1.719  1.00  0.00     0.001 C 
HETATM   10  C10 UNL     1       3.812  -0.029   1.514  1.00  0.00     0.001 C 
HETATM   11  C11 UNL     1       0.580   1.854   1.047  1.00  0.00     0.032 C 
HETATM   12  C12 UNL     1      -0.506   0.832   0.656  1.00  0.00     0.003 C 
HETATM   13  C13 UNL     1      -0.320   0.326  -0.791  1.00  0.00     0.000 C 
HETATM   14  C14 UNL     1       1.092  -0.234  -1.002  1.00  0.00     0.003 C 
HETATM   15  C15 UNL     1      -1.762   1.695   0.840  1.00  0.00     0.004 C 
HETATM   16  C16 UNL     1      -1.393   3.035   0.205  1.00  0.00     0.000 C 
HETATM   17  C17 UNL     1       0.129   3.123   0.312  1.00  0.00     0.003 C 
HETATM   18  C27 UNL     1      -0.570  -0.330   1.650  1.00  0.00     0.000 C 
HETATM   19  O1  UNL     1       2.930   2.488   0.832  1.00  0.00    -0.222 OA
HETATM   20  O2  UNL     1       4.332   2.088   0.594  1.00  0.00    -0.221 OA
HETATM   21  C28 UNL     1       3.736  -1.147  -1.219  1.00  0.00     0.003 C 
HETATM   22  O3  UNL     1       6.658  -0.738  -1.854  1.00  0.00    -0.223 OA
ENDROOT
BRANCH  15  23
HETATM   23  C18 UNL     1      -3.027   1.098   0.230  1.00  0.00     0.022 C 
HETATM   24  C26 UNL     1      -4.006   2.256   0.437  1.00  0.00     0.005 C 
BRANCH  23  25
HETATM   25  C19 UNL     1      -3.467  -0.158   0.936  1.00  0.00    -0.031 C 
HETATM   26  C20 UNL     1      -3.711  -1.254   0.199  1.00  0.00    -0.031 C 
BRANCH  26  27
HETATM   27  C21 UNL     1      -4.149  -2.510   0.904  1.00  0.00     0.022 C 
HETATM   28  C25 UNL     1      -3.111  -3.629   0.803  1.00  0.00     0.005 C 
BRANCH  27  29
HETATM   29  C22 UNL     1      -5.547  -2.959   0.477  1.00  0.00     0.004 C 
HETATM   30  C23 UNL     1      -6.631  -1.949   0.850  1.00  0.00     0.000 C 
HETATM   31  C24 UNL     1      -5.608  -3.377  -0.992  1.00  0.00     0.000 C 
ENDBRANCH  27  29
ENDBRANCH  26  27
ENDBRANCH  23  25
ENDBRANCH  15  23
TORSDOF 4
