REMARK  0 active torsions:
REMARK  status: ('A' for Active; 'I' for Inactive)
ROOT
HETATM    1  C1  UNL     1       2.533   1.277  -0.389  1.00  0.00     0.300 A 
HETATM    2  C2  UNL     1       3.092  -0.031  -0.004  1.00  0.00     0.069 A 
HETATM    3  C3  UNL     1       2.262  -1.045   0.303  1.00  0.00     0.007 A 
HETATM    4  C4  UNL     1       0.791  -0.828   0.244  1.00  0.00     0.023 A 
HETATM    5  C5  UNL     1       0.293   0.467  -0.139  1.00  0.00     0.105 A 
HETATM    6  O1  UNL     1       1.197   1.436  -0.430  1.00  0.00    -0.273 OA
HETATM    7  C6  UNL     1      -1.119   0.592  -0.172  1.00  0.00     0.048 A 
HETATM    8  C7  UNL     1      -1.955  -0.441   0.138  1.00  0.00     0.102 A 
HETATM    9  C8  UNL     1      -1.492  -1.717   0.517  1.00  0.00     0.025 A 
HETATM   10  C9  UNL     1      -0.088  -1.902   0.570  1.00  0.00     0.004 A 
HETATM   11  O2  UNL     1      -3.275  -0.047   0.025  1.00  0.00    -0.305 OA
HETATM   12  C10 UNL     1      -3.184   1.315  -0.383  1.00  0.00     0.123 A 
HETATM   13  C11 UNL     1      -1.828   1.697  -0.500  1.00  0.00     0.031 A 
HETATM   14  O3  UNL     1       3.299   2.176  -0.655  1.00  0.00    -0.259 OA
ENDROOT
TORSDOF 0
