REMARK  2 active torsions:
REMARK  status: ('A' for Active; 'I' for Inactive)
REMARK    1  A    between atoms: C3_3  and  O5_20 
REMARK    2  A    between atoms: C9_10  and  C10_12 
ROOT
HETATM    1  C1  UNL     1      -3.752  -2.168   0.963  1.00  0.00     0.057 A 
HETATM    2  C2  UNL     1      -3.908  -0.860   0.445  1.00  0.00     0.157 A 
HETATM    3  C3  UNL     1      -2.772  -0.078   0.133  1.00  0.00     0.142 A 
HETATM    4  C4  UNL     1      -1.473  -0.604   0.338  1.00  0.00     0.129 A 
HETATM    5  C5  UNL     1      -1.316  -1.918   0.855  1.00  0.00     0.089 A 
HETATM    6  C6  UNL     1      -2.457  -2.701   1.170  1.00  0.00     0.138 A 
HETATM    7  O1  UNL     1      -2.328  -3.944   1.660  1.00  0.00    -0.190 OA
HETATM    8  C7  UNL     1       0.062  -2.444   1.057  1.00  0.00     0.202 A 
HETATM    9  C8  UNL     1       1.152  -1.516   0.687  1.00  0.00     0.067 A 
HETATM   10  C9  UNL     1       0.883  -0.281   0.203  1.00  0.00     0.103 A 
HETATM   11  O2  UNL     1      -0.387   0.144   0.039  1.00  0.00    -0.305 OA
HETATM   12  O4  UNL     1       0.381  -3.529   1.482  1.00  0.00    -0.286 OA
HETATM   13  O6  UNL     1      -5.139  -0.363   0.254  1.00  0.00    -0.188 OA
ENDROOT
BRANCH  10  14
HETATM   14  C10 UNL     1       2.020   0.617  -0.152  1.00  0.00     0.023 A 
HETATM   15  C11 UNL     1       1.857   1.600  -1.147  1.00  0.00     0.004 A 
HETATM   16  C12 UNL     1       2.928   2.445  -1.481  1.00  0.00     0.028 A 
HETATM   17  C13 UNL     1       4.166   2.314  -0.824  1.00  0.00     0.131 A 
HETATM   18  C14 UNL     1       4.324   1.332   0.168  1.00  0.00     0.028 A 
HETATM   19  O3  UNL     1       5.170   3.107  -1.139  1.00  0.00    -0.190 OA
HETATM   20  C15 UNL     1       3.256   0.484   0.506  1.00  0.00     0.004 A 
ENDBRANCH  10  14
BRANCH   3  21
HETATM   21  O5  UNL     1      -2.922   1.160  -0.357  1.00  0.00    -0.324 OA
HETATM   22  C16 UNL     1      -1.983   1.617  -1.318  1.00  0.00     0.182 C 
ENDBRANCH   3  21
TORSDOF 2
