REMARK  2 active torsions:
REMARK  status: ('A' for Active; 'I' for Inactive)
REMARK    1  A    between atoms: C8_9  and  C9_10 
REMARK    2  A    between atoms: C20_24  and  C22_27 
ROOT
HETATM    1  C9  UNL     1      -0.309   0.076   0.012  1.00  0.00     0.174 C 
HETATM    2  N2  UNL     1      -0.541  -1.078   0.889  1.00  0.00    -0.288 N 
HETATM    3  C10 UNL     1      -1.869  -1.070   1.514  1.00  0.00     0.066 A 
HETATM    4  C11 UNL     1      -2.627  -2.059   2.170  1.00  0.00     0.017 A 
HETATM    5  C12 UNL     1      -3.867  -1.652   2.725  1.00  0.00     0.002 A 
HETATM    6  C13 UNL     1      -4.293  -0.299   2.615  1.00  0.00     0.000 A 
HETATM    7  C14 UNL     1      -3.494   0.656   1.930  1.00  0.00     0.004 A 
HETATM    8  C15 UNL     1      -2.264   0.254   1.350  1.00  0.00     0.053 A 
HETATM    9  C16 UNL     1      -1.324   1.068   0.568  1.00  0.00     0.199 C 
HETATM   10  O1  UNL     1      -1.373   2.266   0.406  1.00  0.00    -0.289 OA
HETATM   11  C17 UNL     1       0.572  -1.889   1.100  1.00  0.00     0.271 C 
HETATM   12  C18 UNL     1       1.742  -1.172   0.447  1.00  0.00     0.254 C 
HETATM   13  C19 UNL     1       1.219   0.256   0.094  1.00  0.00     0.184 C 
HETATM   14  O2  UNL     1       1.643   1.033   1.189  1.00  0.00    -0.348 OA
HETATM   15  C20 UNL     1       2.957   0.666   1.523  1.00  0.00     0.182 C 
HETATM   16  C21 UNL     1       2.899  -0.865   1.451  1.00  0.00     0.221 C 
HETATM   17  O3  UNL     1       4.166  -1.381   1.074  1.00  0.00    -0.217 OA
HETATM   18  O5  UNL     1       2.143  -1.854  -0.730  1.00  0.00    -0.211 OA
HETATM   19  O6  UNL     1       0.580  -2.922   1.730  1.00  0.00    -0.269 OA
ENDROOT
BRANCH   1  20
HETATM   20  C8  UNL     1      -0.691  -0.277  -1.422  1.00  0.00     0.026 A 
HETATM   21  C1  UNL     1      -0.601   0.506  -2.522  1.00  0.00     0.017 A 
HETATM   22  C2  UNL     1      -0.121   1.838  -2.568  1.00  0.00     0.001 A 
HETATM   23  C6  UNL     1      -1.035  -0.133  -3.654  1.00  0.00     0.081 A 
HETATM   24  C3  UNL     1      -0.100   2.506  -3.820  1.00  0.00     0.000 A 
HETATM   25  C4  UNL     1      -0.551   1.842  -4.992  1.00  0.00     0.002 A 
HETATM   26  C5  UNL     1      -1.025   0.508  -4.918  1.00  0.00     0.019 A 
HETATM   27  N1  UNL     1      -1.434  -1.404  -3.272  1.00  0.00    -0.244 NA
HETATM   28  C7  UNL     1      -1.221  -1.502  -1.873  1.00  0.00     0.097 A 
ENDBRANCH   1  20
BRANCH  15  29
HETATM   29  C22 UNL     1       3.307   1.229   2.897  1.00  0.00     0.214 C 
HETATM   30  O4  UNL     1       3.440   2.627   2.779  1.00  0.00    -0.218 OA
ENDBRANCH  15  29
TORSDOF 2
