REMARK  1 active torsions:
REMARK  status: ('A' for Active; 'I' for Inactive)
REMARK    1  A    between atoms: C4_4  and  C9_10 
ROOT
HETATM    1  C1  UNL     1       1.137   1.148  -0.141  1.00  0.00     0.031 A 
HETATM    2  C2  UNL     1       1.379  -0.160  -0.264  1.00  0.00    -0.011 A 
HETATM    3  C3  UNL     1       0.273  -1.174  -0.037  1.00  0.00     0.195 C 
HETATM    4  C4  UNL     1      -1.109  -0.469   0.133  1.00  0.00     0.125 C 
HETATM    5  C5  UNL     1      -1.561   0.189  -1.187  1.00  0.00     0.033 C 
HETATM    6  C6  UNL     1      -1.129   1.664  -1.061  1.00  0.00     0.034 C 
HETATM    7  C7  UNL     1      -0.254   1.662   0.195  1.00  0.00     0.114 C 
HETATM    8  C8  UNL     1      -0.271   2.975   0.969  1.00  0.00     0.034 C 
HETATM    9  O1  UNL     1      -0.928   0.672   0.949  1.00  0.00    -0.357 OA
HETATM   10  O2  UNL     1       0.576  -1.930   1.121  1.00  0.00    -0.216 OA
HETATM   11  C12 UNL     1       2.813  -0.449  -0.643  1.00  0.00     0.028 A 
HETATM   12  C13 UNL     1       3.469   0.957  -0.701  1.00  0.00     0.073 A 
HETATM   13  C14 UNL     1       2.346   1.916  -0.385  1.00  0.00     0.171 A 
HETATM   14  O3  UNL     1       2.441   3.121  -0.346  1.00  0.00    -0.292 OA
HETATM   15  C15 UNL     1       3.533  -1.342   0.361  1.00  0.00     0.005 C 
ENDROOT
BRANCH   4  16
HETATM   16  C9  UNL     1      -2.209  -1.348   0.727  1.00  0.00     0.028 C 
HETATM   17  C10 UNL     1      -2.582  -2.444  -0.273  1.00  0.00     0.003 C 
HETATM   18  C11 UNL     1      -3.402  -0.477   1.119  1.00  0.00     0.003 C 
ENDBRANCH   4  16
TORSDOF 1
