REMARK  2 active torsions:
REMARK  status: ('A' for Active; 'I' for Inactive)
REMARK    1  A    between atoms: C2_2  and  O6_20 
REMARK    2  A    between atoms: C6_6  and  O1_7 
ROOT
HETATM    1  C1  UNL     1      -2.699  -0.137  -0.396  1.00  0.00     0.049 A 
HETATM    2  C2  UNL     1      -2.555   1.148  -0.963  1.00  0.00     0.098 A 
HETATM    3  C3  UNL     1      -1.279   1.754  -1.023  1.00  0.00     0.049 A 
HETATM    4  C4  UNL     1      -0.146   1.076  -0.516  1.00  0.00     0.107 A 
HETATM    5  C5  UNL     1      -0.287  -0.223   0.053  1.00  0.00     0.084 A 
HETATM    6  C6  UNL     1      -1.572  -0.824   0.111  1.00  0.00     0.101 A 
HETATM    7  C8  UNL     1       0.922  -0.941   0.586  1.00  0.00     0.203 A 
HETATM    8  C9  UNL     1       2.209  -0.174   0.459  1.00  0.00     0.089 A 
HETATM    9  C10 UNL     1       2.207   1.125  -0.129  1.00  0.00     0.105 A 
HETATM   10  O2  UNL     1       1.061   1.676  -0.580  1.00  0.00    -0.307 OA
HETATM   11  C11 UNL     1       3.414   1.852  -0.248  1.00  0.00     0.027 A 
HETATM   12  C12 UNL     1       4.627   1.293   0.217  1.00  0.00     0.032 A 
HETATM   13  C13 UNL     1       4.637   0.006   0.799  1.00  0.00     0.156 A 
HETATM   14  C14 UNL     1       3.434  -0.730   0.922  1.00  0.00     0.161 A 
HETATM   15  O3  UNL     1       3.469  -1.951   1.479  1.00  0.00    -0.188 OA
HETATM   16  O4  UNL     1       5.791  -0.518   1.234  1.00  0.00    -0.188 OA
HETATM   17  O5  UNL     1       0.863  -2.047   1.076  1.00  0.00    -0.286 OA
ENDROOT
BRANCH   2  18
HETATM   18  O6  UNL     1      -3.625   1.795  -1.445  1.00  0.00    -0.328 OA
HETATM   19  C15 UNL     1      -4.879   1.131  -1.404  1.00  0.00     0.181 C 
ENDBRANCH   2  18
BRANCH   6  20
HETATM   20  O1  UNL     1      -1.742  -2.045   0.645  1.00  0.00    -0.328 OA
HETATM   21  C7  UNL     1      -3.055  -2.584   0.668  1.00  0.00     0.181 C 
ENDBRANCH   6  20
TORSDOF 2
