REMARK  3 active torsions:
REMARK  status: ('A' for Active; 'I' for Inactive)
REMARK    1  A    between atoms: C3_3  and  C7_8 
REMARK    2  A    between atoms: C7_8  and  C8_9 
REMARK    3  A    between atoms: C8_9  and  C9_11 
ROOT
HETATM    1  C1  UNL     1      -1.900  -1.270  -0.883  1.00  0.00     0.156 A 
HETATM    2  C2  UNL     1      -1.238  -0.028  -0.883  1.00  0.00     0.025 A 
HETATM    3  C3  UNL     1       0.166   0.025  -0.883  1.00  0.00    -0.017 A 
HETATM    4  C4  UNL     1       0.912  -1.166  -0.883  1.00  0.00    -0.002 A 
HETATM    5  C5  UNL     1       0.252  -2.407  -0.883  1.00  0.00     0.029 A 
HETATM    6  C6  UNL     1      -1.152  -2.461  -0.883  1.00  0.00     0.156 A 
HETATM    7  O1  UNL     1      -1.764  -3.629  -0.883  1.00  0.00    -0.188 OA
HETATM    8  O4  UNL     1      -3.217  -1.311  -0.883  1.00  0.00    -0.188 OA
ENDROOT
BRANCH   3   9
HETATM    9  C7  UNL     1       0.861   1.338  -0.883  1.00  0.00     0.069 C 
BRANCH   9  10
HETATM   10  C8  UNL     1       0.709   2.056   0.458  1.00  0.00     0.238 C 
HETATM   11  O2  UNL     1       1.346   3.310   0.363  1.00  0.00    -0.213 OA
BRANCH  10  12
HETATM   12  C9  UNL     1       1.307   1.275   1.597  1.00  0.00     0.304 C 
HETATM   13  O3  UNL     1       2.147   0.428   1.398  1.00  0.00    -0.266 OA
HETATM   14  N1  UNL     1       0.881   1.541   2.869  1.00  0.00    -0.104 N 
ENDBRANCH  10  12
ENDBRANCH   9  10
ENDBRANCH   3   9
TORSDOF 3
