REMARK  1 active torsions:
REMARK  status: ('A' for Active; 'I' for Inactive)
REMARK    1  A    between atoms: C5_5  and  C8_8 
ROOT
HETATM    1  C1  UNL     1      -3.488  -0.760  -1.363  1.00  0.00     0.026 C 
HETATM    2  C2  UNL     1      -2.109  -0.518  -0.805  1.00  0.00    -0.046 C 
HETATM    3  C3  UNL     1      -1.225  -1.533  -0.725  1.00  0.00    -0.002 C 
HETATM    4  C4  UNL     1       0.186  -1.344  -0.203  1.00  0.00     0.173 C 
HETATM    5  C5  UNL     1       0.393  -0.033   0.588  1.00  0.00     0.035 C 
HETATM    6  C6  UNL     1      -0.266   1.129  -0.166  1.00  0.00     0.007 C 
HETATM    7  C7  UNL     1      -1.771   0.887  -0.346  1.00  0.00     0.022 C 
HETATM    8  O1  UNL     1       0.535  -2.441   0.617  1.00  0.00    -0.219 OA
ENDROOT
BRANCH   5   9
HETATM    9  C8  UNL     1       1.877   0.250   0.850  1.00  0.00     0.003 C 
HETATM   10  C9  UNL     1       2.615   0.727  -0.400  1.00  0.00     0.000 C 
HETATM   11  C10 UNL     1       2.098   1.170   2.053  1.00  0.00     0.000 C 
ENDBRANCH   5   9
TORSDOF 1
