REMARK  6 active torsions:
REMARK  status: ('A' for Active; 'I' for Inactive)
REMARK    1  A    between atoms: C1_1  and  C15_18 
REMARK    2  A    between atoms: C3_3  and  C10_12 
REMARK    3  A    between atoms: C5_5  and  C7_7 
REMARK    4  A    between atoms: C8_8  and  C9_9 
REMARK    5  A    between atoms: C10_12  and  C11_13 
REMARK    6  A    between atoms: C15_18  and  C16_19 
ROOT
HETATM    1  C1  UNL     1      -1.129  -0.006  -0.607  1.00  0.00     0.007 A 
HETATM    2  C2  UNL     1      -0.473   1.242  -0.607  1.00  0.00     0.124 A 
HETATM    3  C3  UNL     1       0.934   1.287  -0.607  1.00  0.00     0.007 A 
HETATM    4  C4  UNL     1       1.682   0.096  -0.607  1.00  0.00    -0.002 A 
HETATM    5  C5  UNL     1       1.023  -1.146  -0.607  1.00  0.00    -0.000 A 
HETATM    6  C6  UNL     1      -0.381  -1.197  -0.607  1.00  0.00    -0.002 A 
HETATM    7  O3  UNL     1      -1.174   2.359  -0.607  1.00  0.00    -0.191 OA
ENDROOT
BRANCH   1   8
HETATM    8  C15 UNL     1      -2.615  -0.072  -0.607  1.00  0.00     0.054 C 
BRANCH   8   9
HETATM    9  C16 UNL     1      -3.129  -1.275  -1.350  1.00  0.00    -0.030 C 
HETATM   10  C17 UNL     1      -4.371  -1.713  -1.082  1.00  0.00    -0.048 C 
HETATM   11  C18 UNL     1      -4.852  -2.969  -1.756  1.00  0.00     0.026 C 
HETATM   12  C19 UNL     1      -5.219  -0.922  -0.121  1.00  0.00     0.026 C 
ENDBRANCH   8   9
ENDBRANCH   1   8
BRANCH   3  13
HETATM   13  C10 UNL     1       1.641   2.596  -0.607  1.00  0.00     0.054 C 
BRANCH  13  14
HETATM   14  C11 UNL     1       2.738   2.649   0.422  1.00  0.00    -0.030 C 
HETATM   15  C12 UNL     1       2.420   2.986   1.682  1.00  0.00    -0.048 C 
HETATM   16  C13 UNL     1       1.031   3.291   2.174  1.00  0.00     0.026 C 
HETATM   17  C14 UNL     1       3.522   3.072   2.703  1.00  0.00     0.026 C 
ENDBRANCH  13  14
ENDBRANCH   3  13
BRANCH   5  18
HETATM   18  C7  UNL     1       1.816  -2.412  -0.607  1.00  0.00     0.006 C 
HETATM   19  C8  UNL     1       3.084  -2.379  -0.166  1.00  0.00     0.070 C 
BRANCH  19  20
HETATM   20  C9  UNL     1       3.904  -3.598  -0.148  1.00  0.00     0.211 C 
HETATM   21  O1  UNL     1       5.147  -3.451   0.301  1.00  0.00    -0.644 OA
HETATM   22  O2  UNL     1       3.443  -4.648  -0.523  1.00  0.00    -0.644 OA
ENDBRANCH  19  20
ENDBRANCH   5  18
TORSDOF 6
