REMARK  9 active torsions:
REMARK  status: ('A' for Active; 'I' for Inactive)
REMARK    1  A    between atoms: C1_1  and  C16_23 
REMARK    2  A    between atoms: C2_3  and  O5_10 
REMARK    3  A    between atoms: O5_10  and  C6_11 
REMARK    4  A    between atoms: C7_12  and  O7_21 
REMARK    5  A    between atoms: C9_14  and  C12_17 
REMARK    6  A    between atoms: C12_17  and  C13_18 
REMARK    7  A    between atoms: C16_23  and  O8_24 
REMARK    8  A    between atoms: O8_24  and  C17_25 
REMARK    9  A    between atoms: C19_28  and  C21_32 
ROOT
HETATM    1  C1  UNL     1      -1.623  -1.069   2.003  1.00  0.00     0.180 C 
HETATM    2  O1  UNL     1      -0.215  -1.197   1.850  1.00  0.00    -0.326 OA
HETATM    3  C2  UNL     1       0.275  -2.529   1.906  1.00  0.00     0.274 C 
HETATM    4  C3  UNL     1      -0.038  -3.141   3.288  1.00  0.00     0.241 C 
HETATM    5  C4  UNL     1      -1.546  -3.054   3.609  1.00  0.00     0.220 C 
HETATM    6  C5  UNL     1      -2.040  -1.606   3.392  1.00  0.00     0.215 C 
HETATM    7  O2  UNL     1      -3.453  -1.562   3.490  1.00  0.00    -0.218 OA
HETATM    8  O3  UNL     1      -1.774  -3.445   4.953  1.00  0.00    -0.218 OA
HETATM    9  O4  UNL     1       0.380  -4.494   3.288  1.00  0.00    -0.215 OA
ENDROOT
BRANCH   3  10
HETATM   10  O5  UNL     1       1.679  -2.510   1.687  1.00  0.00    -0.302 OA
BRANCH  10  11
HETATM   11  C6  UNL     1       2.130  -1.896   0.612  1.00  0.00     0.119 A 
HETATM   12  C7  UNL     1       3.424  -1.343   0.601  1.00  0.00     0.117 A 
HETATM   13  C8  UNL     1       3.896  -0.690  -0.552  1.00  0.00     0.029 A 
HETATM   14  C9  UNL     1       3.080  -0.587  -1.692  1.00  0.00     0.037 A 
HETATM   15  C10 UNL     1       1.788  -1.139  -1.680  1.00  0.00     0.005 A 
HETATM   16  C11 UNL     1       1.315  -1.792  -0.529  1.00  0.00     0.026 A 
BRANCH  12  17
HETATM   17  O7  UNL     1       4.195  -1.436   1.666  1.00  0.00    -0.326 OA
HETATM   18  C15 UNL     1       4.202  -2.664   2.379  1.00  0.00     0.181 C 
ENDBRANCH  12  17
BRANCH  14  19
HETATM   19  C12 UNL     1       3.586   0.109  -2.914  1.00  0.00     0.173 C 
HETATM   20  O6  UNL     1       4.696   0.585  -2.943  1.00  0.00    -0.291 OA
BRANCH  19  21
HETATM   21  C13 UNL     1       2.673   0.199  -4.107  1.00  0.00     0.069 C 
HETATM   22  C14 UNL     1       3.339   0.882  -5.301  1.00  0.00     0.009 C 
ENDBRANCH  19  21
ENDBRANCH  14  19
ENDBRANCH  10  11
ENDBRANCH   3  10
BRANCH   1  23
HETATM   23  C16 UNL     1      -1.954   0.415   1.812  1.00  0.00     0.177 C 
BRANCH  23  24
HETATM   24  O8  UNL     1      -1.689   0.757   0.470  1.00  0.00    -0.326 OA
BRANCH  24  25
HETATM   25  C17 UNL     1      -1.929   2.119   0.185  1.00  0.00     0.270 C 
HETATM   26  O9  UNL     1      -3.300   2.420   0.206  1.00  0.00    -0.326 OA
HETATM   27  C18 UNL     1      -3.527   3.653  -0.435  1.00  0.00     0.181 C 
HETATM   28  C19 UNL     1      -2.432   3.733  -1.520  1.00  0.00     0.217 C 
HETATM   29  C20 UNL     1      -1.557   2.474  -1.256  1.00  0.00     0.241 C 
HETATM   30  O11 UNL     1      -1.723   4.954  -1.370  1.00  0.00    -0.218 OA
HETATM   31  O10 UNL     1      -0.160   2.683  -1.391  1.00  0.00    -0.215 OA
BRANCH  28  32
HETATM   32  C21 UNL     1      -3.019   3.712  -2.928  1.00  0.00     0.218 C 
HETATM   33  O12 UNL     1      -3.930   4.782  -3.043  1.00  0.00    -0.218 OA
ENDBRANCH  28  32
ENDBRANCH  24  25
ENDBRANCH  23  24
ENDBRANCH   1  23
TORSDOF 9
