REMARK  2 active torsions:
REMARK  status: ('A' for Active; 'I' for Inactive)
REMARK    1  A    between atoms: C1_1  and  C2_2 
REMARK    2  A    between atoms: C1_1  and  O3_10 
ROOT
HETATM    1  C2  UNL     1      -0.125  -0.008   0.004  1.00  0.00     0.065 A 
HETATM    2  C3  UNL     1      -0.871   1.186   0.004  1.00  0.00     0.033 A 
HETATM    3  C4  UNL     1      -0.215   2.430   0.004  1.00  0.00     0.131 A 
HETATM    4  C5  UNL     1       1.191   2.477   0.004  1.00  0.00     0.027 A 
HETATM    5  C6  UNL     1       1.938   1.287   0.004  1.00  0.00     0.002 A 
HETATM    6  C7  UNL     1       1.281   0.045   0.004  1.00  0.00     0.005 A 
HETATM    7  O1  UNL     1      -0.912   3.547   0.004  1.00  0.00    -0.190 OA
ENDROOT
BRANCH   1   8
HETATM    8  C1  UNL     1      -0.824  -1.326   0.004  1.00  0.00     0.296 C 
HETATM    9  O2  UNL     1      -2.031  -1.391   0.004  1.00  0.00    -0.259 OA
BRANCH   8  10
HETATM   10  O3  UNL     1      -0.027  -2.391   0.004  1.00  0.00    -0.296 OA
HETATM   11  C8  UNL     1      -0.752  -3.611   0.009  1.00  0.00     0.185 C 
ENDBRANCH   8  10
ENDBRANCH   1   8
TORSDOF 2
