REMARK  2 active torsions:
REMARK  status: ('A' for Active; 'I' for Inactive)
REMARK    1  A    between atoms: N1_4  and  C6_10 
REMARK    2  A    between atoms: C9_13  and  C10_15 
ROOT
HETATM    1  C1  UNL     1       0.756  -1.967   2.969  1.00  0.00     0.038 C 
HETATM    2  C2  UNL     1       1.434  -1.215   1.852  1.00  0.00     0.053 A 
HETATM    3  C3  UNL     1       0.691  -0.650   0.873  1.00  0.00     0.083 A 
HETATM    4  N1  UNL     1       1.301   0.041  -0.156  1.00  0.00    -0.256 N 
HETATM    5  C4  UNL     1       2.686   0.168  -0.207  1.00  0.00     0.354 A 
HETATM    6  O1  UNL     1       3.207   0.775  -1.113  1.00  0.00    -0.244 OA
HETATM    7  N2  UNL     1       3.479  -0.398   0.777  1.00  0.00    -0.153 NA
HETATM    8  C5  UNL     1       2.910  -1.096   1.820  1.00  0.00     0.280 A 
HETATM    9  O2  UNL     1       3.600  -1.592   2.682  1.00  0.00    -0.265 OA
ENDROOT
BRANCH   4  10
HETATM   10  C6  UNL     1       0.467   0.641  -1.199  1.00  0.00     0.211 C 
HETATM   11  C7  UNL     1      -0.447   1.770  -0.705  1.00  0.00     0.090 C 
HETATM   12  C8  UNL     1      -1.650   1.652  -1.645  1.00  0.00     0.186 C 
HETATM   13  C9  UNL     1      -1.740   0.131  -1.799  1.00  0.00     0.181 C 
HETATM   14  O5  UNL     1      -1.361   2.266  -2.891  1.00  0.00    -0.221 OA
HETATM   15  O3  UNL     1      -0.400  -0.324  -1.762  1.00  0.00    -0.333 OA
BRANCH  13  16
HETATM   16  C10 UNL     1      -2.473  -0.504  -0.617  1.00  0.00     0.214 C 
HETATM   17  O4  UNL     1      -3.858  -0.383  -0.840  1.00  0.00    -0.218 OA
ENDBRANCH  13  16
ENDBRANCH   4  10
TORSDOF 2
