REMARK  7 active torsions:
REMARK  status: ('A' for Active; 'I' for Inactive)
REMARK    1  A    between atoms: C1_1  and  O8_28 
REMARK    2  A    between atoms: C2_2  and  O7_26 
REMARK    3  A    between atoms: C3_3  and  O6_24 
REMARK    4  A    between atoms: C7_8  and  C10_12 
REMARK    5  A    between atoms: C12_14  and  O5_22 
REMARK    6  A    between atoms: C13_15  and  O4_20 
REMARK    7  A    between atoms: C14_16  and  O3_18 
ROOT
HETATM    1  C1  UNL     1      -4.031  -0.746   0.285  1.00  0.00     0.120 A 
HETATM    2  C2  UNL     1      -3.881  -2.057   0.803  1.00  0.00     0.139 A 
HETATM    3  C3  UNL     1      -2.588  -2.594   1.012  1.00  0.00     0.123 A 
HETATM    4  C4  UNL     1      -1.445  -1.815   0.697  1.00  0.00     0.086 A 
HETATM    5  C5  UNL     1      -1.596  -0.500   0.180  1.00  0.00     0.107 A 
HETATM    6  C6  UNL     1      -2.891   0.029  -0.025  1.00  0.00     0.051 A 
HETATM    7  O1  UNL     1      -0.508   0.246  -0.117  1.00  0.00    -0.307 OA
HETATM    8  C7  UNL     1       0.760  -0.186   0.049  1.00  0.00     0.103 A 
HETATM    9  C8  UNL     1       1.026  -1.420   0.535  1.00  0.00     0.067 A 
HETATM   10  C9  UNL     1      -0.068  -2.344   0.902  1.00  0.00     0.202 A 
HETATM   11  O2  UNL     1       0.248  -3.432   1.328  1.00  0.00    -0.286 OA
ENDROOT
BRANCH   8  12
HETATM   12  C10 UNL     1       1.904   0.709  -0.305  1.00  0.00     0.027 A 
HETATM   13  C11 UNL     1       1.779   1.623  -1.365  1.00  0.00     0.028 A 
HETATM   14  C12 UNL     1       2.856   2.467  -1.701  1.00  0.00     0.118 A 
HETATM   15  C13 UNL     1       4.057   2.393  -0.973  1.00  0.00     0.138 A 
HETATM   16  C14 UNL     1       4.182   1.478   0.090  1.00  0.00     0.118 A 
HETATM   17  C15 UNL     1       3.106   0.639   0.422  1.00  0.00     0.028 A 
BRANCH  14  18
HETATM   18  O5  UNL     1       2.733   3.322  -2.695  1.00  0.00    -0.326 OA
HETATM   19  C18 UNL     1       1.500   3.355  -3.399  1.00  0.00     0.181 C 
ENDBRANCH  14  18
BRANCH  15  20
HETATM   20  O4  UNL     1       5.067   3.184  -1.285  1.00  0.00    -0.324 OA
HETATM   21  C17 UNL     1       6.258   3.074  -0.522  1.00  0.00     0.182 C 
ENDBRANCH  15  20
BRANCH  16  22
HETATM   22  O3  UNL     1       5.307   1.406   0.775  1.00  0.00    -0.326 OA
HETATM   23  C16 UNL     1       5.381   0.467   1.836  1.00  0.00     0.181 C 
ENDBRANCH  16  22
ENDBRANCH   8  12
BRANCH   3  24
HETATM   24  O6  UNL     1      -2.457  -3.836   1.502  1.00  0.00    -0.326 OA
HETATM   25  C19 UNL     1      -2.871  -4.922   0.685  1.00  0.00     0.181 C 
ENDBRANCH   3  24
BRANCH   1  26
HETATM   26  O8  UNL     1      -5.256  -0.238   0.088  1.00  0.00    -0.326 OA
HETATM   27  C21 UNL     1      -5.355   1.094  -0.389  1.00  0.00     0.181 C 
ENDBRANCH   1  26
BRANCH   2  28
HETATM   28  O7  UNL     1      -4.965  -2.789   1.098  1.00  0.00    -0.324 OA
HETATM   29  C20 UNL     1      -6.135  -2.106   1.523  1.00  0.00     0.182 C 
ENDBRANCH   2  28
TORSDOF 7
