REMARK  1 active torsions:
REMARK  status: ('A' for Active; 'I' for Inactive)
REMARK    1  A    between atoms: C21_22  and  C29_31 
ROOT
HETATM    1  C1  UNL     1      -5.736  -1.047   0.141  1.00  0.00     0.152 C 
HETATM    2  O1  UNL     1      -6.209   0.281  -0.016  1.00  0.00    -0.224 OA
HETATM    3  C2  UNL     1      -5.164  -1.553  -1.207  1.00  0.00     0.033 C 
HETATM    4  C3  UNL     1      -3.623  -1.568  -1.250  1.00  0.00     0.003 C 
HETATM    5  C4  UNL     1      -2.988  -0.344  -0.547  1.00  0.00     0.007 C 
HETATM    6  C5  UNL     1      -3.422  -0.287   0.959  1.00  0.00     0.003 C 
HETATM    7  C6  UNL     1      -4.709  -1.109   1.299  1.00  0.00     0.028 C 
HETATM    8  C7  UNL     1      -4.375  -2.586   1.557  1.00  0.00     0.003 C 
HETATM    9  C8  UNL     1      -5.334  -0.572   2.598  1.00  0.00     0.003 C 
HETATM   10  C9  UNL     1      -2.260  -0.615   1.922  1.00  0.00     0.000 C 
HETATM   11  C10 UNL     1      -1.014   0.270   1.723  1.00  0.00     0.001 C 
HETATM   12  C11 UNL     1      -0.803   0.787   0.270  1.00  0.00     0.010 C 
HETATM   13  C12 UNL     1      -1.533   2.141   0.164  1.00  0.00     0.001 C 
HETATM   14  C13 UNL     1       0.721   1.031  -0.033  1.00  0.00     0.016 C 
HETATM   15  C14 UNL     1       1.338   1.729   1.193  1.00  0.00     0.004 C 
HETATM   16  C15 UNL     1       0.975   1.928  -1.270  1.00  0.00     0.004 C 
HETATM   17  C16 UNL     1       2.479   2.191  -1.496  1.00  0.00     0.001 C 
HETATM   18  C17 UNL     1       3.330   0.906  -1.662  1.00  0.00     0.004 C 
HETATM   19  C18 UNL     1       3.027   0.303  -3.043  1.00  0.00     0.000 C 
HETATM   20  C19 UNL     1       4.834   1.285  -1.594  1.00  0.00     0.001 C 
HETATM   21  C20 UNL     1       5.707   0.147  -1.043  1.00  0.00     0.010 C 
HETATM   22  C21 UNL     1       5.344  -0.211   0.422  1.00  0.00     0.079 C 
HETATM   23  C22 UNL     1       6.172   0.637   1.395  1.00  0.00     0.011 C 
HETATM   24  C23 UNL     1       3.834   0.022   0.695  1.00  0.00     0.014 C 
HETATM   25  C24 UNL     1       2.986  -0.162  -0.578  1.00  0.00     0.019 C 
HETATM   26  C25 UNL     1       1.483  -0.248  -0.361  1.00  0.00    -0.042 C 
HETATM   27  C26 UNL     1       0.848  -1.426  -0.523  1.00  0.00     0.029 C 
HETATM   28  C27 UNL     1      -0.617  -1.541  -0.545  1.00  0.00     0.172 C 
HETATM   29  O2  UNL     1      -1.113  -2.637  -0.434  1.00  0.00    -0.291 OA
HETATM   30  C28 UNL     1      -1.424  -0.258  -0.705  1.00  0.00     0.062 C 
HETATM   31  C30 UNL     1      -3.572   0.877  -1.285  1.00  0.00     0.000 C 
ENDROOT
BRANCH  22  32
HETATM   32  C29 UNL     1       5.703  -1.654   0.680  1.00  0.00     0.184 C 
HETATM   33  O3  UNL     1       4.860  -2.461   0.992  1.00  0.00    -0.647 OA
HETATM   34  O4  UNL     1       6.992  -1.949   0.539  1.00  0.00    -0.647 OA
ENDBRANCH  22  32
TORSDOF 1
