REMARK  18 active torsions:
REMARK  status: ('A' for Active; 'I' for Inactive)
REMARK    1  A    between atoms: C5_5  and  C7_7 
REMARK    2  A    between atoms: C7_7  and  C8_8 
REMARK    3  A    between atoms: C8_8  and  C9_9 
REMARK       I    between atoms: C9_9  and  N1_11 
REMARK    4  A    between atoms: N1_11  and  C10_12 
REMARK    5  A    between atoms: C10_12  and  C11_13 
REMARK    6  A    between atoms: C11_13  and  C12_14 
REMARK    7  A    between atoms: C12_14  and  N2_15 
REMARK    8  A    between atoms: N2_15  and  C13_16 
REMARK    9  A    between atoms: C13_16  and  C14_17 
REMARK   10  A    between atoms: C14_17  and  C15_18 
REMARK   11  A    between atoms: C15_18  and  C16_19 
REMARK   12  A    between atoms: C16_19  and  N3_20 
REMARK       I    between atoms: N3_20  and  C17_21 
REMARK   13  A    between atoms: N3_20  and  C26_33 
REMARK   14  A    between atoms: C17_21  and  C18_22 
REMARK   15  A    between atoms: C18_22  and  C19_23 
REMARK   16  A    between atoms: C19_23  and  C20_24 
REMARK   17  A    between atoms: C26_33  and  C27_34 
REMARK   18  A    between atoms: C27_34  and  C28_35 
ROOT
HETATM    1  C14 UNL     1      -1.332   2.734  -0.475  1.00  0.00     0.040 C 
ENDROOT
BRANCH   1   2
HETATM    2  C13 UNL     1       0.106   2.613  -0.982  1.00  0.00     0.290 C 
BRANCH   2   3
HETATM    3  N2  UNL     1       0.895   1.791  -0.082  1.00  0.00     0.339 N 
BRANCH   3   4
HETATM    4  C12 UNL     1       2.270   1.703  -0.545  1.00  0.00     0.292 C 
BRANCH   4   5
HETATM    5  C11 UNL     1       3.108   0.863   0.420  1.00  0.00     0.065 C 
BRANCH   5   6
HETATM    6  C10 UNL     1       4.569   0.744  -0.017  1.00  0.00     0.131 C 
BRANCH   6   7
HETATM    7  N1  UNL     1       5.338  -0.068   0.934  1.00  0.00    -0.238 NA
HETATM    8  C9  UNL     1       6.668  -0.285   0.709  1.00  0.00     0.252 C 
HETATM    9  O1  UNL     1       7.207   0.188  -0.266  1.00  0.00    -0.271 OA
BRANCH   8  10
HETATM   10  C8  UNL     1       7.442  -1.119   1.693  1.00  0.00     0.094 C 
BRANCH  10  11
HETATM   11  C7  UNL     1       8.916  -1.260   1.311  1.00  0.00     0.036 C 
BRANCH  11  12
HETATM   12  C5  UNL     1       9.672  -2.045   2.320  1.00  0.00    -0.019 A 
HETATM   13  C4  UNL     1      10.221  -1.406   3.444  1.00  0.00    -0.002 A 
HETATM   14  C3  UNL     1      10.936  -2.152   4.397  1.00  0.00     0.029 A 
HETATM   15  C2  UNL     1      11.104  -3.539   4.229  1.00  0.00     0.156 A 
HETATM   16  C1  UNL     1      10.553  -4.180   3.104  1.00  0.00     0.156 A 
HETATM   17  O5  UNL     1      11.776  -4.232   5.127  1.00  0.00    -0.188 OA
HETATM   18  C6  UNL     1       9.838  -3.432   2.151  1.00  0.00     0.025 A 
HETATM   19  O6  UNL     1      10.705  -5.479   2.940  1.00  0.00    -0.188 OA
ENDBRANCH  11  12
ENDBRANCH  10  11
ENDBRANCH   8  10
ENDBRANCH   6   7
ENDBRANCH   5   6
ENDBRANCH   4   5
ENDBRANCH   3   4
ENDBRANCH   2   3
ENDBRANCH   1   2
BRANCH   1  20
HETATM   20  C15 UNL     1      -2.207   3.596  -1.385  1.00  0.00     0.026 C 
BRANCH  20  21
HETATM   21  C16 UNL     1      -3.623   3.783  -0.836  1.00  0.00     0.104 C 
BRANCH  21  22
HETATM   22  N3  UNL     1      -4.371   2.520  -0.865  1.00  0.00    -0.320 N 
HETATM   23  C17 UNL     1      -4.844   2.045  -2.057  1.00  0.00     0.234 C 
HETATM   24  O4  UNL     1      -4.668   2.672  -3.074  1.00  0.00    -0.272 OA
BRANCH  23  25
HETATM   25  C18 UNL     1      -5.582   0.734  -2.070  1.00  0.00     0.092 C 
BRANCH  25  26
HETATM   26  C19 UNL     1      -6.078   0.359  -3.469  1.00  0.00     0.036 C 
BRANCH  26  27
HETATM   27  C20 UNL     1      -6.772  -0.955  -3.469  1.00  0.00    -0.019 A 
HETATM   28  C21 UNL     1      -8.178  -1.008  -3.469  1.00  0.00     0.025 A 
HETATM   29  C22 UNL     1      -8.838  -2.248  -3.469  1.00  0.00     0.156 A 
HETATM   30  C23 UNL     1      -8.092  -3.441  -3.469  1.00  0.00     0.156 A 
HETATM   31  O3  UNL     1     -10.156  -2.291  -3.469  1.00  0.00    -0.188 OA
HETATM   32  C24 UNL     1      -6.686  -3.387  -3.469  1.00  0.00     0.029 A 
HETATM   33  O2  UNL     1      -8.703  -4.609  -3.469  1.00  0.00    -0.188 OA
HETATM   34  C25 UNL     1      -6.027  -2.146  -3.469  1.00  0.00    -0.002 A 
ENDBRANCH  26  27
ENDBRANCH  25  26
ENDBRANCH  23  25
BRANCH  22  35
HETATM   35  C26 UNL     1      -4.594   1.795   0.395  1.00  0.00     0.106 C 
BRANCH  35  36
HETATM   36  C27 UNL     1      -5.914   2.215   1.043  1.00  0.00     0.066 C 
BRANCH  36  37
HETATM   37  C28 UNL     1      -6.199   1.461   2.342  1.00  0.00     0.340 C 
HETATM   38  N4  UNL     1      -7.467   1.889   2.910  1.00  0.00     0.618 N 
ENDBRANCH  36  37
ENDBRANCH  35  36
ENDBRANCH  22  35
ENDBRANCH  21  22
ENDBRANCH  20  21
ENDBRANCH   1  20
TORSDOF 18
