REMARK  5 active torsions:
REMARK  status: ('A' for Active; 'I' for Inactive)
REMARK    1  A    between atoms: C1_1  and  C10_13 
REMARK    2  A    between atoms: C3_3  and  O3_11 
REMARK    3  A    between atoms: C4_4  and  O2_9 
REMARK    4  A    between atoms: C5_5  and  O1_7 
REMARK    5  A    between atoms: C10_13  and  C11_14 
ROOT
HETATM    1  C1  UNL     1       0.268  -0.977   0.254  1.00  0.00    -0.016 A 
HETATM    2  C2  UNL     1       0.924   0.266   0.254  1.00  0.00     0.022 A 
HETATM    3  C3  UNL     1       0.180   1.459   0.254  1.00  0.00     0.118 A 
HETATM    4  C4  UNL     1      -1.227   1.408   0.254  1.00  0.00     0.138 A 
HETATM    5  C5  UNL     1      -1.887   0.164   0.254  1.00  0.00     0.118 A 
HETATM    6  C6  UNL     1      -1.137  -1.026   0.254  1.00  0.00     0.022 A 
ENDROOT
BRANCH   1   7
HETATM    7  C10 UNL     1       1.057  -2.236   0.254  1.00  0.00     0.068 C 
BRANCH   7   8
HETATM    8  C11 UNL     1       1.705  -2.494  -1.105  1.00  0.00     0.343 C 
HETATM    9  N1  UNL     1       2.441  -3.746  -1.089  1.00  0.00     0.618 N 
ENDBRANCH   7   8
ENDBRANCH   1   7
BRANCH   3  10
HETATM   10  O3  UNL     1       0.801   2.621   0.254  1.00  0.00    -0.326 OA
HETATM   11  C9  UNL     1       2.219   2.619   0.321  1.00  0.00     0.181 C 
ENDBRANCH   3  10
BRANCH   5  12
HETATM   12  O1  UNL     1      -3.203   0.111   0.254  1.00  0.00    -0.326 OA
HETATM   13  C7  UNL     1      -3.818  -1.168   0.254  1.00  0.00     0.181 C 
ENDBRANCH   5  12
BRANCH   4  14
HETATM   14  O2  UNL     1      -1.928   2.525   0.254  1.00  0.00    -0.324 OA
HETATM   15  C8  UNL     1      -1.219   3.756   0.254  1.00  0.00     0.182 C 
ENDBRANCH   4  14
TORSDOF 5
