REMARK  1 active torsions:
REMARK  status: ('A' for Active; 'I' for Inactive)
REMARK    1  A    between atoms: C2_2  and  O5_21 
ROOT
HETATM    1  C1  UNL     1       3.604   0.690   1.310  1.00  0.00     0.024 A 
HETATM    2  C2  UNL     1       4.221  -0.227   0.428  1.00  0.00     0.096 A 
HETATM    3  C3  UNL     1       3.496  -0.754  -0.665  1.00  0.00     0.048 A 
HETATM    4  C4  UNL     1       2.152  -0.370  -0.879  1.00  0.00     0.094 A 
HETATM    5  C5  UNL     1       1.543   0.584  -0.018  1.00  0.00     0.028 A 
HETATM    6  C6  UNL     1       2.268   1.096   1.087  1.00  0.00     0.002 A 
HETATM    7  C7  UNL     1       0.163   1.059  -0.286  1.00  0.00     0.152 C 
HETATM    8  C8  UNL     1      -0.571   0.371  -1.496  1.00  0.00     0.086 C 
HETATM    9  C9  UNL     1       0.044  -0.991  -1.852  1.00  0.00     0.156 C 
HETATM   10  O1  UNL     1       1.470  -0.918  -1.904  1.00  0.00    -0.331 OA
HETATM   11  C10 UNL     1      -1.949   0.199  -0.905  1.00  0.00     0.007 A 
HETATM   12  C11 UNL     1      -1.910   0.515   0.463  1.00  0.00     0.093 A 
HETATM   13  O2  UNL     1      -0.701   0.908   0.859  1.00  0.00    -0.329 OA
HETATM   14  C12 UNL     1      -3.147   0.354   1.135  1.00  0.00     0.050 A 
HETATM   15  C13 UNL     1      -4.405  -0.059   0.625  1.00  0.00     0.121 A 
HETATM   16  C14 UNL     1      -4.436  -0.356  -0.741  1.00  0.00     0.119 A 
HETATM   17  C15 UNL     1      -3.203  -0.209  -1.422  1.00  0.00     0.024 A 
HETATM   18  O3  UNL     1      -5.668  -0.724  -1.087  1.00  0.00    -0.300 OA
HETATM   19  C16 UNL     1      -6.513  -0.677   0.090  1.00  0.00     0.304 A 
HETATM   20  O4  UNL     1      -5.619  -0.242   1.144  1.00  0.00    -0.299 OA
ENDROOT
BRANCH   2  21
HETATM   21  O5  UNL     1       5.492  -0.599   0.632  1.00  0.00    -0.328 OA
HETATM   22  C17 UNL     1       6.195  -0.007   1.714  1.00  0.00     0.181 C 
ENDBRANCH   2  21
TORSDOF 1
