REMARK  0 active torsions:
REMARK  status: ('A' for Active; 'I' for Inactive)
ROOT
HETATM    1  C1  UNL     1       3.207   1.199   0.553  1.00  0.00     0.038 C 
HETATM    2  C2  UNL     1       3.600   0.311  -0.629  1.00  0.00     0.156 C 
HETATM    3  C3  UNL     1       2.799  -1.016  -0.602  1.00  0.00     0.047 C 
HETATM    4  C4  UNL     1       1.330  -0.807  -0.375  1.00  0.00    -0.024 A 
HETATM    5  C5  UNL     1       0.799   0.420   0.150  1.00  0.00    -0.023 A 
HETATM    6  C6  UNL     1       1.711   1.541   0.537  1.00  0.00     0.029 C 
HETATM    7  C7  UNL     1      -0.619   0.570   0.299  1.00  0.00     0.040 A 
HETATM    8  C8  UNL     1      -1.478  -0.525  -0.029  1.00  0.00     0.026 A 
HETATM    9  C9  UNL     1      -0.947  -1.738  -0.510  1.00  0.00     0.002 A 
HETATM   10  C10 UNL     1       0.441  -1.873  -0.682  1.00  0.00    -0.004 A 
HETATM   11  C11 UNL     1      -2.951  -0.383   0.139  1.00  0.00     0.103 A 
HETATM   12  C12 UNL     1      -3.504   0.783   0.594  1.00  0.00     0.063 A 
HETATM   13  C13 UNL     1      -2.699   1.969   0.947  1.00  0.00     0.236 A 
HETATM   14  C14 UNL     1      -1.219   1.875   0.795  1.00  0.00     0.234 A 
HETATM   15  O1  UNL     1      -0.625   2.889   1.086  1.00  0.00    -0.283 OA
HETATM   16  O2  UNL     1      -3.230   2.979   1.349  1.00  0.00    -0.283 OA
HETATM   17  C15 UNL     1      -4.854   0.566   0.623  1.00  0.00     0.008 A 
HETATM   18  C16 UNL     1      -5.105  -0.742   0.180  1.00  0.00     0.118 A 
HETATM   19  O3  UNL     1      -3.885  -1.365  -0.135  1.00  0.00    -0.305 OA
HETATM   20  C17 UNL     1      -5.906   1.564   1.057  1.00  0.00     0.033 C 
HETATM   21  C18 UNL     1       3.326  -1.881   0.551  1.00  0.00     0.007 C 
HETATM   22  C19 UNL     1       3.063  -1.789  -1.910  1.00  0.00     0.007 C 
HETATM   23  O4  UNL     1       3.381   1.027  -1.834  1.00  0.00    -0.223 OA
ENDROOT
TORSDOF 0
