REMARK  6 active torsions:
REMARK  status: ('A' for Active; 'I' for Inactive)
REMARK    1  A    between atoms: C2_2  and  C3_3 
REMARK    2  A    between atoms: C3_3  and  C4_4 
REMARK    3  A    between atoms: C4_4  and  C5_5 
REMARK    4  A    between atoms: C6_6  and  C7_7 
REMARK    5  A    between atoms: C7_7  and  O1_8 
REMARK    6  A    between atoms: O1_8  and  C8_9 
ROOT
HETATM    1  C8  UNL     1      -2.440  -0.793  -0.832  1.00  0.00     0.096 A 
HETATM    2  C9  UNL     1      -2.516  -2.117  -1.328  1.00  0.00     0.024 A 
HETATM    3  C10 UNL     1      -3.772  -2.691  -1.633  1.00  0.00     0.004 A 
HETATM    4  C11 UNL     1      -4.951  -1.935  -1.436  1.00  0.00     0.023 A 
HETATM    5  C12 UNL     1      -4.883  -0.605  -0.942  1.00  0.00     0.105 A 
HETATM    6  C13 UNL     1      -3.621  -0.037  -0.639  1.00  0.00     0.049 A 
HETATM    7  O2  UNL     1      -6.012   0.115  -0.756  1.00  0.00    -0.273 OA
HETATM    8  C14 UNL     1      -7.242  -0.369  -1.024  1.00  0.00     0.300 A 
HETATM    9  C15 UNL     1      -7.381  -1.750  -1.541  1.00  0.00     0.069 A 
HETATM   10  C16 UNL     1      -6.285  -2.510  -1.744  1.00  0.00     0.007 A 
HETATM   11  O3  UNL     1      -8.242   0.287  -0.854  1.00  0.00    -0.259 OA
ENDROOT
BRANCH   1  12
HETATM   12  O1  UNL     1      -1.248  -0.252  -0.545  1.00  0.00    -0.326 OA
BRANCH  12  13
HETATM   13  C7  UNL     1      -0.088  -1.045  -0.754  1.00  0.00     0.174 C 
BRANCH  13  14
HETATM   14  C6  UNL     1       1.135  -0.256  -0.373  1.00  0.00    -0.002 C 
HETATM   15  C5  UNL     1       2.312  -0.896  -0.297  1.00  0.00    -0.045 C 
HETATM   16  C17 UNL     1       2.350  -2.371  -0.598  1.00  0.00     0.026 C 
BRANCH  15  17
HETATM   17  C4  UNL     1       3.537  -0.107   0.084  1.00  0.00     0.026 C 
BRANCH  17  18
HETATM   18  C3  UNL     1       3.203   1.096   0.967  1.00  0.00     0.030 C 
BRANCH  18  19
HETATM   19  C2  UNL     1       4.430   1.713   1.584  1.00  0.00    -0.034 C 
HETATM   20  C1  UNL     1       4.350   2.973   2.047  1.00  0.00    -0.048 C 
HETATM   21  C18 UNL     1       5.594   3.615   2.598  1.00  0.00     0.026 C 
HETATM   22  C19 UNL     1       3.019   3.676   1.990  1.00  0.00     0.026 C 
ENDBRANCH  18  19
ENDBRANCH  17  18
ENDBRANCH  15  17
ENDBRANCH  13  14
ENDBRANCH  12  13
ENDBRANCH   1  12
TORSDOF 6
