REMARK  0 active torsions:
REMARK  status: ('A' for Active; 'I' for Inactive)
ROOT
HETATM    1  C1  UNL     1      -2.555   0.275  -0.557  1.00  0.00     0.169 C 
HETATM    2  C2  UNL     1      -1.742  -0.779  -1.154  1.00  0.00     0.005 C 
HETATM    3  C3  UNL     1      -0.535  -0.742  -0.588  1.00  0.00    -0.046 C 
HETATM    4  C4  UNL     1      -0.324   0.424   0.326  1.00  0.00     0.022 C 
HETATM    5  C5  UNL     1      -1.779   0.896   0.588  1.00  0.00     0.072 C 
HETATM    6  C6  UNL     1       0.535   1.537  -0.346  1.00  0.00     0.004 C 
HETATM    7  C7  UNL     1       1.842   0.973  -0.949  1.00  0.00     0.000 C 
HETATM    8  C8  UNL     1       2.525  -0.094  -0.074  1.00  0.00     0.000 C 
HETATM    9  C9  UNL     1       1.494  -1.076   0.512  1.00  0.00     0.004 C 
HETATM   10  C10 UNL     1       0.627  -1.684  -0.619  1.00  0.00     0.022 C 
HETATM   11  C11 UNL     1       0.498  -0.293   1.422  1.00  0.00     0.004 C 
HETATM   12  C12 UNL     1       1.158   0.666   2.414  1.00  0.00     0.000 C 
HETATM   13  C13 UNL     1      -0.338  -1.311   2.203  1.00  0.00     0.000 C 
HETATM   14  C14 UNL     1      -0.242   2.303  -1.428  1.00  0.00     0.000 C 
HETATM   15  C15 UNL     1      -2.197  -1.760  -2.201  1.00  0.00     0.033 C 
HETATM   16  O1  UNL     1      -3.664   0.600  -0.912  1.00  0.00    -0.292 OA
ENDROOT
TORSDOF 0
