REMARK  1 active torsions:
REMARK  status: ('A' for Active; 'I' for Inactive)
REMARK    1  A    between atoms: C3_3  and  C15_17 
ROOT
HETATM    1  C1  UNL     1      -1.674  -1.502  -0.104  1.00  0.00     0.134 A 
HETATM    2  C2  UNL     1      -2.854  -0.756  -0.318  1.00  0.00     0.026 A 
HETATM    3  C3  UNL     1      -2.789   0.649  -0.443  1.00  0.00     0.013 A 
HETATM    4  C4  UNL     1      -1.543   1.305  -0.354  1.00  0.00     0.002 A 
HETATM    5  C5  UNL     1      -0.348   0.568  -0.141  1.00  0.00     0.044 A 
HETATM    6  C6  UNL     1       0.949   1.315  -0.057  1.00  0.00     0.196 A 
HETATM    7  O1  UNL     1       0.998   2.522  -0.156  1.00  0.00    -0.287 OA
HETATM    8  C7  UNL     1       2.180   0.492   0.156  1.00  0.00     0.042 A 
HETATM    9  C8  UNL     1       3.440   1.149   0.230  1.00  0.00     0.003 A 
HETATM   10  C9  UNL     1       4.625   0.410   0.430  1.00  0.00     0.000 A 
HETATM   11  C10 UNL     1       4.568  -0.994   0.559  1.00  0.00     0.000 A 
HETATM   12  C11 UNL     1       3.322  -1.656   0.488  1.00  0.00     0.003 A 
HETATM   13  C12 UNL     1       2.121  -0.924   0.287  1.00  0.00     0.042 A 
HETATM   14  C13 UNL     1       0.826  -1.672   0.217  1.00  0.00     0.198 A 
HETATM   15  O2  UNL     1       0.787  -2.877   0.338  1.00  0.00    -0.286 OA
HETATM   16  C14 UNL     1      -0.408  -0.852  -0.012  1.00  0.00     0.067 A 
HETATM   17  O4  UNL     1      -1.777  -2.836   0.012  1.00  0.00    -0.190 OA
ENDROOT
BRANCH   3  18
HETATM   18  C15 UNL     1      -4.020   1.424  -0.668  1.00  0.00     0.209 C 
HETATM   19  O3  UNL     1      -4.424   2.025   0.541  1.00  0.00    -0.215 OA
ENDBRANCH   3  18
TORSDOF 1
