REMARK  6 active torsions:
REMARK  status: ('A' for Active; 'I' for Inactive)
REMARK    1  A    between atoms: C2_2  and  O4_19 
REMARK    2  A    between atoms: C5_5  and  C7_7 
REMARK    3  A    between atoms: C7_7  and  O1_8 
REMARK    4  A    between atoms: O1_8  and  C8_9 
REMARK    5  A    between atoms: C8_9  and  C9_10 
REMARK    6  A    between atoms: C9_10  and  C10_11 
ROOT
HETATM    1  C7  UNL     1       0.584   0.492   0.941  1.00  0.00     0.296 C 
HETATM    2  O3  UNL     1       0.570  -0.219   1.920  1.00  0.00    -0.259 OA
ENDROOT
BRANCH   1   3
HETATM    3  C5  UNL     1       1.262   1.822   0.968  1.00  0.00     0.063 A 
HETATM    4  C4  UNL     1       1.266   2.635  -0.180  1.00  0.00     0.007 A 
HETATM    5  C3  UNL     1       1.904   3.887  -0.153  1.00  0.00     0.024 A 
HETATM    6  C2  UNL     1       2.541   4.332   1.019  1.00  0.00     0.094 A 
HETATM    7  C1  UNL     1       2.535   3.518   2.166  1.00  0.00     0.024 A 
HETATM    8  C6  UNL     1       1.897   2.266   2.142  1.00  0.00     0.007 A 
BRANCH   6   9
HETATM    9  O4  UNL     1       3.139   5.506   1.043  1.00  0.00    -0.328 OA
HETATM   10  C16 UNL     1       3.723   5.932   2.265  1.00  0.00     0.181 C 
ENDBRANCH   6   9
ENDBRANCH   1   3
BRANCH   1  11
HETATM   11  O1  UNL     1       0.014   0.170  -0.217  1.00  0.00    -0.298 OA
BRANCH  11  12
HETATM   12  C8  UNL     1      -0.611  -1.105  -0.174  1.00  0.00     0.157 C 
BRANCH  12  13
HETATM   13  C9  UNL     1      -1.242  -1.408  -1.533  1.00  0.00     0.059 C 
BRANCH  13  14
HETATM   14  C10 UNL     1      -1.937  -2.721  -1.533  1.00  0.00    -0.019 A 
HETATM   15  C11 UNL     1      -3.342  -2.773  -1.533  1.00  0.00    -0.002 A 
HETATM   16  C12 UNL     1      -4.000  -4.016  -1.533  1.00  0.00     0.027 A 
HETATM   17  C13 UNL     1      -3.256  -5.209  -1.533  1.00  0.00     0.131 A 
HETATM   18  C14 UNL     1      -1.852  -5.154  -1.533  1.00  0.00     0.027 A 
HETATM   19  O2  UNL     1      -3.873  -6.373  -1.533  1.00  0.00    -0.190 OA
HETATM   20  C15 UNL     1      -1.191  -3.912  -1.533  1.00  0.00    -0.002 A 
ENDBRANCH  13  14
ENDBRANCH  12  13
ENDBRANCH  11  12
ENDBRANCH   1  11
TORSDOF 6
