REMARK  6 active torsions:
REMARK  status: ('A' for Active; 'I' for Inactive)
REMARK    1  A    between atoms: C1_1  and  C2_2 
REMARK    2  A    between atoms: C1_1  and  C14_17 
REMARK    3  A    between atoms: C2_2  and  C3_3 
REMARK    4  A    between atoms: C3_3  and  C4_4 
REMARK    5  A    between atoms: C5_5  and  C6_6 
REMARK    6  A    between atoms: C7_7  and  C8_8 
ROOT
HETATM    1  C4  UNL     1      -0.072   0.928   1.756  1.00  0.00     0.065 C 
HETATM    2  C5  UNL     1      -1.277   0.838   1.170  1.00  0.00     0.134 C 
HETATM    3  O2  UNL     1      -1.832   1.904   0.602  1.00  0.00    -0.190 OA
ENDROOT
BRANCH   1   4
HETATM    4  C3  UNL     1       0.652   2.205   1.781  1.00  0.00     0.175 C 
HETATM    5  O3  UNL     1       0.197   3.154   2.373  1.00  0.00    -0.291 OA
BRANCH   4   6
HETATM    6  C2  UNL     1       1.969   2.299   1.059  1.00  0.00     0.074 C 
BRANCH   6   7
HETATM    7  C1  UNL     1       2.049   1.347  -0.137  1.00  0.00     0.035 C 
BRANCH   7   8
HETATM    8  C14 UNL     1       3.303   1.543  -0.908  1.00  0.00    -0.022 A 
HETATM    9  C15 UNL     1       4.451   0.795  -0.588  1.00  0.00    -0.002 A 
HETATM   10  C16 UNL     1       5.637   0.980  -1.318  1.00  0.00     0.027 A 
HETATM   11  C17 UNL     1       5.682   1.912  -2.371  1.00  0.00     0.131 A 
HETATM   12  C18 UNL     1       4.531   2.658  -2.689  1.00  0.00     0.027 A 
HETATM   13  O4  UNL     1       6.793   2.084  -3.056  1.00  0.00    -0.190 OA
HETATM   14  C19 UNL     1       3.346   2.474  -1.961  1.00  0.00    -0.002 A 
ENDBRANCH   7   8
ENDBRANCH   6   7
ENDBRANCH   4   6
ENDBRANCH   1   4
BRANCH   2  15
HETATM   15  C6  UNL     1      -2.002  -0.440   1.145  1.00  0.00     0.028 C 
HETATM   16  C7  UNL     1      -3.207  -0.529   0.557  1.00  0.00     0.002 C 
BRANCH  16  17
HETATM   17  C8  UNL     1      -3.906  -1.850   0.557  1.00  0.00     0.000 A 
HETATM   18  C9  UNL     1      -5.311  -1.903   0.557  1.00  0.00     0.002 A 
HETATM   19  C10 UNL     1      -5.967  -3.145   0.557  1.00  0.00     0.027 A 
HETATM   20  C11 UNL     1      -5.225  -4.338   0.557  1.00  0.00     0.131 A 
HETATM   21  C12 UNL     1      -3.820  -4.283   0.557  1.00  0.00     0.027 A 
HETATM   22  O1  UNL     1      -5.842  -5.502   0.557  1.00  0.00    -0.190 OA
HETATM   23  C13 UNL     1      -3.160  -3.041   0.557  1.00  0.00     0.002 A 
ENDBRANCH  16  17
ENDBRANCH   2  15
TORSDOF 6
