REMARK  3 active torsions:
REMARK  status: ('A' for Active; 'I' for Inactive)
REMARK    1  A    between atoms: C1_1  and  O3_12 
REMARK    2  A    between atoms: C5_5  and  C7_7 
REMARK    3  A    between atoms: C8_8  and  C9_9 
ROOT
HETATM    1  C1  UNL     1       0.699   1.904   0.224  1.00  0.00     0.119 A 
HETATM    2  C2  UNL     1       2.105   1.957   0.224  1.00  0.00     0.153 A 
HETATM    3  C3  UNL     1       2.850   0.764   0.224  1.00  0.00     0.029 A 
HETATM    4  C4  UNL     1       2.193  -0.480   0.224  1.00  0.00     0.002 A 
HETATM    5  C5  UNL     1       0.789  -0.531   0.224  1.00  0.00     0.002 A 
HETATM    6  C6  UNL     1       0.043   0.660   0.224  1.00  0.00     0.026 A 
HETATM    7  O2  UNL     1       2.728   3.117   0.224  1.00  0.00    -0.188 OA
ENDROOT
BRANCH   5   8
HETATM    8  C7  UNL     1       0.088  -1.852   0.224  1.00  0.00    -0.002 C 
HETATM    9  C8  UNL     1      -1.233  -1.881  -0.020  1.00  0.00     0.009 C 
BRANCH   9  10
HETATM   10  C9  UNL     1      -1.934  -3.211  -0.020  1.00  0.00     0.209 C 
HETATM   11  O1  UNL     1      -1.844  -3.791  -1.301  1.00  0.00    -0.215 OA
ENDBRANCH   9  10
ENDBRANCH   5   8
BRANCH   1  12
HETATM   12  O3  UNL     1      -0.006   3.020   0.224  1.00  0.00    -0.326 OA
HETATM   13  C10 UNL     1      -1.332   2.969  -0.283  1.00  0.00     0.181 C 
ENDBRANCH   1  12
TORSDOF 3
