REMARK  10 active torsions:
REMARK  status: ('A' for Active; 'I' for Inactive)
REMARK    1  A    between atoms: C1_1  and  O6_23 
REMARK    2  A    between atoms: C4_4  and  C6_7 
REMARK    3  A    between atoms: C9_12  and  C10_13 
REMARK    4  A    between atoms: C10_13  and  O4_14 
REMARK    5  A    between atoms: O4_14  and  C11_15 
REMARK    6  A    between atoms: C11_15  and  C12_16 
REMARK    7  A    between atoms: O6_23  and  C18_24 
REMARK    8  A    between atoms: C22_31  and  C23_33 
REMARK    9  A    between atoms: C23_33  and  O11_34 
REMARK   10  A    between atoms: O11_34  and  C24_35 
ROOT
HETATM    1  C1  UNL     1       1.418   0.361   2.400  1.00  0.00     0.246 C 
HETATM    2  C2  UNL     1       0.617   0.939   3.580  1.00  0.00     0.082 C 
HETATM    3  C3  UNL     1       0.881   2.457   3.648  1.00  0.00     0.043 C 
HETATM    4  C4  UNL     1       2.275   2.877   3.238  1.00  0.00     0.067 C 
HETATM    5  C5  UNL     1       3.131   1.961   2.734  1.00  0.00     0.121 C 
HETATM    6  O1  UNL     1       2.809   0.676   2.514  1.00  0.00    -0.303 OA
HETATM    7  C7  UNL     1      -0.260   3.045   2.795  1.00  0.00     0.031 C 
HETATM    8  C8  UNL     1      -1.361   2.033   2.918  1.00  0.00    -0.032 C 
HETATM    9  C9  UNL     1      -0.871   0.871   3.359  1.00  0.00    -0.014 C 
ENDROOT
BRANCH   1  10
HETATM   10  O6  UNL     1       1.266  -1.043   2.356  1.00  0.00    -0.304 OA
BRANCH  10  11
HETATM   11  C18 UNL     1       1.936  -1.641   1.264  1.00  0.00     0.272 C 
HETATM   12  C19 UNL     1       1.963  -3.182   1.422  1.00  0.00     0.241 C 
HETATM   13  O7  UNL     1       2.750  -3.523   2.551  1.00  0.00    -0.215 OA
HETATM   14  C20 UNL     1       2.549  -3.859   0.162  1.00  0.00     0.220 C 
HETATM   15  O8  UNL     1       2.379  -5.264   0.248  1.00  0.00    -0.218 OA
HETATM   16  C21 UNL     1       1.842  -3.322  -1.102  1.00  0.00     0.215 C 
HETATM   17  O9  UNL     1       2.510  -3.791  -2.260  1.00  0.00    -0.218 OA
HETATM   18  C22 UNL     1       1.832  -1.777  -1.129  1.00  0.00     0.180 C 
HETATM   19  O10 UNL     1       1.246  -1.289   0.070  1.00  0.00    -0.326 OA
BRANCH  18  20
HETATM   20  C23 UNL     1       1.008  -1.205  -2.285  1.00  0.00     0.177 C 
BRANCH  20  21
HETATM   21  O11 UNL     1       1.186   0.193  -2.305  1.00  0.00    -0.326 OA
BRANCH  21  22
HETATM   22  C24 UNL     1       0.420   0.840  -3.303  1.00  0.00     0.270 C 
HETATM   23  C25 UNL     1       0.469   2.379  -3.113  1.00  0.00     0.241 C 
HETATM   24  O12 UNL     1      -0.174   2.723  -1.897  1.00  0.00    -0.215 OA
HETATM   25  C26 UNL     1      -0.236   3.098  -4.287  1.00  0.00     0.220 C 
HETATM   26  O13 UNL     1      -0.094   4.506  -4.190  1.00  0.00    -0.218 OA
HETATM   27  C27 UNL     1       0.293   2.580  -5.645  1.00  0.00     0.215 C 
HETATM   28  O14 UNL     1       1.627   3.010  -5.875  1.00  0.00    -0.218 OA
HETATM   29  C28 UNL     1       0.252   1.037  -5.688  1.00  0.00     0.181 C 
HETATM   30  O15 UNL     1       0.945   0.482  -4.574  1.00  0.00    -0.326 OA
ENDBRANCH  21  22
ENDBRANCH  20  21
ENDBRANCH  18  20
ENDBRANCH  10  11
ENDBRANCH   1  10
BRANCH   9  31
HETATM   31  C10 UNL     1      -1.689  -0.365   3.619  1.00  0.00     0.174 C 
BRANCH  31  32
HETATM   32  O4  UNL     1      -2.539  -0.615   2.510  1.00  0.00    -0.294 OA
BRANCH  32  33
HETATM   33  C11 UNL     1      -3.291  -1.699   2.678  1.00  0.00     0.296 C 
HETATM   34  O5  UNL     1      -3.256  -2.395   3.666  1.00  0.00    -0.259 OA
BRANCH  33  35
HETATM   35  C12 UNL     1      -4.209  -2.020   1.545  1.00  0.00     0.063 A 
HETATM   36  C13 UNL     1      -5.051  -3.145   1.617  1.00  0.00     0.005 A 
HETATM   37  C14 UNL     1      -5.914  -3.445   0.551  1.00  0.00     0.000 A 
HETATM   38  C15 UNL     1      -5.940  -2.623  -0.588  1.00  0.00     0.000 A 
HETATM   39  C16 UNL     1      -5.100  -1.498  -0.662  1.00  0.00     0.000 A 
HETATM   40  C17 UNL     1      -4.234  -1.197   0.404  1.00  0.00     0.005 A 
ENDBRANCH  33  35
ENDBRANCH  32  33
ENDBRANCH  31  32
ENDBRANCH   9  31
BRANCH   4  41
HETATM   41  C6  UNL     1       2.676   4.281   3.414  1.00  0.00     0.209 C 
HETATM   42  O2  UNL     1       1.979   5.043   4.043  1.00  0.00    -0.644 OA
HETATM   43  O3  UNL     1       3.826   4.631   2.842  1.00  0.00    -0.644 OA
ENDBRANCH   4  41
TORSDOF 10
