REMARK  3 active torsions:
REMARK  status: ('A' for Active; 'I' for Inactive)
REMARK    1  A    between atoms: C10_11  and  C14_18 
REMARK    2  A    between atoms: C11_13  and  C12_14 
REMARK    3  A    between atoms: C12_14  and  C13_15 
ROOT
HETATM    1  C1  UNL     1       3.658   0.394   1.059  1.00  0.00     0.019 A 
HETATM    2  C2  UNL     1       4.647  -0.330   0.344  1.00  0.00     0.002 A 
HETATM    3  C3  UNL     1       4.287  -1.125  -0.779  1.00  0.00     0.000 A 
HETATM    4  C4  UNL     1       2.934  -1.205  -1.199  1.00  0.00     0.002 A 
HETATM    5  C5  UNL     1       1.967  -0.473  -0.469  1.00  0.00     0.019 A 
HETATM    6  C6  UNL     1       2.313   0.308   0.631  1.00  0.00     0.081 A 
HETATM    7  N1  UNL     1       1.143   0.910   1.143  1.00  0.00    -0.244 NA
HETATM    8  C7  UNL     1       0.104   0.455   0.307  1.00  0.00     0.097 A 
HETATM    9  C8  UNL     1       0.637  -0.383  -0.664  1.00  0.00     0.022 A 
HETATM   10  C9  UNL     1      -0.189  -0.990  -1.652  1.00  0.00     0.027 A 
HETATM   11  C10 UNL     1      -1.598  -0.727  -1.639  1.00  0.00     0.145 A 
HETATM   12  N2  UNL     1      -2.125   0.117  -0.660  1.00  0.00    -0.240 NA
HETATM   13  C11 UNL     1      -1.285   0.683   0.277  1.00  0.00     0.110 A 
ENDROOT
BRANCH  13  14
HETATM   14  C12 UNL     1      -1.889   1.564   1.289  1.00  0.00     0.226 C 
HETATM   15  O2  UNL     1      -2.480   2.674   0.652  1.00  0.00    -0.214 OA
BRANCH  14  16
HETATM   16  C13 UNL     1      -2.971   0.842   2.094  1.00  0.00     0.221 C 
HETATM   17  O1  UNL     1      -2.363  -0.219   2.795  1.00  0.00    -0.217 OA
ENDBRANCH  14  16
ENDBRANCH  13  14
BRANCH  11  18
HETATM   18  C14 UNL     1      -2.375  -1.399  -2.699  1.00  0.00     0.229 C 
HETATM   19  O3  UNL     1      -1.984  -2.137  -3.572  1.00  0.00    -0.643 OA
HETATM   20  O4  UNL     1      -3.648  -1.049  -2.541  1.00  0.00    -0.643 OA
ENDBRANCH  11  18
TORSDOF 3
