REMARK  11 active torsions:
REMARK  status: ('A' for Active; 'I' for Inactive)
REMARK    1  A    between atoms: C18_27  and  O29_77 
REMARK    2  A    between atoms: C19_28  and  O24_65 
REMARK    3  A    between atoms: C20_29  and  O11_31 
REMARK    4  A    between atoms: O11_31  and  C21_32 
REMARK    5  A    between atoms: C21_32  and  C22_34 
REMARK    6  A    between atoms: C27_39  and  O13_40 
REMARK    7  A    between atoms: O13_40  and  C28_41 
REMARK    8  A    between atoms: O24_65  and  C42_66 
REMARK    9  A    between atoms: C42_66  and  C43_68 
REMARK   10  A    between atoms: O29_77  and  C49_78 
REMARK   11  A    between atoms: C49_78  and  C50_80 
ROOT
HETATM    1  O1  UNL     1       8.754  -3.494  -0.900  1.00  0.00    -0.186 OA
HETATM    2  C1  UNL     1       7.451  -3.303  -0.840  1.00  0.00     0.181 A 
HETATM    3  C2  UNL     1       6.580  -4.281  -1.340  1.00  0.00     0.158 A 
HETATM    4  C3  UNL     1       5.195  -4.084  -1.271  1.00  0.00     0.035 A 
HETATM    5  C4  UNL     1       4.658  -2.916  -0.701  1.00  0.00     0.067 A 
HETATM    6  C5  UNL     1       5.547  -1.900  -0.191  1.00  0.00     0.035 A 
HETATM    7  C6  UNL     1       6.942  -2.121  -0.279  1.00  0.00     0.158 A 
HETATM    8  O2  UNL     1       7.791  -1.213   0.164  1.00  0.00    -0.188 OA
HETATM    9  C7  UNL     1       5.080  -0.629   0.430  1.00  0.00     0.035 A 
HETATM   10  C8  UNL     1       4.328   0.359  -0.299  1.00  0.00     0.067 A 
HETATM   11  C9  UNL     1       4.027   1.588   0.309  1.00  0.00     0.035 A 
HETATM   12  C10 UNL     1       4.377   1.832   1.643  1.00  0.00     0.158 A 
HETATM   13  C11 UNL     1       5.057   0.852   2.381  1.00  0.00     0.181 A 
HETATM   14  C12 UNL     1       5.406  -0.371   1.779  1.00  0.00     0.158 A 
HETATM   15  O3  UNL     1       6.045  -1.275   2.498  1.00  0.00    -0.188 OA
HETATM   16  O4  UNL     1       5.371   1.080   3.641  1.00  0.00    -0.186 OA
HETATM   17  O5  UNL     1       4.065   2.984   2.201  1.00  0.00    -0.188 OA
HETATM   18  C13 UNL     1       3.856   0.105  -1.701  1.00  0.00     0.296 C 
HETATM   19  O6  UNL     1       4.549  -0.502  -2.484  1.00  0.00    -0.259 OA
HETATM   20  O7  UNL     1       2.670   0.477  -2.236  1.00  0.00    -0.296 OA
HETATM   21  C14 UNL     1       1.555   0.996  -1.490  1.00  0.00     0.184 C 
HETATM   22  C15 UNL     1       1.102   0.127  -0.283  1.00  0.00     0.178 C 
HETATM   23  C16 UNL     1       1.227  -1.400  -0.504  1.00  0.00     0.184 C 
HETATM   24  O8  UNL     1       2.551  -1.748  -0.088  1.00  0.00    -0.296 OA
HETATM   25  C17 UNL     1       3.164  -2.791  -0.658  1.00  0.00     0.296 C 
HETATM   26  O9  UNL     1       2.451  -3.639  -1.150  1.00  0.00    -0.259 OA
HETATM   27  C18 UNL     1       0.195  -2.231   0.295  1.00  0.00     0.187 C 
HETATM   28  C19 UNL     1      -0.219  -1.481   1.568  1.00  0.00     0.211 C 
HETATM   29  C20 UNL     1      -0.727  -0.047   1.270  1.00  0.00     0.274 C 
HETATM   30  O10 UNL     1      -0.248   0.451   0.022  1.00  0.00    -0.326 OA
HETATM   31  O34 UNL     1       7.061  -5.387  -1.875  1.00  0.00    -0.188 OA
ENDROOT
BRANCH  29  32
HETATM   32  O11 UNL     1      -2.147  -0.039   1.238  1.00  0.00    -0.270 OA
BRANCH  32  33
HETATM   33  C21 UNL     1      -2.648   1.187   1.338  1.00  0.00     0.300 C 
HETATM   34  O12 UNL     1      -1.977   2.193   1.328  1.00  0.00    -0.259 OA
BRANCH  33  35
HETATM   35  C22 UNL     1      -4.135   1.260   1.467  1.00  0.00     0.090 A 
HETATM   36  C23 UNL     1      -4.863   0.100   1.781  1.00  0.00     0.037 A 
HETATM   37  C24 UNL     1      -6.262   0.150   1.904  1.00  0.00     0.159 A 
HETATM   38  C25 UNL     1      -6.936   1.371   1.713  1.00  0.00     0.183 A 
HETATM   39  O23 UNL     1      -6.936  -0.941   2.201  1.00  0.00    -0.188 OA
HETATM   40  C26 UNL     1      -6.211   2.535   1.397  1.00  0.00     0.181 A 
HETATM   41  O22 UNL     1      -8.248   1.424   1.826  1.00  0.00    -0.186 OA
HETATM   42  C27 UNL     1      -4.809   2.480   1.273  1.00  0.00     0.133 A 
HETATM   43  O21 UNL     1      -6.844   3.676   1.217  1.00  0.00    -0.186 OA
BRANCH  42  44
HETATM   44  O13 UNL     1      -4.135   3.576   0.977  1.00  0.00    -0.303 OA
BRANCH  44  45
HETATM   45  C28 UNL     1      -3.654   3.752  -0.262  1.00  0.00     0.128 A 
HETATM   46  C29 UNL     1      -4.078   2.893  -1.309  1.00  0.00     0.032 A 
HETATM   47  C30 UNL     1      -3.566   3.082  -2.613  1.00  0.00     0.068 A 
HETATM   48  C31 UNL     1      -2.645   4.119  -2.863  1.00  0.00     0.032 A 
HETATM   49  C38 UNL     1      -3.963   2.221  -3.766  1.00  0.00     0.300 A 
HETATM   50  C32 UNL     1      -2.211   4.988  -1.824  1.00  0.00     0.131 A 
HETATM   51  C36 UNL     1      -2.133   4.293  -4.223  1.00  0.00     0.032 A 
HETATM   52  C33 UNL     1      -2.725   4.795  -0.518  1.00  0.00     0.176 A 
HETATM   53  O15 UNL     1      -1.322   5.981  -2.086  1.00  0.00    -0.271 OA
HETATM   54  O14 UNL     1      -2.330   5.602   0.479  1.00  0.00    -0.186 OA
HETATM   55  C34 UNL     1      -0.814   6.193  -3.320  1.00  0.00     0.300 A 
HETATM   56  C35 UNL     1      -1.211   5.332  -4.473  1.00  0.00     0.068 A 
HETATM   57  O20 UNL     1      -0.031   7.109  -3.428  1.00  0.00    -0.259 OA
HETATM   58  C41 UNL     1      -0.701   5.523  -5.779  1.00  0.00     0.035 A 
HETATM   59  C40 UNL     1      -1.125   4.662  -6.826  1.00  0.00     0.158 A 
HETATM   60  C39 UNL     1      -2.053   3.617  -6.568  1.00  0.00     0.179 A 
HETATM   61  O18 UNL     1      -0.645   4.840  -8.065  1.00  0.00    -0.188 OA
HETATM   62  C37 UNL     1      -2.566   3.426  -5.262  1.00  0.00     0.131 A 
HETATM   63  O19 UNL     1      -2.445   2.811  -7.565  1.00  0.00    -0.186 OA
HETATM   64  O16 UNL     1      -3.453   2.434  -5.000  1.00  0.00    -0.271 OA
HETATM   65  O17 UNL     1      -4.746   1.305  -3.660  1.00  0.00    -0.259 OA
ENDBRANCH  44  45
ENDBRANCH  42  44
ENDBRANCH  33  35
ENDBRANCH  32  33
ENDBRANCH  29  32
BRANCH  28  66
HETATM   66  O24 UNL     1       0.914  -1.399   2.426  1.00  0.00    -0.293 OA
BRANCH  66  67
HETATM   67  C42 UNL     1       0.576  -1.137   3.686  1.00  0.00     0.296 C 
HETATM   68  O25 UNL     1      -0.521  -0.756   4.024  1.00  0.00    -0.259 OA
BRANCH  67  69
HETATM   69  C43 UNL     1       1.660  -1.344   4.692  1.00  0.00     0.067 A 
HETATM   70  C44 UNL     1       1.498  -0.879   6.008  1.00  0.00     0.035 A 
HETATM   71  C45 UNL     1       2.518  -1.074   6.957  1.00  0.00     0.158 A 
HETATM   72  C46 UNL     1       3.705  -1.734   6.586  1.00  0.00     0.181 A 
HETATM   73  O28 UNL     1       2.359  -0.637   8.190  1.00  0.00    -0.188 OA
HETATM   74  C47 UNL     1       3.869  -2.199   5.268  1.00  0.00     0.158 A 
HETATM   75  O27 UNL     1       4.662  -1.918   7.473  1.00  0.00    -0.186 OA
HETATM   76  C48 UNL     1       2.846  -2.004   4.322  1.00  0.00     0.035 A 
HETATM   77  O26 UNL     1       4.979  -2.818   4.916  1.00  0.00    -0.188 OA
ENDBRANCH  67  69
ENDBRANCH  66  67
ENDBRANCH  28  66
BRANCH  27  78
HETATM   78  O29 UNL     1      -0.957  -2.438  -0.508  1.00  0.00    -0.296 OA
BRANCH  78  79
HETATM   79  C49 UNL     1      -1.744  -3.395  -0.027  1.00  0.00     0.296 C 
HETATM   80  O30 UNL     1      -1.461  -4.086   0.924  1.00  0.00    -0.259 OA
BRANCH  79  81
HETATM   81  C50 UNL     1      -3.039  -3.578  -0.748  1.00  0.00     0.067 A 
HETATM   82  C51 UNL     1      -3.957  -4.551  -0.314  1.00  0.00     0.035 A 
HETATM   83  C52 UNL     1      -5.176  -4.725  -0.992  1.00  0.00     0.158 A 
HETATM   84  C53 UNL     1      -5.479  -3.922  -2.109  1.00  0.00     0.181 A 
HETATM   85  O33 UNL     1      -6.031  -5.639  -0.582  1.00  0.00    -0.188 OA
HETATM   86  C54 UNL     1      -4.563  -2.947  -2.543  1.00  0.00     0.158 A 
HETATM   87  O32 UNL     1      -6.621  -4.084  -2.746  1.00  0.00    -0.186 OA
HETATM   88  C55 UNL     1      -3.344  -2.777  -1.863  1.00  0.00     0.035 A 
HETATM   89  O31 UNL     1      -4.842  -2.191  -3.588  1.00  0.00    -0.188 OA
ENDBRANCH  79  81
ENDBRANCH  78  79
ENDBRANCH  27  78
TORSDOF 11
