REMARK  8 active torsions:
REMARK  status: ('A' for Active; 'I' for Inactive)
REMARK    1  A    between atoms: C1_1  and  C2_2 
REMARK    2  A    between atoms: C1_1  and  C15_19 
REMARK    3  A    between atoms: C2_2  and  C3_3 
REMARK    4  A    between atoms: C3_3  and  C4_4 
REMARK    5  A    between atoms: C5_5  and  C6_6 
REMARK    6  A    between atoms: C7_7  and  C8_8 
REMARK    7  A    between atoms: C10_10  and  O2_15 
REMARK    8  A    between atoms: C17_21  and  O6_26 
ROOT
HETATM    1  C3  UNL     1      -1.398   0.811  -0.957  1.00  0.00     0.178 C 
HETATM    2  O4  UNL     1      -2.545   0.852  -1.338  1.00  0.00    -0.291 OA
ENDROOT
BRANCH   1   3
HETATM    3  C2  UNL     1      -0.578   2.068  -0.840  1.00  0.00     0.107 C 
BRANCH   3   4
HETATM    4  C1  UNL     1      -0.996   2.928   0.355  1.00  0.00     0.182 C 
HETATM    5  O7  UNL     1      -0.678   2.227   1.535  1.00  0.00    -0.218 OA
BRANCH   4   6
HETATM    6  C15 UNL     1      -0.299   4.240   0.355  1.00  0.00     0.010 A 
HETATM    7  C16 UNL     1      -1.043   5.432   0.355  1.00  0.00     0.025 A 
HETATM    8  C17 UNL     1      -0.389   6.676   0.355  1.00  0.00     0.119 A 
HETATM    9  C18 UNL     1       1.018   6.729   0.355  1.00  0.00     0.153 A 
HETATM   10  C19 UNL     1       1.762   5.535   0.355  1.00  0.00     0.029 A 
HETATM   11  O5  UNL     1       1.641   7.889   0.355  1.00  0.00    -0.188 OA
HETATM   12  C20 UNL     1       1.106   4.291   0.355  1.00  0.00     0.000 A 
BRANCH   8  13
HETATM   13  O6  UNL     1      -1.094   7.789   0.355  1.00  0.00    -0.326 OA
HETATM   14  C21 UNL     1      -0.617   8.881   1.131  1.00  0.00     0.181 C 
ENDBRANCH   8  13
ENDBRANCH   4   6
ENDBRANCH   3   4
ENDBRANCH   1   3
BRANCH   1  15
HETATM   15  C4  UNL     1      -0.777  -0.471  -0.602  1.00  0.00     0.065 C 
HETATM   16  C5  UNL     1      -1.277  -1.627  -1.067  1.00  0.00     0.134 C 
HETATM   17  O3  UNL     1      -2.346  -1.627  -1.860  1.00  0.00    -0.190 OA
BRANCH  16  18
HETATM   18  C6  UNL     1      -0.656  -2.908  -0.711  1.00  0.00     0.028 C 
HETATM   19  C7  UNL     1      -0.269  -3.770  -1.666  1.00  0.00     0.002 C 
BRANCH  19  20
HETATM   20  C8  UNL     1       0.359  -5.061  -1.254  1.00  0.00     0.002 A 
HETATM   21  C9  UNL     1       0.106  -5.590   0.025  1.00  0.00     0.026 A 
HETATM   22  C10 UNL     1       0.695  -6.805   0.416  1.00  0.00     0.119 A 
HETATM   23  C11 UNL     1       1.539  -7.494  -0.475  1.00  0.00     0.153 A 
HETATM   24  C12 UNL     1       1.791  -6.965  -1.752  1.00  0.00     0.029 A 
HETATM   25  O1  UNL     1       2.096  -8.635  -0.115  1.00  0.00    -0.188 OA
HETATM   26  C13 UNL     1       1.201  -5.750  -2.143  1.00  0.00     0.002 A 
BRANCH  22  27
HETATM   27  O2  UNL     1       0.453  -7.295   1.617  1.00  0.00    -0.326 OA
HETATM   28  C14 UNL     1      -0.326  -6.516   2.512  1.00  0.00     0.181 C 
ENDBRANCH  22  27
ENDBRANCH  19  20
ENDBRANCH  16  18
ENDBRANCH   1  15
TORSDOF 8
