REMARK  2 active torsions:
REMARK  status: ('A' for Active; 'I' for Inactive)
REMARK    1  A    between atoms: C9_11  and  C10_12 
REMARK    2  A    between atoms: C10_12  and  C11_13 
ROOT
HETATM    1  C1  UNL     1       1.167  -0.204   0.265  1.00  0.00     0.029 C 
HETATM    2  C2  UNL     1       0.908   1.292  -0.029  1.00  0.00    -0.028 C 
HETATM    3  C3  UNL     1      -0.329   1.783  -0.170  1.00  0.00     0.008 C 
HETATM    4  C4  UNL     1      -1.465   0.854   0.008  1.00  0.00     0.216 A 
HETATM    5  C5  UNL     1      -1.313  -0.581   0.341  1.00  0.00     0.168 A 
HETATM    6  C6  UNL     1       0.002  -1.134  -0.227  1.00  0.00     0.041 C 
HETATM    7  C7  UNL     1      -2.754  -1.068   0.086  1.00  0.00     0.104 C 
HETATM    8  O1  UNL     1      -3.633   0.011   0.004  1.00  0.00    -0.277 OA
HETATM    9  C8  UNL     1      -2.901   1.170  -0.040  1.00  0.00     0.307 C 
HETATM   10  O2  UNL     1      -3.366   2.276  -0.353  1.00  0.00    -0.261 OA
HETATM   11  C9  UNL     1      -3.180  -2.337  -0.061  1.00  0.00    -0.003 C 
HETATM   12  O3  UNL     1      -1.218   0.358   1.359  1.00  0.00    -0.338 OA
ENDROOT
BRANCH  11  13
HETATM   13  C10 UNL     1      -2.288  -3.548   0.035  1.00  0.00     0.028 C 
BRANCH  13  14
HETATM   14  C11 UNL     1      -3.113  -4.827  -0.161  1.00  0.00     0.005 C 
HETATM   15  C12 UNL     1      -2.181  -6.049  -0.057  1.00  0.00     0.000 C 
ENDBRANCH  13  14
ENDBRANCH  11  13
TORSDOF 2
