REMARK  1 active torsions:
REMARK  status: ('A' for Active; 'I' for Inactive)
REMARK    1  A    between atoms: C5_5  and  C16_18 
ROOT
HETATM    1  C1  UNL     1       0.025  -0.652  -0.637  1.00  0.00     0.139 C 
HETATM    2  C2  UNL     1       1.549  -0.307  -0.619  1.00  0.00     0.086 C 
HETATM    3  C3  UNL     1       2.070   0.660   0.486  1.00  0.00     0.191 C 
HETATM    4  C4  UNL     1       1.885   2.156   0.123  1.00  0.00     0.063 C 
HETATM    5  C5  UNL     1       0.859   2.527  -0.943  1.00  0.00    -0.013 C 
HETATM    6  C6  UNL     1      -0.299   1.869  -1.182  1.00  0.00    -0.030 C 
HETATM    7  C7  UNL     1      -0.774   0.672  -0.381  1.00  0.00     0.052 C 
HETATM    8  C8  UNL     1      -2.291   0.434  -0.488  1.00  0.00     0.039 A 
HETATM    9  C9  UNL     1      -2.856  -0.934  -0.154  1.00  0.00     0.155 A 
HETATM   10  C10 UNL     1      -1.953  -2.143   0.129  1.00  0.00     0.182 C 
HETATM   11  C11 UNL     1      -0.467  -1.756   0.361  1.00  0.00     0.062 C 
HETATM   12  C12 UNL     1       0.396  -3.027   0.357  1.00  0.00     0.005 C 
HETATM   13  O1  UNL     1      -2.455  -2.828   1.262  1.00  0.00    -0.221 OA
HETATM   14  O2  UNL     1      -3.957  -1.254  -1.000  1.00  0.00    -0.223 OA
HETATM   15  C13 UNL     1      -3.139   0.242   0.773  1.00  0.00     0.031 A 
HETATM   16  C14 UNL     1      -2.483   0.221   2.150  1.00  0.00     0.003 C 
HETATM   17  C15 UNL     1      -4.516   0.904   0.779  1.00  0.00     0.003 C 
HETATM   18  C17 UNL     1       3.502   0.207   0.648  1.00  0.00     0.197 C 
HETATM   19  C18 UNL     1       3.660  -1.100   0.025  1.00  0.00     0.011 C 
HETATM   20  C19 UNL     1       2.562  -1.434  -0.662  1.00  0.00    -0.022 C 
HETATM   21  C20 UNL     1       4.887  -1.965   0.143  1.00  0.00     0.034 C 
HETATM   22  O4  UNL     1       4.379   0.828   1.203  1.00  0.00    -0.289 OA
HETATM   23  O5  UNL     1       1.459   0.393   1.738  1.00  0.00    -0.217 OA
HETATM   24  O6  UNL     1      -0.264  -1.105  -1.953  1.00  0.00    -0.225 OA
ENDROOT
BRANCH   5  25
HETATM   25  C16 UNL     1       1.189   3.725  -1.801  1.00  0.00     0.204 C 
HETATM   26  O3  UNL     1       1.332   4.863  -0.980  1.00  0.00    -0.216 OA
ENDBRANCH   5  25
TORSDOF 1
