REMARK  5 active torsions:
REMARK  status: ('A' for Active; 'I' for Inactive)
REMARK    1  A    between atoms: C1_1  and  O5_27 
REMARK    2  A    between atoms: C2_2  and  O4_25 
REMARK    3  A    between atoms: C10_11  and  O3_23 
REMARK    4  A    between atoms: C14_15  and  O2_21 
REMARK    5  A    between atoms: C15_16  and  O1_19 
ROOT
HETATM    1  C1  UNL     1      -3.670  -1.151  -0.625  1.00  0.00     0.116 A 
HETATM    2  C2  UNL     1      -2.477  -1.467  -1.318  1.00  0.00     0.116 A 
HETATM    3  C3  UNL     1      -1.447  -0.504  -1.432  1.00  0.00     0.024 A 
HETATM    4  C4  UNL     1      -1.604   0.781  -0.850  1.00  0.00     0.009 A 
HETATM    5  C5  UNL     1      -2.803   1.094  -0.158  1.00  0.00    -0.020 A 
HETATM    6  C6  UNL     1      -3.834   0.127  -0.045  1.00  0.00     0.022 A 
HETATM    7  C7  UNL     1      -2.945   2.449   0.432  1.00  0.00     0.061 C 
HETATM    8  C8  UNL     1      -1.623   3.047   0.990  1.00  0.00     0.256 C 
HETATM    9  N1  UNL     1      -0.385   2.447   0.438  1.00  0.00     0.147 N 
HETATM   10  C9  UNL     1      -0.564   1.857  -0.906  1.00  0.00     0.273 C 
HETATM   11  C10 UNL     1       0.824   1.461  -1.490  1.00  0.00     0.173 C 
HETATM   12  C11 UNL     1       1.656   0.666  -0.549  1.00  0.00     0.007 A 
HETATM   13  C12 UNL     1       1.404   0.723   0.852  1.00  0.00     0.034 A 
HETATM   14  C13 UNL     1       0.287   1.543   1.399  1.00  0.00     0.279 C 
HETATM   15  C14 UNL     1       2.223  -0.024   1.740  1.00  0.00     0.114 A 
HETATM   16  C15 UNL     1       3.275  -0.826   1.238  1.00  0.00     0.116 A 
HETATM   17  C16 UNL     1       3.514  -0.891  -0.152  1.00  0.00     0.026 A 
HETATM   18  C17 UNL     1       2.709  -0.149  -1.043  1.00  0.00     0.000 A 
ENDROOT
BRANCH   1  19
HETATM   19  O5  UNL     1      -4.647  -2.063  -0.516  1.00  0.00    -0.326 OA
HETATM   20  C22 UNL     1      -5.820  -1.701   0.195  1.00  0.00     0.181 C 
ENDBRANCH   1  19
BRANCH   2  21
HETATM   21  O4  UNL     1      -2.320  -2.678  -1.869  1.00  0.00    -0.326 OA
HETATM   22  C21 UNL     1      -1.094  -2.957  -2.527  1.00  0.00     0.181 C 
ENDBRANCH   2  21
BRANCH  11  23
HETATM   23  O3  UNL     1       1.527   2.646  -1.822  1.00  0.00    -0.347 OA
HETATM   24  C20 UNL     1       2.668   2.410  -2.617  1.00  0.00     0.175 C 
ENDBRANCH  11  23
BRANCH  15  25
HETATM   25  O2  UNL     1       2.000   0.023   3.063  1.00  0.00    -0.326 OA
HETATM   26  C19 UNL     1       2.010  -1.199   3.785  1.00  0.00     0.181 C 
ENDBRANCH  15  25
BRANCH  16  27
HETATM   27  O1  UNL     1       4.047  -1.527   2.082  1.00  0.00    -0.326 OA
HETATM   28  C18 UNL     1       5.098  -2.309   1.529  1.00  0.00     0.181 C 
ENDBRANCH  16  27
TORSDOF 5
