REMARK  2 active torsions:
REMARK  status: ('A' for Active; 'I' for Inactive)
REMARK    1  A    between atoms: C9_12  and  C10_13 
REMARK    2  A    between atoms: C10_13  and  C11_14 
ROOT
HETATM    1  C1  UNL     1      -2.998  -0.297   0.287  1.00  0.00     0.028 A 
HETATM    2  C2  UNL     1      -3.750   0.863   0.608  1.00  0.00     0.002 A 
HETATM    3  C3  UNL     1      -3.092   2.104   0.781  1.00  0.00     0.005 A 
HETATM    4  C4  UNL     1      -1.690   2.139   0.627  1.00  0.00     0.067 A 
HETATM    5  C5  UNL     1      -0.965   1.023   0.315  1.00  0.00     0.053 A 
HETATM    6  C6  UNL     1      -1.584  -0.248   0.133  1.00  0.00     0.133 A 
HETATM    7  O1  UNL     1      -1.029  -1.430  -0.166  1.00  0.00    -0.190 OA
HETATM    8  C7  UNL     1       0.445   1.451   0.234  1.00  0.00     0.101 A 
HETATM    9  O2  UNL     1       0.512   2.801   0.502  1.00  0.00    -0.273 OA
HETATM   10  C8  UNL     1      -0.762   3.254   0.744  1.00  0.00     0.300 A 
HETATM   11  O3  UNL     1      -1.094   4.385   1.016  1.00  0.00    -0.259 OA
HETATM   12  C9  UNL     1       1.549   0.727  -0.049  1.00  0.00    -0.001 C 
ENDROOT
BRANCH  12  13
HETATM   13  C10 UNL     1       1.553  -0.746  -0.355  1.00  0.00     0.028 C 
BRANCH  13  14
HETATM   14  C11 UNL     1       2.961  -1.289  -0.594  1.00  0.00     0.005 C 
HETATM   15  C12 UNL     1       2.973  -2.789  -0.894  1.00  0.00     0.000 C 
ENDBRANCH  13  14
ENDBRANCH  12  13
TORSDOF 2
