REMARK  3 active torsions:
REMARK  status: ('A' for Active; 'I' for Inactive)
REMARK    1  A    between atoms: C3_3  and  C20_24 
REMARK    2  A    between atoms: C5_5  and  C18_21 
REMARK    3  A    between atoms: C9_9  and  C10_10 
ROOT
HETATM    1  C1  UNL     1       3.326   0.955  -0.902  1.00  0.00     0.001 C 
HETATM    2  C2  UNL     1       3.549   0.432   0.525  1.00  0.00     0.010 C 
HETATM    3  C3  UNL     1       2.510  -0.641   0.943  1.00  0.00     0.079 C 
HETATM    4  C4  UNL     1       1.176  -0.412   0.172  1.00  0.00     0.027 C 
HETATM    5  C5  UNL     1       0.877   1.072  -0.109  1.00  0.00     0.059 C 
HETATM    6  C6  UNL     1       1.947   1.627  -1.080  1.00  0.00     0.007 C 
HETATM    7  C7  UNL     1      -0.512   0.949  -0.775  1.00  0.00     0.008 C 
HETATM    8  C8  UNL     1      -1.199  -0.272  -0.096  1.00  0.00     0.017 C 
HETATM    9  C9  UNL     1      -0.129  -0.893   0.824  1.00  0.00     0.089 C 
HETATM   10  C11 UNL     1      -2.494   0.164   0.625  1.00  0.00     0.035 C 
HETATM   11  C12 UNL     1      -3.334   0.607  -0.586  1.00  0.00     0.142 C 
HETATM   12  C13 UNL     1      -2.846   1.975  -1.117  1.00  0.00     0.034 C 
HETATM   13  C14 UNL     1      -1.363   2.236  -0.770  1.00  0.00     0.003 C 
HETATM   14  C15 UNL     1      -3.049  -0.496  -1.570  1.00  0.00    -0.017 C 
HETATM   15  C16 UNL     1      -1.787  -1.205  -1.178  1.00  0.00     0.025 C 
HETATM   16  C17 UNL     1      -3.795  -0.809  -2.646  1.00  0.00    -0.007 C 
HETATM   17  O3  UNL     1      -4.705   0.664  -0.236  1.00  0.00    -0.222 OA
HETATM   18  C19 UNL     1       2.992  -2.043   0.541  1.00  0.00     0.011 C 
ENDROOT
BRANCH   3  19
HETATM   19  C20 UNL     1       2.346  -0.629   2.445  1.00  0.00     0.184 C 
HETATM   20  O5  UNL     1       2.529   0.383   3.082  1.00  0.00    -0.647 OA
HETATM   21  O6  UNL     1       1.994  -1.791   2.986  1.00  0.00    -0.647 OA
ENDBRANCH   3  19
BRANCH   5  22
HETATM   22  C18 UNL     1       0.851   1.887   1.170  1.00  0.00     0.206 C 
HETATM   23  O4  UNL     1       1.607   2.816   1.330  1.00  0.00    -0.288 OA
ENDBRANCH   5  22
BRANCH   9  24
HETATM   24  C10 UNL     1      -0.203  -2.391   1.004  1.00  0.00     0.185 C 
HETATM   25  O1  UNL     1       0.043  -3.139   0.088  1.00  0.00    -0.647 OA
HETATM   26  O2  UNL     1      -0.553  -2.797   2.221  1.00  0.00    -0.647 OA
ENDBRANCH   9  24
TORSDOF 3
