REMARK  4 active torsions:
REMARK  status: ('A' for Active; 'I' for Inactive)
REMARK    1  A    between atoms: C1_1  and  C8_10 
REMARK    2  A    between atoms: C11_13  and  C18_23 
REMARK    3  A    between atoms: C13_15  and  O5_21 
REMARK    4  A    between atoms: C18_23  and  C19_24 
ROOT
HETATM    1  C8  UNL     1       0.516   0.096   0.123  1.00  0.00     0.041 C 
HETATM    2  C9  UNL     1      -0.010   1.088  -0.945  1.00  0.00     0.113 C 
HETATM    3  C10 UNL     1      -1.348   1.678  -0.535  1.00  0.00    -0.017 C 
HETATM    4  C11 UNL     1      -2.531   0.803  -0.354  1.00  0.00    -0.021 C 
HETATM    5  C12 UNL     1      -2.521  -0.527  -0.578  1.00  0.00     0.025 C 
HETATM    6  C13 UNL     1      -1.299  -1.305  -1.047  1.00  0.00     0.215 C 
HETATM    7  C14 UNL     1      -0.131  -1.315  -0.022  1.00  0.00     0.061 C 
HETATM    8  C15 UNL     1      -0.551  -1.879   1.344  1.00  0.00     0.006 C 
HETATM    9  O3  UNL     1      -0.826  -0.797  -2.303  1.00  0.00    -0.277 OA
HETATM   10  C16 UNL     1      -0.193   0.385  -2.272  1.00  0.00     0.278 C 
HETATM   11  O4  UNL     1       0.238   0.902  -3.275  1.00  0.00    -0.264 OA
HETATM   12  C21 UNL     1      -1.433   3.010  -0.338  1.00  0.00    -0.004 C 
ENDROOT
BRANCH   1  13
HETATM   13  C1  UNL     1       1.994   0.019   0.111  1.00  0.00    -0.019 A 
HETATM   14  C2  UNL     1       2.738   0.471   1.223  1.00  0.00     0.022 A 
HETATM   15  C3  UNL     1       4.156   0.404   1.232  1.00  0.00     0.119 A 
HETATM   16  C4  UNL     1       4.828  -0.115   0.121  1.00  0.00     0.119 A 
HETATM   17  O2  UNL     1       5.051   0.764   2.154  1.00  0.00    -0.300 OA
HETATM   18  C5  UNL     1       4.080  -0.568  -0.996  1.00  0.00     0.026 A 
HETATM   19  O1  UNL     1       6.141  -0.082   0.352  1.00  0.00    -0.300 OA
HETATM   20  C6  UNL     1       2.670  -0.506  -1.008  1.00  0.00    -0.002 A 
HETATM   21  C7  UNL     1       6.381   0.477   1.662  1.00  0.00     0.304 A 
ENDBRANCH   1  13
BRANCH   6  22
HETATM   22  O5  UNL     1      -1.691  -2.645  -1.281  1.00  0.00    -0.328 OA
HETATM   23  C17 UNL     1      -2.521  -2.791  -2.410  1.00  0.00     0.177 C 
ENDBRANCH   6  22
BRANCH   4  24
HETATM   24  C18 UNL     1      -3.828   1.422   0.109  1.00  0.00     0.052 C 
BRANCH  24  25
HETATM   25  C19 UNL     1      -3.764   1.746   1.578  1.00  0.00    -0.021 C 
HETATM   26  C20 UNL     1      -3.920   0.748   2.461  1.00  0.00    -0.005 C 
ENDBRANCH  24  25
ENDBRANCH   4  24
TORSDOF 4
