REMARK  7 active torsions:
REMARK  status: ('A' for Active; 'I' for Inactive)
REMARK    1  A    between atoms: C1_1  and  O6_27 
REMARK    2  A    between atoms: C3_3  and  C9_11 
REMARK    3  A    between atoms: C5_5  and  O2_9 
REMARK    4  A    between atoms: C6_6  and  O1_7 
REMARK    5  A    between atoms: C15_18  and  C18_22 
REMARK    6  A    between atoms: C15_18  and  O5_25 
REMARK    7  A    between atoms: C18_22  and  C19_23 
ROOT
HETATM    1  C9  UNL     1       0.742  -0.430  -0.799  1.00  0.00     0.148 C 
HETATM    2  O3  UNL     1      -0.309  -1.400  -0.645  1.00  0.00    -0.329 OA
HETATM    3  C10 UNL     1      -1.480  -0.779  -0.748  1.00  0.00     0.093 A 
HETATM    4  C11 UNL     1      -1.326   0.654  -0.777  1.00  0.00     0.001 A 
HETATM    5  C12 UNL     1       0.127   0.988  -0.658  1.00  0.00     0.056 C 
HETATM    6  C13 UNL     1       0.629   1.939  -1.742  1.00  0.00     0.008 C 
HETATM    7  C14 UNL     1      -2.357   1.514  -0.887  1.00  0.00     0.006 A 
HETATM    8  C15 UNL     1      -3.791   1.006  -0.980  1.00  0.00     0.170 A 
HETATM    9  C16 UNL     1      -3.906  -0.518  -0.941  1.00  0.00     0.203 A 
HETATM   10  C17 UNL     1      -2.693  -1.352  -0.818  1.00  0.00     0.064 A 
HETATM   11  O4  UNL     1      -4.986  -1.057  -1.014  1.00  0.00    -0.288 OA
ENDROOT
BRANCH   1  12
HETATM   12  C3  UNL     1       1.832  -0.705   0.176  1.00  0.00     0.009 A 
HETATM   13  C2  UNL     1       2.025  -2.008   0.668  1.00  0.00     0.024 A 
HETATM   14  C1  UNL     1       3.055  -2.270   1.588  1.00  0.00     0.118 A 
HETATM   15  C6  UNL     1       3.895  -1.225   2.020  1.00  0.00     0.138 A 
HETATM   16  C5  UNL     1       3.701   0.080   1.527  1.00  0.00     0.118 A 
HETATM   17  C4  UNL     1       2.672   0.338   0.607  1.00  0.00     0.024 A 
BRANCH  14  18
HETATM   18  O6  UNL     1       3.231  -3.492   2.045  1.00  0.00    -0.326 OA
HETATM   19  C22 UNL     1       2.496  -4.545   1.436  1.00  0.00     0.181 C 
ENDBRANCH  14  18
BRANCH  15  20
HETATM   20  O1  UNL     1       4.859  -1.469   2.883  1.00  0.00    -0.324 OA
HETATM   21  C7  UNL     1       6.098  -0.797   2.705  1.00  0.00     0.182 C 
ENDBRANCH  15  20
BRANCH  16  22
HETATM   22  O2  UNL     1       4.486   1.062   1.928  1.00  0.00    -0.326 OA
HETATM   23  C8  UNL     1       4.260   2.357   1.391  1.00  0.00     0.181 C 
ENDBRANCH  16  22
ENDBRANCH   1  12
BRANCH   8  24
HETATM   24  C18 UNL     1      -4.455   1.561  -2.242  1.00  0.00     0.065 C 
BRANCH  24  25
HETATM   25  C19 UNL     1      -5.918   1.215  -2.322  1.00  0.00    -0.023 C 
HETATM   26  C20 UNL     1      -6.342   0.453  -3.344  1.00  0.00    -0.005 C 
ENDBRANCH  24  25
ENDBRANCH   8  24
BRANCH   8  27
HETATM   27  O5  UNL     1      -4.504   1.535   0.117  1.00  0.00    -0.345 OA
HETATM   28  C21 UNL     1      -4.010   1.102   1.363  1.00  0.00     0.175 C 
ENDBRANCH   8  27
TORSDOF 7
