REMARK  3 active torsions:
REMARK  status: ('A' for Active; 'I' for Inactive)
REMARK    1  A    between atoms: C1_1  and  O6_12 
REMARK    2  A    between atoms: C5_8  and  C6_10 
REMARK    3  A    between atoms: O6_12  and  C7_13 
ROOT
HETATM    1  C1  UNL     1       0.822   0.213   0.269  1.00  0.00     0.270 C 
HETATM    2  C2  UNL     1       0.568   1.641  -0.277  1.00  0.00     0.241 C 
HETATM    3  O1  UNL     1       1.525   2.535   0.269  1.00  0.00    -0.215 OA
HETATM    4  C3  UNL     1      -0.854   2.125   0.088  1.00  0.00     0.220 C 
HETATM    5  O2  UNL     1      -1.131   3.348  -0.576  1.00  0.00    -0.218 OA
HETATM    6  C4  UNL     1      -1.891   1.059  -0.324  1.00  0.00     0.215 C 
HETATM    7  O3  UNL     1      -3.168   1.414   0.174  1.00  0.00    -0.218 OA
HETATM    8  C5  UNL     1      -1.514  -0.336   0.227  1.00  0.00     0.184 C 
HETATM    9  O4  UNL     1      -0.195  -0.668  -0.190  1.00  0.00    -0.326 OA
ENDROOT
BRANCH   1  10
HETATM   10  O6  UNL     1       2.072  -0.273  -0.178  1.00  0.00    -0.329 OA
BRANCH  10  11
HETATM   11  C7  UNL     1       2.451  -1.480   0.443  1.00  0.00     0.145 C 
HETATM   12  C8  UNL     1       3.834  -1.873  -0.076  1.00  0.00     0.035 C 
ENDBRANCH  10  11
ENDBRANCH   1  10
BRANCH   8  13
HETATM   13  C6  UNL     1      -2.436  -1.445  -0.287  1.00  0.00     0.214 C 
HETATM   14  O5  UNL     1      -2.115  -2.637   0.393  1.00  0.00    -0.218 OA
ENDBRANCH   8  13
TORSDOF 3
