REMARK  24 active torsions:
REMARK  status: ('A' for Active; 'I' for Inactive)
REMARK    1  A    between atoms: C2_3  and  O8_19 
REMARK    2  A    between atoms: C3_4  and  O4_9 
REMARK    3  A    between atoms: O4_9  and  C6_10 
REMARK    4  A    between atoms: O8_19  and  C12_20 
REMARK    5  A    between atoms: C12_20  and  C13_21 
REMARK    6  A    between atoms: C14_23  and  O13_30 
REMARK    7  A    between atoms: O13_30  and  C18_31 
REMARK    8  A    between atoms: C33_46  and  C42_55 
REMARK    9  A    between atoms: C42_55  and  O15_57 
REMARK   10  A    between atoms: O15_57  and  C43_58 
REMARK   11  A    between atoms: C44_60  and  C64_95 
REMARK   12  A    between atoms: C47_63  and  O17_64 
REMARK   13  A    between atoms: O17_64  and  C48_65 
REMARK   14  A    between atoms: C50_68  and  O21_73 
REMARK   15  A    between atoms: O21_73  and  C53_74 
REMARK   16  A    between atoms: C56_78  and  O24_81 
REMARK   17  A    between atoms: O24_81  and  C58_82 
REMARK   18  A    between atoms: C64_95  and  O32_96 
REMARK   19  A    between atoms: O32_96  and  C65_97 
REMARK   20  A    between atoms: C65_97  and  C66_98 
REMARK   21  A    between atoms: C67_99  and  C68_100 
REMARK   22  A    between atoms: C68_100  and  C69_101 
REMARK   23  A    between atoms: C69_101  and  S1_102 
REMARK   24  A    between atoms: S1_102  and  C70_103 
ROOT
HETATM    1  C18 UNL     1       1.024   1.894   6.635  1.00  0.00     0.118 C 
HETATM    2  C19 UNL     1       1.312   2.402   5.202  1.00  0.00     0.025 C 
HETATM    3  C20 UNL     1       0.554   1.482   4.189  1.00  0.00     0.002 C 
HETATM    4  C21 UNL     1       0.697  -0.068   4.319  1.00  0.00     0.001 C 
HETATM    5  C22 UNL     1       0.710  -0.485   5.818  1.00  0.00     0.003 C 
HETATM    6  C23 UNL     1       1.466   0.437   6.779  1.00  0.00     0.030 C 
HETATM    7  C24 UNL     1       1.962  -0.568   3.549  1.00  0.00     0.005 C 
HETATM    8  C25 UNL     1       2.162  -0.073   2.089  1.00  0.00     0.004 C 
HETATM    9  C26 UNL     1       1.882   1.444   1.987  1.00  0.00     0.000 C 
HETATM   10  C27 UNL     1       0.626   1.922   2.717  1.00  0.00     0.000 C 
HETATM   11  C28 UNL     1       3.646  -0.377   1.630  1.00  0.00     0.015 C 
HETATM   12  C29 UNL     1       3.796  -1.893   1.581  1.00  0.00    -0.049 C 
HETATM   13  C30 UNL     1       3.175  -2.623   2.526  1.00  0.00    -0.035 C 
HETATM   14  C31 UNL     1       2.267  -2.082   3.612  1.00  0.00     0.025 C 
HETATM   15  C32 UNL     1       4.818  -2.481   0.612  1.00  0.00     0.027 C 
HETATM   16  C33 UNL     1       4.706  -1.844  -0.796  1.00  0.00     0.082 C 
HETATM   17  C34 UNL     1       4.993  -0.339  -0.605  1.00  0.00     0.010 C 
HETATM   18  C35 UNL     1       3.938   0.326   0.279  1.00  0.00     0.004 C 
HETATM   19  C36 UNL     1       5.784  -2.409  -1.748  1.00  0.00     0.010 C 
HETATM   20  C37 UNL     1       5.812  -3.940  -1.782  1.00  0.00     0.001 C 
HETATM   21  C38 UNL     1       6.023  -4.554  -0.385  1.00  0.00     0.000 C 
HETATM   22  C39 UNL     1       4.936  -4.018   0.575  1.00  0.00     0.004 C 
HETATM   23  C40 UNL     1       5.893  -6.091  -0.492  1.00  0.00     0.000 C 
HETATM   24  C41 UNL     1       7.441  -4.250   0.149  1.00  0.00     0.000 C 
HETATM   25  C74 UNL     1       4.757   0.100   2.605  1.00  0.00     0.004 C 
HETATM   26  C75 UNL     1       1.169  -0.812   1.145  1.00  0.00     0.000 C 
HETATM   27  C76 UNL     1      -0.598  -0.736   3.775  1.00  0.00     0.000 C 
HETATM   28  C77 UNL     1       2.844   2.542   5.027  1.00  0.00     0.002 C 
HETATM   29  C78 UNL     1       0.790   3.864   5.090  1.00  0.00     0.002 C 
ENDROOT
BRANCH  16  30
HETATM   30  C42 UNL     1       3.339  -2.106  -1.452  1.00  0.00     0.273 C 
HETATM   31  O14 UNL     1       2.622  -3.053  -1.222  1.00  0.00    -0.264 OA
BRANCH  30  32
HETATM   32  O15 UNL     1       3.061  -1.184  -2.418  1.00  0.00    -0.273 OA
BRANCH  32  33
HETATM   33  C43 UNL     1       2.008  -1.437  -3.324  1.00  0.00     0.273 C 
HETATM   34  O16 UNL     1       2.311  -0.695  -4.488  1.00  0.00    -0.326 OA
HETATM   35  C44 UNL     1       2.164   0.697  -4.389  1.00  0.00     0.181 C 
HETATM   36  C45 UNL     1       0.776   1.096  -3.914  1.00  0.00     0.214 C 
HETATM   37  C46 UNL     1       0.308   0.333  -2.688  1.00  0.00     0.217 C 
HETATM   38  O31 UNL     1      -0.141   0.870  -4.957  1.00  0.00    -0.218 OA
HETATM   39  C47 UNL     1       0.610  -1.159  -2.789  1.00  0.00     0.207 C 
HETATM   40  O30 UNL     1       0.906   0.881  -1.542  1.00  0.00    -0.218 OA
BRANCH  35  41
HETATM   41  C64 UNL     1       3.307   1.346  -3.613  1.00  0.00     0.184 C 
BRANCH  41  42
HETATM   42  O32 UNL     1       3.495   2.669  -4.045  1.00  0.00    -0.296 OA
BRANCH  42  43
HETATM   43  C65 UNL     1       4.414   3.412  -3.355  1.00  0.00     0.291 C 
HETATM   44  O34 UNL     1       4.764   3.060  -2.229  1.00  0.00    -0.260 OA
BRANCH  43  45
HETATM   45  C66 UNL     1       5.208   4.466  -4.043  1.00  0.00     0.037 C 
HETATM   46  C67 UNL     1       6.073   5.204  -3.309  1.00  0.00    -0.024 C 
HETATM   47  C73 UNL     1       5.016   4.612  -5.533  1.00  0.00     0.036 C 
BRANCH  46  48
HETATM   48  C68 UNL     1       7.048   6.232  -3.823  1.00  0.00     0.040 C 
BRANCH  48  49
HETATM   49  C69 UNL     1       8.412   6.150  -3.114  1.00  0.00     0.089 C 
BRANCH  49  50
HETATM   50  S1  UNL     1       9.312   4.607  -3.507  1.00  0.00     0.004 S 
HETATM   51  C72 UNL     1       8.414   3.136  -2.936  1.00  0.00     0.098 C 
HETATM   52  O33 UNL     1       9.535   4.528  -5.149  1.00  0.00    -0.263 OA
BRANCH  50  53
HETATM   53  C70 UNL     1      10.947   4.705  -2.710  1.00  0.00     0.053 C 
HETATM   54  C71 UNL     1      11.355   3.892  -1.727  1.00  0.00     0.009 C 
ENDBRANCH  50  53
ENDBRANCH  49  50
ENDBRANCH  48  49
ENDBRANCH  46  48
ENDBRANCH  43  45
ENDBRANCH  42  43
ENDBRANCH  41  42
ENDBRANCH  35  41
BRANCH  39  55
HETATM   55  O17 UNL     1      -0.373  -1.706  -3.631  1.00  0.00    -0.324 OA
BRANCH  55  56
HETATM   56  C48 UNL     1      -0.565  -3.103  -3.534  1.00  0.00     0.270 C 
HETATM   57  O18 UNL     1      -0.710  -3.579  -4.854  1.00  0.00    -0.329 OA
HETATM   58  C49 UNL     1      -1.843  -3.083  -5.516  1.00  0.00     0.148 C 
HETATM   59  C50 UNL     1      -3.145  -3.449  -4.796  1.00  0.00     0.178 C 
HETATM   60  C63 UNL     1      -1.811  -3.622  -6.949  1.00  0.00     0.035 C 
HETATM   61  C51 UNL     1      -3.064  -3.025  -3.328  1.00  0.00     0.217 C 
HETATM   62  C52 UNL     1      -1.760  -3.452  -2.683  1.00  0.00     0.241 C 
HETATM   63  O20 UNL     1      -4.121  -3.578  -2.578  1.00  0.00    -0.218 OA
HETATM   64  O19 UNL     1      -1.806  -4.844  -2.475  1.00  0.00    -0.215 OA
BRANCH  59  65
HETATM   65  O21 UNL     1      -4.192  -2.794  -5.472  1.00  0.00    -0.326 OA
BRANCH  65  66
HETATM   66  C53 UNL     1      -5.501  -3.187  -5.114  1.00  0.00     0.270 C 
HETATM   67  O22 UNL     1      -6.157  -3.661  -6.271  1.00  0.00    -0.326 OA
HETATM   68  C54 UNL     1      -6.507  -2.664  -7.193  1.00  0.00     0.180 C 
HETATM   69  C55 UNL     1      -7.409  -1.622  -6.556  1.00  0.00     0.211 C 
HETATM   70  C56 UNL     1      -6.712  -0.963  -5.374  1.00  0.00     0.186 C 
HETATM   71  O29 UNL     1      -8.614  -2.224  -6.143  1.00  0.00    -0.218 OA
HETATM   72  C57 UNL     1      -6.249  -2.062  -4.422  1.00  0.00     0.238 C 
HETATM   73  O23 UNL     1      -7.369  -2.619  -3.774  1.00  0.00    -0.215 OA
BRANCH  70  74
HETATM   74  O24 UNL     1      -5.617  -0.274  -5.903  1.00  0.00    -0.326 OA
BRANCH  74  75
HETATM   75  C58 UNL     1      -5.005   0.690  -5.078  1.00  0.00     0.270 C 
HETATM   76  O25 UNL     1      -5.339   1.967  -5.578  1.00  0.00    -0.326 OA
HETATM   77  C59 UNL     1      -4.904   2.211  -6.897  1.00  0.00     0.181 C 
HETATM   78  C60 UNL     1      -3.409   1.992  -7.080  1.00  0.00     0.215 C 
HETATM   79  C61 UNL     1      -2.972   0.651  -6.524  1.00  0.00     0.220 C 
HETATM   80  O28 UNL     1      -2.697   3.009  -6.415  1.00  0.00    -0.218 OA
HETATM   81  C62 UNL     1      -3.506   0.509  -5.112  1.00  0.00     0.241 C 
HETATM   82  O27 UNL     1      -3.462  -0.395  -7.335  1.00  0.00    -0.218 OA
HETATM   83  O26 UNL     1      -2.912   1.455  -4.255  1.00  0.00    -0.215 OA
ENDBRANCH  74  75
ENDBRANCH  70  74
ENDBRANCH  65  66
ENDBRANCH  59  65
ENDBRANCH  55  56
ENDBRANCH  39  55
ENDBRANCH  32  33
ENDBRANCH  30  32
ENDBRANCH  16  30
BRANCH   1  84
HETATM   84  O13 UNL     1      -0.350   2.036   6.889  1.00  0.00    -0.332 OA
BRANCH  84  85
HETATM   85  C14 UNL     1      -0.717   2.179   8.242  1.00  0.00     0.270 C 
HETATM   86  O9  UNL     1      -1.800   1.304   8.481  1.00  0.00    -0.326 OA
HETATM   87  C13 UNL     1      -3.029   1.673   7.914  1.00  0.00     0.180 C 
HETATM   88  C17 UNL     1      -3.432   3.097   8.274  1.00  0.00     0.215 C 
HETATM   89  C16 UNL     1      -2.343   4.118   8.017  1.00  0.00     0.220 C 
HETATM   90  O10 UNL     1      -3.764   3.151   9.647  1.00  0.00    -0.218 OA
HETATM   91  C15 UNL     1      -1.031   3.617   8.597  1.00  0.00     0.241 C 
HETATM   92  O11 UNL     1      -2.220   4.359   6.639  1.00  0.00    -0.218 OA
HETATM   93  O12 UNL     1      -1.113   3.719  10.001  1.00  0.00    -0.215 OA
BRANCH  87  94
HETATM   94  C12 UNL     1      -3.108   1.326   6.428  1.00  0.00     0.177 C 
BRANCH  94  95
HETATM   95  O8  UNL     1      -4.455   1.283   6.025  1.00  0.00    -0.326 OA
BRANCH  95  96
HETATM   96  C2  UNL     1      -4.639   0.797   4.709  1.00  0.00     0.267 C 
HETATM   97  O1  UNL     1      -5.359   1.779   3.991  1.00  0.00    -0.326 OA
HETATM   98  C1  UNL     1      -6.668   1.987   4.460  1.00  0.00     0.181 C 
HETATM   99  C5  UNL     1      -7.473   0.701   4.428  1.00  0.00     0.214 C 
HETATM  100  C4  UNL     1      -6.779  -0.390   5.216  1.00  0.00     0.217 C 
HETATM  101  O2  UNL     1      -8.744   0.918   4.997  1.00  0.00    -0.218 OA
HETATM  102  C3  UNL     1      -5.342  -0.551   4.742  1.00  0.00     0.204 C 
HETATM  103  O3  UNL     1      -6.814  -0.044   6.583  1.00  0.00    -0.218 OA
BRANCH 102 104
HETATM  104  O4  UNL     1      -5.372  -1.144   3.470  1.00  0.00    -0.349 OA
BRANCH 104 105
HETATM  105  C6  UNL     1      -4.149  -1.680   3.034  1.00  0.00     0.149 C 
HETATM  106  C7  UNL     1      -3.800  -1.084   1.666  1.00  0.00     0.035 C 
HETATM  107  C8  UNL     1      -4.787  -1.535   0.581  1.00  0.00     0.038 C 
HETATM  108  C9  UNL     1      -4.889  -3.058   0.524  1.00  0.00     0.185 C 
HETATM  109  C10 UNL     1      -5.223  -3.659   1.878  1.00  0.00     0.215 C 
HETATM  110  O7  UNL     1      -3.664  -3.594   0.075  1.00  0.00    -0.221 OA
HETATM  111  C11 UNL     1      -4.258  -3.200   2.961  1.00  0.00     0.212 C 
HETATM  112  O6  UNL     1      -6.540  -3.311   2.242  1.00  0.00    -0.218 OA
HETATM  113  O5  UNL     1      -2.982  -3.736   2.690  1.00  0.00    -0.218 OA
ENDBRANCH 104 105
ENDBRANCH 102 104
ENDBRANCH  95  96
ENDBRANCH  94  95
ENDBRANCH  87  94
ENDBRANCH  84  85
ENDBRANCH   1  84
TORSDOF 24
