REMARK  5 active torsions:
REMARK  status: ('A' for Active; 'I' for Inactive)
REMARK    1  A    between atoms: C1_1  and  O5_16 
REMARK    2  A    between atoms: C3_3  and  C9_11 
REMARK    3  A    between atoms: C5_5  and  O2_9 
REMARK    4  A    between atoms: C6_6  and  O1_7 
REMARK    5  A    between atoms: C10_12  and  C11_13 
ROOT
HETATM    1  C1  UNL     1      -2.014   0.148  -0.225  1.00  0.00     0.118 A 
HETATM    2  C2  UNL     1      -1.266  -1.041  -0.225  1.00  0.00     0.026 A 
HETATM    3  C3  UNL     1       0.141  -0.992  -0.225  1.00  0.00     0.004 A 
HETATM    4  C4  UNL     1       0.797   0.250  -0.225  1.00  0.00     0.026 A 
HETATM    5  C5  UNL     1       0.053   1.443  -0.225  1.00  0.00     0.118 A 
HETATM    6  C6  UNL     1      -1.354   1.392  -0.225  1.00  0.00     0.138 A 
ENDROOT
BRANCH   3   7
HETATM    7  C9  UNL     1       0.934  -2.258  -0.225  1.00  0.00     0.006 C 
HETATM    8  C10 UNL     1       2.250  -2.194   0.035  1.00  0.00     0.070 C 
BRANCH   8   9
HETATM    9  C11 UNL     1       3.070  -3.410   0.045  1.00  0.00     0.211 C 
HETATM   10  O3  UNL     1       2.570  -4.489  -0.180  1.00  0.00    -0.644 OA
HETATM   11  O4  UNL     1       4.361  -3.235   0.314  1.00  0.00    -0.644 OA
ENDBRANCH   8   9
ENDBRANCH   3   7
BRANCH   1  12
HETATM   12  O5  UNL     1      -3.330   0.096  -0.225  1.00  0.00    -0.326 OA
HETATM   13  C12 UNL     1      -3.947  -1.184  -0.225  1.00  0.00     0.181 C 
ENDBRANCH   1  12
BRANCH   5  14
HETATM   14  O2  UNL     1       0.674   2.605  -0.225  1.00  0.00    -0.326 OA
HETATM   15  C8  UNL     1       2.088   2.605  -0.098  1.00  0.00     0.181 C 
ENDBRANCH   5  14
BRANCH   6  16
HETATM   16  O1  UNL     1      -2.055   2.510  -0.225  1.00  0.00    -0.324 OA
HETATM   17  C7  UNL     1      -1.697   3.519   0.707  1.00  0.00     0.182 C 
ENDBRANCH   6  16
TORSDOF 5
