REMARK  7 active torsions:
REMARK  status: ('A' for Active; 'I' for Inactive)
REMARK    1  A    between atoms: O1_1  and  C1_2 
REMARK    2  A    between atoms: O1_1  and  C11_13 
REMARK    3  A    between atoms: C1_2  and  C2_4 
REMARK    4  A    between atoms: C4_6  and  C5_7 
REMARK    5  A    between atoms: C11_13  and  C12_14 
REMARK    6  A    between atoms: C14_16  and  O3_17 
REMARK    7  A    between atoms: O3_17  and  C15_18 
ROOT
HETATM    1  C12 UNL     1       0.029  -1.406  -0.389  1.00  0.00     0.010 A 
HETATM    2  C13 UNL     1      -0.463  -2.494  -1.133  1.00  0.00     0.023 A 
HETATM    3  C14 UNL     1      -0.318  -3.807  -0.647  1.00  0.00     0.100 A 
HETATM    4  C21 UNL     1       0.322  -4.027   0.586  1.00  0.00     0.025 A 
HETATM    5  C22 UNL     1       0.814  -2.942   1.330  1.00  0.00     0.002 A 
HETATM    6  C23 UNL     1       0.668  -1.631   0.842  1.00  0.00    -0.002 A 
ENDROOT
BRANCH   1   7
HETATM    7  C11 UNL     1      -0.127  -0.022  -0.906  1.00  0.00     0.178 C 
BRANCH   7   8
HETATM    8  O1  UNL     1       0.445   0.894   0.016  1.00  0.00    -0.297 OA
BRANCH   8   9
HETATM    9  C1  UNL     1       0.338   2.156  -0.391  1.00  0.00     0.272 C 
HETATM   10  O2  UNL     1      -0.188   2.486  -1.428  1.00  0.00    -0.264 OA
BRANCH   9  11
HETATM   11  C2  UNL     1       0.936   3.180   0.559  1.00  0.00     0.091 A 
HETATM   12  C3  UNL     1       0.379   3.340   1.963  1.00  0.00     0.013 A 
HETATM   13  C4  UNL     1       0.158   4.430   0.926  1.00  0.00     0.031 A 
HETATM   14  C9  UNL     1      -0.807   2.477   2.383  1.00  0.00     0.001 C 
HETATM   15  C10 UNL     1       1.375   3.629   3.080  1.00  0.00     0.001 C 
BRANCH  13  16
HETATM   16  C5  UNL     1      -1.227   4.670   0.351  1.00  0.00    -0.034 C 
HETATM   17  C6  UNL     1      -1.402   5.584  -0.617  1.00  0.00    -0.048 C 
HETATM   18  C7  UNL     1      -2.793   5.813  -1.145  1.00  0.00     0.026 C 
HETATM   19  C8  UNL     1      -0.199   6.332  -1.125  1.00  0.00     0.026 C 
ENDBRANCH  13  16
ENDBRANCH   9  11
ENDBRANCH   8   9
ENDBRANCH   7   8
ENDBRANCH   1   7
BRANCH   3  20
HETATM   20  O3  UNL     1      -0.779  -4.826  -1.344  1.00  0.00    -0.307 OA
BRANCH  20  21
HETATM   21  C15 UNL     1      -0.080  -5.944  -1.344  1.00  0.00     0.100 A 
HETATM   22  C16 UNL     1      -0.734  -7.188  -1.344  1.00  0.00     0.025 A 
HETATM   23  C17 UNL     1       0.012  -8.379  -1.344  1.00  0.00     0.002 A 
HETATM   24  C18 UNL     1       1.416  -8.328  -1.344  1.00  0.00     0.000 A 
HETATM   25  C19 UNL     1       2.072  -7.086  -1.344  1.00  0.00     0.002 A 
HETATM   26  C20 UNL     1       1.326  -5.895  -1.344  1.00  0.00     0.025 A 
ENDBRANCH  20  21
ENDBRANCH   3  20
TORSDOF 7
