REMARK  4 active torsions:
REMARK  status: ('A' for Active; 'I' for Inactive)
REMARK    1  A    between atoms: C5_5  and  C9_9 
REMARK    2  A    between atoms: C9_9  and  C10_10 
REMARK    3  A    between atoms: C10_10  and  C11_11 
REMARK    4  A    between atoms: C11_11  and  C12_13 
ROOT
HETATM    1  C1  UNL     1      -0.449   2.703   0.711  1.00  0.00     0.069 C 
HETATM    2  C2  UNL     1       1.037   2.803   0.980  1.00  0.00     0.172 C 
HETATM    3  C3  UNL     1       1.801   1.558   1.191  1.00  0.00     0.029 C 
HETATM    4  C4  UNL     1       1.225   0.342   1.143  1.00  0.00    -0.041 C 
HETATM    5  C5  UNL     1      -0.256   0.185   0.848  1.00  0.00     0.019 C 
HETATM    6  C6  UNL     1      -1.068   1.422   1.309  1.00  0.00     0.011 C 
HETATM    7  C7  UNL     1      -1.053   1.512   2.840  1.00  0.00     0.001 C 
HETATM    8  C8  UNL     1      -2.531   1.297   0.863  1.00  0.00     0.001 C 
HETATM    9  C13 UNL     1       2.041  -0.901   1.387  1.00  0.00     0.026 C 
HETATM   10  O3  UNL     1       1.590   3.877   1.027  1.00  0.00    -0.291 OA
ENDROOT
BRANCH   5  11
HETATM   11  C9  UNL     1      -0.436  -0.108  -0.646  1.00  0.00     0.007 C 
BRANCH  11  12
HETATM   12  C10 UNL     1       0.221  -1.420  -1.074  1.00  0.00     0.036 C 
BRANCH  12  13
HETATM   13  C11 UNL     1      -0.152  -1.828  -2.500  1.00  0.00     0.185 C 
HETATM   14  O1  UNL     1      -1.500  -2.242  -2.504  1.00  0.00    -0.221 OA
BRANCH  13  15
HETATM   15  C12 UNL     1       0.703  -2.981  -3.027  1.00  0.00     0.215 C 
HETATM   16  O2  UNL     1       2.014  -2.500  -3.229  1.00  0.00    -0.218 OA
ENDBRANCH  13  15
ENDBRANCH  12  13
ENDBRANCH  11  12
ENDBRANCH   5  11
TORSDOF 4
