REMARK  0 active torsions:
REMARK  status: ('A' for Active; 'I' for Inactive)
ROOT
HETATM    1  C1  UNL     1      -2.400  -0.775  -1.152  1.00  0.00     0.033 C 
HETATM    2  C2  UNL     1      -2.635   0.254  -0.029  1.00  0.00     0.003 C 
HETATM    3  C3  UNL     1      -1.326   0.936   0.387  1.00  0.00     0.003 C 
HETATM    4  C4  UNL     1      -0.285  -0.066   0.961  1.00  0.00     0.032 C 
HETATM    5  C5  UNL     1      -0.139  -1.428   0.203  1.00  0.00     0.175 A 
HETATM    6  C6  UNL     1      -1.240  -1.740  -0.883  1.00  0.00     0.148 A 
HETATM    7  O1  UNL     1      -1.301  -2.178   0.432  1.00  0.00    -0.349 OA
HETATM    8  C7  UNL     1       1.051  -2.385   0.355  1.00  0.00     0.234 C 
HETATM    9  C8  UNL     1       2.371  -1.801   0.184  1.00  0.00     0.209 C 
HETATM   10  C9  UNL     1       2.416  -0.297   0.170  1.00  0.00     0.065 A 
HETATM   11  C10 UNL     1       1.139   0.447   0.518  1.00  0.00     0.011 A 
HETATM   12  C11 UNL     1       1.705   0.523  -0.902  1.00  0.00     0.007 A 
HETATM   13  C12 UNL     1       2.354   1.842  -1.305  1.00  0.00     0.000 C 
HETATM   14  C13 UNL     1       1.047  -0.197  -2.074  1.00  0.00     0.000 C 
HETATM   15  O2  UNL     1       3.365  -2.481   0.064  1.00  0.00    -0.288 OA
HETATM   16  O3  UNL     1       0.937  -3.567   0.596  1.00  0.00    -0.286 OA
HETATM   17  C14 UNL     1      -0.348  -0.272   2.482  1.00  0.00     0.003 C 
HETATM   18  C15 UNL     1      -1.586   2.107   1.340  1.00  0.00     0.000 C 
ENDROOT
TORSDOF 0
