REMARK  12 active torsions:
REMARK  status: ('A' for Active; 'I' for Inactive)
REMARK    1  A    between atoms: C5_6  and  O2_7 
REMARK    2  A    between atoms: O2_7  and  C6_8 
REMARK    3  A    between atoms: C7_9  and  O7_19 
REMARK    4  A    between atoms: C8_11  and  C11_16 
REMARK    5  A    between atoms: O7_19  and  C13_20 
REMARK    6  A    between atoms: C31_39  and  C34_43 
REMARK    7  A    between atoms: C34_43  and  C35_44 
REMARK    8  A    between atoms: C35_44  and  C36_45 
REMARK    9  A    between atoms: C36_45  and  C37_46 
REMARK   10  A    between atoms: C37_46  and  O10_47 
REMARK   11  A    between atoms: O10_47  and  C38_48 
REMARK   12  A    between atoms: C39_50  and  C43_57 
ROOT
HETATM    1  C13 UNL     1       4.293  -0.453   1.617  1.00  0.00     0.139 C 
HETATM    2  C14 UNL     1       3.238   0.603   1.395  1.00  0.00    -0.005 C 
HETATM    3  C15 UNL     1       1.939   0.293   1.180  1.00  0.00    -0.047 C 
HETATM    4  C16 UNL     1       1.408  -1.135   1.066  1.00  0.00     0.015 C 
HETATM    5  C17 UNL     1       2.553  -2.184   1.189  1.00  0.00     0.007 C 
HETATM    6  C18 UNL     1       3.676  -1.756   2.135  1.00  0.00     0.035 C 
HETATM    7  C19 UNL     1       0.320  -1.322   2.182  1.00  0.00     0.003 C 
HETATM    8  C20 UNL     1      -0.670  -0.131   2.420  1.00  0.00     0.001 C 
HETATM    9  C21 UNL     1      -0.024   1.266   2.289  1.00  0.00     0.004 C 
HETATM   10  C22 UNL     1       0.910   1.391   1.082  1.00  0.00     0.022 C 
HETATM   11  C23 UNL     1      -2.035  -0.168   1.693  1.00  0.00     0.003 C 
HETATM   12  C24 UNL     1      -2.693  -1.555   1.725  1.00  0.00     0.003 C 
HETATM   13  C25 UNL     1      -1.707  -2.621   1.223  1.00  0.00     0.000 C 
HETATM   14  C26 UNL     1      -0.455  -2.660   2.113  1.00  0.00     0.000 C 
HETATM   15  C27 UNL     1      -3.195  -1.893   3.133  1.00  0.00     0.000 C 
HETATM   16  C28 UNL     1      -3.867  -1.406   0.736  1.00  0.00     0.032 C 
HETATM   17  C29 UNL     1      -3.422  -0.338  -0.273  1.00  0.00     0.118 C 
HETATM   18  C30 UNL     1      -2.096   0.236   0.219  1.00  0.00     0.030 C 
HETATM   19  O8  UNL     1      -4.440   0.639  -0.250  1.00  0.00    -0.335 OA
HETATM   20  C31 UNL     1      -5.651   0.062   0.164  1.00  0.00     0.219 C 
HETATM   21  C32 UNL     1      -5.184  -0.838   1.311  1.00  0.00     0.057 C 
HETATM   22  C33 UNL     1      -6.178  -1.934   1.688  1.00  0.00     0.005 C 
HETATM   23  O9  UNL     1      -6.561   1.041   0.621  1.00  0.00    -0.196 OA
HETATM   24  C45 UNL     1       0.816  -1.309  -0.334  1.00  0.00     0.004 C 
ENDROOT
BRANCH   1  25
HETATM   25  O7  UNL     1       5.244   0.006   2.555  1.00  0.00    -0.331 OA
BRANCH  25  26
HETATM   26  C7  UNL     1       6.412   0.531   1.955  1.00  0.00     0.215 C 
HETATM   27  C6  UNL     1       7.248   1.291   3.022  1.00  0.00     0.202 C 
HETATM   28  C10 UNL     1       8.420   2.066   2.377  1.00  0.00     0.217 C 
HETATM   29  C9  UNL     1       7.889   2.936   1.217  1.00  0.00     0.215 C 
HETATM   30  O4  UNL     1       9.041   2.895   3.348  1.00  0.00    -0.218 OA
HETATM   31  C8  UNL     1       7.039   2.103   0.230  1.00  0.00     0.184 C 
HETATM   32  O5  UNL     1       8.973   3.510   0.508  1.00  0.00    -0.218 OA
HETATM   33  O3  UNL     1       5.996   1.439   0.939  1.00  0.00    -0.330 OA
HETATM   34  C12 UNL     1       7.146  -0.649   1.299  1.00  0.00     0.064 C 
BRANCH  27  35
HETATM   35  O2  UNL     1       7.754   0.379   3.986  1.00  0.00    -0.324 OA
BRANCH  35  36
HETATM   36  C5  UNL     1       6.828   0.088   5.014  1.00  0.00     0.270 C 
HETATM   37  O1  UNL     1       6.357  -1.240   4.830  1.00  0.00    -0.329 OA
HETATM   38  C1  UNL     1       5.375  -1.666   5.766  1.00  0.00     0.151 C 
HETATM   39  C2  UNL     1       5.979  -1.643   7.188  1.00  0.00     0.212 C 
HETATM   40  C46 UNL     1       4.928  -3.065   5.330  1.00  0.00     0.035 C 
HETATM   41  C3  UNL     1       6.555  -0.250   7.529  1.00  0.00     0.220 C 
HETATM   42  O18 UNL     1       4.965  -1.984   8.115  1.00  0.00    -0.218 OA
HETATM   43  C4  UNL     1       7.504   0.219   6.404  1.00  0.00     0.241 C 
HETATM   44  O17 UNL     1       7.258  -0.309   8.760  1.00  0.00    -0.218 OA
HETATM   45  O16 UNL     1       7.861   1.574   6.625  1.00  0.00    -0.215 OA
ENDBRANCH  35  36
ENDBRANCH  27  35
BRANCH  31  46
HETATM   46  C11 UNL     1       6.361   2.965  -0.842  1.00  0.00     0.214 C 
HETATM   47  O6  UNL     1       5.707   2.105  -1.748  1.00  0.00    -0.218 OA
ENDBRANCH  31  46
ENDBRANCH  25  26
ENDBRANCH   1  25
BRANCH  20  48
HETATM   48  C34 UNL     1      -6.283  -0.682  -1.014  1.00  0.00     0.059 C 
BRANCH  48  49
HETATM   49  C35 UNL     1      -6.571   0.307  -2.145  1.00  0.00     0.008 C 
BRANCH  49  50
HETATM   50  C36 UNL     1      -6.875  -0.387  -3.473  1.00  0.00     0.030 C 
HETATM   51  C44 UNL     1      -8.102  -1.297  -3.395  1.00  0.00     0.003 C 
BRANCH  50  52
HETATM   52  C37 UNL     1      -6.938   0.588  -4.647  1.00  0.00     0.145 C 
BRANCH  52  53
HETATM   53  O10 UNL     1      -6.887  -0.158  -5.842  1.00  0.00    -0.329 OA
BRANCH  53  54
HETATM   54  C38 UNL     1      -7.006   0.643  -7.004  1.00  0.00     0.270 C 
HETATM   55  O11 UNL     1      -5.820   1.416  -7.139  1.00  0.00    -0.326 OA
HETATM   56  C39 UNL     1      -5.811   2.312  -8.240  1.00  0.00     0.184 C 
HETATM   57  C40 UNL     1      -5.926   1.510  -9.555  1.00  0.00     0.215 C 
HETATM   58  C41 UNL     1      -7.172   0.598  -9.549  1.00  0.00     0.220 C 
HETATM   59  O14 UNL     1      -6.000   2.420 -10.639  1.00  0.00    -0.218 OA
HETATM   60  C42 UNL     1      -7.199  -0.250  -8.256  1.00  0.00     0.241 C 
HETATM   61  O13 UNL     1      -7.151  -0.256 -10.684  1.00  0.00    -0.218 OA
HETATM   62  O12 UNL     1      -8.446  -0.924  -8.164  1.00  0.00    -0.215 OA
BRANCH  56  63
HETATM   63  C43 UNL     1      -4.510   3.115  -8.143  1.00  0.00     0.214 C 
HETATM   64  O15 UNL     1      -4.557   3.893  -6.967  1.00  0.00    -0.218 OA
ENDBRANCH  56  63
ENDBRANCH  53  54
ENDBRANCH  52  53
ENDBRANCH  50  52
ENDBRANCH  49  50
ENDBRANCH  48  49
ENDBRANCH  20  48
TORSDOF 12
