REMARK  4 active torsions:
REMARK  status: ('A' for Active; 'I' for Inactive)
REMARK    1  A    between atoms: C4_4  and  C7_7 
REMARK    2  A    between atoms: C7_7  and  C9_9 
REMARK    3  A    between atoms: C9_9  and  C10_10 
REMARK    4  A    between atoms: C10_10  and  C11_11 
ROOT
HETATM    1  C7  UNL     1      -0.621   0.477  -0.098  1.00  0.00     0.012 C 
HETATM    2  C8  UNL     1      -0.291   0.482   1.396  1.00  0.00     0.001 C 
ENDROOT
BRANCH   1   3
HETATM    3  C4  UNL     1       0.016   1.652  -0.848  1.00  0.00     0.023 C 
HETATM    4  C3  UNL     1      -0.691   2.979  -0.508  1.00  0.00     0.009 C 
HETATM    5  C2  UNL     1       0.019   4.182  -1.145  1.00  0.00     0.027 C 
HETATM    6  C1  UNL     1       1.500   4.178  -0.830  1.00  0.00    -0.022 C 
HETATM    7  C6  UNL     1       2.170   2.889  -0.568  1.00  0.00    -0.009 C 
HETATM    8  C15 UNL     1       2.176   5.340  -0.789  1.00  0.00    -0.005 C 
HETATM    9  C5  UNL     1       1.504   1.717  -0.568  1.00  0.00    -0.027 C 
ENDBRANCH   1   3
BRANCH   1  10
HETATM   10  C9  UNL     1      -0.334  -0.871  -0.760  1.00  0.00     0.070 C 
BRANCH  10  11
HETATM   11  C10 UNL     1      -1.065  -2.006  -0.094  1.00  0.00     0.172 C 
HETATM   12  O1  UNL     1      -2.256  -2.148  -0.238  1.00  0.00    -0.291 OA
BRANCH  11  13
HETATM   13  C11 UNL     1      -0.301  -2.941   0.740  1.00  0.00     0.029 C 
HETATM   14  C12 UNL     1      -0.627  -4.242   0.785  1.00  0.00    -0.041 C 
HETATM   15  C13 UNL     1      -1.725  -4.891  -0.018  1.00  0.00     0.026 C 
HETATM   16  C14 UNL     1       0.150  -5.147   1.703  1.00  0.00     0.026 C 
ENDBRANCH  11  13
ENDBRANCH  10  11
ENDBRANCH   1  10
TORSDOF 4
