REMARK  10 active torsions:
REMARK  status: ('A' for Active; 'I' for Inactive)
REMARK    1  A    between atoms: C1_1  and  C2_2 
REMARK    2  A    between atoms: C3_3  and  C4_4 
REMARK    3  A    between atoms: C4_4  and  C5_5 
REMARK    4  A    between atoms: C5_5  and  C6_6 
REMARK    5  A    between atoms: C6_6  and  C7_7 
REMARK    6  A    between atoms: C7_7  and  C8_8 
REMARK    7  A    between atoms: C8_8  and  C9_9 
REMARK    8  A    between atoms: C9_9  and  C10_10 
REMARK    9  A    between atoms: C10_10  and  C11_11 
REMARK   10  A    between atoms: C11_11  and  C12_12 
ROOT
HETATM    1  C6  UNL     1       0.820   0.604   1.150  1.00  0.00     0.000 C 
ENDROOT
BRANCH   1   2
HETATM    2  C5  UNL     1       2.350   0.615   1.150  1.00  0.00     0.005 C 
BRANCH   2   3
HETATM    3  C4  UNL     1       2.934   1.459   2.283  1.00  0.00     0.026 C 
BRANCH   3   4
HETATM    4  C3  UNL     1       4.438   1.459   2.283  1.00  0.00    -0.028 C 
HETATM    5  C2  UNL     1       5.078   2.641   2.283  1.00  0.00     0.004 C 
BRANCH   5   6
HETATM    6  C1  UNL     1       6.584   2.641   2.283  1.00  0.00     0.208 C 
HETATM    7  O1  UNL     1       7.055   3.879   1.801  1.00  0.00    -0.215 OA
ENDBRANCH   5   6
ENDBRANCH   3   4
ENDBRANCH   2   3
ENDBRANCH   1   2
BRANCH   1   8
HETATM    8  C7  UNL     1       0.238  -0.238   0.014  1.00  0.00     0.000 C 
BRANCH   8   9
HETATM    9  C8  UNL     1      -1.291  -0.250   0.016  1.00  0.00     0.000 C 
BRANCH   9  10
HETATM   10  C9  UNL     1      -1.875  -1.094  -1.121  1.00  0.00     0.000 C 
BRANCH  10  11
HETATM   11  C10 UNL     1      -3.404  -1.105  -1.121  1.00  0.00     0.000 C 
BRANCH  11  12
HETATM   12  C11 UNL     1      -3.986  -1.947  -2.256  1.00  0.00     0.000 C 
BRANCH  12  13
HETATM   13  C12 UNL     1      -5.516  -1.959  -2.256  1.00  0.00     0.000 C 
HETATM   14  C13 UNL     1      -6.100  -2.803  -3.391  1.00  0.00     0.000 C 
ENDBRANCH  12  13
ENDBRANCH  11  12
ENDBRANCH  10  11
ENDBRANCH   9  10
ENDBRANCH   8   9
ENDBRANCH   1   8
TORSDOF 10
