REMARK  1 active torsions:
REMARK  status: ('A' for Active; 'I' for Inactive)
REMARK    1  A    between atoms: C3_3  and  C10_12 
ROOT
HETATM    1  C1  UNL     1       2.024  -1.328  -0.408  1.00  0.00     0.028 A 
HETATM    2  C2  UNL     1       2.110  -0.004   0.088  1.00  0.00     0.139 A 
HETATM    3  C3  UNL     1       0.928   0.756   0.283  1.00  0.00     0.113 A 
HETATM    4  C4  UNL     1      -0.340   0.195  -0.016  1.00  0.00     0.111 A 
HETATM    5  C5  UNL     1      -0.412  -1.135  -0.512  1.00  0.00     0.023 A 
HETATM    6  C6  UNL     1       0.764  -1.897  -0.711  1.00  0.00     0.004 A 
HETATM    7  C7  UNL     1      -1.750  -1.707  -0.819  1.00  0.00     0.007 A 
HETATM    8  C8  UNL     1      -2.844  -0.947  -0.617  1.00  0.00     0.069 A 
HETATM    9  C9  UNL     1      -2.703   0.432  -0.098  1.00  0.00     0.300 A 
HETATM   10  O1  UNL     1      -1.473   0.914   0.168  1.00  0.00    -0.273 OA
HETATM   11  O2  UNL     1      -3.703   1.088   0.072  1.00  0.00    -0.259 OA
HETATM   12  O5  UNL     1       3.311   0.518   0.367  1.00  0.00    -0.190 OA
ENDROOT
BRANCH   3  13
HETATM   13  C10 UNL     1       1.018   2.139   0.801  1.00  0.00     0.215 C 
HETATM   14  O3  UNL     1       1.828   2.996   0.537  1.00  0.00    -0.644 OA
HETATM   15  O4  UNL     1       0.010   2.311   1.652  1.00  0.00    -0.644 OA
ENDBRANCH   3  13
TORSDOF 1
