REMARK  2 active torsions:
REMARK  status: ('A' for Active; 'I' for Inactive)
REMARK    1  A    between atoms: C1_1  and  O5_25 
REMARK    2  A    between atoms: C16_17  and  O3_22 
ROOT
HETATM    1  C1  UNL     1       1.797  -2.877  -0.150  1.00  0.00     0.117 A 
HETATM    2  C2  UNL     1       0.789  -1.906  -0.310  1.00  0.00     0.122 A 
HETATM    3  C3  UNL     1       1.190  -0.553  -0.463  1.00  0.00     0.022 A 
HETATM    4  C4  UNL     1       2.520  -0.147  -0.338  1.00  0.00    -0.020 A 
HETATM    5  C5  UNL     1       3.512  -1.125  -0.146  1.00  0.00    -0.002 A 
HETATM    6  C6  UNL     1       3.151  -2.485  -0.070  1.00  0.00     0.026 A 
HETATM    7  C7  UNL     1       2.826   1.324  -0.410  1.00  0.00     0.034 C 
HETATM    8  C8  UNL     1       2.506   2.121   0.885  1.00  0.00     0.069 C 
HETATM    9  C9  UNL     1       1.141   1.916   1.520  1.00  0.00     0.151 C 
HETATM   10  O1  UNL     1       0.914   0.908   2.149  1.00  0.00    -0.296 OA
HETATM   11  C10 UNL     1       0.067   2.982   1.393  1.00  0.00     0.065 C 
HETATM   12  C11 UNL     1      -0.611   3.072   0.010  1.00  0.00     0.008 C 
HETATM   13  C12 UNL     1      -2.113   3.475   0.024  1.00  0.00     0.005 C 
HETATM   14  C13 UNL     1      -3.105   2.498   0.719  1.00  0.00     0.029 C 
HETATM   15  C14 UNL     1      -2.728   1.066   0.500  1.00  0.00     0.005 C 
HETATM   16  C15 UNL     1      -2.834   0.476  -0.777  1.00  0.00     0.151 C 
HETATM   17  C16 UNL     1      -2.185  -0.746  -1.033  1.00  0.00     0.142 C 
HETATM   18  C17 UNL     1      -1.420  -1.346  -0.014  1.00  0.00     0.124 C 
HETATM   19  C18 UNL     1      -1.562  -0.901   1.315  1.00  0.00     0.026 C 
HETATM   20  C19 UNL     1      -2.211   0.314   1.570  1.00  0.00    -0.000 C 
HETATM   21  O2  UNL     1      -0.506  -2.266  -0.301  1.00  0.00    -0.303 OA
HETATM   22  O4  UNL     1      -3.500   1.084  -1.740  1.00  0.00    -0.188 OA
ENDROOT
BRANCH   1  23
HETATM   23  O5  UNL     1       1.479  -4.153  -0.062  1.00  0.00    -0.326 OA
HETATM   24  C21 UNL     1       2.533  -5.102  -0.031  1.00  0.00     0.181 C 
ENDBRANCH   1  23
BRANCH  17  25
HETATM   25  O3  UNL     1      -2.242  -1.297  -2.230  1.00  0.00    -0.324 OA
HETATM   26  C20 UNL     1      -2.201  -2.713  -2.316  1.00  0.00     0.182 C 
ENDBRANCH  17  25
TORSDOF 2
