REMARK  5 active torsions:
REMARK  status: ('A' for Active; 'I' for Inactive)
REMARK    1  A    between atoms: C1_1  and  C7_8 
REMARK    2  A    between atoms: C13_16  and  C16_20 
REMARK    3  A    between atoms: C17_22  and  O9_29 
REMARK    4  A    between atoms: O9_29  and  C21_30 
REMARK    5  A    between atoms: C25_37  and  C26_39 
ROOT
HETATM    1  C16 UNL     1       0.624   1.963  -0.482  1.00  0.00     0.177 C 
HETATM    2  O5  UNL     1       0.893   1.696   0.888  1.00  0.00    -0.324 OA
HETATM    3  C17 UNL     1       2.070   2.303   1.403  1.00  0.00     0.272 C 
HETATM    4  C18 UNL     1       1.950   3.845   1.312  1.00  0.00     0.241 C 
HETATM    5  C19 UNL     1       1.626   4.289  -0.132  1.00  0.00     0.220 C 
HETATM    6  C20 UNL     1       0.421   3.489  -0.679  1.00  0.00     0.216 C 
HETATM    7  O6  UNL     1       0.263   3.770  -2.062  1.00  0.00    -0.218 OA
HETATM    8  O7  UNL     1       1.333   5.677  -0.154  1.00  0.00    -0.218 OA
HETATM    9  O8  UNL     1       3.174   4.437   1.722  1.00  0.00    -0.215 OA
ENDROOT
BRANCH   1  10
HETATM   10  C13 UNL     1      -0.552   1.168  -0.876  1.00  0.00     0.058 A 
HETATM   11  C12 UNL     1      -0.526   0.412  -2.074  1.00  0.00     0.136 A 
HETATM   12  C9  UNL     1      -1.663  -0.351  -2.446  1.00  0.00     0.087 A 
HETATM   13  O15 UNL     1       0.571   0.422  -2.846  1.00  0.00    -0.190 OA
HETATM   14  C8  UNL     1      -2.823  -0.358  -1.626  1.00  0.00     0.107 A 
HETATM   15  C10 UNL     1      -1.674  -1.160  -3.697  1.00  0.00     0.202 A 
HETATM   16  O2  UNL     1      -3.908  -1.083  -1.981  1.00  0.00    -0.307 OA
HETATM   17  C15 UNL     1      -2.840   0.399  -0.432  1.00  0.00     0.052 A 
HETATM   18  C7  UNL     1      -3.969  -1.830  -3.103  1.00  0.00     0.103 A 
HETATM   19  C11 UNL     1      -2.925  -1.901  -3.960  1.00  0.00     0.067 A 
HETATM   20  C14 UNL     1      -1.709   1.161  -0.056  1.00  0.00     0.133 A 
HETATM   21  O4  UNL     1      -1.739   1.874   1.079  1.00  0.00    -0.190 OA
HETATM   22  O3  UNL     1      -0.784  -1.274  -4.509  1.00  0.00    -0.286 OA
BRANCH  18  23
HETATM   23  C1  UNL     1      -5.210  -2.599  -3.419  1.00  0.00     0.023 A 
HETATM   24  C2  UNL     1      -6.068  -3.007  -2.382  1.00  0.00     0.004 A 
HETATM   25  C3  UNL     1      -7.236  -3.731  -2.681  1.00  0.00     0.028 A 
HETATM   26  C4  UNL     1      -7.550  -4.050  -4.014  1.00  0.00     0.131 A 
HETATM   27  C5  UNL     1      -6.690  -3.640  -5.048  1.00  0.00     0.028 A 
HETATM   28  O1  UNL     1      -8.645  -4.728  -4.292  1.00  0.00    -0.190 OA
HETATM   29  C6  UNL     1      -5.522  -2.916  -4.753  1.00  0.00     0.004 A 
ENDBRANCH  18  23
ENDBRANCH   1  10
BRANCH   3  30
HETATM   30  O9  UNL     1       2.230   1.898   2.748  1.00  0.00    -0.302 OA
BRANCH  30  31
HETATM   31  C21 UNL     1       2.597   0.539   2.881  1.00  0.00     0.272 C 
HETATM   32  C22 UNL     1       2.478   0.088   4.359  1.00  0.00     0.241 C 
HETATM   33  O10 UNL     1       1.115   0.125   4.753  1.00  0.00    -0.215 OA
HETATM   34  C23 UNL     1       3.026  -1.345   4.548  1.00  0.00     0.220 C 
HETATM   35  O11 UNL     1       3.092  -1.657   5.930  1.00  0.00    -0.218 OA
HETATM   36  C24 UNL     1       4.432  -1.458   3.917  1.00  0.00     0.215 C 
HETATM   37  O12 UNL     1       4.850  -2.813   3.917  1.00  0.00    -0.218 OA
HETATM   38  C25 UNL     1       4.439  -0.939   2.462  1.00  0.00     0.184 C 
HETATM   39  O13 UNL     1       3.939   0.392   2.436  1.00  0.00    -0.326 OA
BRANCH  38  40
HETATM   40  C26 UNL     1       5.842  -0.895   1.851  1.00  0.00     0.214 C 
HETATM   41  O14 UNL     1       5.718  -0.569   0.485  1.00  0.00    -0.218 OA
ENDBRANCH  38  40
ENDBRANCH  30  31
ENDBRANCH   3  30
TORSDOF 5
