REMARK  5 active torsions:
REMARK  status: ('A' for Active; 'I' for Inactive)
REMARK    1  A    between atoms: C3_3  and  O3_18 
REMARK    2  A    between atoms: C5_5  and  C7_7 
REMARK    3  A    between atoms: C7_7  and  C8_8 
REMARK    4  A    between atoms: C8_8  and  C9_9 
REMARK    5  A    between atoms: C10_10  and  O2_16 
ROOT
HETATM    1  C7  UNL     1      -0.016   0.151  -0.738  1.00  0.00     0.031 C 
ENDROOT
BRANCH   1   2
HETATM    2  C5  UNL     1      -0.711  -1.162  -0.738  1.00  0.00    -0.018 A 
HETATM    3  C4  UNL     1       0.035  -2.353  -0.738  1.00  0.00     0.020 A 
HETATM    4  C3  UNL     1      -0.621  -3.598  -0.738  1.00  0.00     0.096 A 
HETATM    5  C2  UNL     1      -2.026  -3.644  -0.738  1.00  0.00     0.051 A 
HETATM    6  C1  UNL     1      -2.777  -2.455  -0.738  1.00  0.00     0.133 A 
HETATM    7  C6  UNL     1      -2.115  -1.215  -0.738  1.00  0.00     0.023 A 
HETATM    8  O4  UNL     1      -4.094  -2.504  -0.738  1.00  0.00    -0.190 OA
BRANCH   4   9
HETATM    9  O3  UNL     1       0.078  -4.715  -0.738  1.00  0.00    -0.328 OA
HETATM   10  C16 UNL     1      -0.629  -5.943  -0.674  1.00  0.00     0.181 C 
ENDBRANCH   4   9
ENDBRANCH   1   2
BRANCH   1  11
HETATM   11  C8  UNL     1       0.646   0.438   0.611  1.00  0.00     0.033 C 
BRANCH  11  12
HETATM   12  C9  UNL     1       1.328   1.760   0.617  1.00  0.00     0.003 A 
HETATM   13  C10 UNL     1       0.590   2.940   0.828  1.00  0.00     0.090 A 
HETATM   14  C11 UNL     1       1.248   4.182   0.830  1.00  0.00     0.026 A 
HETATM   15  C12 UNL     1       2.637   4.248   0.623  1.00  0.00     0.029 A 
HETATM   16  C13 UNL     1       3.375   3.071   0.412  1.00  0.00     0.131 A 
HETATM   17  C14 UNL     1       2.717   1.826   0.410  1.00  0.00     0.025 A 
HETATM   18  O1  UNL     1       4.676   3.131   0.219  1.00  0.00    -0.190 OA
BRANCH  13  19
HETATM   19  O2  UNL     1      -0.713   2.891   1.024  1.00  0.00    -0.328 OA
HETATM   20  C15 UNL     1      -1.404   4.113   1.231  1.00  0.00     0.181 C 
ENDBRANCH  13  19
ENDBRANCH  11  12
ENDBRANCH   1  11
TORSDOF 5
