REMARK  4 active torsions:
REMARK  status: ('A' for Active; 'I' for Inactive)
REMARK    1  A    between atoms: C10_11  and  C14_17 
REMARK    2  A    between atoms: C14_17  and  C15_18 
REMARK    3  A    between atoms: C15_18  and  C16_19 
REMARK    4  A    between atoms: C16_19  and  C17_20 
ROOT
HETATM    1  C1  UNL     1      -4.756  -2.008   1.033  1.00  0.00     0.030 A 
HETATM    2  C2  UNL     1      -4.615  -0.721   0.463  1.00  0.00     0.158 A 
HETATM    3  C3  UNL     1      -3.342  -0.109   0.398  1.00  0.00     0.179 A 
HETATM    4  C4  UNL     1      -2.205  -0.785   0.906  1.00  0.00     0.130 A 
HETATM    5  C5  UNL     1      -2.346  -2.082   1.477  1.00  0.00     0.064 A 
HETATM    6  C6  UNL     1      -3.625  -2.688   1.539  1.00  0.00     0.007 A 
HETATM    7  C7  UNL     1      -1.142  -2.805   2.008  1.00  0.00     0.201 A 
HETATM    8  C8  UNL     1       0.147  -2.041   1.883  1.00  0.00     0.087 A 
HETATM    9  C9  UNL     1       0.151  -0.742   1.297  1.00  0.00     0.103 A 
HETATM   10  O1  UNL     1      -0.996  -0.190   0.844  1.00  0.00    -0.305 OA
HETATM   11  C10 UNL     1       1.361  -0.018   1.182  1.00  0.00     0.026 A 
HETATM   12  C11 UNL     1       2.572  -0.584   1.648  1.00  0.00     0.131 A 
HETATM   13  C12 UNL     1       2.572  -1.873   2.229  1.00  0.00     0.055 A 
HETATM   14  C13 UNL     1       1.367  -2.604   2.348  1.00  0.00     0.138 A 
HETATM   15  O2  UNL     1       1.401  -3.822   2.902  1.00  0.00    -0.190 OA
HETATM   16  O3  UNL     1       3.725   0.094   1.543  1.00  0.00    -0.190 OA
HETATM   17  O4  UNL     1      -1.211  -3.912   2.494  1.00  0.00    -0.286 OA
HETATM   18  O5  UNL     1      -3.207   1.109  -0.141  1.00  0.00    -0.186 OA
HETATM   19  O6  UNL     1      -5.691  -0.084  -0.020  1.00  0.00    -0.188 OA
ENDROOT
BRANCH  11  20
HETATM   20  C14 UNL     1       1.361   1.326   0.578  1.00  0.00     0.031 C 
BRANCH  20  21
HETATM   21  C15 UNL     1       1.549   1.262  -0.939  1.00  0.00     0.009 C 
BRANCH  21  22
HETATM   22  C16 UNL     1       1.551   2.643  -1.594  1.00  0.00     0.022 C 
BRANCH  22  23
HETATM   23  C17 UNL     1       1.762   2.574  -3.082  1.00  0.00    -0.044 C 
HETATM   24  C18 UNL     1       2.928   3.012  -3.584  1.00  0.00    -0.009 C 
HETATM   25  C19 UNL     1       0.727   2.035  -4.033  1.00  0.00     0.026 C 
ENDBRANCH  22  23
ENDBRANCH  21  22
ENDBRANCH  20  21
ENDBRANCH  11  20
TORSDOF 4
