REMARK  8 active torsions:
REMARK  status: ('A' for Active; 'I' for Inactive)
REMARK    1  A    between atoms: C13_15  and  O3_18 
REMARK    2  A    between atoms: O3_18  and  O4_19 
REMARK    3  A    between atoms: O4_19  and  C16_20 
REMARK    4  A    between atoms: C18_23  and  C21_28 
REMARK    5  A    between atoms: C21_28  and  O8_29 
REMARK    6  A    between atoms: O8_29  and  C22_30 
REMARK    7  A    between atoms: C22_30  and  C23_31 
REMARK    8  A    between atoms: C23_31  and  C24_32 
ROOT
HETATM    1  C1  UNL     1       6.535  -4.188  -0.627  1.00  0.00     0.121 A 
HETATM    2  C2  UNL     1       6.332  -5.471  -1.143  1.00  0.00     0.119 A 
HETATM    3  C3  UNL     1       4.982  -5.897  -1.201  1.00  0.00     0.024 A 
HETATM    4  C4  UNL     1       3.816  -5.195  -0.807  1.00  0.00     0.007 A 
HETATM    5  C5  UNL     1       4.012  -3.914  -0.266  1.00  0.00     0.093 A 
HETATM    6  C6  UNL     1       5.365  -3.496  -0.225  1.00  0.00     0.050 A 
HETATM    7  O1  UNL     1       2.867  -3.340   0.106  1.00  0.00    -0.329 OA
HETATM    8  C7  UNL     1       1.789  -4.293   0.002  1.00  0.00     0.152 C 
HETATM    9  C8  UNL     1       2.340  -5.500  -0.844  1.00  0.00     0.086 C 
HETATM   10  C9  UNL     1       1.816  -5.477  -2.287  1.00  0.00     0.156 C 
HETATM   11  O2  UNL     1       0.408  -5.240  -2.326  1.00  0.00    -0.331 OA
HETATM   12  C10 UNL     1      -0.121  -4.211  -1.637  1.00  0.00     0.092 A 
HETATM   13  C11 UNL     1       0.537  -3.676  -0.496  1.00  0.00     0.030 A 
HETATM   14  C12 UNL     1      -0.022  -2.561   0.178  1.00  0.00     0.027 A 
HETATM   15  C13 UNL     1      -1.244  -2.002  -0.264  1.00  0.00     0.130 A 
HETATM   16  C14 UNL     1      -1.914  -2.559  -1.377  1.00  0.00     0.029 A 
HETATM   17  C15 UNL     1      -1.356  -3.662  -2.060  1.00  0.00     0.026 A 
HETATM   18  O13 UNL     1       7.506  -6.008  -1.473  1.00  0.00    -0.300 OA
HETATM   19  C25 UNL     1       8.553  -5.053  -1.172  1.00  0.00     0.304 A 
HETATM   20  O14 UNL     1       7.840  -3.910  -0.635  1.00  0.00    -0.299 OA
ENDROOT
BRANCH  15  21
HETATM   21  O3  UNL     1      -1.770  -0.949   0.377  1.00  0.00    -0.195 OA
BRANCH  21  22
HETATM   22  O4  UNL     1      -2.488  -0.139  -0.533  1.00  0.00    -0.210 OA
BRANCH  22  23
HETATM   23  C16 UNL     1      -2.990   0.934   0.248  1.00  0.00     0.244 C 
HETATM   24  C17 UNL     1      -1.820   1.857   0.670  1.00  0.00     0.303 C 
HETATM   25  O5  UNL     1      -2.324   2.994   1.358  1.00  0.00    -0.324 OA
HETATM   26  O12 UNL     1      -0.934   1.172   1.533  1.00  0.00    -0.187 OA
HETATM   27  C18 UNL     1      -3.195   3.822   0.596  1.00  0.00     0.181 C 
HETATM   28  C19 UNL     1      -4.440   3.008   0.176  1.00  0.00     0.215 C 
HETATM   29  C20 UNL     1      -4.045   1.715  -0.570  1.00  0.00     0.220 C 
HETATM   30  O7  UNL     1      -5.248   3.816  -0.660  1.00  0.00    -0.218 OA
HETATM   31  O6  UNL     1      -5.194   0.906  -0.773  1.00  0.00    -0.218 OA
BRANCH  27  32
HETATM   32  C21 UNL     1      -3.539   5.029   1.473  1.00  0.00     0.184 C 
BRANCH  32  33
HETATM   33  O8  UNL     1      -2.377   5.824   1.662  1.00  0.00    -0.299 OA
BRANCH  33  34
HETATM   34  C22 UNL     1      -2.611   6.891   2.420  1.00  0.00     0.283 C 
HETATM   35  O11 UNL     1      -3.692   7.156   2.893  1.00  0.00    -0.264 OA
BRANCH  34  36
HETATM   36  C23 UNL     1      -1.420   7.779   2.660  1.00  0.00     0.193 C 
BRANCH  36  37
HETATM   37  C24 UNL     1      -1.615   9.115   1.994  1.00  0.00     0.196 C 
HETATM   38  O9  UNL     1      -1.596   9.219   0.791  1.00  0.00    -0.647 OA
HETATM   39  O10 UNL     1      -1.803  10.139   2.824  1.00  0.00    -0.647 OA
ENDBRANCH  36  37
ENDBRANCH  34  36
ENDBRANCH  33  34
ENDBRANCH  32  33
ENDBRANCH  27  32
ENDBRANCH  22  23
ENDBRANCH  21  22
ENDBRANCH  15  21
TORSDOF 8
