REMARK  3 active torsions:
REMARK  status: ('A' for Active; 'I' for Inactive)
REMARK    1  A    between atoms: C4_4  and  C7_7 
REMARK    2  A    between atoms: C8_8  and  C9_9 
REMARK    3  A    between atoms: C9_9  and  C10_11 
ROOT
HETATM    1  C10 UNL     1       1.400   1.451   0.346  1.00  0.00     0.064 A 
HETATM    2  C11 UNL     1       1.359   2.842   0.615  1.00  0.00     0.136 A 
HETATM    3  C12 UNL     1       0.117   3.522   0.617  1.00  0.00     0.052 A 
HETATM    4  C13 UNL     1      -1.080   2.814   0.361  1.00  0.00     0.096 A 
HETATM    5  C14 UNL     1      -1.029   1.426   0.086  1.00  0.00     0.022 A 
HETATM    6  C15 UNL     1       0.207   0.738   0.078  1.00  0.00     0.007 A 
HETATM    7  C16 UNL     1      -2.293   0.711  -0.205  1.00  0.00    -0.000 C 
HETATM    8  C17 UNL     1      -3.467   1.354  -0.061  1.00  0.00     0.001 C 
HETATM    9  C18 UNL     1      -3.516   2.773   0.480  1.00  0.00     0.117 C 
HETATM   10  O2  UNL     1      -2.262   3.473   0.361  1.00  0.00    -0.332 OA
HETATM   11  C19 UNL     1      -3.873   2.711   1.969  1.00  0.00     0.035 C 
HETATM   12  C20 UNL     1      -4.568   3.588  -0.272  1.00  0.00     0.035 C 
HETATM   13  O3  UNL     1       2.484   3.525   0.869  1.00  0.00    -0.190 OA
ENDROOT
BRANCH   1  14
HETATM   14  C9  UNL     1       2.695   0.734   0.342  1.00  0.00     0.198 C 
HETATM   15  O1  UNL     1       3.813   1.191   0.398  1.00  0.00    -0.286 OA
BRANCH  14  16
HETATM   16  C8  UNL     1       2.488  -0.715   0.256  1.00  0.00     0.042 C 
HETATM   17  C7  UNL     1       2.982  -1.416  -0.779  1.00  0.00     0.003 C 
BRANCH  17  18
HETATM   18  C4  UNL     1       2.746  -2.891  -0.822  1.00  0.00     0.000 A 
HETATM   19  C3  UNL     1       2.615  -3.619   0.373  1.00  0.00     0.002 A 
HETATM   20  C2  UNL     1       2.393  -5.006   0.330  1.00  0.00     0.027 A 
HETATM   21  C1  UNL     1       2.301  -5.670  -0.906  1.00  0.00     0.131 A 
HETATM   22  C6  UNL     1       2.432  -4.940  -2.102  1.00  0.00     0.027 A 
HETATM   23  O4  UNL     1       2.092  -6.971  -0.945  1.00  0.00    -0.190 OA
HETATM   24  C5  UNL     1       2.654  -3.553  -2.061  1.00  0.00     0.002 A 
ENDBRANCH  17  18
ENDBRANCH  14  16
ENDBRANCH   1  14
TORSDOF 3
