REMARK  5 active torsions:
REMARK  status: ('A' for Active; 'I' for Inactive)
REMARK    1  A    between atoms: C3_3  and  C26_35 
REMARK    2  A    between atoms: C15_17  and  C17_20 
REMARK    3  A    between atoms: C17_20  and  O4_21 
REMARK    4  A    between atoms: O4_21  and  C18_22 
REMARK    5  A    between atoms: C22_26  and  C23_28 
ROOT
HETATM    1  C1  UNL     1       5.692  -1.906   0.599  1.00  0.00     0.001 C 
HETATM    2  C2  UNL     1       6.186  -0.559   0.064  1.00  0.00     0.010 C 
HETATM    3  C3  UNL     1       5.344  -0.051  -1.123  1.00  0.00     0.081 C 
HETATM    4  C4  UNL     1       3.832  -0.025  -0.742  1.00  0.00     0.043 C 
HETATM    5  C5  UNL     1       3.295  -1.375  -0.178  1.00  0.00     0.003 C 
HETATM    6  C6  UNL     1       4.209  -1.842   0.984  1.00  0.00     0.000 C 
HETATM    7  C7  UNL     1       1.846  -1.152   0.357  1.00  0.00     0.003 C 
HETATM    8  C8  UNL     1       0.889  -0.402  -0.637  1.00  0.00     0.033 C 
HETATM    9  C9  UNL     1       1.555  -0.129  -2.008  1.00  0.00     0.182 C 
HETATM   10  C10 UNL     1       2.934   0.566  -1.875  1.00  0.00     0.183 C 
HETATM   11  O1  UNL     1       2.783   1.963  -1.653  1.00  0.00    -0.221 OA
HETATM   12  O2  UNL     1       0.705   0.582  -2.897  1.00  0.00    -0.221 OA
HETATM   13  C11 UNL     1      -0.461  -1.127  -0.828  1.00  0.00     0.005 C 
HETATM   14  C12 UNL     1      -1.012  -1.129   0.598  1.00  0.00     0.031 C 
HETATM   15  C13 UNL     1      -0.258  -2.225   1.381  1.00  0.00     0.003 C 
HETATM   16  C14 UNL     1       1.184  -2.443   0.890  1.00  0.00     0.000 C 
HETATM   17  C15 UNL     1      -0.770   0.350   0.986  1.00  0.00     0.154 C 
HETATM   18  C16 UNL     1       0.357   0.861   0.066  1.00  0.00     0.035 C 
HETATM   19  O3  UNL     1      -0.404   0.490   2.346  1.00  0.00    -0.223 OA
HETATM   20  C24 UNL     1       3.309  -2.475  -1.254  1.00  0.00     0.000 C 
HETATM   21  C25 UNL     1       5.826   1.356  -1.494  1.00  0.00     0.011 C 
ENDROOT
BRANCH  17  22
HETATM   22  C17 UNL     1      -2.035   1.180   0.779  1.00  0.00     0.175 C 
BRANCH  22  23
HETATM   23  O4  UNL     1      -3.053   0.641   1.590  1.00  0.00    -0.326 OA
BRANCH  23  24
HETATM   24  C18 UNL     1      -4.256   1.381   1.541  1.00  0.00     0.270 C 
HETATM   25  C19 UNL     1      -5.232   0.904   2.646  1.00  0.00     0.241 C 
HETATM   26  C20 UNL     1      -6.607   1.596   2.506  1.00  0.00     0.220 C 
HETATM   27  O9  UNL     1      -4.684   1.207   3.920  1.00  0.00    -0.215 OA
HETATM   28  C21 UNL     1      -7.117   1.465   1.055  1.00  0.00     0.215 C 
HETATM   29  O8  UNL     1      -7.537   0.998   3.398  1.00  0.00    -0.218 OA
HETATM   30  C22 UNL     1      -6.045   1.918   0.039  1.00  0.00     0.184 C 
HETATM   31  O7  UNL     1      -8.277   2.260   0.879  1.00  0.00    -0.218 OA
HETATM   32  O5  UNL     1      -4.846   1.191   0.262  1.00  0.00    -0.326 OA
BRANCH  30  33
HETATM   33  C23 UNL     1      -6.453   1.662  -1.416  1.00  0.00     0.214 C 
HETATM   34  O6  UNL     1      -5.498   2.270  -2.256  1.00  0.00    -0.218 OA
ENDBRANCH  30  33
ENDBRANCH  23  24
ENDBRANCH  22  23
ENDBRANCH  17  22
BRANCH   3  35
HETATM   35  C26 UNL     1       5.606  -0.928  -2.326  1.00  0.00     0.184 C 
HETATM   36  O10 UNL     1       6.365  -1.994  -2.096  1.00  0.00    -0.647 OA
HETATM   37  O11 UNL     1       5.141  -0.652  -3.408  1.00  0.00    -0.647 OA
ENDBRANCH   3  35
TORSDOF 5
