REMARK WARNING: 32 MAX_TORS EXCEEDED!!!
REMARK  43 active torsions:
REMARK  status: ('A' for Active; 'I' for Inactive)
REMARK       I    between atoms: N1_1  and  C1_2 
REMARK    1  A    between atoms: N1_1  and  C20_23 
REMARK    2  A    between atoms: C1_2  and  C2_3 
REMARK    3  A    between atoms: C2_3  and  C3_4 
REMARK    4  A    between atoms: C3_4  and  C4_5 
REMARK    5  A    between atoms: C4_5  and  C5_6 
REMARK    6  A    between atoms: C5_6  and  C6_7 
REMARK    7  A    between atoms: C6_7  and  C7_8 
REMARK    8  A    between atoms: C7_8  and  C8_9 
REMARK    9  A    between atoms: C8_9  and  C9_10 
REMARK   10  A    between atoms: C9_10  and  C10_11 
REMARK   11  A    between atoms: C10_11  and  C11_12 
REMARK   12  A    between atoms: C11_12  and  C12_13 
REMARK   13  A    between atoms: C12_13  and  C13_14 
REMARK   14  A    between atoms: C13_14  and  C14_15 
REMARK   15  A    between atoms: C14_15  and  C15_16 
REMARK   16  A    between atoms: C15_16  and  C16_17 
REMARK   17  A    between atoms: C16_17  and  C17_18 
REMARK   18  A    between atoms: C17_18  and  C18_19 
REMARK   19  A    between atoms: C20_23  and  C21_24 
REMARK   20  A    between atoms: C20_23  and  C22_26 
REMARK   21  A    between atoms: C22_26  and  C23_27 
REMARK   22  A    between atoms: C23_27  and  C24_28 
REMARK   23  A    between atoms: C24_28  and  C25_29 
REMARK   24  A    between atoms: C25_29  and  C26_30 
REMARK   25  A    between atoms: C26_30  and  C27_31 
REMARK   26  A    between atoms: C27_31  and  C28_32 
REMARK   27  A    between atoms: C29_33  and  C30_34 
REMARK   28  A    between atoms: C30_34  and  C31_35 
REMARK   29  A    between atoms: C31_35  and  C32_36 
REMARK   30  A    between atoms: C32_36  and  C33_37 
REMARK   31  A    between atoms: C33_37  and  C34_38 
REMARK   32  A    between atoms: C34_38  and  C35_39 
REMARK   33  A    between atoms: C35_39  and  C36_40 
REMARK   34  A    between atoms: C36_40  and  C37_41 
REMARK   35  A    between atoms: C37_41  and  C38_42 
REMARK   36  A    between atoms: C38_42  and  C39_43 
REMARK   37  A    between atoms: C39_43  and  C40_44 
REMARK   38  A    between atoms: C40_44  and  C41_45 
REMARK   39  A    between atoms: C41_45  and  C42_46 
REMARK   40  A    between atoms: C42_46  and  C43_47 
REMARK   41  A    between atoms: C43_47  and  C44_48 
REMARK   42  A    between atoms: C44_48  and  C45_49 
REMARK   43  A    between atoms: C45_49  and  C46_50 
ROOT
HETATM    1  C22 UNL     1       1.209  -4.580   5.692  1.00  0.00     0.180 C 
HETATM    2  O6  UNL     1       1.957  -5.774   5.756  1.00  0.00    -0.221 OA
ENDROOT
BRANCH   1   3
HETATM    3  C20 UNL     1       1.010  -4.063   7.115  1.00  0.00     0.170 C 
BRANCH   3   4
HETATM    4  N1  UNL     1       0.270  -2.793   7.115  1.00  0.00    -0.233 NA
HETATM    5  C1  UNL     1       0.959  -1.613   7.115  1.00  0.00     0.282 C 
HETATM    6  O2  UNL     1       2.168  -1.613   7.115  1.00  0.00    -0.268 OA
BRANCH   5   7
HETATM    7  C2  UNL     1       0.184  -0.322   7.115  1.00  0.00     0.232 C 
HETATM    8  O1  UNL     1      -0.299  -0.064   5.817  1.00  0.00    -0.213 OA
BRANCH   7   9
HETATM    9  C3  UNL     1       1.035   0.869   7.555  1.00  0.00     0.043 C 
BRANCH   9  10
HETATM   10  C4  UNL     1       0.211   2.139   7.762  1.00  0.00     0.003 C 
BRANCH  10  11
HETATM   11  C5  UNL     1       1.055   3.320   8.242  1.00  0.00     0.000 C 
BRANCH  11  12
HETATM   12  C6  UNL     1       0.230   4.592   8.447  1.00  0.00     0.000 C 
BRANCH  12  13
HETATM   13  C7  UNL     1       1.076   5.772   8.926  1.00  0.00     0.000 C 
BRANCH  13  14
HETATM   14  C8  UNL     1       0.250   7.043   9.131  1.00  0.00     0.000 C 
BRANCH  14  15
HETATM   15  C9  UNL     1       1.096   8.225   9.610  1.00  0.00     0.000 C 
BRANCH  15  16
HETATM   16  C10 UNL     1       0.271   9.494   9.815  1.00  0.00     0.000 C 
BRANCH  16  17
HETATM   17  C11 UNL     1       1.115  10.676  10.293  1.00  0.00     0.000 C 
BRANCH  17  18
HETATM   18  C12 UNL     1       0.291  11.947  10.500  1.00  0.00     0.000 C 
BRANCH  18  19
HETATM   19  C13 UNL     1       1.137  13.127  10.979  1.00  0.00     0.000 C 
BRANCH  19  20
HETATM   20  C14 UNL     1       0.311  14.399  11.184  1.00  0.00     0.000 C 
BRANCH  20  21
HETATM   21  C15 UNL     1       1.156  15.580  11.662  1.00  0.00     0.000 C 
BRANCH  21  22
HETATM   22  C16 UNL     1       0.332  16.850  11.867  1.00  0.00     0.000 C 
BRANCH  22  23
HETATM   23  C17 UNL     1       1.176  18.032  12.346  1.00  0.00     0.000 C 
BRANCH  23  24
HETATM   24  C18 UNL     1       0.352  19.303  12.551  1.00  0.00     0.000 C 
HETATM   25  C19 UNL     1       1.195  20.483  13.030  1.00  0.00     0.000 C 
ENDBRANCH  23  24
ENDBRANCH  22  23
ENDBRANCH  21  22
ENDBRANCH  20  21
ENDBRANCH  19  20
ENDBRANCH  18  19
ENDBRANCH  17  18
ENDBRANCH  16  17
ENDBRANCH  15  16
ENDBRANCH  14  15
ENDBRANCH  13  14
ENDBRANCH  12  13
ENDBRANCH  11  12
ENDBRANCH  10  11
ENDBRANCH   9  10
ENDBRANCH   7   9
ENDBRANCH   5   7
ENDBRANCH   3   4
BRANCH   3  26
HETATM   26  C21 UNL     1       0.338  -5.088   8.027  1.00  0.00     0.209 C 
HETATM   27  O3  UNL     1       0.379  -4.598   9.350  1.00  0.00    -0.218 OA
ENDBRANCH   3  26
ENDBRANCH   1   3
BRANCH   1  28
HETATM   28  C23 UNL     1       1.965  -3.590   4.805  1.00  0.00     0.071 C 
BRANCH  28  29
HETATM   29  C24 UNL     1       2.139  -4.094   3.371  1.00  0.00     0.185 C 
HETATM   30  O5  UNL     1       3.346  -4.818   3.303  1.00  0.00    -0.221 OA
BRANCH  29  31
HETATM   31  C25 UNL     1       2.201  -2.959   2.350  1.00  0.00     0.183 C 
HETATM   32  O4  UNL     1       0.977  -2.266   2.383  1.00  0.00    -0.221 OA
BRANCH  31  33
HETATM   33  C26 UNL     1       2.428  -3.463   0.922  1.00  0.00     0.040 C 
BRANCH  33  34
HETATM   34  C27 UNL     1       2.611  -2.324  -0.082  1.00  0.00     0.028 C 
BRANCH  34  35
HETATM   35  C28 UNL     1       2.932  -2.824  -1.465  1.00  0.00    -0.031 C 
HETATM   36  C29 UNL     1       2.160  -2.418  -2.486  1.00  0.00    -0.031 C 
BRANCH  36  37
HETATM   37  C30 UNL     1       2.479  -2.920  -3.871  1.00  0.00     0.026 C 
BRANCH  37  38
HETATM   38  C31 UNL     1       1.270  -3.561  -4.553  1.00  0.00     0.005 C 
BRANCH  38  39
HETATM   39  C32 UNL     1       1.586  -4.063  -5.961  1.00  0.00     0.000 C 
BRANCH  39  40
HETATM   40  C33 UNL     1       0.377  -4.705  -6.643  1.00  0.00     0.000 C 
BRANCH  40  41
HETATM   41  C34 UNL     1       0.691  -5.207  -8.053  1.00  0.00     0.000 C 
BRANCH  41  42
HETATM   42  C35 UNL     1      -0.518  -5.850  -8.734  1.00  0.00     0.000 C 
BRANCH  42  43
HETATM   43  C36 UNL     1      -0.201  -6.352 -10.143  1.00  0.00     0.000 C 
BRANCH  43  44
HETATM   44  C37 UNL     1      -1.410  -6.994 -10.824  1.00  0.00     0.000 C 
BRANCH  44  45
HETATM   45  C38 UNL     1      -1.096  -7.498 -12.235  1.00  0.00     0.000 C 
BRANCH  45  46
HETATM   46  C39 UNL     1      -2.305  -8.141 -12.914  1.00  0.00     0.000 C 
BRANCH  46  47
HETATM   47  C40 UNL     1      -1.988  -8.643 -14.324  1.00  0.00     0.000 C 
BRANCH  47  48
HETATM   48  C41 UNL     1      -3.197  -9.285 -15.006  1.00  0.00     0.000 C 
BRANCH  48  49
HETATM   49  C42 UNL     1      -2.883  -9.787 -16.414  1.00  0.00     0.000 C 
BRANCH  49  50
HETATM   50  C43 UNL     1      -4.092 -10.430 -17.096  1.00  0.00     0.000 C 
BRANCH  50  51
HETATM   51  C44 UNL     1      -3.775 -10.932 -18.506  1.00  0.00     0.000 C 
BRANCH  51  52
HETATM   52  C45 UNL     1      -4.984 -11.574 -19.188  1.00  0.00     0.000 C 
BRANCH  52  53
HETATM   53  C46 UNL     1      -4.670 -12.076 -20.596  1.00  0.00     0.000 C 
HETATM   54  C47 UNL     1      -5.879 -12.719 -21.278  1.00  0.00     0.000 C 
ENDBRANCH  52  53
ENDBRANCH  51  52
ENDBRANCH  50  51
ENDBRANCH  49  50
ENDBRANCH  48  49
ENDBRANCH  47  48
ENDBRANCH  46  47
ENDBRANCH  45  46
ENDBRANCH  44  45
ENDBRANCH  43  44
ENDBRANCH  42  43
ENDBRANCH  41  42
ENDBRANCH  40  41
ENDBRANCH  39  40
ENDBRANCH  38  39
ENDBRANCH  37  38
ENDBRANCH  36  37
ENDBRANCH  34  35
ENDBRANCH  33  34
ENDBRANCH  31  33
ENDBRANCH  29  31
ENDBRANCH  28  29
ENDBRANCH   1  28
TORSDOF 43
