REMARK  4 active torsions:
REMARK  status: ('A' for Active; 'I' for Inactive)
REMARK    1  A    between atoms: C12_13  and  O7_26 
REMARK    2  A    between atoms: C14_15  and  C17_20 
REMARK    3  A    between atoms: C17_20  and  O5_22 
REMARK    4  A    between atoms: O7_26  and  C20_27 
ROOT
HETATM    1  C1  UNL     1       4.580  -0.305  -0.988  1.00  0.00     0.198 C 
HETATM    2  C2  UNL     1       4.916   0.967  -0.312  1.00  0.00     0.158 C 
HETATM    3  C3  UNL     1       3.949   1.771   0.180  1.00  0.00    -0.016 C 
HETATM    4  C4  UNL     1       2.477   1.408   0.041  1.00  0.00     0.023 C 
HETATM    5  C5  UNL     1       2.262  -0.127   0.043  1.00  0.00     0.013 C 
HETATM    6  C6  UNL     1       3.131  -0.731  -1.080  1.00  0.00     0.072 C 
HETATM    7  C7  UNL     1       0.750  -0.457  -0.211  1.00  0.00     0.039 C 
HETATM    8  C8  UNL     1      -0.197   0.320   0.750  1.00  0.00     0.061 C 
HETATM    9  C9  UNL     1       0.084   1.838   0.777  1.00  0.00     0.127 C 
HETATM   10  C10 UNL     1       1.564   2.088   1.086  1.00  0.00     0.034 C 
HETATM   11  O1  UNL     1      -0.209   2.488  -0.471  1.00  0.00    -0.302 OA
HETATM   12  C11 UNL     1      -1.295   2.143  -1.184  1.00  0.00     0.300 C 
HETATM   13  C12 UNL     1      -1.951   0.791  -1.020  1.00  0.00     0.213 C 
HETATM   14  C13 UNL     1      -1.680   0.207   0.365  1.00  0.00     0.079 C 
HETATM   15  C14 UNL     1      -1.912  -1.272   0.703  1.00  0.00     0.203 C 
HETATM   16  C15 UNL     1      -1.148  -2.260  -0.221  1.00  0.00     0.216 C 
HETATM   17  C16 UNL     1       0.377  -1.973  -0.320  1.00  0.00     0.185 C 
HETATM   18  O2  UNL     1       1.018  -2.738   0.686  1.00  0.00    -0.221 OA
HETATM   19  O3  UNL     1      -1.709  -2.258  -1.521  1.00  0.00    -0.218 OA
HETATM   20  O6  UNL     1      -1.316  -1.344   1.984  1.00  0.00    -0.347 OA
HETATM   21  C19 UNL     1      -0.334  -0.332   2.141  1.00  0.00     0.145 C 
HETATM   22  O9  UNL     1      -1.768   2.904  -1.994  1.00  0.00    -0.262 OA
HETATM   23  C22 UNL     1       2.762  -0.676   1.393  1.00  0.00     0.001 C 
HETATM   24  C23 UNL     1       4.324   3.057   0.879  1.00  0.00     0.029 C 
HETATM   25  O10 UNL     1       6.197   1.312  -0.189  1.00  0.00    -0.188 OA
HETATM   26  O11 UNL     1       5.455  -0.998  -1.453  1.00  0.00    -0.289 OA
ENDROOT
BRANCH  13  27
HETATM   27  O7  UNL     1      -3.356   0.902  -1.209  1.00  0.00    -0.294 OA
BRANCH  27  28
HETATM   28  C20 UNL     1      -3.686   0.980  -2.496  1.00  0.00     0.273 C 
HETATM   29  O8  UNL     1      -2.887   0.941  -3.400  1.00  0.00    -0.264 OA
HETATM   30  C21 UNL     1      -5.160   1.127  -2.770  1.00  0.00     0.106 C 
ENDBRANCH  27  28
ENDBRANCH  13  27
BRANCH  15  31
HETATM   31  C17 UNL     1      -3.375  -1.623   0.846  1.00  0.00     0.299 C 
HETATM   32  O4  UNL     1      -4.229  -0.770   0.772  1.00  0.00    -0.262 OA
BRANCH  31  33
HETATM   33  O5  UNL     1      -3.629  -2.912   1.053  1.00  0.00    -0.297 OA
HETATM   34  C18 UNL     1      -5.020  -3.174   1.184  1.00  0.00     0.185 C 
ENDBRANCH  31  33
ENDBRANCH  15  31
TORSDOF 4
