REMARK  6 active torsions:
REMARK  status: ('A' for Active; 'I' for Inactive)
REMARK    1  A    between atoms: C1_1  and  C2_2 
REMARK    2  A    between atoms: C1_1  and  C8_10 
REMARK    3  A    between atoms: C2_2  and  C3_3 
REMARK    4  A    between atoms: C3_3  and  C4_4 
REMARK    5  A    between atoms: C4_4  and  C5_5 
REMARK    6  A    between atoms: C5_5  and  C6_6 
ROOT
HETATM    1  C2  UNL     1      -0.328   0.139  -0.077  1.00  0.00     0.040 C 
ENDROOT
BRANCH   1   2
HETATM    2  C1  UNL     1      -1.750   0.512  -0.499  1.00  0.00     0.180 C 
HETATM    3  O4  UNL     1      -2.641   0.029   0.481  1.00  0.00    -0.221 OA
BRANCH   2   4
HETATM    4  C8  UNL     1      -2.145  -0.095  -1.845  1.00  0.00     0.155 C 
HETATM    5  C9  UNL     1      -3.629   0.087  -2.162  1.00  0.00     0.036 C 
HETATM    6  C10 UNL     1      -1.237   0.362  -2.988  1.00  0.00     0.036 C 
HETATM    7  O3  UNL     1      -2.050  -1.498  -1.741  1.00  0.00    -0.223 OA
ENDBRANCH   2   4
ENDBRANCH   1   2
BRANCH   1   8
HETATM    8  C3  UNL     1       0.109   0.840   1.209  1.00  0.00     0.027 C 
BRANCH   8   9
HETATM    9  C4  UNL     1       1.553   0.576   1.544  1.00  0.00    -0.012 C 
HETATM   10  C7  UNL     1       2.390   1.622   1.640  1.00  0.00    -0.007 C 
BRANCH   9  11
HETATM   11  C5  UNL     1       2.101  -0.806   1.777  1.00  0.00     0.203 C 
HETATM   12  O2  UNL     1       1.651  -1.286   3.024  1.00  0.00    -0.216 OA
BRANCH  11  13
HETATM   13  C6  UNL     1       3.630  -0.835   1.777  1.00  0.00     0.219 C 
HETATM   14  O1  UNL     1       4.046  -2.182   1.777  1.00  0.00    -0.217 OA
ENDBRANCH  11  13
ENDBRANCH   9  11
ENDBRANCH   8   9
ENDBRANCH   1   8
TORSDOF 6
