REMARK  0 active torsions:
REMARK  status: ('A' for Active; 'I' for Inactive)
ROOT
HETATM    1  C1  UNL     1       0.340  -0.494  -0.496  1.00  0.00     0.002 C 
HETATM    2  C2  UNL     1       1.336   0.678  -0.686  1.00  0.00     0.028 C 
HETATM    3  C3  UNL     1       2.707   0.002  -0.543  1.00  0.00     0.002 C 
HETATM    4  C4  UNL     1       2.475  -1.389  -1.109  1.00  0.00     0.000 C 
HETATM    5  C5  UNL     1       1.191  -1.768  -0.385  1.00  0.00     0.000 C 
HETATM    6  C6  UNL     1       0.516  -2.982  -1.014  1.00  0.00     0.000 C 
HETATM    7  C7  UNL     1       1.158   1.941   0.193  1.00  0.00     0.127 C 
HETATM    8  C8  UNL     1      -0.152   2.721  -0.106  1.00  0.00     0.030 C 
HETATM    9  C9  UNL     1      -1.428   1.871  -0.248  1.00  0.00     0.003 C 
HETATM   10  C10 UNL     1      -1.518   0.801   0.836  1.00  0.00     0.000 A 
HETATM   11  C11 UNL     1      -0.609  -0.402   0.713  1.00  0.00     0.000 A 
HETATM   12  C12 UNL     1      -2.115  -0.570   0.568  1.00  0.00     0.000 A 
HETATM   13  C13 UNL     1      -2.848  -1.248   1.721  1.00  0.00     0.000 C 
HETATM   14  C14 UNL     1      -2.715  -0.857  -0.805  1.00  0.00     0.000 C 
HETATM   15  C15 UNL     1       1.301   1.600   1.682  1.00  0.00     0.033 C 
HETATM   16  O1  UNL     1       2.225   2.830  -0.084  1.00  0.00    -0.226 OA
ENDROOT
TORSDOF 0
