REMARK  7 active torsions:
REMARK  status: ('A' for Active; 'I' for Inactive)
REMARK    1  A    between atoms: C3_3  and  C37_47 
REMARK    2  A    between atoms: C16_17  and  C26_29 
REMARK    3  A    between atoms: C21_22  and  C24_25 
REMARK    4  A    between atoms: C24_25  and  O3_27 
REMARK    5  A    between atoms: C26_29  and  O4_30 
REMARK    6  A    between atoms: O4_30  and  C27_31 
REMARK    7  A    between atoms: C31_35  and  C32_37 
ROOT
HETATM    1  C1  UNL     1      -6.469  -0.172  -3.070  1.00  0.00     0.182 C 
HETATM    2  C2  UNL     1      -7.147  -0.998  -1.955  1.00  0.00     0.185 C 
HETATM    3  C3  UNL     1      -6.697  -0.611  -0.521  1.00  0.00     0.061 C 
HETATM    4  C4  UNL     1      -5.143  -0.672  -0.447  1.00  0.00     0.005 C 
HETATM    5  C5  UNL     1      -4.404   0.190  -1.514  1.00  0.00     0.005 C 
HETATM    6  C6  UNL     1      -4.934  -0.189  -2.924  1.00  0.00     0.036 C 
HETATM    7  C7  UNL     1      -2.859  -0.080  -1.406  1.00  0.00     0.035 C 
HETATM    8  C8  UNL     1      -2.271   0.158   0.020  1.00  0.00     0.006 C 
HETATM    9  C9  UNL     1      -3.104  -0.625   1.065  1.00  0.00     0.000 C 
HETATM   10  C10 UNL     1      -4.607  -0.363   0.963  1.00  0.00     0.000 C 
HETATM   11  C11 UNL     1      -0.771  -0.297   0.043  1.00  0.00     0.015 C 
HETATM   12  C12 UNL     1       0.047   0.412  -1.027  1.00  0.00    -0.046 C 
HETATM   13  C13 UNL     1      -0.557   0.889  -2.139  1.00  0.00    -0.002 C 
HETATM   14  C14 UNL     1      -2.020   0.693  -2.465  1.00  0.00     0.173 C 
HETATM   15  O1  UNL     1      -2.062   0.012  -3.705  1.00  0.00    -0.219 OA
HETATM   16  C15 UNL     1       1.559   0.602  -0.848  1.00  0.00     0.027 C 
HETATM   17  C16 UNL     1       2.242  -0.176   0.340  1.00  0.00     0.082 C 
HETATM   18  C17 UNL     1       1.293  -0.541   1.518  1.00  0.00     0.010 C 
HETATM   19  C18 UNL     1      -0.115   0.029   1.400  1.00  0.00     0.004 C 
HETATM   20  C19 UNL     1       2.891  -1.469  -0.207  1.00  0.00     0.010 C 
HETATM   21  C20 UNL     1       4.000  -1.227  -1.252  1.00  0.00     0.010 C 
HETATM   22  C21 UNL     1       3.774   0.016  -2.144  1.00  0.00     0.078 C 
HETATM   23  C22 UNL     1       2.272   0.338  -2.215  1.00  0.00     0.014 C 
HETATM   24  C23 UNL     1       4.305  -0.260  -3.557  1.00  0.00     0.010 C 
HETATM   25  C33 UNL     1      -0.668  -1.807  -0.236  1.00  0.00     0.004 C 
HETATM   26  C34 UNL     1      -2.344   1.654   0.375  1.00  0.00     0.000 C 
HETATM   27  C35 UNL     1      -4.680   1.684  -1.277  1.00  0.00     0.000 C 
HETATM   28  C36 UNL     1      -7.217   0.779  -0.121  1.00  0.00     0.005 C 
HETATM   29  O12 UNL     1      -8.559  -0.945  -2.084  1.00  0.00    -0.221 OA
HETATM   30  O13 UNL     1      -6.928   1.172  -3.082  1.00  0.00    -0.221 OA
ENDROOT
BRANCH  17  31
HETATM   31  C26 UNL     1       3.338   0.680   0.943  1.00  0.00     0.273 C 
HETATM   32  O10 UNL     1       3.283   1.885   0.893  1.00  0.00    -0.264 OA
BRANCH  31  33
HETATM   33  O4  UNL     1       4.332   0.004   1.514  1.00  0.00    -0.273 OA
BRANCH  33  34
HETATM   34  C27 UNL     1       5.344   0.861   2.025  1.00  0.00     0.276 C 
HETATM   35  C28 UNL     1       4.856   1.529   3.332  1.00  0.00     0.241 C 
HETATM   36  C29 UNL     1       4.852   0.561   4.539  1.00  0.00     0.220 C 
HETATM   37  O9  UNL     1       5.690   2.637   3.627  1.00  0.00    -0.215 OA
HETATM   38  C30 UNL     1       6.137  -0.299   4.602  1.00  0.00     0.215 C 
HETATM   39  O8  UNL     1       3.736  -0.303   4.414  1.00  0.00    -0.218 OA
HETATM   40  C31 UNL     1       6.557  -0.867   3.223  1.00  0.00     0.184 C 
HETATM   41  O7  UNL     1       7.194   0.490   5.119  1.00  0.00    -0.218 OA
HETATM   42  O5  UNL     1       6.567   0.152   2.223  1.00  0.00    -0.326 OA
BRANCH  40  43
HETATM   43  C32 UNL     1       5.684  -2.041   2.760  1.00  0.00     0.214 C 
HETATM   44  O6  UNL     1       6.078  -2.398   1.455  1.00  0.00    -0.218 OA
ENDBRANCH  40  43
ENDBRANCH  33  34
ENDBRANCH  31  33
ENDBRANCH  17  31
BRANCH  22  45
HETATM   45  C24 UNL     1       4.543   1.219  -1.654  1.00  0.00     0.271 C 
HETATM   46  O2  UNL     1       4.031   2.315  -1.625  1.00  0.00    -0.264 OA
BRANCH  45  47
HETATM   47  O3  UNL     1       5.793   0.975  -1.273  1.00  0.00    -0.299 OA
HETATM   48  C25 UNL     1       6.565   2.160  -1.154  1.00  0.00     0.184 C 
ENDBRANCH  45  47
ENDBRANCH  22  45
BRANCH   3  49
HETATM   49  C37 UNL     1      -7.291  -1.625   0.467  1.00  0.00     0.185 C 
HETATM   50  O11 UNL     1      -8.695  -1.502   0.436  1.00  0.00    -0.221 OA
ENDBRANCH   3  49
TORSDOF 7
