REMARK  5 active torsions:
REMARK  status: ('A' for Active; 'I' for Inactive)
REMARK    1  A    between atoms: C1_1  and  C21_25 
REMARK    2  A    between atoms: C8_10  and  C10_13 
REMARK    3  A    between atoms: C14_17  and  C16_19 
REMARK    4  A    between atoms: C16_19  and  C17_20 
REMARK    5  A    between atoms: C21_25  and  C22_26 
ROOT
HETATM    1  C1  UNL     1      -3.768   0.535   0.856  1.00  0.00     0.008 A 
HETATM    2  C2  UNL     1      -2.592  -0.248   0.941  1.00  0.00     0.003 A 
HETATM    3  C3  UNL     1      -1.330   0.381   1.078  1.00  0.00     0.057 A 
HETATM    4  C4  UNL     1      -1.238   1.799   1.094  1.00  0.00     0.099 A 
HETATM    5  C5  UNL     1      -2.418   2.576   1.029  1.00  0.00     0.051 A 
HETATM    6  C6  UNL     1      -3.680   1.947   0.910  1.00  0.00     0.129 A 
HETATM    7  O1  UNL     1      -4.791   2.697   0.844  1.00  0.00    -0.190 OA
HETATM    8  O2  UNL     1      -0.045   2.420   1.168  1.00  0.00    -0.330 OA
HETATM    9  C7  UNL     1       1.150   1.721   0.801  1.00  0.00     0.161 C 
HETATM   10  C8  UNL     1       1.199   0.324   1.457  1.00  0.00     0.114 C 
HETATM   11  C9  UNL     1      -0.094  -0.445   1.219  1.00  0.00     0.181 C 
HETATM   12  O3  UNL     1      -0.045  -1.654   1.166  1.00  0.00    -0.291 OA
ENDROOT
BRANCH  10  13
HETATM   13  C10 UNL     1       2.416  -0.416   1.010  1.00  0.00    -0.013 A 
HETATM   14  C11 UNL     1       2.732  -1.660   1.580  1.00  0.00    -0.002 A 
HETATM   15  C12 UNL     1       3.879  -2.356   1.158  1.00  0.00     0.027 A 
HETATM   16  C13 UNL     1       4.713  -1.811   0.166  1.00  0.00     0.127 A 
HETATM   17  C14 UNL     1       4.395  -0.563  -0.406  1.00  0.00     0.007 A 
HETATM   18  O4  UNL     1       5.785  -2.471  -0.223  1.00  0.00    -0.191 OA
HETATM   19  C15 UNL     1       3.248   0.133   0.018  1.00  0.00    -0.006 A 
BRANCH  17  20
HETATM   20  C16 UNL     1       5.268   0.025  -1.457  1.00  0.00     0.054 C 
BRANCH  20  21
HETATM   21  C17 UNL     1       4.975  -0.543  -2.818  1.00  0.00    -0.030 C 
HETATM   22  C18 UNL     1       5.529   0.047  -3.891  1.00  0.00    -0.048 C 
HETATM   23  C19 UNL     1       6.436   1.228  -3.674  1.00  0.00     0.026 C 
HETATM   24  C20 UNL     1       5.215  -0.504  -5.256  1.00  0.00     0.026 C 
ENDBRANCH  20  21
ENDBRANCH  17  20
ENDBRANCH  10  13
BRANCH   1  25
HETATM   25  C21 UNL     1      -5.074  -0.125   0.713  1.00  0.00     0.054 C 
BRANCH  25  26
HETATM   26  C22 UNL     1      -5.797  -0.246   2.029  1.00  0.00    -0.030 C 
HETATM   27  C23 UNL     1      -7.096  -0.582   2.018  1.00  0.00    -0.048 C 
HETATM   28  C24 UNL     1      -7.908  -0.875   0.785  1.00  0.00     0.026 C 
HETATM   29  C25 UNL     1      -7.822  -0.682   3.334  1.00  0.00     0.026 C 
ENDBRANCH  25  26
ENDBRANCH   1  25
TORSDOF 5
