REMARK  8 active torsions:
REMARK  status: ('A' for Active; 'I' for Inactive)
REMARK    1  A    between atoms: C6_6  and  C7_7 
REMARK    2  A    between atoms: C7_7  and  C8_8 
REMARK    3  A    between atoms: C8_8  and  C9_9 
REMARK    4  A    between atoms: C9_9  and  C10_10 
REMARK    5  A    between atoms: C9_9  and  C15_15 
REMARK    6  A    between atoms: C10_10  and  C11_11 
REMARK    7  A    between atoms: C15_15  and  C17_17 
REMARK    8  A    between atoms: C19_20  and  C22_24 
ROOT
HETATM    1  C1  UNL     1      -2.731   3.131   0.451  1.00  0.00     0.131 A 
HETATM    2  C2  UNL     1      -2.611   4.422   1.018  1.00  0.00     0.055 A 
HETATM    3  C3  UNL     1      -1.340   5.014   1.178  1.00  0.00     0.138 A 
HETATM    4  C4  UNL     1      -0.176   4.309   0.770  1.00  0.00     0.082 A 
HETATM    5  C5  UNL     1      -0.291   2.996   0.234  1.00  0.00     0.097 A 
HETATM    6  C6  UNL     1      -1.572   2.418   0.059  1.00  0.00     0.026 A 
HETATM    7  O1  UNL     1       0.805   2.285  -0.113  1.00  0.00    -0.329 OA
HETATM    8  C19 UNL     1       2.094   2.637   0.402  1.00  0.00     0.153 C 
HETATM    9  C20 UNL     1       2.322   4.156   0.289  1.00  0.00     0.104 C 
HETATM   10  C21 UNL     1       1.172   4.940   0.883  1.00  0.00     0.180 C 
HETATM   11  O2  UNL     1       1.434   6.004   1.395  1.00  0.00    -0.291 OA
HETATM   12  O5  UNL     1      -1.250   6.242   1.711  1.00  0.00    -0.190 OA
HETATM   13  O6  UNL     1      -3.947   2.588   0.293  1.00  0.00    -0.190 OA
ENDROOT
BRANCH   6  14
HETATM   14  C7  UNL     1      -1.699   1.070  -0.525  1.00  0.00     0.030 C 
BRANCH  14  15
HETATM   15  C8  UNL     1      -1.924   0.008   0.551  1.00  0.00     0.005 C 
BRANCH  15  16
HETATM   16  C9  UNL     1      -1.719  -1.414   0.027  1.00  0.00     0.005 C 
BRANCH  16  17
HETATM   17  C10 UNL     1      -0.754  -2.226   0.891  1.00  0.00     0.025 C 
BRANCH  17  18
HETATM   18  C11 UNL     1       0.133  -3.125   0.070  1.00  0.00    -0.035 C 
HETATM   19  C12 UNL     1       1.215  -3.664   0.652  1.00  0.00    -0.048 C 
HETATM   20  C13 UNL     1       2.232  -4.531  -0.039  1.00  0.00     0.026 C 
HETATM   21  C14 UNL     1       1.455  -3.392   2.113  1.00  0.00     0.026 C 
ENDBRANCH  17  18
ENDBRANCH  16  17
BRANCH  16  22
HETATM   22  C15 UNL     1      -3.039  -2.142  -0.227  1.00  0.00     0.000 C 
HETATM   23  C16 UNL     1      -3.982  -1.355  -1.135  1.00  0.00     0.000 C 
BRANCH  22  24
HETATM   24  C17 UNL     1      -2.834  -3.584  -0.697  1.00  0.00     0.000 C 
HETATM   25  C18 UNL     1      -4.152  -4.320  -0.932  1.00  0.00     0.000 C 
ENDBRANCH  22  24
ENDBRANCH  16  22
ENDBRANCH  15  16
ENDBRANCH  14  15
ENDBRANCH   6  14
BRANCH   8  26
HETATM   26  C22 UNL     1       3.135   1.854  -0.312  1.00  0.00     0.031 A 
HETATM   27  C23 UNL     1       4.170   2.524  -0.986  1.00  0.00     0.002 A 
HETATM   28  C24 UNL     1       5.158   1.791  -1.666  1.00  0.00     0.027 A 
HETATM   29  C25 UNL     1       5.115   0.387  -1.674  1.00  0.00     0.133 A 
HETATM   30  C26 UNL     1       4.078  -0.281  -1.000  1.00  0.00     0.054 A 
HETATM   31  O4  UNL     1       6.043  -0.301  -2.313  1.00  0.00    -0.190 OA
HETATM   32  C27 UNL     1       3.086   0.445  -0.318  1.00  0.00     0.131 A 
HETATM   33  O3  UNL     1       2.121  -0.195   0.309  1.00  0.00    -0.190 OA
ENDBRANCH   8  26
TORSDOF 8
