REMARK  1 active torsions:
REMARK  status: ('A' for Active; 'I' for Inactive)
REMARK    1  A    between atoms: C3_3  and  C4_4 
ROOT
HETATM    1  C1  UNL     1       1.631  -0.158   0.754  1.00  0.00     0.104 C 
HETATM    2  C2  UNL     1       0.457  -0.625   1.230  1.00  0.00    -0.004 C 
HETATM    3  C3  UNL     1      -0.596   0.350   0.752  1.00  0.00     0.021 A 
HETATM    4  C7  UNL     1      -0.861   1.809   0.998  1.00  0.00     0.005 A 
HETATM    5  C8  UNL     1       0.004   1.354  -0.180  1.00  0.00     0.010 A 
HETATM    6  C9  UNL     1       1.510   1.104  -0.076  1.00  0.00     0.048 C 
HETATM    7  C10 UNL     1       2.113   0.936  -1.465  1.00  0.00     0.007 C 
HETATM    8  O1  UNL     1       2.797  -0.754   0.990  1.00  0.00    -0.195 OA
ENDROOT
BRANCH   3   9
HETATM    9  C4  UNL     1      -1.350  -0.916   0.357  1.00  0.00     0.004 C 
HETATM   10  C5  UNL     1      -0.586  -1.641  -0.750  1.00  0.00     0.000 C 
HETATM   11  C6  UNL     1      -2.778  -0.551  -0.053  1.00  0.00     0.000 C 
ENDBRANCH   3   9
TORSDOF 1
