REMARK  0 active torsions:
REMARK  status: ('A' for Active; 'I' for Inactive)
ROOT
HETATM    1  C1  UNL     1      -4.840   1.465  -2.035  1.00  0.00     0.000 C 
HETATM    2  C2  UNL     1      -5.525   0.104  -1.889  1.00  0.00     0.000 C 
HETATM    3  C3  UNL     1      -5.154  -0.609  -0.574  1.00  0.00     0.000 C 
HETATM    4  C4  UNL     1      -3.608  -0.695  -0.443  1.00  0.00     0.000 C 
HETATM    5  C5  UNL     1      -2.877   0.670  -0.588  1.00  0.00     0.000 C 
HETATM    6  C6  UNL     1      -3.316   1.338  -1.912  1.00  0.00     0.000 C 
HETATM    7  C7  UNL     1      -1.332   0.430  -0.592  1.00  0.00     0.004 C 
HETATM    8  C8  UNL     1      -0.803  -0.375   0.631  1.00  0.00     0.003 C 
HETATM    9  C9  UNL     1      -1.639  -1.666   0.820  1.00  0.00     0.000 C 
HETATM   10  C10 UNL     1      -3.150  -1.420   0.836  1.00  0.00     0.000 C 
HETATM   11  C11 UNL     1       0.713  -0.721   0.416  1.00  0.00     0.015 C 
HETATM   12  C12 UNL     1       1.531   0.514   0.043  1.00  0.00    -0.049 C 
HETATM   13  C13 UNL     1       0.951   1.611  -0.494  1.00  0.00    -0.034 C 
HETATM   14  C14 UNL     1      -0.529   1.736  -0.758  1.00  0.00     0.025 C 
HETATM   15  C15 UNL     1       3.041   0.527   0.254  1.00  0.00     0.018 C 
HETATM   16  C16 UNL     1       3.543  -0.234   1.512  1.00  0.00     0.003 C 
HETATM   17  C17 UNL     1       2.811  -1.582   1.644  1.00  0.00     0.001 C 
HETATM   18  C18 UNL     1       1.291  -1.412   1.676  1.00  0.00     0.004 C 
HETATM   19  C19 UNL     1       5.072  -0.502   1.426  1.00  0.00     0.000 C 
HETATM   20  C20 UNL     1       5.799   0.492   0.512  1.00  0.00     0.000 C 
HETATM   21  C21 UNL     1       5.303   0.404  -0.951  1.00  0.00     0.000 C 
HETATM   22  C22 UNL     1       3.795   0.057  -1.008  1.00  0.00     0.004 C 
HETATM   23  C23 UNL     1       6.098  -0.668  -1.705  1.00  0.00     0.000 C 
HETATM   24  C24 UNL     1       5.551   1.752  -1.641  1.00  0.00     0.000 C 
HETATM   25  C25 UNL     1       3.256   0.625   2.754  1.00  0.00     0.000 C 
HETATM   26  C26 UNL     1       0.883  -1.676  -0.777  1.00  0.00     0.004 C 
HETATM   27  C27 UNL     1      -0.957   0.484   1.900  1.00  0.00     0.000 C 
HETATM   28  C28 UNL     1      -3.264   1.607   0.568  1.00  0.00     0.000 C 
HETATM   29  C29 UNL     1      -5.777   0.131   0.615  1.00  0.00     0.000 C 
HETATM   30  C30 UNL     1      -5.754  -2.020  -0.609  1.00  0.00     0.000 C 
ENDROOT
TORSDOF 0
