REMARK  7 active torsions:
REMARK  status: ('A' for Active; 'I' for Inactive)
REMARK    1  A    between atoms: C1_1  and  C16_24 
REMARK    2  A    between atoms: C2_2  and  O8_22 
REMARK    3  A    between atoms: C6_6  and  O1_7 
REMARK    4  A    between atoms: O1_7  and  C7_8 
REMARK    5  A    between atoms: C11_15  and  C12_17 
REMARK    6  A    between atoms: C16_24  and  C17_25 
REMARK    7  A    between atoms: C17_25  and  C18_26 
ROOT
HETATM    1  C1  UNL     1       0.691   1.912   0.764  1.00  0.00     0.025 A 
HETATM    2  C2  UNL     1       1.918   2.639   0.687  1.00  0.00     0.115 A 
HETATM    3  C3  UNL     1       3.096   1.855   0.738  1.00  0.00     0.122 A 
HETATM    4  C4  UNL     1       3.105   0.496   0.851  1.00  0.00     0.029 A 
HETATM    5  C5  UNL     1       1.900  -0.234   0.928  1.00  0.00     0.026 A 
HETATM    6  C6  UNL     1       0.680   0.490   0.881  1.00  0.00     0.095 A 
HETATM    7  C13 UNL     1       4.371   0.016   0.879  1.00  0.00     0.029 A 
HETATM    8  C14 UNL     1       5.193   1.160   0.773  1.00  0.00     0.123 A 
HETATM    9  O7  UNL     1       4.393   2.336   0.682  1.00  0.00    -0.303 OA
ENDROOT
BRANCH   6  10
HETATM   10  O1  UNL     1      -0.482  -0.174   0.951  1.00  0.00    -0.304 OA
BRANCH  10  11
HETATM   11  C7  UNL     1      -0.563  -1.447   0.324  1.00  0.00     0.274 C 
HETATM   12  C8  UNL     1      -0.828  -2.539   1.383  1.00  0.00     0.241 C 
HETATM   13  O2  UNL     1       0.281  -2.600   2.264  1.00  0.00    -0.215 OA
HETATM   14  C9  UNL     1      -1.051  -3.916   0.719  1.00  0.00     0.220 C 
HETATM   15  O3  UNL     1      -1.475  -4.858   1.691  1.00  0.00    -0.218 OA
HETATM   16  C10 UNL     1      -2.117  -3.789  -0.391  1.00  0.00     0.215 C 
HETATM   17  O4  UNL     1      -2.190  -4.996  -1.127  1.00  0.00    -0.218 OA
HETATM   18  C11 UNL     1      -1.785  -2.635  -1.363  1.00  0.00     0.184 C 
HETATM   19  O5  UNL     1      -1.619  -1.430  -0.625  1.00  0.00    -0.326 OA
BRANCH  18  20
HETATM   20  C12 UNL     1      -2.899  -2.381  -2.387  1.00  0.00     0.214 C 
HETATM   21  O6  UNL     1      -2.412  -1.473  -3.350  1.00  0.00    -0.218 OA
ENDBRANCH  18  20
ENDBRANCH  10  11
ENDBRANCH   6  10
BRANCH   1  22
HETATM   22  C16 UNL     1      -0.592   2.641   0.721  1.00  0.00     0.042 C 
BRANCH  22  23
HETATM   23  C17 UNL     1      -0.967   3.033  -0.709  1.00  0.00     0.102 C 
BRANCH  23  24
HETATM   24  C18 UNL     1      -2.244   3.830  -0.768  1.00  0.00     0.186 C 
HETATM   25  O9  UNL     1      -2.621   4.473   0.184  1.00  0.00    -0.647 OA
HETATM   26  O10 UNL     1      -2.897   3.764  -1.924  1.00  0.00    -0.647 OA
ENDBRANCH  23  24
ENDBRANCH  22  23
ENDBRANCH   1  22
BRANCH   2  27
HETATM   27  O8  UNL     1       1.820   3.971   0.576  1.00  0.00    -0.326 OA
HETATM   28  C15 UNL     1       3.016   4.715   0.387  1.00  0.00     0.181 C 
ENDBRANCH   2  27
TORSDOF 7
