REMARK  12 active torsions:
REMARK  status: ('A' for Active; 'I' for Inactive)
REMARK    1  A    between atoms: C2_2  and  O8_41 
REMARK    2  A    between atoms: C18_19  and  C21_22 
REMARK    3  A    between atoms: C21_22  and  C22_23 
REMARK    4  A    between atoms: C22_23  and  C23_24 
REMARK    5  A    between atoms: C23_24  and  C24_25 
REMARK    6  A    between atoms: C24_25  and  O2_26 
REMARK    7  A    between atoms: O2_26  and  C25_27 
REMARK    8  A    between atoms: C29_31  and  C30_33 
REMARK    9  A    between atoms: O8_41  and  C34_42 
REMARK   10  A    between atoms: C37_45  and  O11_50 
REMARK   11  A    between atoms: C38_46  and  C39_48 
REMARK   12  A    between atoms: O11_50  and  C40_51 
ROOT
HETATM    1  C1  UNL     1       0.918  -0.012  -3.518  1.00  0.00     0.030 C 
HETATM    2  C2  UNL     1       1.629   0.990  -2.596  1.00  0.00     0.118 C 
HETATM    3  C3  UNL     1       1.598   2.414  -3.180  1.00  0.00     0.030 C 
HETATM    4  C4  UNL     1       0.162   2.869  -3.516  1.00  0.00     0.002 C 
HETATM    5  C5  UNL     1      -0.557   1.871  -4.465  1.00  0.00     0.000 C 
HETATM    6  C6  UNL     1      -0.510   0.445  -3.856  1.00  0.00     0.003 C 
HETATM    7  C7  UNL     1      -2.018   2.344  -4.736  1.00  0.00     0.000 C 
HETATM    8  C8  UNL     1      -2.818   2.643  -3.449  1.00  0.00     0.000 C 
HETATM    9  C9  UNL     1      -2.059   3.637  -2.551  1.00  0.00     0.000 C 
HETATM   10  C10 UNL     1      -0.648   3.141  -2.234  1.00  0.00     0.000 C 
HETATM   11  C11 UNL     1      -4.207   3.225  -3.813  1.00  0.00     0.003 C 
HETATM   12  C12 UNL     1      -5.025   2.402  -4.832  1.00  0.00     0.006 C 
HETATM   13  C13 UNL     1      -4.178   1.916  -6.020  1.00  0.00     0.000 C 
HETATM   14  C14 UNL     1      -2.803   1.363  -5.625  1.00  0.00     0.000 C 
HETATM   15  C15 UNL     1      -5.795   1.336  -4.018  1.00  0.00     0.048 C 
HETATM   16  C16 UNL     1      -5.815   1.879  -2.582  1.00  0.00     0.125 C 
HETATM   17  C17 UNL     1      -5.170   3.262  -2.617  1.00  0.00     0.030 C 
HETATM   18  O1  UNL     1      -5.043   0.978  -1.775  1.00  0.00    -0.338 OA
HETATM   19  C18 UNL     1      -4.750  -0.102  -2.498  1.00  0.00     0.064 C 
HETATM   20  C19 UNL     1      -5.150   0.006  -3.768  1.00  0.00    -0.024 C 
HETATM   21  C20 UNL     1      -5.008  -1.061  -4.826  1.00  0.00     0.028 C 
HETATM   22  C32 UNL     1      -6.123   3.334  -5.369  1.00  0.00     0.000 C 
HETATM   23  C33 UNL     1       0.193   1.852  -5.807  1.00  0.00     0.000 C 
ENDROOT
BRANCH   2  24
HETATM   24  O8  UNL     1       2.973   0.590  -2.420  1.00  0.00    -0.332 OA
BRANCH  24  25
HETATM   25  C34 UNL     1       3.582   1.166  -1.281  1.00  0.00     0.270 C 
HETATM   26  C35 UNL     1       5.117   0.951  -1.322  1.00  0.00     0.241 C 
HETATM   27  C36 UNL     1       5.779   1.434  -0.010  1.00  0.00     0.217 C 
HETATM   28  O17 UNL     1       5.664   1.670  -2.416  1.00  0.00    -0.215 OA
HETATM   29  C37 UNL     1       5.043   0.826   1.205  1.00  0.00     0.181 C 
HETATM   30  O16 UNL     1       7.143   1.045   0.012  1.00  0.00    -0.218 OA
HETATM   31  C38 UNL     1       3.518   1.062   1.113  1.00  0.00     0.181 C 
HETATM   32  O9  UNL     1       3.037   0.551  -0.121  1.00  0.00    -0.326 OA
BRANCH  29  33
HETATM   33  O11 UNL     1       5.522   1.418   2.400  1.00  0.00    -0.326 OA
BRANCH  33  34
HETATM   34  C40 UNL     1       5.799   0.475   3.416  1.00  0.00     0.270 C 
HETATM   35  C41 UNL     1       5.961   1.186   4.785  1.00  0.00     0.241 C 
HETATM   36  C42 UNL     1       6.420   0.189   5.875  1.00  0.00     0.220 C 
HETATM   37  O15 UNL     1       4.721   1.760   5.166  1.00  0.00    -0.215 OA
HETATM   38  C43 UNL     1       7.647  -0.607   5.379  1.00  0.00     0.212 C 
HETATM   39  O14 UNL     1       6.754   0.894   7.061  1.00  0.00    -0.218 OA
HETATM   40  C44 UNL     1       7.385  -1.231   3.988  1.00  0.00     0.151 C 
HETATM   41  O13 UNL     1       7.943  -1.649   6.293  1.00  0.00    -0.218 OA
HETATM   42  O12 UNL     1       7.000  -0.209   3.080  1.00  0.00    -0.329 OA
HETATM   43  C45 UNL     1       8.625  -1.904   3.393  1.00  0.00     0.035 C 
ENDBRANCH  33  34
ENDBRANCH  29  33
BRANCH  31  44
HETATM   44  C39 UNL     1       2.736   0.350   2.221  1.00  0.00     0.214 C 
HETATM   45  O10 UNL     1       1.371   0.670   2.076  1.00  0.00    -0.218 OA
ENDBRANCH  31  44
ENDBRANCH  24  25
ENDBRANCH   2  24
BRANCH  19  46
HETATM   46  C21 UNL     1      -4.043  -1.316  -1.957  1.00  0.00     0.050 C 
BRANCH  46  47
HETATM   47  C22 UNL     1      -3.430  -1.068  -0.578  1.00  0.00     0.009 C 
BRANCH  47  48
HETATM   48  C23 UNL     1      -2.824  -2.330   0.033  1.00  0.00     0.030 C 
HETATM   49  C31 UNL     1      -1.627  -2.856  -0.762  1.00  0.00     0.003 C 
BRANCH  48  50
HETATM   50  C24 UNL     1      -2.520  -2.178   1.523  1.00  0.00     0.145 C 
BRANCH  50  51
HETATM   51  O2  UNL     1      -2.338  -3.463   2.072  1.00  0.00    -0.329 OA
BRANCH  51  52
HETATM   52  C25 UNL     1      -2.006  -3.442   3.447  1.00  0.00     0.270 C 
HETATM   53  C26 UNL     1      -1.613  -4.861   3.932  1.00  0.00     0.241 C 
HETATM   54  C27 UNL     1      -1.402  -4.885   5.463  1.00  0.00     0.220 C 
HETATM   55  O7  UNL     1      -0.414  -5.262   3.287  1.00  0.00    -0.215 OA
HETATM   56  C28 UNL     1      -2.615  -4.240   6.172  1.00  0.00     0.215 C 
HETATM   57  O6  UNL     1      -1.242  -6.223   5.904  1.00  0.00    -0.218 OA
HETATM   58  C29 UNL     1      -2.941  -2.854   5.574  1.00  0.00     0.184 C 
HETATM   59  O5  UNL     1      -2.338  -4.088   7.553  1.00  0.00    -0.218 OA
HETATM   60  O3  UNL     1      -3.137  -2.979   4.174  1.00  0.00    -0.326 OA
BRANCH  58  61
HETATM   61  C30 UNL     1      -4.227  -2.244   6.147  1.00  0.00     0.214 C 
HETATM   62  O4  UNL     1      -4.342  -0.926   5.664  1.00  0.00    -0.218 OA
ENDBRANCH  58  61
ENDBRANCH  51  52
ENDBRANCH  50  51
ENDBRANCH  48  50
ENDBRANCH  47  48
ENDBRANCH  46  47
ENDBRANCH  19  46
TORSDOF 12
