REMARK  0 active torsions:
REMARK  status: ('A' for Active; 'I' for Inactive)
ROOT
HETATM    1  C1  UNL     1       0.416   0.068   0.219  1.00  0.00     0.056 A 
HETATM    2  C2  UNL     1      -0.176   1.006  -0.682  1.00  0.00     0.094 A 
HETATM    3  C3  UNL     1       0.639   1.885  -1.434  1.00  0.00     0.024 A 
HETATM    4  C4  UNL     1       2.045   1.822  -1.332  1.00  0.00     0.004 A 
HETATM    5  C5  UNL     1       2.641   0.865  -0.479  1.00  0.00     0.023 A 
HETATM    6  C6  UNL     1       1.836  -0.017   0.291  1.00  0.00     0.104 A 
HETATM    7  O1  UNL     1       2.426  -0.935   1.094  1.00  0.00    -0.273 OA
HETATM    8  C7  UNL     1       3.762  -1.066   1.217  1.00  0.00     0.300 A 
HETATM    9  C8  UNL     1       4.649  -0.166   0.447  1.00  0.00     0.069 A 
HETATM   10  C9  UNL     1       4.119   0.766  -0.369  1.00  0.00     0.007 A 
HETATM   11  O2  UNL     1       4.266  -1.896   1.936  1.00  0.00    -0.259 OA
HETATM   12  O3  UNL     1      -1.516   1.088  -0.850  1.00  0.00    -0.333 OA
HETATM   13  C10 UNL     1      -2.387   0.043  -0.397  1.00  0.00     0.129 C 
HETATM   14  C11 UNL     1      -1.947  -0.365   1.025  1.00  0.00     0.212 C 
HETATM   15  C12 UNL     1      -0.461  -0.807   1.057  1.00  0.00     0.211 C 
HETATM   16  O4  UNL     1      -0.039  -0.810   2.412  1.00  0.00    -0.216 OA
HETATM   17  O5  UNL     1      -2.775  -1.414   1.506  1.00  0.00    -0.218 OA
HETATM   18  C13 UNL     1      -2.293  -1.123  -1.393  1.00  0.00     0.033 C 
HETATM   19  C14 UNL     1      -3.811   0.611  -0.408  1.00  0.00     0.033 C 
ENDROOT
TORSDOF 0
