REMARK  5 active torsions:
REMARK  status: ('A' for Active; 'I' for Inactive)
REMARK    1  A    between atoms: C5_5  and  C7_7 
REMARK    2  A    between atoms: C8_8  and  C9_9 
REMARK    3  A    between atoms: C10_10  and  C11_11 
REMARK       I    between atoms: C11_11  and  N1_12 
REMARK    4  A    between atoms: N1_12  and  C12_13 
REMARK    5  A    between atoms: C12_13  and  C13_14 
ROOT
HETATM    1  C7  UNL     1       2.416   0.977  -0.891  1.00  0.00     0.000 C 
HETATM    2  C8  UNL     1       1.352   0.254  -0.504  1.00  0.00     0.000 C 
ENDROOT
BRANCH   1   3
HETATM    3  C5  UNL     1       3.736   0.316  -0.951  1.00  0.00     0.002 A 
HETATM    4  C4  UNL     1       3.826  -1.061  -1.240  1.00  0.00     0.002 A 
HETATM    5  C3  UNL     1       5.100  -1.668  -1.293  1.00  0.00     0.026 A 
HETATM    6  C2  UNL     1       6.283  -0.920  -1.063  1.00  0.00     0.119 A 
HETATM    7  C1  UNL     1       6.189   0.447  -0.777  1.00  0.00     0.119 A 
HETATM    8  O2  UNL     1       7.568  -1.277  -1.065  1.00  0.00    -0.300 OA
HETATM    9  C6  UNL     1       4.912   1.063  -0.721  1.00  0.00     0.026 A 
HETATM   10  O3  UNL     1       7.416   0.939  -0.600  1.00  0.00    -0.300 OA
HETATM   11  C16 UNL     1       8.385  -0.119  -0.773  1.00  0.00     0.304 A 
ENDBRANCH   1   3
BRANCH   2  12
HETATM   12  C9  UNL     1       0.019   0.867  -0.428  1.00  0.00     0.005 C 
HETATM   13  C10 UNL     1      -1.045   0.145  -0.041  1.00  0.00     0.062 C 
BRANCH  13  14
HETATM   14  C11 UNL     1      -2.377   0.756   0.035  1.00  0.00     0.275 C 
HETATM   15  N1  UNL     1      -3.440  -0.004   0.430  1.00  0.00    -0.234 NA
HETATM   16  O1  UNL     1      -2.533   1.920  -0.250  1.00  0.00    -0.266 OA
BRANCH  15  17
HETATM   17  C12 UNL     1      -4.776   0.605   0.508  1.00  0.00     0.129 C 
BRANCH  17  18
HETATM   18  C13 UNL     1      -5.809  -0.398   1.021  1.00  0.00     0.025 C 
HETATM   19  C14 UNL     1      -5.610  -0.746   2.498  1.00  0.00     0.002 C 
HETATM   20  C15 UNL     1      -7.244   0.016   0.701  1.00  0.00     0.002 C 
ENDBRANCH  17  18
ENDBRANCH  15  17
ENDBRANCH  13  14
ENDBRANCH   2  12
TORSDOF 5
