REMARK  1 active torsions:
REMARK  status: ('A' for Active; 'I' for Inactive)
REMARK    1  A    between atoms: C7_7  and  C10_13 
ROOT
HETATM    1  C1  UNL     1      -2.014   0.723  -0.414  1.00  0.00     0.038 C 
HETATM    2  C2  UNL     1      -2.191  -0.673   0.239  1.00  0.00     0.170 C 
HETATM    3  C3  UNL     1      -0.891  -1.487   0.127  1.00  0.00    -0.019 C 
HETATM    4  C4  UNL     1       0.284  -0.926  -0.134  1.00  0.00    -0.008 C 
HETATM    5  C5  UNL     1       0.465   0.606  -0.394  1.00  0.00     0.047 C 
HETATM    6  C6  UNL     1      -0.751   1.368   0.199  1.00  0.00     0.009 C 
HETATM    7  C7  UNL     1       1.887   1.003   0.217  1.00  0.00     0.152 C 
HETATM    8  O1  UNL     1       2.880   0.240  -0.392  1.00  0.00    -0.297 OA
HETATM    9  C8  UNL     1       2.780  -1.074  -0.572  1.00  0.00     0.307 C 
HETATM   10  C9  UNL     1       1.562  -1.800  -0.185  1.00  0.00     0.255 C 
HETATM   11  O2  UNL     1       1.800  -2.286   1.137  1.00  0.00    -0.208 OA
HETATM   12  O3  UNL     1       3.741  -1.689  -1.049  1.00  0.00    -0.261 OA
HETATM   13  C14 UNL     1       0.451   0.864  -1.934  1.00  0.00     0.007 C 
HETATM   14  C15 UNL     1      -0.985  -2.994   0.376  1.00  0.00     0.028 C 
HETATM   15  O5  UNL     1      -3.336  -1.382  -0.300  1.00  0.00    -0.219 OA
ENDROOT
BRANCH   7  16
HETATM   16  C10 UNL     1       2.435   2.399   0.057  1.00  0.00     0.032 A 
HETATM   17  C11 UNL     1       3.404   2.676  -0.798  1.00  0.00     0.121 A 
HETATM   18  O4  UNL     1       3.817   3.950  -0.554  1.00  0.00    -0.303 OA
HETATM   19  C12 UNL     1       3.109   4.447   0.524  1.00  0.00     0.122 A 
HETATM   20  C13 UNL     1       2.238   3.519   0.939  1.00  0.00     0.027 A 
ENDBRANCH   7  16
TORSDOF 1
