REMARK  2 active torsions:
REMARK  status: ('A' for Active; 'I' for Inactive)
REMARK    1  A    between atoms: C13_16  and  O6_33 
REMARK    2  A    between atoms: O6_33  and  C28_34 
ROOT
HETATM    1  C1  UNL     1       5.678  -0.351   1.098  1.00  0.00     0.038 C 
HETATM    2  C2  UNL     1       5.336   0.707   2.172  1.00  0.00     0.024 C 
HETATM    3  C3  UNL     1       3.918   1.221   2.049  1.00  0.00    -0.052 C 
HETATM    4  C4  UNL     1       3.397   1.420   0.814  1.00  0.00    -0.050 C 
HETATM    5  C5  UNL     1       4.299   1.252  -0.396  1.00  0.00     0.045 C 
HETATM    6  C6  UNL     1       4.924  -0.160  -0.250  1.00  0.00     0.156 C 
HETATM    7  O1  UNL     1       5.801  -0.447  -1.324  1.00  0.00    -0.223 OA
HETATM    8  C7  UNL     1       3.502   1.436  -1.711  1.00  0.00     0.036 C 
HETATM    9  C8  UNL     1       2.096   0.824  -1.750  1.00  0.00     0.125 C 
HETATM   10  C9  UNL     1       1.395   0.660  -0.387  1.00  0.00     0.041 C 
HETATM   11  C10 UNL     1      -0.078   0.744  -0.840  1.00  0.00     0.087 C 
HETATM   12  C11 UNL     1       0.055   1.668  -2.018  1.00  0.00     0.271 C 
HETATM   13  O2  UNL     1       1.271   1.684  -2.537  1.00  0.00    -0.304 OA
HETATM   14  O3  UNL     1      -0.871   2.326  -2.436  1.00  0.00    -0.264 OA
HETATM   15  C12 UNL     1      -0.615  -0.641  -1.287  1.00  0.00     0.055 C 
HETATM   16  C13 UNL     1      -1.217  -1.211   0.004  1.00  0.00     0.132 C 
HETATM   17  C14 UNL     1      -2.190  -0.027   0.148  1.00  0.00     0.041 C 
HETATM   18  C15 UNL     1      -1.154   1.127   0.213  1.00  0.00     0.016 C 
HETATM   19  C16 UNL     1      -2.816  -0.031  -1.236  1.00  0.00    -0.050 C 
HETATM   20  C17 UNL     1      -1.871  -0.435  -2.090  1.00  0.00    -0.049 C 
HETATM   21  C18 UNL     1      -1.994  -0.648  -3.576  1.00  0.00     0.026 C 
HETATM   22  C19 UNL     1      -4.248   0.320  -1.588  1.00  0.00     0.028 C 
HETATM   23  C20 UNL     1      -5.295  -0.320  -0.662  1.00  0.00     0.059 C 
HETATM   24  C21 UNL     1      -4.795  -1.617   0.004  1.00  0.00     0.129 C 
HETATM   25  C22 UNL     1      -4.072  -1.377   1.334  1.00  0.00     0.031 C 
HETATM   26  C23 UNL     1      -3.158  -0.127   1.354  1.00  0.00     0.008 C 
HETATM   27  C24 UNL     1      -2.391  -0.058   2.680  1.00  0.00     0.001 C 
HETATM   28  O4  UNL     1      -5.924  -2.482   0.170  1.00  0.00    -0.301 OA
HETATM   29  C25 UNL     1      -6.858  -2.133  -0.717  1.00  0.00     0.292 C 
HETATM   30  C26 UNL     1      -6.537  -0.844  -1.318  1.00  0.00     0.043 C 
HETATM   31  C27 UNL     1      -7.223  -0.217  -2.289  1.00  0.00     0.001 C 
HETATM   32  O5  UNL     1      -7.844  -2.775  -0.994  1.00  0.00    -0.260 OA
HETATM   33  C30 UNL     1       1.932   1.738   0.572  1.00  0.00     0.024 C 
HETATM   34  C31 UNL     1       5.397   2.330  -0.365  1.00  0.00     0.007 C 
HETATM   35  C32 UNL     1       3.133   1.467   3.315  1.00  0.00     0.026 C 
ENDROOT
BRANCH  16  36
HETATM   36  O6  UNL     1      -0.283  -1.314   1.074  1.00  0.00    -0.304 OA
BRANCH  36  37
HETATM   37  C28 UNL     1       0.463  -2.412   0.992  1.00  0.00     0.272 C 
HETATM   38  O7  UNL     1       0.383  -3.215   0.092  1.00  0.00    -0.264 OA
HETATM   39  C29 UNL     1       1.443  -2.607   2.117  1.00  0.00     0.106 C 
ENDBRANCH  36  37
ENDBRANCH  16  36
TORSDOF 2
