REMARK  2 active torsions:
REMARK  status: ('A' for Active; 'I' for Inactive)
REMARK    1  A    between atoms: C9_9  and  C10_10 
REMARK    2  A    between atoms: C10_10  and  O2_12 
ROOT
HETATM    1  C1  UNL     1      -3.316   1.758   0.176  1.00  0.00     0.003 C 
HETATM    2  C2  UNL     1      -3.643   0.354  -0.385  1.00  0.00     0.010 C 
HETATM    3  C3  UNL     1      -2.412  -0.291  -1.059  1.00  0.00     0.081 C 
HETATM    4  C4  UNL     1      -1.353  -0.435   0.047  1.00  0.00     0.044 C 
HETATM    5  C5  UNL     1      -0.902   1.035   0.047  1.00  0.00     0.102 C 
HETATM    6  C6  UNL     1      -1.936   1.844   0.859  1.00  0.00     0.028 C 
HETATM    7  C7  UNL     1       0.512   0.946   0.613  1.00  0.00     0.026 C 
HETATM    8  C8  UNL     1       1.096  -0.291  -0.109  1.00  0.00     0.015 C 
HETATM    9  C9  UNL     1      -0.086  -1.277  -0.217  1.00  0.00     0.090 C 
HETATM   10  C12 UNL     1       1.658   0.039  -1.512  1.00  0.00     0.005 C 
HETATM   11  C13 UNL     1       2.824   0.959  -1.168  1.00  0.00     0.018 C 
HETATM   12  C14 UNL     1       2.205   2.315  -0.787  1.00  0.00     0.004 C 
HETATM   13  C15 UNL     1       1.373   2.217   0.510  1.00  0.00     0.003 C 
HETATM   14  C16 UNL     1       3.428   0.213  -0.010  1.00  0.00    -0.044 C 
HETATM   15  C17 UNL     1       2.410  -0.722   0.582  1.00  0.00     0.023 C 
HETATM   16  C18 UNL     1       4.693   0.358   0.424  1.00  0.00    -0.009 C 
HETATM   17  O3  UNL     1      -0.895   1.479  -1.312  1.00  0.00    -0.307 OA
HETATM   18  C19 UNL     1      -1.752   0.705  -1.967  1.00  0.00     0.271 C 
HETATM   19  O4  UNL     1      -1.986   0.778  -3.150  1.00  0.00    -0.264 OA
HETATM   20  C20 UNL     1      -2.744  -1.623  -1.725  1.00  0.00     0.010 C 
ENDROOT
BRANCH   9  21
HETATM   21  C10 UNL     1       0.018  -2.439   0.744  1.00  0.00     0.272 C 
HETATM   22  O1  UNL     1       0.029  -3.580   0.344  1.00  0.00    -0.264 OA
BRANCH  21  23
HETATM   23  O2  UNL     1       0.094  -2.105   2.029  1.00  0.00    -0.299 OA
HETATM   24  C11 UNL     1       0.184  -3.240   2.879  1.00  0.00     0.184 C 
ENDBRANCH  21  23
ENDBRANCH   9  21
TORSDOF 2
