REMARK  3 active torsions:
REMARK  status: ('A' for Active; 'I' for Inactive)
REMARK    1  A    between atoms: C3_3  and  C12_15 
REMARK    2  A    between atoms: C6_6  and  C7_7 
REMARK       I    between atoms: C7_7  and  N1_8 
REMARK    3  A    between atoms: C12_15  and  O3_16 
ROOT
HETATM    1  C1  UNL     1      -0.020   0.482  -1.072  1.00  0.00     0.004 A 
HETATM    2  C2  UNL     1       1.334   0.174  -1.297  1.00  0.00    -0.002 A 
HETATM    3  C3  UNL     1       2.318   0.633  -0.404  1.00  0.00     0.007 A 
HETATM    4  C4  UNL     1       1.949   1.402   0.713  1.00  0.00    -0.002 A 
HETATM    5  C5  UNL     1       0.596   1.711   0.939  1.00  0.00     0.004 A 
HETATM    6  C6  UNL     1      -0.391   1.252   0.047  1.00  0.00     0.056 A 
ENDROOT
BRANCH   6   7
HETATM    7  C7  UNL     1      -1.826   1.580   0.285  1.00  0.00     0.263 C 
HETATM    8  N1  UNL     1      -2.766   0.537   0.338  1.00  0.00    -0.267 N 
HETATM    9  C8  UNL     1      -4.143   0.697   0.512  1.00  0.00     0.240 C 
HETATM   10  C11 UNL     1      -2.397  -0.865   0.211  1.00  0.00     0.112 C 
HETATM   11  C9  UNL     1      -4.762  -0.676   0.500  1.00  0.00     0.090 C 
HETATM   12  O1  UNL     1      -4.705   1.758   0.646  1.00  0.00    -0.272 OA
HETATM   13  C10 UNL     1      -3.604  -1.656   0.721  1.00  0.00     0.035 C 
HETATM   14  O2  UNL     1      -2.186   2.725   0.436  1.00  0.00    -0.267 OA
ENDBRANCH   6   7
BRANCH   3  15
HETATM   15  C12 UNL     1       3.748   0.307  -0.645  1.00  0.00     0.169 C 
BRANCH  15  16
HETATM   16  O3  UNL     1       3.992  -1.033  -0.275  1.00  0.00    -0.347 OA
HETATM   17  C13 UNL     1       5.332  -1.428  -0.469  1.00  0.00     0.175 C 
ENDBRANCH  15  16
ENDBRANCH   3  15
TORSDOF 3
