REMARK  4 active torsions:
REMARK  status: ('A' for Active; 'I' for Inactive)
REMARK    1  A    between atoms: C3_3  and  O4_24 
REMARK    2  A    between atoms: C6_6  and  C7_7 
REMARK    3  A    between atoms: C7_7  and  C8_8 
REMARK    4  A    between atoms: C12_13  and  C15_17 
ROOT
HETATM    1  C1  UNL     1       3.068  -0.709   0.387  1.00  0.00     0.131 A 
HETATM    2  C2  UNL     1       3.799   0.501   0.390  1.00  0.00     0.051 A 
HETATM    3  C3  UNL     1       3.123   1.742   0.375  1.00  0.00     0.101 A 
HETATM    4  C4  UNL     1       1.704   1.773   0.355  1.00  0.00     0.079 A 
HETATM    5  C5  UNL     1       0.964   0.557   0.393  1.00  0.00     0.097 A 
HETATM    6  C6  UNL     1       1.651  -0.683   0.389  1.00  0.00     0.030 A 
HETATM    7  O1  UNL     1      -0.386   0.562   0.431  1.00  0.00    -0.329 OA
HETATM    8  C12 UNL     1      -1.098   1.737   0.834  1.00  0.00     0.151 C 
HETATM    9  C13 UNL     1      -0.529   2.981   0.126  1.00  0.00     0.104 C 
HETATM   10  C14 UNL     1       0.974   3.072   0.284  1.00  0.00     0.180 C 
HETATM   11  O2  UNL     1       1.458   4.180   0.333  1.00  0.00    -0.291 OA
HETATM   12  O5  UNL     1       3.724  -1.878   0.387  1.00  0.00    -0.190 OA
ENDROOT
BRANCH   8  13
HETATM   13  C15 UNL     1      -2.546   1.544   0.561  1.00  0.00     0.006 A 
HETATM   14  C16 UNL     1      -2.972   1.117  -0.708  1.00  0.00     0.000 A 
HETATM   15  C17 UNL     1      -4.342   0.935  -0.965  1.00  0.00     0.027 A 
HETATM   16  C18 UNL     1      -5.290   1.179   0.045  1.00  0.00     0.131 A 
HETATM   17  C19 UNL     1      -4.860   1.606   1.314  1.00  0.00     0.027 A 
HETATM   18  O3  UNL     1      -6.574   1.008  -0.197  1.00  0.00    -0.190 OA
HETATM   19  C20 UNL     1      -3.491   1.789   1.573  1.00  0.00     0.000 A 
ENDBRANCH   8  13
BRANCH   6  20
HETATM   20  C7  UNL     1       0.893  -1.946   0.392  1.00  0.00     0.056 C 
BRANCH  20  21
HETATM   21  C8  UNL     1       0.568  -2.416  -1.000  1.00  0.00    -0.030 C 
HETATM   22  C9  UNL     1       0.101  -3.665  -1.163  1.00  0.00    -0.048 C 
HETATM   23  C10 UNL     1      -0.132  -4.656  -0.054  1.00  0.00     0.026 C 
HETATM   24  C11 UNL     1      -0.223  -4.135  -2.556  1.00  0.00     0.026 C 
ENDBRANCH  20  21
ENDBRANCH   6  20
BRANCH   3  25
HETATM   25  O4  UNL     1       3.838   2.877   0.370  1.00  0.00    -0.328 OA
HETATM   26  C21 UNL     1       5.252   2.775   0.455  1.00  0.00     0.181 C 
ENDBRANCH   3  25
TORSDOF 4
