REMARK  17 active torsions:
REMARK  status: ('A' for Active; 'I' for Inactive)
REMARK    1  A    between atoms: C1_2  and  C2_3 
REMARK    2  A    between atoms: C1_2  and  C17_26 
REMARK    3  A    between atoms: C1_2  and  C31_48 
REMARK    4  A    between atoms: C2_3  and  C3_4 
REMARK    5  A    between atoms: C3_4  and  O2_5 
REMARK    6  A    between atoms: O2_5  and  C4_6 
REMARK    7  A    between atoms: C4_6  and  C5_7 
REMARK    8  A    between atoms: C8_10  and  O3_11 
REMARK    9  A    between atoms: O3_11  and  C9_12 
REMARK   10  A    between atoms: C10_14  and  C14_21 
REMARK   11  A    between atoms: C17_26  and  O11_28 
REMARK   12  A    between atoms: O11_28  and  C18_29 
REMARK   13  A    between atoms: C18_29  and  C19_30 
REMARK   14  A    between atoms: C22_33  and  O12_36 
REMARK   15  A    between atoms: O12_36  and  C25_37 
REMARK   16  A    between atoms: C26_39  and  C30_46 
REMARK   17  A    between atoms: C31_48  and  C32_49 
ROOT
HETATM    1  O1  UNL     1      -2.994  -2.410   1.623  1.00  0.00    -0.215 OA
HETATM    2  C1  UNL     1      -2.756  -1.104   2.098  1.00  0.00     0.223 C 
ENDROOT
BRANCH   2   3
HETATM    3  C2  UNL     1      -3.385  -0.115   1.115  1.00  0.00     0.137 C 
BRANCH   3   4
HETATM    4  C3  UNL     1      -2.584   0.025  -0.150  1.00  0.00     0.275 C 
HETATM    5  O9  UNL     1      -2.234  -0.947  -0.777  1.00  0.00    -0.264 OA
BRANCH   4   6
HETATM    6  O2  UNL     1      -2.303   1.275  -0.506  1.00  0.00    -0.297 OA
BRANCH   6   7
HETATM    7  C4  UNL     1      -1.545   1.340  -1.707  1.00  0.00     0.178 C 
BRANCH   7   8
HETATM    8  C5  UNL     1      -1.270   2.760  -2.043  1.00  0.00     0.008 A 
HETATM    9  C6  UNL     1      -0.529   3.078  -3.195  1.00  0.00     0.000 A 
HETATM   10  C7  UNL     1      -0.270   4.424  -3.512  1.00  0.00     0.024 A 
HETATM   11  C8  UNL     1      -0.744   5.451  -2.680  1.00  0.00     0.097 A 
HETATM   12  C15 UNL     1      -1.484   5.129  -1.527  1.00  0.00     0.024 A 
HETATM   13  C16 UNL     1      -1.746   3.787  -1.209  1.00  0.00     0.000 A 
BRANCH  11  14
HETATM   14  O3  UNL     1      -0.500   6.713  -2.979  1.00  0.00    -0.304 OA
BRANCH  14  15
HETATM   15  C9  UNL     1      -1.393   7.701  -2.484  1.00  0.00     0.274 C 
HETATM   16  O4  UNL     1      -2.711   7.377  -2.902  1.00  0.00    -0.326 OA
HETATM   17  C10 UNL     1      -3.723   8.260  -2.438  1.00  0.00     0.184 C 
HETATM   18  C11 UNL     1      -3.453   9.682  -2.983  1.00  0.00     0.215 C 
HETATM   19  C12 UNL     1      -2.031  10.164  -2.623  1.00  0.00     0.220 C 
HETATM   20  O7  UNL     1      -4.414  10.568  -2.434  1.00  0.00    -0.218 OA
HETATM   21  C13 UNL     1      -1.000   9.090  -3.031  1.00  0.00     0.241 C 
HETATM   22  O6  UNL     1      -1.750  11.381  -3.295  1.00  0.00    -0.218 OA
HETATM   23  O5  UNL     1       0.279   9.428  -2.527  1.00  0.00    -0.215 OA
BRANCH  17  24
HETATM   24  C14 UNL     1      -5.063   7.684  -2.904  1.00  0.00     0.214 C 
HETATM   25  O8  UNL     1      -5.285   6.473  -2.221  1.00  0.00    -0.218 OA
ENDBRANCH  17  24
ENDBRANCH  14  15
ENDBRANCH  11  14
ENDBRANCH   7   8
ENDBRANCH   6   7
ENDBRANCH   4   6
ENDBRANCH   3   4
ENDBRANCH   2   3
BRANCH   2  26
HETATM   26  C17 UNL     1      -1.277  -0.818   2.068  1.00  0.00     0.301 C 
HETATM   27  O10 UNL     1      -0.826   0.176   2.582  1.00  0.00    -0.262 OA
BRANCH  26  28
HETATM   28  O11 UNL     1      -0.539  -1.733   1.445  1.00  0.00    -0.295 OA
BRANCH  28  29
HETATM   29  C18 UNL     1       0.832  -1.367   1.381  1.00  0.00     0.178 C 
BRANCH  29  30
HETATM   30  C19 UNL     1       1.635  -2.535   0.936  1.00  0.00     0.008 A 
HETATM   31  C20 UNL     1       2.627  -2.373  -0.049  1.00  0.00     0.000 A 
HETATM   32  C21 UNL     1       3.387  -3.477  -0.469  1.00  0.00     0.024 A 
HETATM   33  C22 UNL     1       3.158  -4.748   0.090  1.00  0.00     0.097 A 
HETATM   34  C23 UNL     1       2.168  -4.906   1.074  1.00  0.00     0.024 A 
HETATM   35  C24 UNL     1       1.406  -3.803   1.498  1.00  0.00     0.000 A 
BRANCH  33  36
HETATM   36  O12 UNL     1       3.873  -5.783  -0.305  1.00  0.00    -0.304 OA
BRANCH  36  37
HETATM   37  C25 UNL     1       3.762  -6.990   0.436  1.00  0.00     0.274 C 
HETATM   38  O13 UNL     1       4.217  -6.756   1.762  1.00  0.00    -0.326 OA
HETATM   39  C26 UNL     1       4.117  -7.875   2.635  1.00  0.00     0.184 C 
HETATM   40  C27 UNL     1       4.994  -9.028   2.096  1.00  0.00     0.215 C 
HETATM   41  C28 UNL     1       4.627  -9.379   0.635  1.00  0.00     0.220 C 
HETATM   42  O16 UNL     1       4.813 -10.164   2.922  1.00  0.00    -0.218 OA
HETATM   43  C29 UNL     1       4.619  -8.094  -0.221  1.00  0.00     0.241 C 
HETATM   44  O15 UNL     1       5.568 -10.301   0.109  1.00  0.00    -0.218 OA
HETATM   45  O14 UNL     1       4.090  -8.371  -1.504  1.00  0.00    -0.215 OA
BRANCH  39  46
HETATM   46  C30 UNL     1       4.553  -7.391   4.022  1.00  0.00     0.214 C 
HETATM   47  O17 UNL     1       3.594  -6.469   4.488  1.00  0.00    -0.218 OA
ENDBRANCH  39  46
ENDBRANCH  36  37
ENDBRANCH  33  36
ENDBRANCH  29  30
ENDBRANCH  28  29
ENDBRANCH  26  28
ENDBRANCH   2  26
BRANCH   2  48
HETATM   48  C31 UNL     1      -3.344  -0.990   3.506  1.00  0.00     0.138 C 
BRANCH  48  49
HETATM   49  C32 UNL     1      -2.684  -1.930   4.479  1.00  0.00     0.188 C 
HETATM   50  O18 UNL     1      -1.805  -2.680   4.123  1.00  0.00    -0.647 OA
HETATM   51  O19 UNL     1      -3.141  -1.863   5.727  1.00  0.00    -0.647 OA
ENDBRANCH  48  49
ENDBRANCH   2  48
TORSDOF 17
