REMARK  1 active torsions:
REMARK  status: ('A' for Active; 'I' for Inactive)
REMARK    1  A    between atoms: C2_2  and  O5_19 
ROOT
HETATM    1  C1  UNL     1      -1.516   1.072  -0.066  1.00  0.00     0.158 A 
HETATM    2  C2  UNL     1      -2.754   0.396  -0.152  1.00  0.00     0.145 A 
HETATM    3  C3  UNL     1      -2.803  -1.008  -0.025  1.00  0.00     0.155 A 
HETATM    4  C4  UNL     1      -1.613  -1.734   0.190  1.00  0.00     0.033 A 
HETATM    5  C5  UNL     1      -0.361  -1.072   0.277  1.00  0.00     0.046 A 
HETATM    6  C6  UNL     1       0.869  -1.893   0.504  1.00  0.00     0.196 A 
HETATM    7  O1  UNL     1       0.816  -3.098   0.621  1.00  0.00    -0.287 OA
HETATM    8  C7  UNL     1       2.166  -1.150   0.576  1.00  0.00     0.044 A 
HETATM    9  C8  UNL     1       3.359  -1.893   0.777  1.00  0.00     0.003 A 
HETATM   10  C9  UNL     1       4.609  -1.240   0.850  1.00  0.00     0.002 A 
HETATM   11  C10 UNL     1       4.678   0.162   0.723  1.00  0.00     0.028 A 
HETATM   12  C11 UNL     1       3.500   0.914   0.522  1.00  0.00     0.134 A 
HETATM   13  C12 UNL     1       2.231   0.268   0.445  1.00  0.00     0.068 A 
HETATM   14  C13 UNL     1       0.994   1.094   0.233  1.00  0.00     0.200 A 
HETATM   15  O2  UNL     1       1.045   2.299   0.133  1.00  0.00    -0.286 OA
HETATM   16  C14 UNL     1      -0.305   0.348   0.149  1.00  0.00     0.070 A 
HETATM   17  O3  UNL     1       3.609   2.246   0.406  1.00  0.00    -0.190 OA
HETATM   18  O4  UNL     1      -3.975  -1.652  -0.107  1.00  0.00    -0.188 OA
HETATM   19  O6  UNL     1      -1.506   2.408  -0.191  1.00  0.00    -0.188 OA
ENDROOT
BRANCH   2  20
HETATM   20  O5  UNL     1      -3.883   1.090  -0.357  1.00  0.00    -0.324 OA
HETATM   21  C15 UNL     1      -4.367   1.199  -1.687  1.00  0.00     0.182 C 
ENDBRANCH   2  20
TORSDOF 1
