REMARK  16 active torsions:
REMARK  status: ('A' for Active; 'I' for Inactive)
REMARK    1  A    between atoms: C10_10  and  O1_11 
REMARK    2  A    between atoms: O1_11  and  C11_12 
REMARK    3  A    between atoms: C12_13  and  O2_14 
REMARK    4  A    between atoms: O2_14  and  C13_15 
REMARK    5  A    between atoms: C17_22  and  C18_24 
REMARK    6  A    between atoms: C21_30  and  C22_32 
REMARK    7  A    between atoms: C27_39  and  C30_42 
REMARK    8  A    between atoms: C30_42  and  O13_44 
REMARK    9  A    between atoms: C30_42  and  O24_67 
REMARK   10  A    between atoms: O13_44  and  C32_45 
REMARK   11  A    between atoms: C36_52  and  C37_54 
REMARK   12  A    between atoms: C37_54  and  O18_55 
REMARK   13  A    between atoms: O18_55  and  C38_56 
REMARK   14  A    between atoms: C42_63  and  C43_65 
REMARK   15  A    between atoms: O24_67  and  C44_68 
REMARK   16  A    between atoms: C45_69  and  C46_70 
ROOT
HETATM    1  C46 UNL     1      -4.326   5.727   0.791  1.00  0.00     0.001 C 
HETATM    2  C47 UNL     1      -4.191   6.883   0.541  1.00  0.00     0.000 C 
HETATM    3  C48 UNL     1      -4.035   8.223   0.250  1.00  0.00     0.000 C 
HETATM    4  C49 UNL     1      -3.900   9.377  -0.002  1.00  0.00     0.000 C 
ENDROOT
BRANCH   1   5
HETATM    5  C45 UNL     1      -4.483   4.387   1.082  1.00  0.00     0.016 C 
HETATM    6  C44 UNL     1      -4.617   3.232   1.334  1.00  0.00     0.071 C 
BRANCH   6   7
HETATM    7  O24 UNL     1      -4.770   1.922   1.617  1.00  0.00    -0.261 OA
BRANCH   7   8
HETATM    8  C30 UNL     1      -3.617   1.098   1.713  1.00  0.00     0.204 C 
HETATM    9  C31 UNL     1      -4.025  -0.301   2.180  1.00  0.00     0.063 C 
BRANCH   8  10
HETATM   10  C27 UNL     1      -2.945   1.002   0.346  1.00  0.00     0.055 C 
HETATM   11  C24 UNL     1      -1.807  -0.025   0.205  1.00  0.00     0.035 C 
HETATM   12  C23 UNL     1      -1.148   0.426  -1.119  1.00  0.00     0.003 C 
HETATM   13  C25 UNL     1      -0.813   0.000   1.389  1.00  0.00     0.152 C 
HETATM   14  C8  UNL     1       0.211  -0.279  -1.402  1.00  0.00     0.003 C 
HETATM   15  C29 UNL     1      -1.096   1.953  -0.934  1.00  0.00     0.000 C 
HETATM   16  C50 UNL     1      -2.139   0.189  -2.273  1.00  0.00     0.000 C 
HETATM   17  C7  UNL     1       1.184  -0.160  -0.188  1.00  0.00     0.003 C 
HETATM   18  C9  UNL     1       0.838   0.313  -2.684  1.00  0.00     0.030 C 
HETATM   19  C51 UNL     1      -0.166  -1.752  -1.658  1.00  0.00     0.000 C 
HETATM   20  C5  UNL     1       2.604  -0.754  -0.479  1.00  0.00     0.003 C 
HETATM   21  C26 UNL     1       0.506  -0.729   1.076  1.00  0.00     0.033 C 
HETATM   22  C4  UNL     1       3.229  -0.084  -1.748  1.00  0.00     0.030 C 
HETATM   23  C6  UNL     1       3.572  -0.607   0.721  1.00  0.00     0.003 C 
HETATM   24  C52 UNL     1       2.482  -2.268  -0.721  1.00  0.00     0.000 C 
HETATM   25  C3  UNL     1       3.805   1.365  -1.520  1.00  0.00     0.030 C 
HETATM   26  C10 UNL     1       2.244  -0.254  -2.945  1.00  0.00     0.118 C 
HETATM   27  C2  UNL     1       4.709   1.387  -0.260  1.00  0.00     0.152 C 
HETATM   28  C53 UNL     1       4.680   1.781  -2.713  1.00  0.00     0.003 C 
HETATM   29  C54 UNL     1       2.695   2.416  -1.379  1.00  0.00     0.003 C 
HETATM   30  C1  UNL     1       4.002   0.834   0.982  1.00  0.00     0.033 C 
HETATM   31  O25 UNL     1       5.166   2.697   0.023  1.00  0.00    -0.224 OA
HETATM   32  C28 UNL     1      -2.295   2.326  -0.059  1.00  0.00     0.005 C 
HETATM   33  O12 UNL     1      -1.395  -0.625   2.518  1.00  0.00    -0.224 OA
BRANCH  26  34
HETATM   34  O1  UNL     1       2.754   0.301  -4.143  1.00  0.00    -0.332 OA
BRANCH  34  35
HETATM   35  C11 UNL     1       1.969  -0.010  -5.277  1.00  0.00     0.267 C 
HETATM   36  C12 UNL     1       2.877  -0.287  -6.504  1.00  0.00     0.207 C 
HETATM   37  C19 UNL     1       2.033  -0.473  -7.785  1.00  0.00     0.217 C 
HETATM   38  O8  UNL     1       2.887  -0.523  -8.918  1.00  0.00    -0.218 OA
HETATM   39  C20 UNL     1       1.037   0.697  -7.934  1.00  0.00     0.215 C 
HETATM   40  O9  UNL     1       0.137   0.430  -8.996  1.00  0.00    -0.218 OA
HETATM   41  C21 UNL     1       0.221   0.908  -6.639  1.00  0.00     0.184 C 
HETATM   42  O10 UNL     1       1.113   1.092  -5.547  1.00  0.00    -0.326 OA
BRANCH  36  43
HETATM   43  O2  UNL     1       3.637  -1.461  -6.268  1.00  0.00    -0.324 OA
BRANCH  43  44
HETATM   44  C13 UNL     1       4.906  -1.199  -5.703  1.00  0.00     0.270 C 
HETATM   45  C14 UNL     1       5.998  -1.189  -6.805  1.00  0.00     0.241 C 
HETATM   46  O3  UNL     1       5.770  -0.098  -7.682  1.00  0.00    -0.215 OA
HETATM   47  C15 UNL     1       7.408  -1.062  -6.186  1.00  0.00     0.220 C 
HETATM   48  O4  UNL     1       8.393  -1.256  -7.190  1.00  0.00    -0.218 OA
HETATM   49  C16 UNL     1       7.590  -2.109  -5.065  1.00  0.00     0.215 C 
HETATM   50  O5  UNL     1       8.801  -1.865  -4.371  1.00  0.00    -0.218 OA
HETATM   51  C17 UNL     1       6.422  -2.057  -4.055  1.00  0.00     0.184 C 
HETATM   52  O6  UNL     1       5.191  -2.213  -4.748  1.00  0.00    -0.326 OA
BRANCH  51  53
HETATM   53  C18 UNL     1       6.484  -3.176  -3.012  1.00  0.00     0.214 C 
HETATM   54  O7  UNL     1       5.508  -2.918  -2.027  1.00  0.00    -0.218 OA
ENDBRANCH  51  53
ENDBRANCH  43  44
ENDBRANCH  36  43
BRANCH  41  55
HETATM   55  C22 UNL     1      -0.672   2.150  -6.692  1.00  0.00     0.214 C 
HETATM   56  O11 UNL     1      -1.971   1.744  -7.063  1.00  0.00    -0.218 OA
ENDBRANCH  41  55
ENDBRANCH  34  35
ENDBRANCH  26  34
ENDBRANCH   8  10
BRANCH   8  57
HETATM   57  O13 UNL     1      -2.678   1.611   2.629  1.00  0.00    -0.308 OA
BRANCH  57  58
HETATM   58  C32 UNL     1      -3.252   1.973   3.871  1.00  0.00     0.272 C 
HETATM   59  C33 UNL     1      -2.477   3.160   4.500  1.00  0.00     0.241 C 
HETATM   60  O14 UNL     1      -2.641   4.311   3.689  1.00  0.00    -0.215 OA
HETATM   61  C34 UNL     1      -2.990   3.461   5.928  1.00  0.00     0.220 C 
HETATM   62  O15 UNL     1      -2.141   4.410   6.553  1.00  0.00    -0.218 OA
HETATM   63  C35 UNL     1      -3.029   2.162   6.760  1.00  0.00     0.215 C 
HETATM   64  O16 UNL     1      -3.680   2.402   7.996  1.00  0.00    -0.218 OA
HETATM   65  C36 UNL     1      -3.785   1.039   6.014  1.00  0.00     0.180 C 
HETATM   66  O17 UNL     1      -3.195   0.846   4.734  1.00  0.00    -0.326 OA
BRANCH  65  67
HETATM   67  C37 UNL     1      -3.717  -0.309   6.738  1.00  0.00     0.177 C 
BRANCH  67  68
HETATM   68  O18 UNL     1      -4.555  -1.217   6.059  1.00  0.00    -0.326 OA
BRANCH  68  69
HETATM   69  C38 UNL     1      -4.529  -2.520   6.613  1.00  0.00     0.270 C 
HETATM   70  C39 UNL     1      -5.279  -3.514   5.690  1.00  0.00     0.241 C 
HETATM   71  O19 UNL     1      -4.576  -3.639   4.465  1.00  0.00    -0.215 OA
HETATM   72  C40 UNL     1      -5.400  -4.904   6.356  1.00  0.00     0.220 C 
HETATM   73  O20 UNL     1      -6.256  -5.732   5.586  1.00  0.00    -0.218 OA
HETATM   74  C41 UNL     1      -5.961  -4.756   7.787  1.00  0.00     0.215 C 
HETATM   75  O21 UNL     1      -5.889  -6.000   8.461  1.00  0.00    -0.218 OA
HETATM   76  C42 UNL     1      -5.166  -3.707   8.596  1.00  0.00     0.184 C 
HETATM   77  O22 UNL     1      -5.156  -2.475   7.889  1.00  0.00    -0.326 OA
BRANCH  76  78
HETATM   78  C43 UNL     1      -5.781  -3.422   9.971  1.00  0.00     0.214 C 
HETATM   79  O23 UNL     1      -4.904  -2.576  10.678  1.00  0.00    -0.218 OA
ENDBRANCH  76  78
ENDBRANCH  68  69
ENDBRANCH  67  68
ENDBRANCH  65  67
ENDBRANCH  57  58
ENDBRANCH   8  57
ENDBRANCH   7   8
ENDBRANCH   6   7
ENDBRANCH   1   5
TORSDOF 16
