REMARK  4 active torsions:
REMARK  status: ('A' for Active; 'I' for Inactive)
REMARK    1  A    between atoms: C1_1  and  O5_25 
REMARK    2  A    between atoms: C2_2  and  C16_20 
REMARK    3  A    between atoms: C8_9  and  C10_12 
REMARK    4  A    between atoms: C16_20  and  C17_21 
ROOT
HETATM    1  C1  UNL     1       1.783   1.973  -0.412  1.00  0.00     0.094 A 
HETATM    2  C2  UNL     1       1.934   0.562  -0.412  1.00  0.00     0.030 A 
HETATM    3  C3  UNL     1       0.789  -0.274  -0.387  1.00  0.00     0.134 A 
HETATM    4  C4  UNL     1      -0.504   0.308  -0.359  1.00  0.00     0.087 A 
HETATM    5  C5  UNL     1      -0.654   1.721  -0.355  1.00  0.00     0.107 A 
HETATM    6  C6  UNL     1       0.492   2.549  -0.385  1.00  0.00     0.049 A 
HETATM    7  O1  UNL     1      -1.883   2.279  -0.326  1.00  0.00    -0.305 OA
HETATM    8  C7  UNL     1      -3.022   1.557  -0.297  1.00  0.00     0.126 A 
HETATM    9  C8  UNL     1      -3.018   0.203  -0.301  1.00  0.00     0.064 A 
HETATM   10  C9  UNL     1      -1.730  -0.539  -0.332  1.00  0.00     0.201 A 
HETATM   11  O2  UNL     1      -1.773  -1.750  -0.336  1.00  0.00    -0.286 OA
HETATM   12  O4  UNL     1       0.938  -1.608  -0.387  1.00  0.00    -0.190 OA
ENDROOT
BRANCH   9  13
HETATM   13  C10 UNL     1      -4.316  -0.535  -0.269  1.00  0.00     0.005 A 
HETATM   14  C11 UNL     1      -4.436  -1.719   0.481  1.00  0.00     0.002 A 
HETATM   15  C12 UNL     1      -5.658  -2.412   0.508  1.00  0.00     0.027 A 
HETATM   16  C13 UNL     1      -6.764  -1.926  -0.209  1.00  0.00     0.131 A 
HETATM   17  C14 UNL     1      -6.643  -0.740  -0.957  1.00  0.00     0.027 A 
HETATM   18  O3  UNL     1      -7.910  -2.576  -0.182  1.00  0.00    -0.190 OA
HETATM   19  C15 UNL     1      -5.422  -0.045  -0.988  1.00  0.00     0.002 A 
ENDBRANCH   9  13
BRANCH   2  20
HETATM   20  C16 UNL     1       3.281  -0.033  -0.439  1.00  0.00     0.056 C 
BRANCH  20  21
HETATM   21  C17 UNL     1       3.822  -0.274   0.945  1.00  0.00    -0.030 C 
HETATM   22  C18 UNL     1       4.940  -1.010   1.078  1.00  0.00    -0.048 C 
HETATM   23  C19 UNL     1       5.592  -1.367   2.385  1.00  0.00     0.026 C 
HETATM   24  C20 UNL     1       5.609  -1.529  -0.166  1.00  0.00     0.026 C 
ENDBRANCH  20  21
ENDBRANCH   2  20
BRANCH   1  25
HETATM   25  O5  UNL     1       2.861   2.769  -0.439  1.00  0.00    -0.328 OA
HETATM   26  C21 UNL     1       2.652   4.174  -0.437  1.00  0.00     0.181 C 
ENDBRANCH   1  25
TORSDOF 4
