REMARK  5 active torsions:
REMARK  status: ('A' for Active; 'I' for Inactive)
REMARK    1  A    between atoms: C3_3  and  O5_17 
REMARK    2  A    between atoms: C6_6  and  O1_7 
REMARK    3  A    between atoms: O1_7  and  C7_8 
REMARK    4  A    between atoms: O5_17  and  C13_18 
REMARK    5  A    between atoms: C17_22  and  C18_24 
ROOT
HETATM    1  C1  UNL     1      -1.004  -2.734   1.332  1.00  0.00     0.033 C 
HETATM    2  C2  UNL     1      -1.135  -1.246   1.703  1.00  0.00     0.032 C 
HETATM    3  C3  UNL     1       0.012  -0.396   1.131  1.00  0.00     0.120 C 
HETATM    4  C4  UNL     1       1.387  -0.875   1.658  1.00  0.00     0.058 C 
HETATM    5  C5  UNL     1       1.522  -2.426   1.672  1.00  0.00     0.043 C 
HETATM    6  C6  UNL     1       0.410  -3.141   0.875  1.00  0.00     0.125 C 
HETATM    7  C9  UNL     1       2.924  -2.904   1.244  1.00  0.00     0.098 C 
HETATM    8  C10 UNL     1       4.006  -1.937   1.670  1.00  0.00     0.272 C 
HETATM    9  O3  UNL     1       3.809  -0.615   1.553  1.00  0.00    -0.304 OA
HETATM   10  C11 UNL     1       2.580  -0.191   0.951  1.00  0.00     0.127 C 
HETATM   11  C12 UNL     1       2.625  -0.441  -0.562  1.00  0.00     0.033 C 
HETATM   12  O4  UNL     1       5.035  -2.385   2.119  1.00  0.00    -0.264 OA
ENDROOT
BRANCH   3  13
HETATM   13  O5  UNL     1      -0.195   0.955   1.492  1.00  0.00    -0.332 OA
BRANCH  13  14
HETATM   14  C13 UNL     1      -1.143   1.613   0.674  1.00  0.00     0.270 C 
HETATM   15  C14 UNL     1      -1.572   2.957   1.315  1.00  0.00     0.241 C 
HETATM   16  C15 UNL     1      -2.490   3.756   0.361  1.00  0.00     0.220 C 
HETATM   17  O10 UNL     1      -2.258   2.705   2.529  1.00  0.00    -0.215 OA
HETATM   18  C16 UNL     1      -1.838   3.856  -1.035  1.00  0.00     0.215 C 
HETATM   19  O9  UNL     1      -2.711   5.057   0.883  1.00  0.00    -0.218 OA
HETATM   20  C17 UNL     1      -1.406   2.465  -1.555  1.00  0.00     0.184 C 
HETATM   21  O8  UNL     1      -2.754   4.420  -1.955  1.00  0.00    -0.218 OA
HETATM   22  O6  UNL     1      -0.553   1.850  -0.599  1.00  0.00    -0.326 OA
BRANCH  20  23
HETATM   23  C18 UNL     1      -0.625   2.539  -2.869  1.00  0.00     0.214 C 
HETATM   24  O7  UNL     1      -0.422   1.227  -3.336  1.00  0.00    -0.218 OA
ENDBRANCH  20  23
ENDBRANCH  13  14
ENDBRANCH   3  13
BRANCH   6  25
HETATM   25  O1  UNL     1       0.553  -2.834  -0.506  1.00  0.00    -0.304 OA
BRANCH  25  26
HETATM   26  C7  UNL     1      -0.100  -3.693  -1.285  1.00  0.00     0.272 C 
HETATM   27  C8  UNL     1      -0.039  -3.394  -2.758  1.00  0.00     0.106 C 
HETATM   28  O2  UNL     1      -0.705  -4.654  -0.869  1.00  0.00    -0.264 OA
ENDBRANCH  25  26
ENDBRANCH   6  25
TORSDOF 5
