REMARK  26 active torsions:
REMARK  status: ('A' for Active; 'I' for Inactive)
REMARK    1  A    between atoms: C1_1  and  C2_2 
REMARK    2  A    between atoms: C2_2  and  C3_3 
REMARK    3  A    between atoms: C3_3  and  C4_4 
REMARK    4  A    between atoms: C4_4  and  C5_5 
REMARK    5  A    between atoms: C5_5  and  C6_6 
REMARK    6  A    between atoms: C6_6  and  C7_7 
REMARK    7  A    between atoms: C7_7  and  C8_8 
REMARK    8  A    between atoms: C8_8  and  C9_9 
REMARK    9  A    between atoms: C9_9  and  C10_10 
REMARK   10  A    between atoms: C10_10  and  C11_11 
REMARK   11  A    between atoms: C11_11  and  C12_12 
REMARK   12  A    between atoms: C12_12  and  C13_13 
REMARK   13  A    between atoms: C13_13  and  C14_14 
REMARK   14  A    between atoms: C14_14  and  C15_15 
REMARK   15  A    between atoms: C15_15  and  C16_16 
REMARK   16  A    between atoms: C16_16  and  C17_17 
REMARK   17  A    between atoms: C17_17  and  C18_18 
REMARK   18  A    between atoms: C18_18  and  C19_19 
REMARK   19  A    between atoms: C19_19  and  C20_20 
REMARK   20  A    between atoms: C20_20  and  C21_21 
REMARK   21  A    between atoms: C21_21  and  C22_22 
REMARK   22  A    between atoms: C22_22  and  C23_23 
REMARK   23  A    between atoms: C23_23  and  C24_24 
REMARK   24  A    between atoms: C24_24  and  C25_25 
REMARK   25  A    between atoms: C25_25  and  C26_26 
REMARK   26  A    between atoms: C26_26  and  C27_27 
ROOT
HETATM    1  C14 UNL     1       0.111   0.291   0.502  1.00  0.00     0.000 C 
ENDROOT
BRANCH   1   2
HETATM    2  C13 UNL     1       1.641   0.291   0.502  1.00  0.00     0.000 C 
BRANCH   2   3
HETATM    3  C12 UNL     1       2.231   0.996   1.725  1.00  0.00     0.000 C 
BRANCH   3   4
HETATM    4  C11 UNL     1       3.760   0.996   1.723  1.00  0.00     0.000 C 
BRANCH   4   5
HETATM    5  C10 UNL     1       4.350   1.703   2.945  1.00  0.00     0.000 C 
BRANCH   5   6
HETATM    6  C9  UNL     1       5.879   1.703   2.945  1.00  0.00     0.000 C 
BRANCH   6   7
HETATM    7  C8  UNL     1       6.469   2.408   4.166  1.00  0.00     0.000 C 
BRANCH   7   8
HETATM    8  C7  UNL     1       7.998   2.408   4.166  1.00  0.00     0.000 C 
BRANCH   8   9
HETATM    9  C6  UNL     1       8.588   3.115   5.387  1.00  0.00     0.000 C 
BRANCH   9  10
HETATM   10  C5  UNL     1      10.115   3.115   5.387  1.00  0.00     0.000 C 
BRANCH  10  11
HETATM   11  C4  UNL     1      10.707   3.820   6.608  1.00  0.00     0.000 C 
BRANCH  11  12
HETATM   12  C3  UNL     1      12.235   3.820   6.608  1.00  0.00     0.003 C 
BRANCH  12  13
HETATM   13  C2  UNL     1      12.824   4.527   7.828  1.00  0.00     0.036 C 
BRANCH  13  14
HETATM   14  C1  UNL     1      14.354   4.527   7.828  1.00  0.00     0.182 C 
HETATM   15  O1  UNL     1      14.795   5.197   8.988  1.00  0.00    -0.221 OA
ENDBRANCH  13  14
ENDBRANCH  12  13
ENDBRANCH  11  12
ENDBRANCH  10  11
ENDBRANCH   9  10
ENDBRANCH   8   9
ENDBRANCH   7   8
ENDBRANCH   6   7
ENDBRANCH   5   6
ENDBRANCH   4   5
ENDBRANCH   3   4
ENDBRANCH   2   3
ENDBRANCH   1   2
BRANCH   1  16
HETATM   16  C15 UNL     1      -0.479  -0.416  -0.719  1.00  0.00     0.000 C 
BRANCH  16  17
HETATM   17  C16 UNL     1      -2.008  -0.416  -0.719  1.00  0.00     0.000 C 
BRANCH  17  18
HETATM   18  C17 UNL     1      -2.598  -1.121  -1.939  1.00  0.00     0.000 C 
BRANCH  18  19
HETATM   19  C18 UNL     1      -4.127  -1.123  -1.939  1.00  0.00     0.000 C 
BRANCH  19  20
HETATM   20  C19 UNL     1      -4.717  -1.828  -3.160  1.00  0.00     0.000 C 
BRANCH  20  21
HETATM   21  C20 UNL     1      -6.246  -1.828  -3.160  1.00  0.00     0.000 C 
BRANCH  21  22
HETATM   22  C21 UNL     1      -6.836  -2.533  -4.383  1.00  0.00     0.000 C 
BRANCH  22  23
HETATM   23  C22 UNL     1      -8.365  -2.535  -4.381  1.00  0.00     0.000 C 
BRANCH  23  24
HETATM   24  C23 UNL     1      -8.955  -3.240  -5.604  1.00  0.00     0.000 C 
BRANCH  24  25
HETATM   25  C24 UNL     1     -10.485  -3.240  -5.604  1.00  0.00     0.000 C 
BRANCH  25  26
HETATM   26  C25 UNL     1     -11.074  -3.945  -6.824  1.00  0.00     0.000 C 
BRANCH  26  27
HETATM   27  C26 UNL     1     -12.604  -3.947  -6.824  1.00  0.00     0.000 C 
BRANCH  27  28
HETATM   28  C27 UNL     1     -13.194  -4.652  -8.045  1.00  0.00     0.000 C 
HETATM   29  C28 UNL     1     -14.723  -4.652  -8.045  1.00  0.00     0.000 C 
ENDBRANCH  27  28
ENDBRANCH  26  27
ENDBRANCH  25  26
ENDBRANCH  24  25
ENDBRANCH  23  24
ENDBRANCH  22  23
ENDBRANCH  21  22
ENDBRANCH  20  21
ENDBRANCH  19  20
ENDBRANCH  18  19
ENDBRANCH  17  18
ENDBRANCH  16  17
ENDBRANCH   1  16
TORSDOF 26
