REMARK  6 active torsions:
REMARK  status: ('A' for Active; 'I' for Inactive)
REMARK    1  A    between atoms: C1_1  and  O5_24 
REMARK    2  A    between atoms: C7_7  and  O3_18 
REMARK    3  A    between atoms: C10_10  and  O1_11 
REMARK    4  A    between atoms: O1_11  and  C11_12 
REMARK    5  A    between atoms: O3_18  and  C16_19 
REMARK    6  A    between atoms: O5_24  and  C20_25 
ROOT
HETATM    1  C1  UNL     1      -2.412  -0.813  -0.004  1.00  0.00     0.142 C 
HETATM    2  C2  UNL     1      -1.809   0.416   0.617  1.00  0.00    -0.022 C 
HETATM    3  C3  UNL     1      -0.676   0.711  -0.020  1.00  0.00    -0.023 C 
HETATM    4  C4  UNL     1      -0.277  -0.285  -1.051  1.00  0.00     0.022 C 
HETATM    5  C5  UNL     1      -1.631  -0.984  -1.334  1.00  0.00     0.038 C 
HETATM    6  C6  UNL     1       0.809  -1.279  -0.545  1.00  0.00     0.032 C 
HETATM    7  C7  UNL     1       1.996  -0.533   0.101  1.00  0.00     0.125 C 
HETATM    8  C8  UNL     1       2.424   0.738  -0.654  1.00  0.00     0.033 C 
HETATM    9  C9  UNL     1       1.207   1.561  -1.121  1.00  0.00     0.035 C 
HETATM   10  C10 UNL     1       0.236   1.896   0.039  1.00  0.00     0.142 C 
HETATM   11  C13 UNL     1       0.348   0.684  -2.086  1.00  0.00     0.006 C 
HETATM   12  C14 UNL     1       1.148  -0.020  -3.184  1.00  0.00     0.000 C 
HETATM   13  C15 UNL     1      -0.699   1.588  -2.750  1.00  0.00     0.000 C 
HETATM   14  C18 UNL     1       0.254  -2.322   0.437  1.00  0.00     0.003 C 
HETATM   15  C19 UNL     1      -2.422   1.193   1.752  1.00  0.00     0.028 C 
ENDROOT
BRANCH   1  16
HETATM   16  O5  UNL     1      -3.797  -0.623  -0.264  1.00  0.00    -0.300 OA
BRANCH  16  17
HETATM   17  C20 UNL     1      -4.557  -0.953   0.777  1.00  0.00     0.273 C 
HETATM   18  O6  UNL     1      -4.121  -1.190   1.879  1.00  0.00    -0.264 OA
HETATM   19  C21 UNL     1      -6.033  -1.016   0.496  1.00  0.00     0.106 C 
ENDBRANCH  16  17
ENDBRANCH   1  16
BRANCH  10  20
HETATM   20  O1  UNL     1       0.898   2.021   1.291  1.00  0.00    -0.300 OA
BRANCH  20  21
HETATM   21  C11 UNL     1       1.676   3.098   1.348  1.00  0.00     0.273 C 
HETATM   22  O2  UNL     1       1.604   4.023   0.572  1.00  0.00    -0.264 OA
HETATM   23  C12 UNL     1       2.684   3.102   2.465  1.00  0.00     0.106 C 
ENDBRANCH  20  21
ENDBRANCH  10  20
BRANCH   7  24
HETATM   24  O3  UNL     1       3.107  -1.412   0.201  1.00  0.00    -0.304 OA
BRANCH  24  25
HETATM   25  C16 UNL     1       3.119  -2.084   1.350  1.00  0.00     0.272 C 
HETATM   26  O4  UNL     1       2.443  -1.793   2.309  1.00  0.00    -0.264 OA
HETATM   27  C17 UNL     1       4.051  -3.266   1.391  1.00  0.00     0.106 C 
ENDBRANCH  24  25
ENDBRANCH   7  24
TORSDOF 6
