REMARK  1 active torsions:
REMARK  status: ('A' for Active; 'I' for Inactive)
REMARK    1  A    between atoms: C5_5  and  C7_7 
ROOT
HETATM    1  C1  UNL     1       1.859   0.523  -0.434  1.00  0.00     0.180 C 
HETATM    2  C2  UNL     1       1.930  -0.986  -0.086  1.00  0.00     0.155 C 
HETATM    3  C3  UNL     1       0.635  -1.723  -0.492  1.00  0.00     0.033 C 
HETATM    4  C4  UNL     1      -0.639  -1.041   0.039  1.00  0.00     0.005 C 
HETATM    5  C5  UNL     1      -0.709   0.447  -0.348  1.00  0.00     0.031 C 
HETATM    6  C6  UNL     1       0.568   1.193   0.082  1.00  0.00     0.038 C 
HETATM    7  O2  UNL     1       2.076  -1.104   1.318  1.00  0.00    -0.223 OA
HETATM    8  C10 UNL     1       3.170  -1.668  -0.680  1.00  0.00     0.036 C 
HETATM    9  O3  UNL     1       1.918   0.687  -1.840  1.00  0.00    -0.221 OA
ENDROOT
BRANCH   5  10
HETATM   10  C7  UNL     1      -1.959   1.111   0.238  1.00  0.00     0.127 C 
HETATM   11  C8  UNL     1      -3.252   0.430  -0.211  1.00  0.00     0.033 C 
HETATM   12  C9  UNL     1      -1.881   1.285   1.754  1.00  0.00     0.033 C 
HETATM   13  O1  UNL     1      -2.096   2.387  -0.348  1.00  0.00    -0.226 OA
ENDBRANCH   5  10
TORSDOF 1
