REMARK  10 active torsions:
REMARK  status: ('A' for Active; 'I' for Inactive)
REMARK    1  A    between atoms: C3_3  and  O3_27 
REMARK    2  A    between atoms: C5_5  and  C7_7 
REMARK    3  A    between atoms: C7_7  and  C8_8 
REMARK    4  A    between atoms: C8_8  and  C9_9 
REMARK    5  A    between atoms: C11_11  and  C22_24 
REMARK    6  A    between atoms: C12_13  and  C13_15 
REMARK    7  A    between atoms: C14_16  and  C15_17 
REMARK    8  A    between atoms: C15_17  and  C16_18 
REMARK    9  A    between atoms: C16_18  and  C17_19 
REMARK   10  A    between atoms: C22_24  and  C23_25 
ROOT
HETATM    1  C9  UNL     1      -1.072   0.035   1.102  1.00  0.00     0.121 C 
HETATM    2  C10 UNL     1      -2.010   1.269   1.100  1.00  0.00     0.059 C 
HETATM    3  C11 UNL     1      -1.262   2.627   1.063  1.00  0.00     0.121 C 
HETATM    4  O1  UNL     1      -0.004   2.451   1.693  1.00  0.00    -0.330 OA
HETATM    5  C12 UNL     1       0.840   1.484   1.070  1.00  0.00     0.259 C 
HETATM    6  O2  UNL     1       0.147   0.391   0.467  1.00  0.00    -0.330 OA
ENDROOT
BRANCH   1   7
HETATM    7  C8  UNL     1      -1.660  -1.170   0.365  1.00  0.00     0.035 C 
BRANCH   7   8
HETATM    8  C7  UNL     1      -0.826  -2.438   0.547  1.00  0.00     0.029 C 
BRANCH   8   9
HETATM    9  C5  UNL     1      -1.432  -3.598  -0.158  1.00  0.00    -0.020 A 
HETATM   10  C4  UNL     1      -2.553  -4.246   0.389  1.00  0.00     0.022 A 
HETATM   11  C3  UNL     1      -3.129  -5.344  -0.273  1.00  0.00     0.119 A 
HETATM   12  C2  UNL     1      -2.582  -5.795  -1.490  1.00  0.00     0.153 A 
HETATM   13  C1  UNL     1      -1.461  -5.145  -2.035  1.00  0.00     0.029 A 
HETATM   14  O4  UNL     1      -3.115  -6.822  -2.119  1.00  0.00    -0.188 OA
HETATM   15  C6  UNL     1      -0.885  -4.049  -1.371  1.00  0.00    -0.002 A 
BRANCH  11  16
HETATM   16  O3  UNL     1      -4.180  -5.947   0.246  1.00  0.00    -0.326 OA
HETATM   17  C25 UNL     1      -5.170  -6.444  -0.643  1.00  0.00     0.181 C 
ENDBRANCH  11  16
ENDBRANCH   8   9
ENDBRANCH   7   8
ENDBRANCH   1   7
BRANCH   3  18
HETATM   18  C22 UNL     1      -2.012   3.748   1.783  1.00  0.00     0.030 C 
BRANCH  18  19
HETATM   19  C23 UNL     1      -1.367   5.119   1.572  1.00  0.00     0.003 C 
HETATM   20  C24 UNL     1      -2.133   6.244   2.268  1.00  0.00     0.000 C 
ENDBRANCH  18  19
ENDBRANCH   3  18
BRANCH   5  21
HETATM   21  C13 UNL     1       1.822   0.969   2.090  1.00  0.00     0.026 C 
HETATM   22  C14 UNL     1       3.133   1.021   1.801  1.00  0.00    -0.043 C 
HETATM   23  C21 UNL     1       4.113   0.506   2.820  1.00  0.00     0.026 C 
BRANCH  22  24
HETATM   24  C15 UNL     1       3.721   1.559   0.524  1.00  0.00     0.026 C 
BRANCH  24  25
HETATM   25  C16 UNL     1       3.563   0.584  -0.644  1.00  0.00     0.030 C 
BRANCH  25  26
HETATM   26  C17 UNL     1       4.287   1.049  -1.879  1.00  0.00    -0.034 C 
HETATM   27  C18 UNL     1       3.574   1.609  -2.869  1.00  0.00    -0.048 C 
HETATM   28  C19 UNL     1       2.096   1.889  -2.824  1.00  0.00     0.026 C 
HETATM   29  C20 UNL     1       4.287   1.998  -4.137  1.00  0.00     0.026 C 
ENDBRANCH  25  26
ENDBRANCH  24  25
ENDBRANCH  22  24
ENDBRANCH   5  21
TORSDOF 10
