REMARK  3 active torsions:
REMARK  status: ('A' for Active; 'I' for Inactive)
REMARK    1  A    between atoms: C2_2  and  C7_7 
REMARK    2  A    between atoms: C7_7  and  C8_9 
REMARK    3  A    between atoms: C9_10  and  C10_11 
ROOT
HETATM    1  C10 UNL     1      -0.447   3.142   0.000  1.00  0.00    -0.014 C 
HETATM    2  C11 UNL     1      -1.115   4.129   0.000  1.00  0.00    -0.077 C 
HETATM    3  C12 UNL     1      -1.935   5.336   0.000  1.00  0.00     0.091 C 
ENDROOT
BRANCH   1   4
HETATM    4  C9  UNL     1       0.328   2.002   0.000  1.00  0.00    -0.006 C 
HETATM    5  C8  UNL     1       0.996   1.017   0.000  1.00  0.00    -0.009 C 
BRANCH   5   6
HETATM    6  C7  UNL     1       1.803  -0.172   0.000  1.00  0.00     0.238 C 
HETATM    7  O1  UNL     1       3.010  -0.108   0.000  1.00  0.00    -0.278 OA
BRANCH   6   8
HETATM    8  C2  UNL     1       1.104  -1.492   0.000  1.00  0.00     0.047 A 
HETATM    9  C1  UNL     1       1.850  -2.684   0.000  1.00  0.00     0.004 A 
HETATM   10  C6  UNL     1       1.192  -3.926   0.000  1.00  0.00     0.000 A 
HETATM   11  C5  UNL     1      -0.213  -3.977   0.000  1.00  0.00     0.000 A 
HETATM   12  C4  UNL     1      -0.959  -2.785   0.000  1.00  0.00     0.000 A 
HETATM   13  C3  UNL     1      -0.303  -1.543   0.000  1.00  0.00     0.004 A 
ENDBRANCH   6   8
ENDBRANCH   5   6
ENDBRANCH   1   4
TORSDOF 3
