REMARK  1 active torsions:
REMARK  status: ('A' for Active; 'I' for Inactive)
REMARK    1  A    between atoms: C9_9  and  C10_10 
ROOT
HETATM    1  C1  UNL     1      -2.078   1.967   0.518  1.00  0.00    -0.004 C 
HETATM    2  C2  UNL     1      -3.373   1.656   0.731  1.00  0.00    -0.028 C 
HETATM    3  C3  UNL     1      -3.916   0.303   0.301  1.00  0.00     0.035 C 
HETATM    4  C4  UNL     1      -2.898  -0.539  -0.504  1.00  0.00     0.085 C 
HETATM    5  C5  UNL     1      -1.570  -0.476   0.272  1.00  0.00     0.049 C 
HETATM    6  C6  UNL     1      -1.191   0.943  -0.170  1.00  0.00     0.120 C 
HETATM    7  C7  UNL     1       0.307   1.043   0.129  1.00  0.00     0.033 C 
HETATM    8  C8  UNL     1       0.820  -0.428   0.115  1.00  0.00     0.019 C 
HETATM    9  C9  UNL     1      -0.389  -1.312  -0.236  1.00  0.00     0.091 C 
HETATM   10  C11 UNL     1       2.020  -0.625  -0.844  1.00  0.00     0.038 C 
HETATM   11  C12 UNL     1       3.031   0.340  -0.205  1.00  0.00     0.170 C 
HETATM   12  C13 UNL     1       2.633   1.805  -0.568  1.00  0.00     0.183 C 
HETATM   13  C14 UNL     1       1.106   1.955  -0.812  1.00  0.00     0.039 C 
HETATM   14  O3  UNL     1       3.287   2.268  -1.738  1.00  0.00    -0.221 OA
HETATM   15  O4  UNL     1       4.350  -0.006  -0.607  1.00  0.00    -0.219 OA
HETATM   16  C15 UNL     1       2.826   0.035   1.260  1.00  0.00    -0.015 C 
HETATM   17  C16 UNL     1       1.527  -0.689   1.461  1.00  0.00     0.025 C 
HETATM   18  C17 UNL     1       3.670   0.365   2.254  1.00  0.00    -0.007 C 
HETATM   19  O5  UNL     1      -1.467   0.990  -1.572  1.00  0.00    -0.302 OA
HETATM   20  C18 UNL     1      -2.508   0.186  -1.768  1.00  0.00     0.271 C 
HETATM   21  O6  UNL     1      -3.080   0.031  -2.820  1.00  0.00    -0.264 OA
HETATM   22  C19 UNL     1      -3.367  -1.973  -0.734  1.00  0.00     0.010 C 
ENDROOT
BRANCH   9  23
HETATM   23  C10 UNL     1      -0.355  -2.713   0.322  1.00  0.00     0.185 C 
HETATM   24  O1  UNL     1      -1.187  -3.086   1.119  1.00  0.00    -0.647 OA
HETATM   25  O2  UNL     1       0.635  -3.478  -0.125  1.00  0.00    -0.647 OA
ENDBRANCH   9  23
TORSDOF 1
