REMARK  2 active torsions:
REMARK  status: ('A' for Active; 'I' for Inactive)
REMARK    1  A    between atoms: C3_3  and  C21_21 
REMARK    2  A    between atoms: C12_12  and  C16_16 
ROOT
HETATM    1  C1  UNL     1      -2.648   2.006  -0.789  1.00  0.00     0.033 C 
HETATM    2  C2  UNL     1      -3.449   0.934  -0.045  1.00  0.00     0.154 C 
HETATM    3  C3  UNL     1      -2.900  -0.500  -0.326  1.00  0.00     0.059 C 
HETATM    4  C4  UNL     1      -1.391  -0.486  -0.754  1.00  0.00     0.005 C 
HETATM    5  C5  UNL     1      -0.543   0.637  -0.084  1.00  0.00     0.003 C 
HETATM    6  C6  UNL     1      -1.172   2.037  -0.359  1.00  0.00     0.003 C 
HETATM    7  C7  UNL     1       0.941   0.619  -0.599  1.00  0.00     0.015 C 
HETATM    8  C8  UNL     1       1.533  -0.779  -0.465  1.00  0.00    -0.049 C 
HETATM    9  C9  UNL     1       0.725  -1.910  -1.062  1.00  0.00     0.022 C 
HETATM   10  C10 UNL     1      -0.728  -1.875  -0.586  1.00  0.00     0.004 C 
HETATM   11  C11 UNL     1       2.721  -1.033   0.133  1.00  0.00    -0.031 C 
HETATM   12  C12 UNL     1       3.604   0.047   0.721  1.00  0.00     0.036 C 
HETATM   13  C13 UNL     1       3.285   1.408   0.078  1.00  0.00     0.008 C 
HETATM   14  C14 UNL     1       1.783   1.698   0.135  1.00  0.00     0.004 C 
HETATM   15  C15 UNL     1       5.072  -0.312   0.485  1.00  0.00     0.009 C 
HETATM   16  C18 UNL     1       1.002   0.922  -2.107  1.00  0.00     0.004 C 
HETATM   17  C19 UNL     1      -0.551   0.369   1.434  1.00  0.00     0.000 C 
HETATM   18  C20 UNL     1      -3.146  -1.433   0.875  1.00  0.00     0.005 C 
HETATM   19  O2  UNL     1      -3.436   1.258   1.336  1.00  0.00    -0.223 OA
ENDROOT
BRANCH   3  20
HETATM   20  C21 UNL     1      -3.703  -1.095  -1.490  1.00  0.00     0.185 C 
HETATM   21  O1  UNL     1      -5.043  -1.236  -1.076  1.00  0.00    -0.221 OA
ENDBRANCH   3  20
BRANCH  12  22
HETATM   22  C16 UNL     1       3.367   0.084   2.211  1.00  0.00    -0.023 C 
HETATM   23  C17 UNL     1       3.381  -1.074   2.891  1.00  0.00    -0.005 C 
ENDBRANCH  12  22
TORSDOF 2
