REMARK  1 active torsions:
REMARK  status: ('A' for Active; 'I' for Inactive)
REMARK    1  A    between atoms: C5_6  and  C12_15 
ROOT
HETATM    1  O1  UNL     1       2.107  -1.076  -1.166  1.00  0.00    -0.271 OA
HETATM    2  C1  UNL     1       3.256  -0.699  -0.569  1.00  0.00     0.300 A 
HETATM    3  C2  UNL     1       3.201   0.213   0.595  1.00  0.00     0.069 A 
HETATM    4  C3  UNL     1       2.014   0.660   1.047  1.00  0.00     0.008 A 
HETATM    5  C4  UNL     1       0.768   0.221   0.361  1.00  0.00     0.028 A 
HETATM    6  C5  UNL     1      -0.516   0.662   0.797  1.00  0.00     0.046 A 
HETATM    7  C6  UNL     1      -1.650   0.199   0.092  1.00  0.00     0.030 A 
HETATM    8  C7  UNL     1      -1.512  -0.645  -0.975  1.00  0.00     0.127 A 
HETATM    9  C8  UNL     1      -0.271  -1.119  -1.459  1.00  0.00     0.176 A 
HETATM   10  C9  UNL     1       0.885  -0.664  -0.760  1.00  0.00     0.131 A 
HETATM   11  O2  UNL     1      -0.047  -1.943  -2.492  1.00  0.00    -0.186 OA
HETATM   12  O3  UNL     1      -2.756  -0.957  -1.496  1.00  0.00    -0.303 OA
HETATM   13  C10 UNL     1      -3.664  -0.240  -0.666  1.00  0.00     0.123 A 
HETATM   14  C11 UNL     1      -2.957   0.479   0.322  1.00  0.00     0.029 A 
HETATM   15  O5  UNL     1       4.338  -1.082  -0.948  1.00  0.00    -0.259 OA
ENDROOT
BRANCH   6  16
HETATM   16  C12 UNL     1      -0.660   1.578   1.953  1.00  0.00     0.234 C 
HETATM   17  O4  UNL     1      -1.619   1.750   2.668  1.00  0.00    -0.283 OA
ENDBRANCH   6  16
TORSDOF 1
