REMARK  8 active torsions:
REMARK  status: ('A' for Active; 'I' for Inactive)
REMARK    1  A    between atoms: C6_7  and  O4_16 
REMARK    2  A    between atoms: C9_10  and  O2_11 
REMARK    3  A    between atoms: O4_16  and  C13_17 
REMARK    4  A    between atoms: C13_17  and  C14_18 
REMARK    5  A    between atoms: C14_18  and  O5_19 
REMARK    6  A    between atoms: C14_18  and  C21_31 
REMARK    7  A    between atoms: O5_19  and  C15_20 
REMARK    8  A    between atoms: C19_27  and  C20_29 
ROOT
HETATM    1  C13 UNL     1      -0.600  -0.107  -1.469  1.00  0.00     0.181 C 
ENDROOT
BRANCH   1   2
HETATM    2  O4  UNL     1       0.623   0.463  -1.027  1.00  0.00    -0.324 OA
BRANCH   2   3
HETATM    3  C6  UNL     1       0.574   1.629  -0.371  1.00  0.00     0.139 A 
HETATM    4  C5  UNL     1       1.836   2.133   0.021  1.00  0.00     0.129 A 
HETATM    5  C4  UNL     1       1.926   3.359   0.725  1.00  0.00     0.047 A 
HETATM    6  O1  UNL     1       2.955   1.434  -0.275  1.00  0.00    -0.271 OA
HETATM    7  C3  UNL     1       3.277   3.846   1.119  1.00  0.00     0.009 A 
HETATM    8  C9  UNL     1       0.762   4.100   1.041  1.00  0.00     0.094 A 
HETATM    9  C2  UNL     1       4.360   3.111   0.797  1.00  0.00     0.069 A 
HETATM   10  C1  UNL     1       4.195   1.838   0.062  1.00  0.00     0.300 A 
HETATM   11  O12 UNL     1       5.184   1.197  -0.213  1.00  0.00    -0.259 OA
HETATM   12  C8  UNL     1      -0.494   3.580   0.637  1.00  0.00     0.027 A 
HETATM   13  C7  UNL     1      -0.602   2.363  -0.057  1.00  0.00     0.116 A 
HETATM   14  C11 UNL     1      -1.879   4.145   0.830  1.00  0.00     0.063 A 
HETATM   15  O3  UNL     1      -1.865   2.053  -0.336  1.00  0.00    -0.329 OA
HETATM   16  C12 UNL     1      -2.766   3.051   0.172  1.00  0.00     0.154 A 
BRANCH   8  17
HETATM   17  O2  UNL     1       0.961   5.248   1.705  1.00  0.00    -0.328 OA
HETATM   18  C10 UNL     1      -0.023   6.264   1.594  1.00  0.00     0.181 C 
ENDBRANCH   8  17
ENDBRANCH   2   3
ENDBRANCH   1   2
BRANCH   1  19
HETATM   19  C14 UNL     1      -0.316  -1.420  -2.201  1.00  0.00     0.176 C 
BRANCH  19  20
HETATM   20  O5  UNL     1      -0.219  -2.447  -1.242  1.00  0.00    -0.326 OA
BRANCH  20  21
HETATM   21  C15 UNL     1       0.928  -2.332  -0.414  1.00  0.00     0.270 C 
HETATM   22  C16 UNL     1       1.504  -3.719  -0.022  1.00  0.00     0.241 C 
HETATM   23  O6  UNL     1       1.762  -4.494  -1.182  1.00  0.00    -0.215 OA
HETATM   24  C17 UNL     1       0.572  -4.475   0.951  1.00  0.00     0.220 C 
HETATM   25  O7  UNL     1       1.217  -5.647   1.426  1.00  0.00    -0.218 OA
HETATM   26  C18 UNL     1       0.223  -3.553   2.141  1.00  0.00     0.215 C 
HETATM   27  O8  UNL     1      -0.773  -4.160   2.943  1.00  0.00    -0.218 OA
HETATM   28  C19 UNL     1      -0.295  -2.174   1.666  1.00  0.00     0.184 C 
HETATM   29  O9  UNL     1       0.643  -1.584   0.768  1.00  0.00    -0.326 OA
BRANCH  28  30
HETATM   30  C20 UNL     1      -0.480  -1.182   2.818  1.00  0.00     0.214 C 
HETATM   31  O10 UNL     1      -1.125  -0.033   2.314  1.00  0.00    -0.218 OA
ENDBRANCH  28  30
ENDBRANCH  20  21
ENDBRANCH  19  20
BRANCH  19  32
HETATM   32  C21 UNL     1      -1.418  -1.795  -3.191  1.00  0.00     0.154 C 
HETATM   33  C22 UNL     1      -1.191  -3.160  -3.840  1.00  0.00     0.036 C 
HETATM   34  C23 UNL     1      -2.820  -1.648  -2.598  1.00  0.00     0.036 C 
HETATM   35  O11 UNL     1      -1.254  -0.805  -4.182  1.00  0.00    -0.223 OA
ENDBRANCH  19  32
ENDBRANCH   1  19
TORSDOF 8
