REMARK  8 active torsions:
REMARK  status: ('A' for Active; 'I' for Inactive)
REMARK    1  A    between atoms: C3_3  and  C4_4 
REMARK    2  A    between atoms: C5_5  and  C6_6 
REMARK    3  A    between atoms: C7_7  and  C8_8 
REMARK    4  A    between atoms: C8_8  and  C9_9 
REMARK    5  A    between atoms: C9_9  and  C10_10 
REMARK    6  A    between atoms: C11_11  and  C12_12 
REMARK       I    between atoms: C12_12  and  N1_13 
REMARK    7  A    between atoms: N1_13  and  C13_14 
REMARK    8  A    between atoms: C13_14  and  C14_15 
ROOT
HETATM    1  C10 UNL     1      -0.260  -0.512   2.008  1.00  0.00    -0.021 C 
HETATM    2  C11 UNL     1       0.426   0.645   1.998  1.00  0.00     0.058 C 
ENDROOT
BRANCH   1   3
HETATM    3  C9  UNL     1      -1.764  -0.455   2.008  1.00  0.00     0.031 C 
BRANCH   3   4
HETATM    4  C8  UNL     1      -2.381  -1.351   0.934  1.00  0.00     0.031 C 
BRANCH   4   5
HETATM    5  C7  UNL     1      -3.885  -1.308   0.943  1.00  0.00    -0.026 C 
HETATM    6  C6  UNL     1      -4.549  -1.863  -0.082  1.00  0.00    -0.005 C 
BRANCH   6   7
HETATM    7  C5  UNL     1      -3.822  -2.498  -1.188  1.00  0.00    -0.000 C 
HETATM    8  C4  UNL     1      -4.358  -2.547  -2.420  1.00  0.00    -0.000 C 
BRANCH   8   9
HETATM    9  C3  UNL     1      -3.629  -3.182  -3.525  1.00  0.00    -0.005 C 
HETATM   10  C2  UNL     1      -4.164  -3.230  -4.758  1.00  0.00    -0.026 C 
HETATM   11  C1  UNL     1      -3.377  -3.893  -5.856  1.00  0.00     0.031 C 
ENDBRANCH   8   9
ENDBRANCH   6   7
ENDBRANCH   4   5
ENDBRANCH   3   4
ENDBRANCH   1   3
BRANCH   2  12
HETATM   12  C12 UNL     1       1.893   0.641   1.998  1.00  0.00     0.275 C 
HETATM   13  N1  UNL     1       2.562   1.830   1.998  1.00  0.00    -0.232 NA
HETATM   14  O2  UNL     1       2.502  -0.402   1.998  1.00  0.00    -0.266 OA
BRANCH  13  15
HETATM   15  C13 UNL     1       4.033   1.830   1.998  1.00  0.00     0.159 C 
BRANCH  15  16
HETATM   16  C14 UNL     1       4.582   3.217   1.656  1.00  0.00     0.149 C 
HETATM   17  C15 UNL     1       6.109   3.260   1.641  1.00  0.00     0.035 C 
HETATM   18  O1  UNL     1       4.131   3.977   2.754  1.00  0.00    -0.224 OA
HETATM   19  C16 UNL     1       3.961   3.797   0.385  1.00  0.00     0.035 C 
ENDBRANCH  15  16
ENDBRANCH  13  15
ENDBRANCH   2  12
TORSDOF 8
