REMARK  3 active torsions:
REMARK  status: ('A' for Active; 'I' for Inactive)
REMARK    1  A    between atoms: C1_1  and  C15_16 
REMARK    2  A    between atoms: C15_16  and  C16_17 
REMARK    3  A    between atoms: C16_17  and  C17_18 
ROOT
HETATM    1  C1  UNL     1       0.725  -0.227   0.375  1.00  0.00     0.133 C 
HETATM    2  C2  UNL     1      -0.684   0.252  -0.123  1.00  0.00     0.027 C 
HETATM    3  C3  UNL     1      -1.143   1.535   0.637  1.00  0.00     0.010 C 
HETATM    4  C4  UNL     1      -0.062   2.644   0.635  1.00  0.00     0.065 C 
HETATM    5  C5  UNL     1       1.295   2.135   1.047  1.00  0.00     0.153 C 
HETATM    6  C6  UNL     1       1.783   0.906   0.311  1.00  0.00     0.086 C 
HETATM    7  C7  UNL     1       3.172   0.461   0.797  1.00  0.00     0.010 C 
HETATM    8  O1  UNL     1       1.942   2.678   1.914  1.00  0.00    -0.296 OA
HETATM    9  C8  UNL     1      -2.541   2.074   0.180  1.00  0.00     0.001 C 
HETATM   10  C9  UNL     1      -3.461   0.934  -0.314  1.00  0.00     0.000 C 
HETATM   11  C10 UNL     1      -3.158  -0.391   0.381  1.00  0.00     0.000 C 
HETATM   12  C11 UNL     1      -1.744  -0.885   0.037  1.00  0.00     0.002 C 
HETATM   13  C12 UNL     1      -3.207   2.779   1.371  1.00  0.00     0.000 C 
HETATM   14  C13 UNL     1      -2.422   3.103  -0.953  1.00  0.00     0.000 C 
HETATM   15  C14 UNL     1      -0.576   0.601  -1.619  1.00  0.00     0.003 C 
HETATM   16  O3  UNL     1       0.635  -0.643   1.730  1.00  0.00    -0.226 OA
ENDROOT
BRANCH   1  17
HETATM   17  C15 UNL     1       1.199  -1.463  -0.402  1.00  0.00     0.036 C 
BRANCH  17  18
HETATM   18  C16 UNL     1       1.922  -2.477   0.484  1.00  0.00     0.031 C 
BRANCH  18  19
HETATM   19  C17 UNL     1       2.611  -3.539  -0.344  1.00  0.00     0.005 A 
HETATM   20  C18 UNL     1       2.334  -4.910  -0.359  1.00  0.00     0.118 A 
HETATM   21  O2  UNL     1       3.143  -5.590  -1.223  1.00  0.00    -0.303 OA
HETATM   22  C19 UNL     1       3.943  -4.623  -1.762  1.00  0.00     0.122 A 
HETATM   23  C20 UNL     1       3.652  -3.354  -1.252  1.00  0.00     0.025 A 
ENDBRANCH  18  19
ENDBRANCH  17  18
ENDBRANCH   1  17
TORSDOF 3
