REMARK  15 active torsions:
REMARK  status: ('A' for Active; 'I' for Inactive)
REMARK    1  A    between atoms: C3_3  and  O4_11 
REMARK    2  A    between atoms: C5_6  and  C6_7 
REMARK    3  A    between atoms: C6_7  and  O3_9 
REMARK    4  A    between atoms: O4_11  and  C8_12 
REMARK    5  A    between atoms: C9_14  and  C13_21 
REMARK    6  A    between atoms: C13_21  and  O9_22 
REMARK    7  A    between atoms: O9_22  and  C14_23 
REMARK    8  A    between atoms: C15_25  and  C19_32 
REMARK    9  A    between atoms: C19_32  and  O14_33 
REMARK   10  A    between atoms: O14_33  and  C20_34 
REMARK   11  A    between atoms: C20_34  and  C21_36 
REMARK   12  A    between atoms: C22_37  and  C23_38 
REMARK   13  A    between atoms: C25_40  and  O18_47 
REMARK   14  A    between atoms: C27_42  and  O16_44 
REMARK   15  A    between atoms: C31_49  and  C34_52 
ROOT
HETATM    1  O9  UNL     1       1.228   0.154   1.645  1.00  0.00    -0.326 OA
ENDROOT
BRANCH   1   2
HETATM    2  C13 UNL     1       0.592   0.012   0.395  1.00  0.00     0.177 C 
BRANCH   2   3
HETATM    3  C9  UNL     1      -0.018   1.363   0.010  1.00  0.00     0.180 C 
HETATM    4  O5  UNL     1      -1.059   1.631   0.943  1.00  0.00    -0.326 OA
HETATM    5  C8  UNL     1      -1.697   2.895   0.783  1.00  0.00     0.272 C 
HETATM    6  C12 UNL     1      -2.363   3.000  -0.615  1.00  0.00     0.241 C 
HETATM    7  C11 UNL     1      -1.315   2.713  -1.715  1.00  0.00     0.220 C 
HETATM    8  O6  UNL     1      -3.451   2.086  -0.717  1.00  0.00    -0.215 OA
HETATM    9  C10 UNL     1      -0.586   1.381  -1.428  1.00  0.00     0.215 C 
HETATM   10  O7  UNL     1      -1.914   2.703  -3.002  1.00  0.00    -0.218 OA
HETATM   11  O8  UNL     1       0.482   1.207  -2.340  1.00  0.00    -0.218 OA
BRANCH   5  12
HETATM   12  O4  UNL     1      -2.645   3.098   1.815  1.00  0.00    -0.304 OA
BRANCH  12  13
HETATM   13  C3  UNL     1      -2.051   3.285   3.088  1.00  0.00     0.246 C 
HETATM   14  C2  UNL     1      -3.070   3.789   4.131  1.00  0.00     0.082 C 
HETATM   15  C1  UNL     1      -4.070   2.674   4.492  1.00  0.00     0.043 C 
HETATM   16  C31 UNL     1      -3.963   4.898   3.647  1.00  0.00    -0.011 C 
HETATM   17  C5  UNL     1      -3.506   1.273   4.412  1.00  0.00     0.066 C 
HETATM   18  C33 UNL     1      -5.276   2.969   3.576  1.00  0.00     0.030 C 
HETATM   19  C4  UNL     1      -2.244   1.080   3.969  1.00  0.00     0.120 C 
HETATM   20  O1  UNL     1      -1.441   2.064   3.520  1.00  0.00    -0.303 OA
HETATM   21  C32 UNL     1      -5.186   4.451   3.338  1.00  0.00    -0.032 C 
BRANCH  17  22
HETATM   22  C6  UNL     1      -4.346   0.144   4.840  1.00  0.00     0.294 C 
HETATM   23  O2  UNL     1      -5.342   0.338   5.496  1.00  0.00    -0.259 OA
BRANCH  22  24
HETATM   24  O3  UNL     1      -3.932  -1.063   4.461  1.00  0.00    -0.296 OA
HETATM   25  C7  UNL     1      -4.789  -2.098   4.918  1.00  0.00     0.185 C 
ENDBRANCH  22  24
ENDBRANCH  17  22
BRANCH  16  26
HETATM   26  C34 UNL     1      -3.514   6.332   3.535  1.00  0.00     0.204 C 
HETATM   27  O19 UNL     1      -4.209   7.117   4.477  1.00  0.00    -0.216 OA
ENDBRANCH  16  26
ENDBRANCH  12  13
ENDBRANCH   5  12
ENDBRANCH   2   3
ENDBRANCH   1   2
BRANCH   1  28
HETATM   28  C14 UNL     1       1.775  -1.055   2.133  1.00  0.00     0.270 C 
HETATM   29  O10 UNL     1       2.809  -1.512   1.273  1.00  0.00    -0.326 OA
HETATM   30  C15 UNL     1       3.236  -2.856   1.494  1.00  0.00     0.181 C 
HETATM   31  C16 UNL     1       3.277  -3.227   3.012  1.00  0.00     0.215 C 
HETATM   32  C17 UNL     1       3.430  -1.986   3.920  1.00  0.00     0.220 C 
HETATM   33  O13 UNL     1       2.096  -3.902   3.400  1.00  0.00    -0.218 OA
HETATM   34  C18 UNL     1       2.314  -0.940   3.598  1.00  0.00     0.241 C 
HETATM   35  O12 UNL     1       4.734  -1.471   3.701  1.00  0.00    -0.218 OA
HETATM   36  O11 UNL     1       2.730   0.379   3.938  1.00  0.00    -0.215 OA
BRANCH  30  37
HETATM   37  C19 UNL     1       2.381  -3.781   0.617  1.00  0.00     0.184 C 
BRANCH  37  38
HETATM   38  O14 UNL     1       2.555  -3.436  -0.748  1.00  0.00    -0.296 OA
BRANCH  38  39
HETATM   39  C20 UNL     1       1.836  -4.203  -1.563  1.00  0.00     0.296 C 
HETATM   40  O15 UNL     1       1.113  -5.096  -1.182  1.00  0.00    -0.259 OA
BRANCH  39  41
HETATM   41  C21 UNL     1       1.961  -3.910  -2.994  1.00  0.00     0.068 C 
HETATM   42  C22 UNL     1       2.756  -2.914  -3.422  1.00  0.00     0.006 C 
BRANCH  42  43
HETATM   43  C23 UNL     1       2.852  -2.652  -4.889  1.00  0.00     0.004 A 
HETATM   44  C24 UNL     1       4.035  -2.127  -5.436  1.00  0.00     0.026 A 
HETATM   45  C25 UNL     1       4.127  -1.881  -6.816  1.00  0.00     0.121 A 
HETATM   46  C26 UNL     1       3.031  -2.160  -7.654  1.00  0.00     0.175 A 
HETATM   47  C27 UNL     1       1.846  -2.688  -7.109  1.00  0.00     0.121 A 
HETATM   48  O17 UNL     1       3.117  -1.930  -8.949  1.00  0.00    -0.186 OA
HETATM   49  C28 UNL     1       1.758  -2.932  -5.727  1.00  0.00     0.026 A 
BRANCH  45  50
HETATM   50  O18 UNL     1       5.240  -1.387  -7.322  1.00  0.00    -0.326 OA
HETATM   51  C30 UNL     1       6.330  -1.158  -6.441  1.00  0.00     0.181 C 
ENDBRANCH  45  50
BRANCH  47  52
HETATM   52  O16 UNL     1       0.816  -2.951  -7.889  1.00  0.00    -0.326 OA
HETATM   53  C29 UNL     1       0.055  -1.858  -8.381  1.00  0.00     0.181 C 
ENDBRANCH  47  52
ENDBRANCH  42  43
ENDBRANCH  39  41
ENDBRANCH  38  39
ENDBRANCH  37  38
ENDBRANCH  30  37
ENDBRANCH   1  28
TORSDOF 15
