REMARK  12 active torsions:
REMARK  status: ('A' for Active; 'I' for Inactive)
REMARK    1  A    between atoms: C10_10  and  C11_12 
REMARK    2  A    between atoms: C11_12  and  C12_13 
REMARK    3  A    between atoms: C12_13  and  C13_14 
REMARK    4  A    between atoms: C13_14  and  C14_15 
REMARK    5  A    between atoms: C14_15  and  C15_16 
REMARK    6  A    between atoms: C15_16  and  C16_17 
REMARK    7  A    between atoms: C16_17  and  C17_18 
REMARK    8  A    between atoms: C17_18  and  C18_19 
REMARK    9  A    between atoms: C18_19  and  C19_20 
REMARK   10  A    between atoms: C19_20  and  C20_21 
REMARK   11  A    between atoms: C20_21  and  C21_22 
REMARK   12  A    between atoms: C21_22  and  C22_23 
ROOT
HETATM    1  C11 UNL     1      -4.414   0.836  -2.645  1.00  0.00     0.032 C 
ENDROOT
BRANCH   1   2
HETATM    2  C10 UNL     1      -4.084   0.160  -3.977  1.00  0.00     0.117 C 
HETATM    3  C9  UNL     1      -3.963  -1.336  -3.742  1.00  0.00     0.001 C 
HETATM    4  C8  UNL     1      -2.756  -1.910  -3.580  1.00  0.00    -0.001 C 
HETATM    5  C5  UNL     1      -1.525  -1.088  -3.717  1.00  0.00     0.020 A 
HETATM    6  C4  UNL     1      -1.656   0.246  -4.180  1.00  0.00     0.090 A 
HETATM    7  C6  UNL     1      -0.248  -1.623  -3.410  1.00  0.00     0.005 A 
HETATM    8  C3  UNL     1      -0.500   1.051  -4.342  1.00  0.00    -0.002 A 
HETATM    9  O1  UNL     1      -2.873   0.752  -4.479  1.00  0.00    -0.332 OA
HETATM   10  C2  UNL     1       0.779   0.522  -4.035  1.00  0.00     0.001 A 
HETATM   11  C28 UNL     1      -0.639   2.434  -4.830  1.00  0.00     0.033 C 
HETATM   12  C1  UNL     1       0.904  -0.812  -3.572  1.00  0.00     0.123 A 
HETATM   13  C29 UNL     1       1.984   1.354  -4.197  1.00  0.00     0.033 C 
HETATM   14  O2  UNL     1       2.117  -1.309  -3.283  1.00  0.00    -0.191 OA
HETATM   15  C7  UNL     1      -0.100  -3.008  -2.928  1.00  0.00     0.033 C 
HETATM   16  C27 UNL     1      -5.193   0.445  -4.992  1.00  0.00     0.035 C 
ENDBRANCH   1   2
BRANCH   1  17
HETATM   17  C12 UNL     1      -3.305   0.664  -1.606  1.00  0.00     0.003 C 
BRANCH  17  18
HETATM   18  C13 UNL     1      -3.658   1.289  -0.254  1.00  0.00     0.000 C 
BRANCH  18  19
HETATM   19  C14 UNL     1      -2.672   0.906   0.848  1.00  0.00     0.000 C 
HETATM   20  C26 UNL     1      -3.182   1.262   2.246  1.00  0.00     0.000 C 
BRANCH  19  21
HETATM   21  C15 UNL     1      -1.260   1.432   0.584  1.00  0.00     0.000 C 
BRANCH  21  22
HETATM   22  C16 UNL     1      -0.266   1.022   1.672  1.00  0.00     0.000 C 
BRANCH  22  23
HETATM   23  C17 UNL     1       1.184   1.338   1.295  1.00  0.00     0.000 C 
BRANCH  23  24
HETATM   24  C18 UNL     1       2.148   1.166   2.469  1.00  0.00     0.000 C 
HETATM   25  C25 UNL     1       3.525   1.770   2.193  1.00  0.00     0.000 C 
BRANCH  24  26
HETATM   26  C19 UNL     1       2.227  -0.279   2.963  1.00  0.00     0.000 C 
BRANCH  26  27
HETATM   27  C20 UNL     1       3.166  -0.443   4.158  1.00  0.00     0.000 C 
BRANCH  27  28
HETATM   28  C21 UNL     1       3.070  -1.830   4.797  1.00  0.00     0.000 C 
BRANCH  28  29
HETATM   29  C22 UNL     1       3.879  -1.941   6.088  1.00  0.00     0.000 C 
HETATM   30  C23 UNL     1       3.598  -3.236   6.852  1.00  0.00     0.000 C 
HETATM   31  C24 UNL     1       5.373  -1.695   5.873  1.00  0.00     0.000 C 
ENDBRANCH  28  29
ENDBRANCH  27  28
ENDBRANCH  26  27
ENDBRANCH  24  26
ENDBRANCH  23  24
ENDBRANCH  22  23
ENDBRANCH  21  22
ENDBRANCH  19  21
ENDBRANCH  18  19
ENDBRANCH  17  18
ENDBRANCH   1  17
TORSDOF 12
