REMARK  5 active torsions:
REMARK  status: ('A' for Active; 'I' for Inactive)
REMARK    1  A    between atoms: C3_3  and  O11_32 
REMARK    2  A    between atoms: C10_12  and  O9_29 
REMARK    3  A    between atoms: C11_13  and  O4_17 
REMARK    4  A    between atoms: O4_17  and  C14_18 
REMARK    5  A    between atoms: C18_22  and  C20_24 
ROOT
HETATM    1  C1  UNL     1       6.736  -1.746   1.076  1.00  0.00     0.030 A 
HETATM    2  C2  UNL     1       6.733  -0.459   0.496  1.00  0.00     0.028 A 
HETATM    3  C3  UNL     1       5.522   0.103   0.031  1.00  0.00     0.117 A 
HETATM    4  C4  UNL     1       4.311  -0.623   0.146  1.00  0.00     0.127 A 
HETATM    5  C5  UNL     1       4.311  -1.920   0.734  1.00  0.00     0.089 A 
HETATM    6  C6  UNL     1       5.533  -2.479   1.199  1.00  0.00     0.136 A 
HETATM    7  O1  UNL     1       5.568  -3.699   1.754  1.00  0.00    -0.190 OA
HETATM    8  C7  UNL     1       3.023  -2.686   0.861  1.00  0.00     0.203 A 
HETATM    9  C8  UNL     1       1.814  -1.965   0.328  1.00  0.00     0.089 A 
HETATM   10  C9  UNL     1       1.957  -0.668  -0.240  1.00  0.00     0.129 A 
HETATM   11  O2  UNL     1       3.164  -0.070  -0.305  1.00  0.00    -0.303 OA
HETATM   12  C10 UNL     1       0.824   0.012  -0.748  1.00  0.00     0.139 A 
HETATM   13  C11 UNL     1      -0.453  -0.596  -0.689  1.00  0.00     0.120 A 
HETATM   14  C12 UNL     1      -0.600  -1.881  -0.121  1.00  0.00     0.054 A 
HETATM   15  C13 UNL     1       0.527  -2.569   0.387  1.00  0.00     0.138 A 
HETATM   16  O3  UNL     1       0.359  -3.787   0.920  1.00  0.00    -0.190 OA
HETATM   17  O10 UNL     1       2.963  -3.791   1.352  1.00  0.00    -0.286 OA
ENDROOT
BRANCH  13  18
HETATM   18  O4  UNL     1      -1.527   0.047  -1.170  1.00  0.00    -0.329 OA
BRANCH  18  19
HETATM   19  C14 UNL     1      -2.701   0.074  -0.367  1.00  0.00     0.154 C 
HETATM   20  C15 UNL     1      -2.451   0.947   0.887  1.00  0.00     0.212 C 
HETATM   21  C16 UNL     1      -3.750   1.564   1.480  1.00  0.00     0.215 C 
HETATM   22  O8  UNL     1      -1.824   0.141   1.867  1.00  0.00    -0.218 OA
HETATM   23  C17 UNL     1      -5.027   0.773   1.107  1.00  0.00     0.188 C 
HETATM   24  O7  UNL     1      -3.897   2.885   0.990  1.00  0.00    -0.218 OA
HETATM   25  C18 UNL     1      -5.209   0.578  -0.426  1.00  0.00     0.069 C 
HETATM   26  O6  UNL     1      -4.967  -0.490   1.744  1.00  0.00    -0.221 OA
HETATM   27  C19 UNL     1      -3.873   0.605  -1.203  1.00  0.00     0.038 C 
BRANCH  25  28
HETATM   28  C20 UNL     1      -6.174   1.621  -1.004  1.00  0.00     0.185 C 
HETATM   29  O5  UNL     1      -6.479   1.252  -2.330  1.00  0.00    -0.221 OA
ENDBRANCH  25  28
ENDBRANCH  18  19
ENDBRANCH  13  18
BRANCH  12  30
HETATM   30  O9  UNL     1       0.959   1.232  -1.287  1.00  0.00    -0.324 OA
HETATM   31  C21 UNL     1       0.271   1.506  -2.498  1.00  0.00     0.182 C 
ENDBRANCH  12  30
BRANCH   3  32
HETATM   32  O11 UNL     1       5.524   1.324  -0.520  1.00  0.00    -0.326 OA
HETATM   33  C22 UNL     1       6.750   2.037  -0.561  1.00  0.00     0.181 C 
ENDBRANCH   3  32
TORSDOF 5
