REMARK  8 active torsions:
REMARK  status: ('A' for Active; 'I' for Inactive)
REMARK    1  A    between atoms: C1_1  and  C20_32 
REMARK    2  A    between atoms: C5_5  and  O2_7 
REMARK    3  A    between atoms: O2_7  and  C6_8 
REMARK    4  A    between atoms: C8_10  and  O9_27 
REMARK    5  A    between atoms: C9_11  and  O4_16 
REMARK    6  A    between atoms: C10_12  and  O3_14 
REMARK    7  A    between atoms: O4_16  and  C13_17 
REMARK    8  A    between atoms: C14_18  and  O8_25 
ROOT
HETATM    1  C6  UNL     1       0.334  -1.383   0.103  1.00  0.00     0.101 A 
HETATM    2  C7  UNL     1      -0.975  -0.902   0.277  1.00  0.00     0.051 A 
HETATM    3  C8  UNL     1      -1.285   0.434  -0.031  1.00  0.00     0.120 A 
HETATM    4  C9  UNL     1      -0.281   1.295  -0.516  1.00  0.00     0.139 A 
HETATM    5  C10 UNL     1       1.029   0.814  -0.690  1.00  0.00     0.120 A 
HETATM    6  C11 UNL     1       1.334  -0.521  -0.379  1.00  0.00     0.051 A 
ENDROOT
BRANCH   1   7
HETATM    7  O2  UNL     1       0.623  -2.637   0.392  1.00  0.00    -0.303 OA
BRANCH   7   8
HETATM    8  C5  UNL     1       0.125  -3.170   1.613  1.00  0.00     0.274 C 
HETATM    9  C4  UNL     1       0.746  -2.397   2.807  1.00  0.00     0.241 C 
HETATM   10  C3  UNL     1       0.975  -3.281   4.053  1.00  0.00     0.220 C 
HETATM   11  O10 UNL     1      -0.055  -1.270   3.115  1.00  0.00    -0.215 OA
HETATM   12  C2  UNL     1       1.865  -4.494   3.641  1.00  0.00     0.215 C 
HETATM   13  O11 UNL     1      -0.281  -3.697   4.572  1.00  0.00    -0.218 OA
HETATM   14  C1  UNL     1       1.725  -4.885   2.137  1.00  0.00     0.184 C 
HETATM   15  O12 UNL     1       1.660  -5.613   4.492  1.00  0.00    -0.218 OA
HETATM   16  O1  UNL     1       0.420  -4.563   1.676  1.00  0.00    -0.326 OA
BRANCH  14  17
HETATM   17  C20 UNL     1       1.980  -6.367   1.822  1.00  0.00     0.214 C 
HETATM   18  O13 UNL     1       2.068  -6.512   0.422  1.00  0.00    -0.218 OA
ENDBRANCH  14  17
ENDBRANCH   7   8
ENDBRANCH   1   7
BRANCH   3  19
HETATM   19  O9  UNL     1      -2.516   0.877   0.135  1.00  0.00    -0.326 OA
HETATM   20  C19 UNL     1      -3.492  -0.033   0.617  1.00  0.00     0.181 C 
ENDBRANCH   3  19
BRANCH   5  21
HETATM   21  O3  UNL     1       1.975   1.615  -1.143  1.00  0.00    -0.326 OA
HETATM   22  C12 UNL     1       3.254   1.055  -1.402  1.00  0.00     0.181 C 
ENDBRANCH   5  21
BRANCH   4  23
HETATM   23  O4  UNL     1      -0.570   2.547  -0.805  1.00  0.00    -0.321 OA
BRANCH  23  24
HETATM   24  C13 UNL     1      -0.455   2.963  -2.160  1.00  0.00     0.210 C 
HETATM   25  C14 UNL     1      -0.100   4.471  -2.180  1.00  0.00     0.267 C 
HETATM   26  O5  UNL     1      -1.213   5.256  -1.758  1.00  0.00    -0.326 OA
HETATM   27  C15 UNL     1      -2.408   5.094  -2.522  1.00  0.00     0.181 C 
HETATM   28  C16 UNL     1      -2.895   3.627  -2.494  1.00  0.00     0.214 C 
HETATM   29  C17 UNL     1      -1.779   2.637  -2.887  1.00  0.00     0.217 C 
HETATM   30  O7  UNL     1      -3.363   3.315  -1.195  1.00  0.00    -0.218 OA
HETATM   31  O6  UNL     1      -1.576   2.711  -4.285  1.00  0.00    -0.218 OA
BRANCH  25  32
HETATM   32  O8  UNL     1       0.373   4.859  -3.455  1.00  0.00    -0.326 OA
HETATM   33  C18 UNL     1       0.836   6.190  -3.492  1.00  0.00     0.177 C 
ENDBRANCH  25  32
ENDBRANCH  23  24
ENDBRANCH   4  23
TORSDOF 8
