REMARK  15 active torsions:
REMARK  status: ('A' for Active; 'I' for Inactive)
REMARK    1  A    between atoms: C1_1  and  O4_26 
REMARK    2  A    between atoms: C3_3  and  O3_24 
REMARK    3  A    between atoms: C5_5  and  C7_8 
REMARK    4  A    between atoms: C7_8  and  C8_9 
REMARK    5  A    between atoms: C8_9  and  C9_10 
REMARK    6  A    between atoms: C9_10  and  C10_11 
REMARK    7  A    between atoms: C10_11  and  C11_12 
REMARK    8  A    between atoms: C11_12  and  C12_13 
REMARK    9  A    between atoms: C12_13  and  C13_14 
REMARK   10  A    between atoms: C13_14  and  C14_15 
REMARK   11  A    between atoms: C14_15  and  C15_16 
REMARK   12  A    between atoms: C15_16  and  C16_17 
REMARK   13  A    between atoms: C17_18  and  C18_19 
REMARK   14  A    between atoms: C18_19  and  C19_20 
REMARK   15  A    between atoms: C19_20  and  C20_21 
ROOT
HETATM    1  C8  UNL     1       0.225  -1.393   3.963  1.00  0.00     0.005 C 
ENDROOT
BRANCH   1   2
HETATM    2  C7  UNL     1       0.789  -1.397   2.541  1.00  0.00     0.031 C 
BRANCH   2   3
HETATM    3  C5  UNL     1       2.277  -1.344   2.541  1.00  0.00     0.033 A 
HETATM    4  C4  UNL     1       2.934  -0.098   2.541  1.00  0.00     0.151 A 
HETATM    5  C3  UNL     1       4.340  -0.049   2.541  1.00  0.00     0.121 A 
HETATM    6  O2  UNL     1       2.238   1.021   2.541  1.00  0.00    -0.188 OA
HETATM    7  C2  UNL     1       5.082  -1.240   2.541  1.00  0.00     0.053 A 
HETATM    8  C1  UNL     1       4.428  -2.484   2.541  1.00  0.00     0.121 A 
HETATM    9  C6  UNL     1       3.023  -2.537   2.541  1.00  0.00     0.151 A 
HETATM   10  O1  UNL     1       2.410  -3.705   2.541  1.00  0.00    -0.188 OA
BRANCH   5  11
HETATM   11  O3  UNL     1       4.963   1.113   2.541  1.00  0.00    -0.326 OA
HETATM   12  C22 UNL     1       5.004   1.848   1.328  1.00  0.00     0.181 C 
ENDBRANCH   5  11
BRANCH   8  13
HETATM   13  O4  UNL     1       5.135  -3.598   2.541  1.00  0.00    -0.326 OA
HETATM   14  C23 UNL     1       6.547  -3.492   2.449  1.00  0.00     0.181 C 
ENDBRANCH   8  13
ENDBRANCH   2   3
ENDBRANCH   1   2
BRANCH   1  15
HETATM   15  C9  UNL     1      -1.291  -1.578   3.998  1.00  0.00     0.000 C 
BRANCH  15  16
HETATM   16  C10 UNL     1      -2.045  -0.412   3.356  1.00  0.00     0.000 C 
BRANCH  16  17
HETATM   17  C11 UNL     1      -2.527  -0.730   1.940  1.00  0.00     0.000 C 
BRANCH  17  18
HETATM   18  C12 UNL     1      -3.240   0.451   1.281  1.00  0.00     0.000 C 
BRANCH  18  19
HETATM   19  C13 UNL     1      -3.781   0.113  -0.109  1.00  0.00     0.000 C 
BRANCH  19  20
HETATM   20  C14 UNL     1      -2.676  -0.016  -1.158  1.00  0.00     0.005 C 
BRANCH  20  21
HETATM   21  C15 UNL     1      -3.219  -0.340  -2.549  1.00  0.00     0.026 C 
BRANCH  21  22
HETATM   22  C16 UNL     1      -4.057   0.777  -3.113  1.00  0.00    -0.031 C 
HETATM   23  C17 UNL     1      -3.469   1.676  -3.918  1.00  0.00    -0.031 C 
BRANCH  23  24
HETATM   24  C18 UNL     1      -2.002   1.522  -4.217  1.00  0.00     0.026 C 
BRANCH  24  25
HETATM   25  C19 UNL     1      -1.395   2.785  -4.828  1.00  0.00     0.005 C 
BRANCH  25  26
HETATM   26  C20 UNL     1      -1.561   2.844  -6.346  1.00  0.00     0.000 C 
HETATM   27  C21 UNL     1      -3.006   3.100  -6.773  1.00  0.00     0.000 C 
ENDBRANCH  25  26
ENDBRANCH  24  25
ENDBRANCH  23  24
ENDBRANCH  21  22
ENDBRANCH  20  21
ENDBRANCH  19  20
ENDBRANCH  18  19
ENDBRANCH  17  18
ENDBRANCH  16  17
ENDBRANCH  15  16
ENDBRANCH   1  15
TORSDOF 15
