REMARK  1 active torsions:
REMARK  status: ('A' for Active; 'I' for Inactive)
REMARK    1  A    between atoms: C3_3  and  C8_9 
ROOT
HETATM    1  C1  UNL     1      -0.604  -1.662  -0.488  1.00  0.00    -0.030 C 
HETATM    2  C2  UNL     1       0.742  -1.186  -0.981  1.00  0.00     0.056 C 
HETATM    3  C3  UNL     1       1.061   0.269  -0.545  1.00  0.00     0.134 C 
HETATM    4  C4  UNL     1      -0.189   1.201  -0.549  1.00  0.00     0.068 C 
HETATM    5  C5  UNL     1      -1.445   0.549  -1.168  1.00  0.00     0.173 C 
HETATM    6  C6  UNL     1      -1.662  -0.836  -0.586  1.00  0.00    -0.018 C 
HETATM    7  C7  UNL     1      -3.027  -1.285  -0.119  1.00  0.00     0.029 C 
HETATM    8  O1  UNL     1      -2.557   1.396  -0.951  1.00  0.00    -0.219 OA
HETATM    9  O2  UNL     1       2.014   0.785  -1.453  1.00  0.00    -0.226 OA
ENDROOT
BRANCH   3  10
HETATM   10  C8  UNL     1       1.750   0.287   0.824  1.00  0.00     0.029 C 
HETATM   11  C9  UNL     1       2.172   1.691   1.256  1.00  0.00     0.003 C 
HETATM   12  C10 UNL     1       0.945  -0.443   1.900  1.00  0.00     0.003 C 
ENDBRANCH   3  10
TORSDOF 1
