REMARK  4 active torsions:
REMARK  status: ('A' for Active; 'I' for Inactive)
REMARK    1  A    between atoms: C7_7  and  C10_12 
REMARK    2  A    between atoms: C16_21  and  C34_46 
REMARK    3  A    between atoms: C18_23  and  C19_24 
REMARK    4  A    between atoms: C25_31  and  C28_35 
ROOT
HETATM    1  C1  UNL     1       3.826   0.404   1.141  1.00  0.00     0.103 A 
HETATM    2  C2  UNL     1       2.900   1.414   1.475  1.00  0.00     0.052 A 
HETATM    3  C3  UNL     1       1.518   1.135   1.518  1.00  0.00     0.131 A 
HETATM    4  C4  UNL     1       1.035  -0.182   1.248  1.00  0.00     0.032 A 
HETATM    5  C5  UNL     1       1.971  -1.184   0.842  1.00  0.00     0.091 A 
HETATM    6  C6  UNL     1       3.361  -0.897   0.801  1.00  0.00     0.027 A 
HETATM    7  C7  UNL     1       4.352  -1.932   0.395  1.00  0.00     0.058 C 
HETATM    8  C8  UNL     1       5.733  -1.690   1.043  1.00  0.00     0.105 C 
HETATM    9  C9  UNL     1       6.109  -0.225   1.037  1.00  0.00     0.277 C 
HETATM   10  O1  UNL     1       5.145   0.703   1.147  1.00  0.00    -0.277 OA
HETATM   11  O2  UNL     1       7.276   0.080   0.938  1.00  0.00    -0.264 OA
HETATM   12  O5  UNL     1       1.568  -2.424   0.479  1.00  0.00    -0.327 OA
HETATM   13  C16 UNL     1       0.199  -2.695   0.160  1.00  0.00     0.174 C 
HETATM   14  C17 UNL     1      -0.689  -2.045   1.238  1.00  0.00     0.192 C 
HETATM   15  C18 UNL     1      -0.424  -0.520   1.369  1.00  0.00     0.086 C 
HETATM   16  O12 UNL     1      -2.061  -2.297   0.971  1.00  0.00    -0.220 OA
HETATM   17  O15 UNL     1       0.674   2.131   1.818  1.00  0.00    -0.190 OA
ENDROOT
BRANCH  15  18
HETATM   18  C19 UNL     1      -0.990  -0.020   2.635  1.00  0.00     0.032 A 
HETATM   19  C20 UNL     1      -0.359  -0.334   3.863  1.00  0.00     0.131 A 
HETATM   20  C21 UNL     1      -0.900   0.141   5.078  1.00  0.00     0.054 A 
HETATM   21  O11 UNL     1       0.754  -1.082   3.883  1.00  0.00    -0.190 OA
HETATM   22  C22 UNL     1      -2.070   0.934   5.072  1.00  0.00     0.131 A 
HETATM   23  C23 UNL     1      -2.705   1.260   3.846  1.00  0.00     0.028 A 
HETATM   24  O10 UNL     1      -2.572   1.377   6.235  1.00  0.00    -0.190 OA
HETATM   25  C24 UNL     1      -2.166   0.771   2.619  1.00  0.00     0.091 A 
HETATM   26  C27 UNL     1      -3.926   2.109   3.836  1.00  0.00     0.066 C 
HETATM   27  O6  UNL     1      -2.746   1.055   1.432  1.00  0.00    -0.327 OA
HETATM   28  C25 UNL     1      -4.059   1.625   1.365  1.00  0.00     0.174 C 
HETATM   29  C26 UNL     1      -4.227   2.715   2.449  1.00  0.00     0.188 C 
HETATM   30  O7  UNL     1      -3.342   3.801   2.213  1.00  0.00    -0.220 OA
BRANCH  28  31
HETATM   31  C28 UNL     1      -4.324   2.104  -0.018  1.00  0.00     0.010 A 
HETATM   32  C29 UNL     1      -3.285   2.664  -0.779  1.00  0.00     0.028 A 
HETATM   33  C30 UNL     1      -3.529   3.117  -2.086  1.00  0.00     0.156 A 
HETATM   34  C31 UNL     1      -4.822   3.008  -2.635  1.00  0.00     0.156 A 
HETATM   35  O9  UNL     1      -2.551   3.643  -2.795  1.00  0.00    -0.188 OA
HETATM   36  C32 UNL     1      -5.861   2.445  -1.871  1.00  0.00     0.029 A 
HETATM   37  O8  UNL     1      -5.061   3.430  -3.861  1.00  0.00    -0.188 OA
HETATM   38  C33 UNL     1      -5.613   1.994  -0.564  1.00  0.00     0.000 A 
ENDBRANCH  28  31
ENDBRANCH  15  18
BRANCH  13  39
HETATM   39  C34 UNL     1      -0.090  -2.242  -1.225  1.00  0.00     0.010 A 
HETATM   40  C35 UNL     1      -0.920  -3.012  -2.059  1.00  0.00     0.000 A 
HETATM   41  C36 UNL     1      -1.191  -2.580  -3.369  1.00  0.00     0.029 A 
HETATM   42  C37 UNL     1      -0.635  -1.381  -3.850  1.00  0.00     0.156 A 
HETATM   43  C38 UNL     1       0.197  -0.611  -3.016  1.00  0.00     0.156 A 
HETATM   44  O14 UNL     1      -0.893  -0.984  -5.080  1.00  0.00    -0.188 OA
HETATM   45  C39 UNL     1       0.469  -1.045  -1.705  1.00  0.00     0.028 A 
HETATM   46  O13 UNL     1       0.725   0.512  -3.457  1.00  0.00    -0.188 OA
ENDBRANCH  13  39
BRANCH   7  47
HETATM   47  C10 UNL     1       4.445  -1.951  -1.090  1.00  0.00    -0.016 A 
HETATM   48  C11 UNL     1       4.311  -3.164  -1.789  1.00  0.00    -0.002 A 
HETATM   49  C12 UNL     1       4.399  -3.178  -3.191  1.00  0.00     0.029 A 
HETATM   50  C13 UNL     1       4.619  -1.984  -3.898  1.00  0.00     0.156 A 
HETATM   51  C14 UNL     1       4.756  -0.770  -3.199  1.00  0.00     0.156 A 
HETATM   52  O4  UNL     1       4.701  -2.006  -5.215  1.00  0.00    -0.188 OA
HETATM   53  C15 UNL     1       4.666  -0.756  -1.797  1.00  0.00     0.026 A 
HETATM   54  O3  UNL     1       4.963   0.353  -3.855  1.00  0.00    -0.188 OA
ENDBRANCH   7  47
TORSDOF 4
