REMARK  7 active torsions:
REMARK  status: ('A' for Active; 'I' for Inactive)
REMARK    1  A    between atoms: C5_5  and  O2_7 
REMARK    2  A    between atoms: O2_7  and  C6_8 
REMARK    3  A    between atoms: C6_8  and  C7_9 
REMARK    4  A    between atoms: C11_13  and  O4_15 
REMARK    5  A    between atoms: O4_15  and  C12_16 
REMARK    6  A    between atoms: C14_18  and  O8_34 
REMARK    7  A    between atoms: C20_24  and  C21_26 
ROOT
HETATM    1  O4  UNL     1      -0.769   0.488  -0.687  1.00  0.00    -0.303 OA
ENDROOT
BRANCH   1   2
HETATM    2  C11 UNL     1      -1.797   0.000   0.164  1.00  0.00     0.274 C 
HETATM    3  C10 UNL     1      -2.008   0.928   1.395  1.00  0.00     0.241 C 
HETATM    4  C9  UNL     1      -2.590   0.176   2.623  1.00  0.00     0.220 C 
HETATM    5  O9  UNL     1      -0.787   1.537   1.781  1.00  0.00    -0.215 OA
HETATM    6  C8  UNL     1      -3.387  -1.059   2.149  1.00  0.00     0.215 C 
HETATM    7  O10 UNL     1      -3.412   1.058   3.369  1.00  0.00    -0.218 OA
HETATM    8  C7  UNL     1      -2.523  -2.010   1.264  1.00  0.00     0.180 C 
HETATM    9  O11 UNL     1      -3.938  -1.766   3.248  1.00  0.00    -0.218 OA
HETATM   10  O3  UNL     1      -1.471  -1.309   0.606  1.00  0.00    -0.326 OA
BRANCH   8  11
HETATM   11  C6  UNL     1      -1.838  -3.160   2.016  1.00  0.00     0.177 C 
BRANCH  11  12
HETATM   12  O2  UNL     1      -1.248  -4.020   1.067  1.00  0.00    -0.326 OA
BRANCH  12  13
HETATM   13  C5  UNL     1      -0.596  -5.129   1.651  1.00  0.00     0.270 C 
HETATM   14  C4  UNL     1      -0.266  -6.188   0.565  1.00  0.00     0.241 C 
HETATM   15  C3  UNL     1       0.600  -7.346   1.123  1.00  0.00     0.220 C 
HETATM   16  O12 UNL     1      -1.457  -6.696  -0.014  1.00  0.00    -0.215 OA
HETATM   17  C2  UNL     1       1.801  -6.785   1.912  1.00  0.00     0.215 C 
HETATM   18  O13 UNL     1      -0.156  -8.158   2.010  1.00  0.00    -0.218 OA
HETATM   19  C1  UNL     1       1.367  -5.684   2.912  1.00  0.00     0.181 C 
HETATM   20  O14 UNL     1       2.744  -6.248   1.002  1.00  0.00    -0.218 OA
HETATM   21  O1  UNL     1       0.606  -4.674   2.260  1.00  0.00    -0.326 OA
ENDBRANCH  12  13
ENDBRANCH  11  12
ENDBRANCH   8  11
ENDBRANCH   1   2
BRANCH   1  22
HETATM   22  C12 UNL     1      -0.896   1.730  -1.180  1.00  0.00     0.104 A 
HETATM   23  C13 UNL     1      -2.189   2.265  -1.387  1.00  0.00     0.049 A 
HETATM   24  C14 UNL     1      -2.344   3.574  -1.904  1.00  0.00     0.098 A 
HETATM   25  C15 UNL     1      -1.203   4.353  -2.215  1.00  0.00     0.049 A 
HETATM   26  C16 UNL     1       0.094   3.826  -2.012  1.00  0.00     0.107 A 
HETATM   27  C17 UNL     1       0.246   2.512  -1.492  1.00  0.00     0.084 A 
HETATM   28  O5  UNL     1       1.180   4.572  -2.308  1.00  0.00    -0.307 OA
HETATM   29  C18 UNL     1       1.623   1.982  -1.289  1.00  0.00     0.201 A 
HETATM   30  C19 UNL     1       2.715   2.908  -1.658  1.00  0.00     0.067 A 
HETATM   31  O7  UNL     1       1.940   0.894  -0.863  1.00  0.00    -0.286 OA
HETATM   32  C20 UNL     1       2.447   4.142  -2.142  1.00  0.00     0.103 A 
BRANCH  24  33
HETATM   33  O8  UNL     1      -3.570   4.078  -2.100  1.00  0.00    -0.328 OA
HETATM   34  C27 UNL     1      -4.684   3.244  -1.816  1.00  0.00     0.181 C 
ENDBRANCH  24  33
BRANCH  32  35
HETATM   35  C21 UNL     1       3.590   5.039  -2.496  1.00  0.00     0.023 A 
HETATM   36  C22 UNL     1       4.834   4.877  -1.865  1.00  0.00     0.004 A 
HETATM   37  C23 UNL     1       5.908   5.721  -2.199  1.00  0.00     0.028 A 
HETATM   38  C24 UNL     1       5.740   6.728  -3.166  1.00  0.00     0.131 A 
HETATM   39  C25 UNL     1       4.494   6.889  -3.797  1.00  0.00     0.028 A 
HETATM   40  O6  UNL     1       6.748   7.519  -3.478  1.00  0.00    -0.190 OA
HETATM   41  C26 UNL     1       3.420   6.045  -3.465  1.00  0.00     0.004 A 
ENDBRANCH  32  35
ENDBRANCH   1  22
TORSDOF 7
