REMARK  3 active torsions:
REMARK  status: ('A' for Active; 'I' for Inactive)
REMARK    1  A    between atoms: C2_2  and  C3_3 
REMARK    2  A    between atoms: C3_3  and  C5_5 
REMARK    3  A    between atoms: C7_8  and  C9_12 
ROOT
HETATM    1  C5  UNL     1      -1.037  -0.145   0.566  1.00  0.00     0.186 C 
HETATM    2  C6  UNL     1      -0.485   1.262   0.381  1.00  0.00     0.274 C 
HETATM    3  N1  UNL     1       0.849   1.510   0.613  1.00  0.00    -0.229 NA
HETATM    4  C7  UNL     1       1.754   0.410   1.035  1.00  0.00     0.186 C 
HETATM    5  C8  UNL     1       1.305  -0.959   0.541  1.00  0.00     0.274 C 
HETATM    6  N2  UNL     1      -0.029  -1.209   0.324  1.00  0.00    -0.229 NA
HETATM    7  O1  UNL     1       2.115  -1.834   0.336  1.00  0.00    -0.268 OA
HETATM    8  O2  UNL     1      -1.205   2.166   0.033  1.00  0.00    -0.268 OA
ENDROOT
BRANCH   1   9
HETATM    9  C3  UNL     1      -2.262  -0.383  -0.326  1.00  0.00     0.032 C 
HETATM   10  C4  UNL     1      -1.910  -0.424  -1.813  1.00  0.00     0.003 C 
BRANCH   9  11
HETATM   11  C2  UNL     1      -3.088  -1.592   0.119  1.00  0.00     0.002 C 
HETATM   12  C1  UNL     1      -4.457  -1.652  -0.563  1.00  0.00     0.000 C 
ENDBRANCH   9  11
ENDBRANCH   1   9
BRANCH   4  13
HETATM   13  C9  UNL     1       3.187   0.721   0.590  1.00  0.00     0.032 C 
HETATM   14  C10 UNL     1       3.340   0.762  -0.930  1.00  0.00     0.003 C 
HETATM   15  C11 UNL     1       3.760   1.965   1.273  1.00  0.00     0.003 C 
ENDBRANCH   4  13
TORSDOF 3
