REMARK  3 active torsions:
REMARK  status: ('A' for Active; 'I' for Inactive)
REMARK    1  A    between atoms: C5_5  and  C9_9 
REMARK    2  A    between atoms: C9_9  and  C10_10 
REMARK    3  A    between atoms: C10_10  and  C11_11 
ROOT
HETATM    1  C1  UNL     1      -1.988  -0.955   0.476  1.00  0.00     0.034 C 
HETATM    2  C2  UNL     1      -2.713   0.383   0.689  1.00  0.00     0.155 C 
HETATM    3  C3  UNL     1      -1.725   1.496   1.076  1.00  0.00     0.064 C 
HETATM    4  C4  UNL     1      -0.522   1.625   0.113  1.00  0.00     0.140 C 
HETATM    5  C5  UNL     1       0.142   0.270  -0.141  1.00  0.00     0.085 C 
HETATM    6  C6  UNL     1      -0.783  -0.896  -0.494  1.00  0.00     0.015 C 
HETATM    7  C7  UNL     1      -0.067  -2.256  -0.430  1.00  0.00     0.001 C 
HETATM    8  C8  UNL     1      -1.266  -0.711  -1.938  1.00  0.00     0.001 C 
HETATM    9  C13 UNL     1      -0.924   2.272  -1.215  1.00  0.00     0.034 C 
HETATM   10  O2  UNL     1       0.365   2.555   0.715  1.00  0.00    -0.225 OA
HETATM   11  O3  UNL     1      -3.430   0.746  -0.475  1.00  0.00    -0.223 OA
ENDROOT
BRANCH   5  12
HETATM   12  C9  UNL     1       1.480   0.096  -0.068  1.00  0.00    -0.123 C 
BRANCH  12  13
HETATM   13  C10 UNL     1       2.810  -0.076   0.004  1.00  0.00     0.074 C 
BRANCH  13  14
HETATM   14  C11 UNL     1       3.428  -0.744   1.156  1.00  0.00     0.181 C 
HETATM   15  C12 UNL     1       4.924  -0.904   1.180  1.00  0.00     0.078 C 
HETATM   16  O1  UNL     1       2.744  -1.156   2.062  1.00  0.00    -0.291 OA
ENDBRANCH  13  14
ENDBRANCH  12  13
ENDBRANCH   5  12
TORSDOF 3
