REMARK  2 active torsions:
REMARK  status: ('A' for Active; 'I' for Inactive)
REMARK    1  A    between atoms: C3_3  and  C20_22 
REMARK    2  A    between atoms: C15_15  and  C17_17 
ROOT
HETATM    1  C1  UNL     1      -3.008   1.830  -0.115  1.00  0.00     0.001 C 
HETATM    2  C2  UNL     1      -3.406   0.648   0.778  1.00  0.00     0.010 C 
HETATM    3  C3  UNL     1      -2.801  -0.686   0.295  1.00  0.00     0.078 C 
HETATM    4  C4  UNL     1      -1.258  -0.547   0.131  1.00  0.00     0.010 C 
HETATM    5  C5  UNL     1      -0.803   0.662  -0.740  1.00  0.00     0.001 C 
HETATM    6  C6  UNL     1      -1.484   1.951  -0.222  1.00  0.00     0.000 C 
HETATM    7  C7  UNL     1       0.766   0.803  -0.760  1.00  0.00     0.000 C 
HETATM    8  C8  UNL     1       1.524  -0.494  -0.361  1.00  0.00     0.001 C 
HETATM    9  C9  UNL     1       0.811  -1.723  -0.930  1.00  0.00     0.000 C 
HETATM   10  C10 UNL     1      -0.582  -1.879  -0.293  1.00  0.00     0.001 C 
HETATM   11  C11 UNL     1       2.959  -0.375  -0.890  1.00  0.00     0.001 C 
HETATM   12  C12 UNL     1       3.553   0.643   0.082  1.00  0.00     0.010 C 
HETATM   13  C13 UNL     1       2.912   2.025  -0.129  1.00  0.00     0.001 C 
HETATM   14  C14 UNL     1       1.381   1.980   0.028  1.00  0.00     0.000 C 
HETATM   15  C15 UNL     1       3.168   0.037   1.436  1.00  0.00     0.087 C 
HETATM   16  C16 UNL     1       1.834  -0.670   1.145  1.00  0.00     0.011 C 
HETATM   17  C18 UNL     1      -1.273   0.430  -2.187  1.00  0.00     0.000 C 
HETATM   18  C19 UNL     1      -3.121  -1.774   1.326  1.00  0.00     0.011 C 
ENDROOT
BRANCH   3  19
HETATM   19  C20 UNL     1      -3.480  -1.102  -0.988  1.00  0.00     0.184 C 
HETATM   20  O3  UNL     1      -3.186  -2.135  -1.541  1.00  0.00    -0.647 OA
HETATM   21  O4  UNL     1      -4.398  -0.254  -1.443  1.00  0.00    -0.647 OA
ENDBRANCH   3  19
BRANCH  15  22
HETATM   22  C17 UNL     1       4.223  -0.906   1.965  1.00  0.00     0.185 C 
HETATM   23  O1  UNL     1       4.451  -1.957   1.412  1.00  0.00    -0.647 OA
HETATM   24  O2  UNL     1       4.856  -0.494   3.059  1.00  0.00    -0.647 OA
ENDBRANCH  15  22
TORSDOF 2
