REMARK  2 active torsions:
REMARK  status: ('A' for Active; 'I' for Inactive)
REMARK    1  A    between atoms: C2_2  and  O5_32 
REMARK    2  A    between atoms: O5_32  and  C28_33 
ROOT
HETATM    1  C1  UNL     1       2.818  -1.070   1.361  1.00  0.00     0.030 C 
HETATM    2  C2  UNL     1       3.725  -0.752   0.160  1.00  0.00     0.118 C 
HETATM    3  C3  UNL     1       3.041  -1.088  -1.205  1.00  0.00     0.025 C 
HETATM    4  C4  UNL     1       1.484  -1.137  -1.082  1.00  0.00     0.007 C 
HETATM    5  C5  UNL     1       0.959  -0.086  -0.086  1.00  0.00     0.006 A 
HETATM    6  C6  UNL     1       1.520  -0.246   1.340  1.00  0.00     0.003 C 
HETATM    7  C7  UNL     1      -0.475   0.443  -0.240  1.00  0.00     0.043 A 
HETATM    8  C8  UNL     1      -1.322  -0.242  -1.324  1.00  0.00    -0.047 C 
HETATM    9  C9  UNL     1      -0.740  -0.938  -2.328  1.00  0.00    -0.035 C 
HETATM   10  C10 UNL     1       0.756  -1.076  -2.442  1.00  0.00     0.025 C 
HETATM   11  C11 UNL     1      -2.850  -0.137  -1.272  1.00  0.00     0.018 C 
HETATM   12  C12 UNL     1      -3.490   0.039   0.146  1.00  0.00     0.008 C 
HETATM   13  C13 UNL     1      -2.443   0.027   1.279  1.00  0.00     0.034 C 
HETATM   14  C14 UNL     1      -1.244   0.941   0.998  1.00  0.00     0.155 C 
HETATM   15  O1  UNL     1      -1.664   2.277   0.789  1.00  0.00    -0.223 OA
HETATM   16  C15 UNL     1      -4.438  -1.176   0.346  1.00  0.00     0.032 C 
HETATM   17  C16 UNL     1      -4.898  -1.541  -1.074  1.00  0.00     0.162 C 
HETATM   18  C17 UNL     1      -3.559  -1.402  -1.805  1.00  0.00     0.037 C 
HETATM   19  C18 UNL     1      -6.043  -0.629  -1.578  1.00  0.00     0.236 C 
HETATM   20  C19 UNL     1      -7.195  -0.615  -0.596  1.00  0.00     0.183 C 
HETATM   21  C20 UNL     1      -6.828  -0.250   0.822  1.00  0.00     0.067 C 
HETATM   22  C21 UNL     1      -5.605  -1.029   1.355  1.00  0.00     0.010 C 
HETATM   23  C22 UNL     1      -6.025  -2.436   1.807  1.00  0.00     0.001 C 
HETATM   24  O2  UNL     1      -8.334  -0.883  -0.906  1.00  0.00    -0.293 OA
HETATM   25  O3  UNL     1      -6.463  -1.012  -2.879  1.00  0.00    -0.213 OA
HETATM   26  O4  UNL     1      -5.309  -2.904  -1.109  1.00  0.00    -0.223 OA
HETATM   27  C23 UNL     1      -4.307   1.334   0.230  1.00  0.00     0.001 C 
HETATM   28  C24 UNL     1      -3.228   0.992  -2.238  1.00  0.00     0.004 C 
HETATM   29  C25 UNL     1       0.717   1.307  -0.633  1.00  0.00     0.007 A 
HETATM   30  C26 UNL     1       3.510  -2.481  -1.649  1.00  0.00     0.002 C 
HETATM   31  C27 UNL     1       3.488  -0.111  -2.311  1.00  0.00     0.002 C 
ENDROOT
BRANCH   2  32
HETATM   32  O5  UNL     1       4.084   0.619   0.252  1.00  0.00    -0.332 OA
BRANCH  32  33
HETATM   33  C28 UNL     1       5.129   0.863   1.172  1.00  0.00     0.270 C 
HETATM   34  C29 UNL     1       5.221   2.375   1.504  1.00  0.00     0.241 C 
HETATM   35  C30 UNL     1       6.451   2.678   2.389  1.00  0.00     0.220 C 
HETATM   36  O9  UNL     1       4.043   2.781   2.184  1.00  0.00    -0.215 OA
HETATM   37  C31 UNL     1       7.713   2.049   1.758  1.00  0.00     0.215 C 
HETATM   38  O8  UNL     1       6.625   4.080   2.510  1.00  0.00    -0.218 OA
HETATM   39  C32 UNL     1       7.490   0.560   1.432  1.00  0.00     0.181 C 
HETATM   40  O7  UNL     1       8.811   2.150   2.648  1.00  0.00    -0.218 OA
HETATM   41  O6  UNL     1       6.352   0.420   0.596  1.00  0.00    -0.326 OA
ENDBRANCH  32  33
ENDBRANCH   2  32
TORSDOF 2
