REMARK  5 active torsions:
REMARK  status: ('A' for Active; 'I' for Inactive)
REMARK    1  A    between atoms: C15_15  and  C18_18 
REMARK    2  A    between atoms: C18_18  and  C20_20 
REMARK    3  A    between atoms: C20_20  and  C21_21 
REMARK    4  A    between atoms: C21_21  and  C22_22 
REMARK    5  A    between atoms: C22_22  and  C23_23 
ROOT
HETATM    1  C1  UNL     1       5.176   1.387  -0.600  1.00  0.00     0.033 C 
HETATM    2  C2  UNL     1       5.807   0.004  -0.832  1.00  0.00     0.152 C 
HETATM    3  C3  UNL     1       4.894  -1.164  -0.330  1.00  0.00     0.028 C 
HETATM    4  C4  UNL     1       3.408  -0.701  -0.180  1.00  0.00     0.002 C 
HETATM    5  C5  UNL     1       2.943   0.248  -1.320  1.00  0.00     0.000 C 
HETATM    6  C6  UNL     1       3.803   1.551  -1.285  1.00  0.00     0.003 C 
HETATM    7  C7  UNL     1       1.402   0.535  -1.229  1.00  0.00     0.000 C 
HETATM    8  C8  UNL     1       0.576  -0.803  -1.350  1.00  0.00     0.000 C 
HETATM    9  C9  UNL     1       1.391  -2.078  -1.012  1.00  0.00     0.000 C 
HETATM   10  C10 UNL     1       2.424  -1.861   0.104  1.00  0.00     0.000 C 
HETATM   11  C11 UNL     1      -0.744  -0.797  -0.523  1.00  0.00     0.000 C 
HETATM   12  C12 UNL     1      -1.420   0.584  -0.586  1.00  0.00     0.000 C 
HETATM   13  C13 UNL     1      -0.529   1.600   0.158  1.00  0.00     0.000 C 
HETATM   14  C14 UNL     1       0.982   1.270   0.078  1.00  0.00     0.000 C 
HETATM   15  C15 UNL     1      -2.789   0.291   0.051  1.00  0.00     0.000 C 
HETATM   16  C16 UNL     1      -3.164  -1.074  -0.547  1.00  0.00     0.000 C 
HETATM   17  C17 UNL     1      -1.861  -1.701  -1.061  1.00  0.00     0.000 C 
HETATM   18  C26 UNL     1      -1.693   1.020  -2.035  1.00  0.00     0.000 C 
HETATM   19  C27 UNL     1      -0.549  -1.225   0.941  1.00  0.00     0.000 C 
HETATM   20  C28 UNL     1       1.060   1.473  -2.402  1.00  0.00     0.000 C 
HETATM   21  C29 UNL     1       3.213  -0.424  -2.682  1.00  0.00     0.000 C 
HETATM   22  C30 UNL     1       5.391  -1.602   1.057  1.00  0.00     0.003 C 
HETATM   23  C31 UNL     1       4.996  -2.406  -1.238  1.00  0.00     0.003 C 
HETATM   24  O2  UNL     1       6.119  -0.101  -2.211  1.00  0.00    -0.224 OA
ENDROOT
BRANCH  15  25
HETATM   25  C18 UNL     1      -3.858   1.358  -0.193  1.00  0.00     0.000 C 
HETATM   26  C19 UNL     1      -3.305   2.731   0.191  1.00  0.00     0.000 C 
BRANCH  25  27
HETATM   27  C20 UNL     1      -5.125   0.992   0.578  1.00  0.00     0.003 C 
BRANCH  27  28
HETATM   28  C21 UNL     1      -5.238   1.734   1.910  1.00  0.00     0.037 C 
BRANCH  28  29
HETATM   29  C22 UNL     1      -4.397   1.096   3.016  1.00  0.00     0.171 C 
HETATM   30  O1  UNL     1      -4.479   1.914   4.160  1.00  0.00    -0.219 OA
BRANCH  29  31
HETATM   31  C23 UNL     1      -4.858  -0.295   3.357  1.00  0.00    -0.014 C 
HETATM   32  C24 UNL     1      -6.158  -0.488   3.635  1.00  0.00    -0.007 C 
HETATM   33  C25 UNL     1      -3.930  -1.478   3.400  1.00  0.00     0.029 C 
ENDBRANCH  29  31
ENDBRANCH  28  29
ENDBRANCH  27  28
ENDBRANCH  25  27
ENDBRANCH  15  25
TORSDOF 5
