REMARK  1 active torsions:
REMARK  status: ('A' for Active; 'I' for Inactive)
REMARK    1  A    between atoms: C2_2  and  C9_9 
ROOT
HETATM    1  C1  UNL     1       1.084  -1.000  -0.221  1.00  0.00     0.127 A 
HETATM    2  C2  UNL     1      -0.324  -1.049  -0.221  1.00  0.00     0.003 A 
HETATM    3  C3  UNL     1      -1.068   0.145  -0.221  1.00  0.00    -0.007 A 
HETATM    4  C4  UNL     1      -0.414   1.389  -0.221  1.00  0.00    -0.026 A 
HETATM    5  C5  UNL     1       0.994   1.439  -0.221  1.00  0.00    -0.024 A 
HETATM    6  C6  UNL     1       1.736   0.246  -0.221  1.00  0.00     0.022 A 
HETATM    7  C7  UNL     1       1.705   2.746  -0.221  1.00  0.00     0.031 C 
HETATM    8  C8  UNL     1      -1.221   2.639  -0.221  1.00  0.00     0.031 C 
HETATM    9  O1  UNL     1       1.793  -2.111  -0.221  1.00  0.00    -0.191 OA
ENDROOT
BRANCH   2  10
HETATM   10  C9  UNL     1      -1.029  -2.357  -0.221  1.00  0.00     0.028 C 
HETATM   11  C10 UNL     1      -1.033  -2.996   1.168  1.00  0.00     0.005 C 
ENDBRANCH   2  10
TORSDOF 1
