REMARK  7 active torsions:
REMARK  status: ('A' for Active; 'I' for Inactive)
REMARK    1  A    between atoms: C4_4  and  C7_7 
REMARK    2  A    between atoms: C7_7  and  C8_8 
REMARK    3  A    between atoms: C8_8  and  C9_9 
REMARK    4  A    between atoms: C10_10  and  C22_25 
REMARK    5  A    between atoms: C14_14  and  C15_15 
REMARK    6  A    between atoms: C15_15  and  C16_16 
REMARK    7  A    between atoms: C22_25  and  C23_26 
ROOT
HETATM    1  C9  UNL     1       1.079   0.416  -0.316  1.00  0.00    -0.025 A 
HETATM    2  C10 UNL     1       1.811   1.620  -0.297  1.00  0.00     0.004 A 
HETATM    3  C11 UNL     1       3.218   1.588  -0.278  1.00  0.00     0.129 A 
HETATM    4  C12 UNL     1       3.888   0.353  -0.278  1.00  0.00     0.054 A 
HETATM    5  C13 UNL     1       3.164  -0.851  -0.297  1.00  0.00     0.129 A 
HETATM    6  C14 UNL     1       1.757  -0.820  -0.316  1.00  0.00     0.004 A 
HETATM    7  O2  UNL     1       3.810  -2.001  -0.297  1.00  0.00    -0.190 OA
HETATM    8  O3  UNL     1       3.914   2.709  -0.259  1.00  0.00    -0.190 OA
ENDROOT
BRANCH   1   9
HETATM    9  C8  UNL     1      -0.410   0.449  -0.336  1.00  0.00     0.030 C 
BRANCH   9  10
HETATM   10  C7  UNL     1      -0.999   0.130   1.039  1.00  0.00     0.031 C 
BRANCH  10  11
HETATM   11  C4  UNL     1      -2.444  -0.209   0.950  1.00  0.00    -0.020 A 
HETATM   12  C3  UNL     1      -3.406   0.816   0.915  1.00  0.00     0.023 A 
HETATM   13  C2  UNL     1      -4.774   0.499   0.831  1.00  0.00     0.131 A 
HETATM   14  C1  UNL     1      -5.176  -0.848   0.782  1.00  0.00     0.027 A 
HETATM   15  O5  UNL     1      -5.676   1.459   0.799  1.00  0.00    -0.190 OA
HETATM   16  C6  UNL     1      -4.216  -1.873   0.816  1.00  0.00     0.002 A 
HETATM   17  C5  UNL     1      -2.850  -1.554   0.900  1.00  0.00    -0.004 A 
ENDBRANCH  10  11
ENDBRANCH   9  10
ENDBRANCH   1   9
BRANCH   2  18
HETATM   18  C22 UNL     1       1.102   2.930  -0.296  1.00  0.00     0.054 C 
BRANCH  18  19
HETATM   19  C23 UNL     1       0.425   3.126   1.012  1.00  0.00    -0.018 A 
HETATM   20  C24 UNL     1       1.118   2.868   2.208  1.00  0.00    -0.002 A 
HETATM   21  C25 UNL     1       0.477   3.054   3.445  1.00  0.00     0.027 A 
HETATM   22  C26 UNL     1      -0.856   3.499   3.492  1.00  0.00     0.131 A 
HETATM   23  C27 UNL     1      -1.546   3.757   2.294  1.00  0.00     0.027 A 
HETATM   24  O4  UNL     1      -1.456   3.673   4.653  1.00  0.00    -0.190 OA
HETATM   25  C28 UNL     1      -0.908   3.571   1.056  1.00  0.00    -0.002 A 
ENDBRANCH  18  19
ENDBRANCH   2  18
BRANCH   6  26
HETATM   26  C15 UNL     1       0.990  -2.097  -0.336  1.00  0.00     0.054 C 
BRANCH  26  27
HETATM   27  C16 UNL     1       1.218  -2.790  -1.631  1.00  0.00    -0.018 A 
HETATM   28  C17 UNL     1       0.651  -2.280  -2.812  1.00  0.00    -0.002 A 
HETATM   29  C18 UNL     1       0.866  -2.938  -4.035  1.00  0.00     0.027 A 
HETATM   30  C19 UNL     1       1.649  -4.105  -4.083  1.00  0.00     0.131 A 
HETATM   31  C20 UNL     1       2.214  -4.613  -2.900  1.00  0.00     0.027 A 
HETATM   32  O1  UNL     1       1.850  -4.721  -5.231  1.00  0.00    -0.190 OA
HETATM   33  C21 UNL     1       2.000  -3.958  -1.676  1.00  0.00    -0.002 A 
ENDBRANCH  26  27
ENDBRANCH   6  26
TORSDOF 7
