REMARK  4 active torsions:
REMARK  status: ('A' for Active; 'I' for Inactive)
REMARK    1  A    between atoms: C1_1  and  O2_4 
REMARK    2  A    between atoms: O2_4  and  C3_5 
REMARK    3  A    between atoms: C3_5  and  C4_6 
REMARK    4  A    between atoms: C4_6  and  C5_7 
ROOT
HETATM    1  C5  UNL     1       0.242  -0.463  -1.287  1.00  0.00    -0.020 A 
HETATM    2  C6  UNL     1      -1.164  -0.514  -1.287  1.00  0.00    -0.004 A 
HETATM    3  C7  UNL     1      -1.820  -1.756  -1.287  1.00  0.00    -0.000 A 
HETATM    4  C8  UNL     1      -1.074  -2.947  -1.287  1.00  0.00    -0.000 A 
HETATM    5  C9  UNL     1       0.330  -2.897  -1.287  1.00  0.00    -0.000 A 
HETATM    6  C10 UNL     1       0.988  -1.654  -1.287  1.00  0.00    -0.004 A 
ENDROOT
BRANCH   1   7
HETATM    7  C4  UNL     1       0.937   0.851  -1.287  1.00  0.00     0.059 C 
BRANCH   7   8
HETATM    8  C3  UNL     1       1.301   1.297   0.131  1.00  0.00     0.157 C 
BRANCH   8   9
HETATM    9  O2  UNL     1       0.113   1.463   0.893  1.00  0.00    -0.301 OA
BRANCH   9  10
HETATM   10  C1  UNL     1       0.363   1.850   2.141  1.00  0.00     0.272 C 
HETATM   11  C2  UNL     1      -0.854   2.045   3.004  1.00  0.00     0.106 C 
HETATM   12  O1  UNL     1       1.473   2.039   2.577  1.00  0.00    -0.264 OA
ENDBRANCH   9  10
ENDBRANCH   8   9
ENDBRANCH   7   8
ENDBRANCH   1   7
TORSDOF 4
