REMARK  14 active torsions:
REMARK  status: ('A' for Active; 'I' for Inactive)
REMARK    1  A    between atoms: C2_2  and  O20_68 
REMARK    2  A    between atoms: C3_3  and  C47_64 
REMARK    3  A    between atoms: C16_16  and  C25_25 
REMARK    4  A    between atoms: C25_25  and  O2_27 
REMARK    5  A    between atoms: O2_27  and  C26_28 
REMARK    6  A    between atoms: C27_30  and  C37_48 
REMARK    7  A    between atoms: C29_32  and  O5_35 
REMARK    8  A    between atoms: O5_35  and  C31_36 
REMARK    9  A    between atoms: C32_38  and  C36_45 
REMARK   10  A    between atoms: C37_48  and  O12_49 
REMARK   11  A    between atoms: O12_49  and  C38_50 
REMARK   12  A    between atoms: C42_54  and  C43_56 
REMARK   13  A    between atoms: O20_68  and  C49_69 
REMARK   14  A    between atoms: C53_73  and  C54_75 
ROOT
HETATM    1  C1  UNL     1       6.502  -2.340  -3.746  1.00  0.00     0.030 C 
HETATM    2  C2  UNL     1       7.065  -2.248  -2.320  1.00  0.00     0.128 C 
HETATM    3  C3  UNL     1       6.547  -0.994  -1.570  1.00  0.00     0.103 C 
HETATM    4  C4  UNL     1       4.986  -0.977  -1.590  1.00  0.00     0.012 C 
HETATM    5  C5  UNL     1       4.354  -1.125  -3.008  1.00  0.00     0.001 C 
HETATM    6  C6  UNL     1       4.969  -2.352  -3.727  1.00  0.00     0.003 C 
HETATM    7  C7  UNL     1       2.779  -1.219  -2.938  1.00  0.00     0.005 C 
HETATM    8  C8  UNL     1       2.150  -0.691  -1.619  1.00  0.00     0.004 C 
HETATM    9  C9  UNL     1       2.930   0.551  -1.154  1.00  0.00     0.000 C 
HETATM   10  C10 UNL     1       4.399   0.232  -0.812  1.00  0.00     0.001 C 
HETATM   11  C11 UNL     1       0.625  -0.398  -1.836  1.00  0.00     0.015 C 
HETATM   12  C12 UNL     1      -0.055  -1.488  -2.658  1.00  0.00    -0.049 C 
HETATM   13  C13 UNL     1       0.627  -2.506  -3.240  1.00  0.00    -0.035 C 
HETATM   14  C14 UNL     1       2.139  -2.590  -3.246  1.00  0.00     0.025 C 
HETATM   15  C15 UNL     1      -1.555  -1.367  -2.889  1.00  0.00     0.027 C 
HETATM   16  C16 UNL     1      -2.102   0.080  -2.789  1.00  0.00     0.082 C 
HETATM   17  C17 UNL     1      -1.021   1.047  -3.322  1.00  0.00     0.010 C 
HETATM   18  C18 UNL     1       0.340   0.951  -2.572  1.00  0.00     0.004 C 
HETATM   19  C19 UNL     1      -3.426   0.131  -3.596  1.00  0.00     0.010 C 
HETATM   20  C20 UNL     1      -4.229  -1.199  -3.557  1.00  0.00     0.001 C 
HETATM   21  C21 UNL     1      -3.969  -2.096  -2.318  1.00  0.00     0.000 C 
HETATM   22  C22 UNL     1      -2.445  -2.363  -2.121  1.00  0.00     0.004 C 
HETATM   23  C23 UNL     1      -4.570  -1.432  -1.074  1.00  0.00     0.000 C 
HETATM   24  C24 UNL     1      -4.703  -3.430  -2.504  1.00  0.00     0.000 C 
HETATM   25  C44 UNL     1      -0.025  -0.357  -0.439  1.00  0.00     0.004 C 
HETATM   26  C45 UNL     1       2.293  -1.770  -0.516  1.00  0.00     0.000 C 
HETATM   27  C46 UNL     1       4.715   0.127  -3.830  1.00  0.00     0.000 C 
HETATM   28  C48 UNL     1       7.121   0.291  -2.189  1.00  0.00     0.013 C 
ENDROOT
BRANCH  16  29
HETATM   29  C25 UNL     1      -2.445   0.523  -1.383  1.00  0.00     0.273 C 
HETATM   30  O1  UNL     1      -2.514  -0.273  -0.477  1.00  0.00    -0.264 OA
BRANCH  29  31
HETATM   31  O2  UNL     1      -2.660   1.828  -1.236  1.00  0.00    -0.273 OA
BRANCH  31  32
HETATM   32  C26 UNL     1      -2.879   2.193   0.119  1.00  0.00     0.276 C 
HETATM   33  O3  UNL     1      -4.172   1.754   0.510  1.00  0.00    -0.326 OA
HETATM   34  C27 UNL     1      -4.510   2.010   1.867  1.00  0.00     0.180 C 
HETATM   35  C28 UNL     1      -4.498   3.535   2.119  1.00  0.00     0.211 C 
HETATM   36  C29 UNL     1      -3.147   4.164   1.713  1.00  0.00     0.186 C 
HETATM   37  O11 UNL     1      -4.742   3.770   3.494  1.00  0.00    -0.218 OA
HETATM   38  C30 UNL     1      -2.779   3.725   0.277  1.00  0.00     0.238 C 
HETATM   39  O4  UNL     1      -1.457   4.127  -0.029  1.00  0.00    -0.215 OA
BRANCH  34  40
HETATM   40  C37 UNL     1      -5.881   1.375   2.109  1.00  0.00     0.177 C 
BRANCH  40  41
HETATM   41  O12 UNL     1      -5.690   0.014   2.418  1.00  0.00    -0.326 OA
BRANCH  41  42
HETATM   42  C38 UNL     1      -6.899  -0.682   2.650  1.00  0.00     0.270 C 
HETATM   43  C39 UNL     1      -6.623  -2.193   2.859  1.00  0.00     0.241 C 
HETATM   44  C40 UNL     1      -7.912  -2.941   3.268  1.00  0.00     0.220 C 
HETATM   45  O17 UNL     1      -6.119  -2.750   1.656  1.00  0.00    -0.215 OA
HETATM   46  C41 UNL     1      -8.594  -2.209   4.445  1.00  0.00     0.215 C 
HETATM   47  O16 UNL     1      -7.598  -4.272   3.647  1.00  0.00    -0.218 OA
HETATM   48  C42 UNL     1      -8.772  -0.703   4.147  1.00  0.00     0.184 C 
HETATM   49  O15 UNL     1      -9.869  -2.777   4.690  1.00  0.00    -0.218 OA
HETATM   50  O13 UNL     1      -7.512  -0.139   3.811  1.00  0.00    -0.326 OA
BRANCH  48  51
HETATM   51  C43 UNL     1      -9.303   0.086   5.348  1.00  0.00     0.214 C 
HETATM   52  O14 UNL     1      -9.582   1.400   4.922  1.00  0.00    -0.218 OA
ENDBRANCH  48  51
ENDBRANCH  41  42
ENDBRANCH  40  41
ENDBRANCH  34  40
BRANCH  36  53
HETATM   53  O5  UNL     1      -3.232   5.578   1.775  1.00  0.00    -0.326 OA
BRANCH  53  54
HETATM   54  C31 UNL     1      -3.094   6.088   3.088  1.00  0.00     0.270 C 
HETATM   55  O6  UNL     1      -4.354   6.594   3.508  1.00  0.00    -0.326 OA
HETATM   56  C32 UNL     1      -4.387   7.096   4.836  1.00  0.00     0.184 C 
HETATM   57  C33 UNL     1      -3.406   8.285   4.959  1.00  0.00     0.215 C 
HETATM   58  C34 UNL     1      -1.982   7.889   4.512  1.00  0.00     0.220 C 
HETATM   59  O9  UNL     1      -3.383   8.717   6.309  1.00  0.00    -0.218 OA
HETATM   60  C35 UNL     1      -2.033   7.217   3.121  1.00  0.00     0.241 C 
HETATM   61  O8  UNL     1      -1.156   9.041   4.459  1.00  0.00    -0.218 OA
HETATM   62  O7  UNL     1      -0.760   6.676   2.813  1.00  0.00    -0.215 OA
BRANCH  56  63
HETATM   63  C36 UNL     1      -5.840   7.486   5.123  1.00  0.00     0.214 C 
HETATM   64  O10 UNL     1      -6.617   6.311   5.143  1.00  0.00    -0.218 OA
ENDBRANCH  56  63
ENDBRANCH  53  54
ENDBRANCH  36  53
ENDBRANCH  31  32
ENDBRANCH  29  31
ENDBRANCH  16  29
BRANCH   3  65
HETATM   65  C47 UNL     1       7.024  -1.035  -0.135  1.00  0.00     0.186 C 
HETATM   66  O18 UNL     1       6.315  -1.469   0.742  1.00  0.00    -0.647 OA
HETATM   67  O19 UNL     1       8.252  -0.568   0.066  1.00  0.00    -0.647 OA
ENDBRANCH   3  65
BRANCH   2  68
HETATM   68  O20 UNL     1       8.481  -2.256  -2.387  1.00  0.00    -0.331 OA
BRANCH  68  69
HETATM   69  C49 UNL     1       9.024  -3.551  -2.553  1.00  0.00     0.270 C 
HETATM   70  C50 UNL     1      10.508  -3.463  -2.990  1.00  0.00     0.241 C 
HETATM   71  C51 UNL     1      11.160  -4.865  -3.023  1.00  0.00     0.220 C 
HETATM   72  O25 UNL     1      10.584  -2.879  -4.279  1.00  0.00    -0.215 OA
HETATM   73  C52 UNL     1      10.889  -5.604  -1.695  1.00  0.00     0.215 C 
HETATM   74  O24 UNL     1      12.559  -4.740  -3.229  1.00  0.00    -0.218 OA
HETATM   75  C53 UNL     1       9.385  -5.584  -1.336  1.00  0.00     0.184 C 
HETATM   76  O23 UNL     1      11.313  -6.951  -1.801  1.00  0.00    -0.218 OA
HETATM   77  O21 UNL     1       8.924  -4.240  -1.314  1.00  0.00    -0.326 OA
BRANCH  75  78
HETATM   78  C54 UNL     1       9.094  -6.172   0.049  1.00  0.00     0.214 C 
HETATM   79  O22 UNL     1       7.695  -6.256   0.207  1.00  0.00    -0.218 OA
ENDBRANCH  75  78
ENDBRANCH  68  69
ENDBRANCH   2  68
TORSDOF 14
