REMARK  3 active torsions:
REMARK  status: ('A' for Active; 'I' for Inactive)
REMARK    1  A    between atoms: C2_2  and  O6_21 
REMARK    2  A    between atoms: C7_8  and  O3_12 
REMARK    3  A    between atoms: O3_12  and  C10_13 
ROOT
HETATM    1  C1  UNL     1      -2.836  -0.746   0.465  1.00  0.00     0.157 A 
HETATM    2  C2  UNL     1      -2.684  -2.055   0.982  1.00  0.00     0.145 A 
HETATM    3  C3  UNL     1      -1.391  -2.592   1.189  1.00  0.00     0.160 A 
HETATM    4  C4  UNL     1      -0.248  -1.811   0.875  1.00  0.00     0.089 A 
HETATM    5  C5  UNL     1      -0.400  -0.496   0.357  1.00  0.00     0.110 A 
HETATM    6  C6  UNL     1      -1.695   0.031   0.152  1.00  0.00     0.054 A 
HETATM    7  O1  UNL     1       0.687   0.250   0.061  1.00  0.00    -0.285 OA
HETATM    8  C7  UNL     1       1.959  -0.176   0.225  1.00  0.00     0.207 A 
HETATM    9  C8  UNL     1       2.217  -1.410   0.709  1.00  0.00     0.093 A 
HETATM   10  C9  UNL     1       1.127  -2.338   1.078  1.00  0.00     0.204 A 
HETATM   11  O2  UNL     1       1.445  -3.424   1.504  1.00  0.00    -0.286 OA
HETATM   12  O5  UNL     1      -1.258  -3.834   1.680  1.00  0.00    -0.188 OA
HETATM   13  O7  UNL     1      -4.063  -0.240   0.268  1.00  0.00    -0.188 OA
ENDROOT
BRANCH   8  14
HETATM   14  O3  UNL     1       2.998   0.598  -0.082  1.00  0.00    -0.285 OA
BRANCH  14  15
HETATM   15  C10 UNL     1       2.822   1.608  -0.908  1.00  0.00     0.102 A 
HETATM   16  C11 UNL     1       1.971   1.471  -2.020  1.00  0.00     0.027 A 
HETATM   17  C12 UNL     1       1.781   2.549  -2.902  1.00  0.00     0.029 A 
HETATM   18  C13 UNL     1       2.443   3.770  -2.680  1.00  0.00     0.131 A 
HETATM   19  C14 UNL     1       3.295   3.906  -1.568  1.00  0.00     0.029 A 
HETATM   20  O4  UNL     1       2.266   4.779  -3.506  1.00  0.00    -0.190 OA
HETATM   21  C15 UNL     1       3.484   2.828  -0.686  1.00  0.00     0.027 A 
ENDBRANCH  14  15
ENDBRANCH   8  14
BRANCH   2  22
HETATM   22  O6  UNL     1      -3.768  -2.789   1.277  1.00  0.00    -0.324 OA
HETATM   23  C16 UNL     1      -4.363  -2.615   2.555  1.00  0.00     0.182 C 
ENDBRANCH   2  22
TORSDOF 3
