REMARK  4 active torsions:
REMARK  status: ('A' for Active; 'I' for Inactive)
REMARK    1  A    between atoms: C1_1  and  C7_10 
REMARK    2  A    between atoms: C4_4  and  C5_6 
REMARK    3  A    between atoms: C5_6  and  C6_7 
REMARK    4  A    between atoms: C8_12  and  C11_15 
ROOT
HETATM    1  C11 UNL     1       0.213   1.592   3.859  1.00  0.00    -0.058 C 
HETATM    2  C12 UNL     1       0.240   2.120   4.924  1.00  0.00    -0.085 C 
HETATM    3  C13 UNL     1       0.270   2.768   6.237  1.00  0.00     0.090 C 
ENDROOT
BRANCH   1   4
HETATM    4  C8  UNL     1       0.180   0.947   2.578  1.00  0.00     0.071 A 
HETATM    5  S2  UNL     1      -0.379   1.606   1.106  1.00  0.00    -0.078 SA
HETATM    6  C7  UNL     1      -0.015   0.153   0.322  1.00  0.00     0.036 A 
HETATM    7  C10 UNL     1       0.530  -0.850   1.124  1.00  0.00     0.008 A 
HETATM    8  C9  UNL     1       0.645  -0.382   2.450  1.00  0.00     0.015 A 
BRANCH   6   9
HETATM    9  C1  UNL     1      -0.248  -0.058  -1.134  1.00  0.00     0.035 A 
HETATM   10  C2  UNL     1      -0.790   0.940  -1.947  1.00  0.00     0.008 A 
HETATM   11  C3  UNL     1      -0.895   0.458  -3.270  1.00  0.00     0.010 A 
HETATM   12  C4  UNL     1      -0.435  -0.871  -3.409  1.00  0.00     0.065 A 
HETATM   13  S1  UNL     1       0.117  -1.507  -1.925  1.00  0.00    -0.084 SA
BRANCH  12  14
HETATM   14  C5  UNL     1      -0.426  -1.618  -4.658  1.00  0.00     0.195 C 
HETATM   15  O1  UNL     1      -0.833  -1.106  -5.674  1.00  0.00    -0.289 OA
BRANCH  14  16
HETATM   16  C6  UNL     1       0.097  -3.030  -4.658  1.00  0.00     0.164 C 
HETATM   17 CL1  UNL     1       1.880  -3.030  -4.658  1.00  0.00    -0.105 Cl
ENDBRANCH  14  16
ENDBRANCH  12  14
ENDBRANCH   6   9
ENDBRANCH   1   4
TORSDOF 4
