REMARK  1 active torsions:
REMARK  status: ('A' for Active; 'I' for Inactive)
REMARK    1  A    between atoms: C9_9  and  C10_10 
ROOT
HETATM    1  C1  UNL     1      -2.164   1.869  -0.014  1.00  0.00    -0.004 C 
HETATM    2  C2  UNL     1      -3.439   1.449  -0.150  1.00  0.00    -0.028 C 
HETATM    3  C3  UNL     1      -3.729   0.055  -0.683  1.00  0.00     0.035 C 
HETATM    4  C4  UNL     1      -2.465  -0.693  -1.166  1.00  0.00     0.085 C 
HETATM    5  C5  UNL     1      -1.396  -0.521  -0.070  1.00  0.00     0.049 C 
HETATM    6  C6  UNL     1      -1.043   0.930  -0.418  1.00  0.00     0.120 C 
HETATM    7  C7  UNL     1       0.303   1.158   0.276  1.00  0.00     0.030 C 
HETATM    8  C8  UNL     1       0.979  -0.244   0.313  1.00  0.00     0.016 C 
HETATM    9  C9  UNL     1      -0.053  -1.246  -0.244  1.00  0.00     0.091 C 
HETATM   10  C11 UNL     1       2.305  -0.228  -0.482  1.00  0.00     0.005 C 
HETATM   11  C12 UNL     1       3.125   0.760   0.360  1.00  0.00     0.018 C 
HETATM   12  C13 UNL     1       2.631   2.197   0.104  1.00  0.00     0.004 C 
HETATM   13  C14 UNL     1       1.164   2.254  -0.379  1.00  0.00     0.003 C 
HETATM   14  C15 UNL     1       2.787   0.301   1.750  1.00  0.00    -0.044 C 
HETATM   15  C16 UNL     1       1.522  -0.504   1.736  1.00  0.00     0.023 C 
HETATM   16  C17 UNL     1       3.516   0.568   2.848  1.00  0.00    -0.009 C 
HETATM   17  O3  UNL     1      -0.934   0.955  -1.844  1.00  0.00    -0.302 OA
HETATM   18  C18 UNL     1      -1.816   0.068  -2.293  1.00  0.00     0.271 C 
HETATM   19  O4  UNL     1      -2.074  -0.129  -3.457  1.00  0.00    -0.264 OA
HETATM   20  C19 UNL     1      -2.734  -2.160  -1.490  1.00  0.00     0.010 C 
ENDROOT
BRANCH   9  21
HETATM   21  C10 UNL     1      -0.041  -2.619   0.381  1.00  0.00     0.185 C 
HETATM   22  O1  UNL     1      -0.953  -2.992   1.082  1.00  0.00    -0.647 OA
HETATM   23  O2  UNL     1       1.025  -3.359   0.098  1.00  0.00    -0.647 OA
ENDBRANCH   9  21
TORSDOF 1
