REMARK  4 active torsions:
REMARK  status: ('A' for Active; 'I' for Inactive)
REMARK    1  A    between atoms: C2_2  and  O5_20 
REMARK    2  A    between atoms: C9_11  and  C10_13 
REMARK    3  A    between atoms: O5_20  and  C16_21 
REMARK    4  A    between atoms: C20_25  and  C22_27 
ROOT
HETATM    1  C1  UNL     1      -1.063  -2.400  -0.162  1.00  0.00     0.052 A 
HETATM    2  C2  UNL     1      -1.215  -1.092  -0.680  1.00  0.00     0.098 A 
HETATM    3  C3  UNL     1      -0.076  -0.313  -0.992  1.00  0.00     0.049 A 
HETATM    4  C4  UNL     1       1.221  -0.840  -0.787  1.00  0.00     0.107 A 
HETATM    5  C5  UNL     1       1.373  -2.154  -0.270  1.00  0.00     0.087 A 
HETATM    6  C6  UNL     1       0.230  -2.936   0.045  1.00  0.00     0.138 A 
HETATM    7  O1  UNL     1       0.357  -4.178   0.535  1.00  0.00    -0.190 OA
HETATM    8  C7  UNL     1       2.750  -2.684  -0.066  1.00  0.00     0.202 A 
HETATM    9  O2  UNL     1       3.066  -3.772   0.359  1.00  0.00    -0.286 OA
HETATM   10  C8  UNL     1       3.842  -1.758  -0.434  1.00  0.00     0.067 A 
HETATM   11  C9  UNL     1       3.574  -0.523  -0.920  1.00  0.00     0.103 A 
HETATM   12  O3  UNL     1       2.307  -0.094  -1.086  1.00  0.00    -0.307 OA
ENDROOT
BRANCH   2  13
HETATM   13  O5  UNL     1      -2.441  -0.588  -0.875  1.00  0.00    -0.331 OA
BRANCH  13  14
HETATM   14  C16 UNL     1      -3.477  -0.982   0.020  1.00  0.00     0.154 C 
HETATM   15  C17 UNL     1      -4.795  -0.279  -0.355  1.00  0.00     0.212 C 
HETATM   16  C18 UNL     1      -4.705   1.252  -0.154  1.00  0.00     0.215 C 
HETATM   17  O9  UNL     1      -5.111  -0.590  -1.703  1.00  0.00    -0.218 OA
HETATM   18  C19 UNL     1      -4.250   1.602   1.285  1.00  0.00     0.188 C 
HETATM   19  O8  UNL     1      -5.975   1.834  -0.402  1.00  0.00    -0.218 OA
HETATM   20  C20 UNL     1      -2.936   0.885   1.672  1.00  0.00     0.069 C 
HETATM   21  O7  UNL     1      -4.055   3.002   1.398  1.00  0.00    -0.221 OA
HETATM   22  C21 UNL     1      -3.051  -0.633   1.453  1.00  0.00     0.038 C 
BRANCH  20  23
HETATM   23  C22 UNL     1      -2.522   1.184   3.119  1.00  0.00     0.185 C 
HETATM   24  O6  UNL     1      -1.232   0.654   3.328  1.00  0.00    -0.221 OA
ENDBRANCH  20  23
ENDBRANCH  13  14
ENDBRANCH   2  13
BRANCH  11  25
HETATM   25  C10 UNL     1       4.715   0.373  -1.273  1.00  0.00     0.023 A 
HETATM   26  C11 UNL     1       4.543   1.385  -2.232  1.00  0.00     0.004 A 
HETATM   27  C12 UNL     1       5.617   2.229  -2.566  1.00  0.00     0.028 A 
HETATM   28  C13 UNL     1       6.867   2.062  -1.943  1.00  0.00     0.131 A 
HETATM   29  C14 UNL     1       7.037   1.047  -0.984  1.00  0.00     0.028 A 
HETATM   30  O4  UNL     1       7.875   2.854  -2.256  1.00  0.00    -0.190 OA
HETATM   31  C15 UNL     1       5.965   0.203  -0.648  1.00  0.00     0.004 A 
ENDBRANCH  11  25
TORSDOF 4
