REMARK  0 active torsions:
REMARK  status: ('A' for Active; 'I' for Inactive)
ROOT
HETATM    1  C1  UNL     1      -2.740   0.086  -0.668  1.00  0.00     0.012 C 
HETATM    2  C2  UNL     1      -2.143   1.162   0.270  1.00  0.00     0.058 C 
HETATM    3  C3  UNL     1      -0.645   1.123   0.533  1.00  0.00     0.154 C 
HETATM    4  C4  UNL     1       0.312   0.941  -0.635  1.00  0.00     0.091 C 
HETATM    5  C5  UNL     1       1.652   0.268  -0.336  1.00  0.00     0.018 A 
HETATM    6  C6  UNL     1       1.973  -0.822   0.690  1.00  0.00     0.246 A 
HETATM    7  C7  UNL     1       1.158  -2.127   0.606  1.00  0.00     0.086 C 
HETATM    8  C8  UNL     1      -0.326  -1.910   0.789  1.00  0.00    -0.043 C 
HETATM    9  C9  UNL     1      -1.127  -1.793  -0.289  1.00  0.00    -0.034 C 
HETATM   10  C10 UNL     1      -2.570  -1.371  -0.203  1.00  0.00     0.026 C 
HETATM   11  C11 UNL     1      -0.857  -1.809   2.197  1.00  0.00     0.026 C 
HETATM   12  O1  UNL     1       3.355  -1.137   0.434  1.00  0.00    -0.271 OA
HETATM   13  C12 UNL     1       3.836  -0.313  -0.500  1.00  0.00     0.293 A 
HETATM   14  C13 UNL     1       2.781   0.551  -0.990  1.00  0.00     0.038 A 
HETATM   15  C14 UNL     1       2.943   1.590  -2.072  1.00  0.00     0.036 C 
HETATM   16  O2  UNL     1       4.979  -0.275  -0.898  1.00  0.00    -0.259 OA
HETATM   17  O3  UNL     1       1.924  -0.313   2.008  1.00  0.00    -0.190 OA
HETATM   18  O4  UNL     1      -0.240   1.254   1.664  1.00  0.00    -0.296 OA
HETATM   19  C15 UNL     1      -2.506   2.563  -0.232  1.00  0.00     0.008 C 
ENDROOT
TORSDOF 0
