REMARK  3 active torsions:
REMARK  status: ('A' for Active; 'I' for Inactive)
REMARK    1  A    between atoms: C1_1  and  C2_2 
REMARK    2  A    between atoms: C1_1  and  C6_7 
REMARK    3  A    between atoms: C6_7  and  C8_9 
ROOT
HETATM    1  C1  UNL     1      -0.560   0.172  -0.563  1.00  0.00     0.177 C 
HETATM    2  O1  UNL     1      -1.717   0.627  -1.227  1.00  0.00    -0.218 OA
ENDROOT
BRANCH   1   3
HETATM    3  C2  UNL     1      -0.248   1.092   0.586  1.00  0.00    -0.002 C 
HETATM    4  C3  UNL     1       0.768   1.961   0.453  1.00  0.00    -0.045 C 
HETATM    5  C4  UNL     1       1.279   2.664   1.684  1.00  0.00     0.026 C 
HETATM    6  C5  UNL     1       1.342   2.189  -0.920  1.00  0.00     0.026 C 
ENDBRANCH   1   3
BRANCH   1   7
HETATM    7  C6  UNL     1      -0.807  -1.268  -0.106  1.00  0.00     0.051 C 
HETATM    8  C7  UNL     1      -1.752  -1.354   1.092  1.00  0.00     0.007 C 
HETATM    9  C10 UNL     1      -1.225  -2.186  -1.254  1.00  0.00     0.007 C 
BRANCH   7  10
HETATM   10  C8  UNL     1       0.635  -1.455   0.285  1.00  0.00    -0.024 C 
HETATM   11  C9  UNL     1       1.328  -2.457  -0.281  1.00  0.00    -0.005 C 
ENDBRANCH   7  10
ENDBRANCH   1   7
TORSDOF 3
