REMARK  9 active torsions:
REMARK  status: ('A' for Active; 'I' for Inactive)
REMARK    1  A    between atoms: C1_1  and  O14_31 
REMARK    2  A    between atoms: C2_3  and  C17_29 
REMARK    3  A    between atoms: C4_5  and  O3_8 
REMARK    4  A    between atoms: O3_8  and  C6_9 
REMARK    5  A    between atoms: C7_10  and  O7_18 
REMARK    6  A    between atoms: O7_18  and  C12_19 
REMARK    7  A    between atoms: O14_31  and  C18_32 
REMARK    8  A    between atoms: C18_32  and  C19_33 
REMARK    9  A    between atoms: C19_33  and  C20_34 
ROOT
HETATM    1  C1  UNL     1       1.014  -0.738   1.770  1.00  0.00     0.270 C 
HETATM    2  O1  UNL     1       0.670  -2.008   1.231  1.00  0.00    -0.326 OA
HETATM    3  C2  UNL     1       1.076  -2.219  -0.115  1.00  0.00     0.184 C 
HETATM    4  C3  UNL     1       0.377  -1.186  -1.027  1.00  0.00     0.211 C 
HETATM    5  C4  UNL     1       0.650   0.258  -0.551  1.00  0.00     0.186 C 
HETATM    6  C5  UNL     1       0.326   0.387   0.955  1.00  0.00     0.238 C 
HETATM    7  O2  UNL     1       0.772   1.648   1.424  1.00  0.00    -0.215 OA
HETATM    8  O12 UNL     1       0.856  -1.354  -2.352  1.00  0.00    -0.218 OA
ENDROOT
BRANCH   5   9
HETATM    9  O3  UNL     1      -0.146   1.168  -1.295  1.00  0.00    -0.326 OA
BRANCH   9  10
HETATM   10  C6  UNL     1       0.543   1.752  -2.383  1.00  0.00     0.267 C 
HETATM   11  C7  UNL     1      -0.455   2.412  -3.367  1.00  0.00     0.207 C 
HETATM   12  C8  UNL     1       0.291   3.182  -4.480  1.00  0.00     0.217 C 
HETATM   13  C9  UNL     1       1.346   4.123  -3.855  1.00  0.00     0.212 C 
HETATM   14  O6  UNL     1      -0.633   3.937  -5.248  1.00  0.00    -0.218 OA
HETATM   15  C10 UNL     1       2.250   3.371  -2.852  1.00  0.00     0.151 C 
HETATM   16  O5  UNL     1       2.162   4.674  -4.873  1.00  0.00    -0.218 OA
HETATM   17  O4  UNL     1       1.440   2.730  -1.875  1.00  0.00    -0.329 OA
HETATM   18  C11 UNL     1       3.203   4.301  -2.096  1.00  0.00     0.035 C 
BRANCH  11  19
HETATM   19  O7  UNL     1      -1.271   1.410  -3.953  1.00  0.00    -0.324 OA
BRANCH  19  20
HETATM   20  C12 UNL     1      -2.537   1.291  -3.338  1.00  0.00     0.270 C 
HETATM   21  O8  UNL     1      -3.316   2.430  -3.684  1.00  0.00    -0.326 OA
HETATM   22  C13 UNL     1      -4.609   2.469  -3.094  1.00  0.00     0.181 C 
HETATM   23  C14 UNL     1      -5.432   1.254  -3.566  1.00  0.00     0.215 C 
HETATM   24  C15 UNL     1      -4.697  -0.070  -3.266  1.00  0.00     0.220 C 
HETATM   25  O11 UNL     1      -6.686   1.281  -2.908  1.00  0.00    -0.218 OA
HETATM   26  C16 UNL     1      -3.252  -0.002  -3.811  1.00  0.00     0.241 C 
HETATM   27  O10 UNL     1      -5.391  -1.152  -3.869  1.00  0.00    -0.218 OA
HETATM   28  O9  UNL     1      -2.525  -1.135  -3.359  1.00  0.00    -0.215 OA
ENDBRANCH  19  20
ENDBRANCH  11  19
ENDBRANCH   9  10
ENDBRANCH   5   9
BRANCH   3  29
HETATM   29  C17 UNL     1       0.711  -3.666  -0.463  1.00  0.00     0.214 C 
HETATM   30  O13 UNL     1       1.492  -4.522   0.338  1.00  0.00    -0.218 OA
ENDBRANCH   3  29
BRANCH   1  31
HETATM   31  O14 UNL     1       0.594  -0.697   3.119  1.00  0.00    -0.329 OA
BRANCH  31  32
HETATM   32  C18 UNL     1       1.328  -1.563   3.955  1.00  0.00     0.150 C 
BRANCH  32  33
HETATM   33  C19 UNL     1       0.826  -1.385   5.389  1.00  0.00     0.059 C 
BRANCH  33  34
HETATM   34  C20 UNL     1       1.553  -2.268   6.338  1.00  0.00    -0.018 A 
HETATM   35  C21 UNL     1       1.232  -2.246   7.705  1.00  0.00     0.025 A 
HETATM   36  C22 UNL     1       1.916  -3.078   8.608  1.00  0.00     0.156 A 
HETATM   37  C23 UNL     1       2.928  -3.938   8.137  1.00  0.00     0.156 A 
HETATM   38  O16 UNL     1       1.609  -3.053   9.889  1.00  0.00    -0.188 OA
HETATM   39  C24 UNL     1       3.248  -3.959   6.768  1.00  0.00     0.029 A 
HETATM   40  O15 UNL     1       3.574  -4.723   8.975  1.00  0.00    -0.188 OA
HETATM   41  C25 UNL     1       2.563  -3.125   5.869  1.00  0.00    -0.002 A 
ENDBRANCH  33  34
ENDBRANCH  32  33
ENDBRANCH  31  32
ENDBRANCH   1  31
TORSDOF 9
