REMARK  3 active torsions:
REMARK  status: ('A' for Active; 'I' for Inactive)
REMARK    1  A    between atoms: C1_1  and  O3_20 
REMARK    2  A    between atoms: C11_11  and  O2_17 
REMARK    3  A    between atoms: C13_13  and  O1_15 
ROOT
HETATM    1  C1  UNL     1       3.516  -0.074  -0.139  1.00  0.00     0.090 A 
HETATM    2  C2  UNL     1       2.732  -1.225  -0.383  1.00  0.00     0.000 A 
HETATM    3  C3  UNL     1       1.320  -1.131  -0.394  1.00  0.00    -0.003 A 
HETATM    4  C4  UNL     1       0.668   0.111  -0.144  1.00  0.00    -0.003 A 
HETATM    5  C5  UNL     1       1.475   1.270   0.080  1.00  0.00    -0.020 A 
HETATM    6  C6  UNL     1       2.887   1.170   0.088  1.00  0.00     0.020 A 
HETATM    7  C7  UNL     1       0.828   2.586   0.313  1.00  0.00     0.031 C 
HETATM    8  C8  UNL     1      -0.479   2.731  -0.484  1.00  0.00     0.031 C 
HETATM    9  C9  UNL     1      -1.373   1.561  -0.303  1.00  0.00    -0.018 A 
HETATM   10  C10 UNL     1      -0.818   0.254  -0.121  1.00  0.00     0.018 A 
HETATM   11  C11 UNL     1      -1.713  -0.846   0.084  1.00  0.00     0.096 A 
HETATM   12  C12 UNL     1      -3.111  -0.639   0.067  1.00  0.00     0.048 A 
HETATM   13  C13 UNL     1      -3.645   0.650  -0.139  1.00  0.00     0.096 A 
HETATM   14  C14 UNL     1      -2.777   1.748  -0.316  1.00  0.00     0.020 A 
HETATM   15  C17 UNL     1       3.381  -2.523  -0.629  1.00  0.00     0.033 C 
ENDROOT
BRANCH   1  16
HETATM   16  O3  UNL     1       4.854  -0.152  -0.121  1.00  0.00    -0.328 OA
HETATM   17  C18 UNL     1       5.590   1.037   0.123  1.00  0.00     0.181 C 
ENDBRANCH   1  16
BRANCH  11  18
HETATM   18  O2  UNL     1      -1.281  -2.092   0.322  1.00  0.00    -0.328 OA
HETATM   19  C16 UNL     1      -2.166  -2.988   0.979  1.00  0.00     0.181 C 
ENDBRANCH  11  18
BRANCH  13  20
HETATM   20  O1  UNL     1      -4.973   0.834  -0.158  1.00  0.00    -0.328 OA
HETATM   21  C15 UNL     1      -5.805  -0.305   0.002  1.00  0.00     0.181 C 
ENDBRANCH  13  20
TORSDOF 3
