REMARK  9 active torsions:
REMARK  status: ('A' for Active; 'I' for Inactive)
REMARK    1  A    between atoms: C15_17  and  C18_20 
REMARK    2  A    between atoms: C18_20  and  C19_21 
REMARK    3  A    between atoms: C18_20  and  O3_27 
REMARK    4  A    between atoms: C19_21  and  C20_22 
REMARK    5  A    between atoms: C20_22  and  C21_23 
REMARK    6  A    between atoms: O3_27  and  C25_28 
REMARK    7  A    between atoms: C26_29  and  O8_38 
REMARK    8  A    between atoms: C29_32  and  C30_34 
REMARK    9  A    between atoms: O8_38  and  C31_39 
ROOT
HETATM    1  C18 UNL     1      -2.832   0.578  -0.100  1.00  0.00     0.096 C 
HETATM    2  C36 UNL     1      -4.357   0.543  -0.184  1.00  0.00     0.030 C 
ENDROOT
BRANCH   1   3
HETATM    3  C15 UNL     1      -2.242   0.453  -1.502  1.00  0.00     0.028 C 
HETATM    4  C12 UNL     1      -1.092  -0.561  -1.639  1.00  0.00     0.033 C 
HETATM    5  C11 UNL     1      -0.449  -0.148  -2.982  1.00  0.00     0.003 C 
HETATM    6  C13 UNL     1      -0.121  -0.623  -0.432  1.00  0.00     0.152 C 
HETATM    7  C8  UNL     1       0.902  -0.869  -3.264  1.00  0.00     0.003 C 
HETATM    8  C17 UNL     1      -0.416   1.383  -2.848  1.00  0.00     0.000 C 
HETATM    9  C37 UNL     1      -1.459  -0.412  -4.115  1.00  0.00     0.000 C 
HETATM   10  C7  UNL     1       1.869  -0.766  -2.045  1.00  0.00     0.003 C 
HETATM   11  C9  UNL     1       1.529  -0.272  -4.545  1.00  0.00     0.033 C 
HETATM   12  C38 UNL     1       0.508  -2.338  -3.522  1.00  0.00     0.000 C 
HETATM   13  C5  UNL     1       3.287  -1.357  -2.334  1.00  0.00     0.003 C 
HETATM   14  C14 UNL     1       1.184  -1.356  -0.787  1.00  0.00     0.033 C 
HETATM   15  C4  UNL     1       3.914  -0.697  -3.611  1.00  0.00     0.033 C 
HETATM   16  C6  UNL     1       4.264  -1.199  -1.141  1.00  0.00     0.003 C 
HETATM   17  C39 UNL     1       3.164  -2.877  -2.549  1.00  0.00     0.000 C 
HETATM   18  C3  UNL     1       4.500   0.744  -3.400  1.00  0.00     0.031 C 
HETATM   19  C10 UNL     1       2.961  -0.766  -4.840  1.00  0.00     0.152 C 
HETATM   20  C2  UNL     1       5.422   0.811  -2.158  1.00  0.00     0.152 C 
HETATM   21  C40 UNL     1       5.289   1.174  -4.649  1.00  0.00     0.003 C 
HETATM   22  C41 UNL     1       3.404   1.799  -3.211  1.00  0.00     0.003 C 
HETATM   23  C1  UNL     1       4.733   0.242  -0.908  1.00  0.00     0.033 C 
HETATM   24  O13 UNL     1       6.625   0.094  -2.385  1.00  0.00    -0.224 OA
HETATM   25  O1  UNL     1       2.900  -2.088  -5.342  1.00  0.00    -0.224 OA
HETATM   26  C16 UNL     1      -1.658   1.768  -2.033  1.00  0.00     0.002 C 
HETATM   27  O2  UNL     1       0.213   0.658   0.068  1.00  0.00    -0.224 OA
ENDBRANCH   1   3
BRANCH   1  28
HETATM   28  C19 UNL     1      -2.307   1.854   0.562  1.00  0.00     0.032 C 
BRANCH  28  29
HETATM   29  C20 UNL     1      -3.061   3.105   0.113  1.00  0.00     0.028 C 
BRANCH  29  30
HETATM   30  C21 UNL     1      -2.281   4.367   0.369  1.00  0.00    -0.035 C 
HETATM   31  C22 UNL     1      -2.570   5.088   1.465  1.00  0.00    -0.048 C 
HETATM   32  C23 UNL     1      -1.877   6.410   1.658  1.00  0.00     0.026 C 
HETATM   33  C24 UNL     1      -3.572   4.537   2.443  1.00  0.00     0.026 C 
ENDBRANCH  29  30
ENDBRANCH  28  29
ENDBRANCH   1  28
BRANCH   1  34
HETATM   34  O3  UNL     1      -2.396  -0.525   0.660  1.00  0.00    -0.334 OA
BRANCH  34  35
HETATM   35  C25 UNL     1      -3.059  -0.639   1.906  1.00  0.00     0.266 C 
HETATM   36  C26 UNL     1      -2.082  -0.910   3.100  1.00  0.00     0.207 C 
HETATM   37  C27 UNL     1      -2.771  -1.637   4.299  1.00  0.00     0.217 C 
HETATM   38  C28 UNL     1      -4.287  -1.338   4.303  1.00  0.00     0.215 C 
HETATM   39  O7  UNL     1      -2.629  -3.049   4.232  1.00  0.00    -0.218 OA
HETATM   40  C29 UNL     1      -4.969  -1.674   2.938  1.00  0.00     0.184 C 
HETATM   41  O6  UNL     1      -4.455   0.031   4.629  1.00  0.00    -0.218 OA
HETATM   42  O4  UNL     1      -4.045  -1.658   1.850  1.00  0.00    -0.326 OA
BRANCH  36  43
HETATM   43  O8  UNL     1      -0.891  -1.586   2.705  1.00  0.00    -0.324 OA
BRANCH  43  44
HETATM   44  C31 UNL     1       0.193  -1.365   3.586  1.00  0.00     0.270 C 
HETATM   45  C32 UNL     1       0.584  -2.676   4.322  1.00  0.00     0.241 C 
HETATM   46  O9  UNL     1       0.861  -3.703   3.379  1.00  0.00    -0.215 OA
HETATM   47  C33 UNL     1       1.815  -2.428   5.231  1.00  0.00     0.220 C 
HETATM   48  O10 UNL     1       2.279  -3.641   5.805  1.00  0.00    -0.218 OA
HETATM   49  C34 UNL     1       2.943  -1.725   4.441  1.00  0.00     0.215 C 
HETATM   50  O11 UNL     1       3.967  -1.309   5.326  1.00  0.00    -0.218 OA
HETATM   51  C35 UNL     1       2.414  -0.481   3.693  1.00  0.00     0.181 C 
HETATM   52  O12 UNL     1       1.307  -0.836   2.875  1.00  0.00    -0.326 OA
ENDBRANCH  43  44
ENDBRANCH  36  43
BRANCH  40  53
HETATM   53  C30 UNL     1      -6.164  -0.783   2.564  1.00  0.00     0.214 C 
HETATM   54  O5  UNL     1      -6.768  -1.316   1.408  1.00  0.00    -0.218 OA
ENDBRANCH  40  53
ENDBRANCH  34  35
ENDBRANCH   1  34
TORSDOF 9
