REMARK  10 active torsions:
REMARK  status: ('A' for Active; 'I' for Inactive)
REMARK    1  A    between atoms: C5_5  and  C7_7 
REMARK    2  A    between atoms: C7_7  and  C8_8 
REMARK    3  A    between atoms: C8_8  and  C9_9 
REMARK    4  A    between atoms: C9_9  and  C10_10 
REMARK    5  A    between atoms: C9_9  and  O2_21 
REMARK    6  A    between atoms: C10_10  and  C11_11 
REMARK    7  A    between atoms: C11_11  and  C12_12 
REMARK    8  A    between atoms: C12_12  and  C13_13 
REMARK    9  A    between atoms: C13_13  and  C14_14 
REMARK   10  A    between atoms: O2_21  and  C20_22 
ROOT
HETATM    1  C9  UNL     1       0.514  -1.746  -0.740  1.00  0.00     0.125 C 
ENDROOT
BRANCH   1   2
HETATM    2  C8  UNL     1      -1.010  -1.645  -0.818  1.00  0.00     0.035 C 
BRANCH   2   3
HETATM    3  C7  UNL     1      -1.695  -3.010  -0.775  1.00  0.00     0.029 C 
BRANCH   3   4
HETATM    4  C5  UNL     1      -3.176  -2.881  -0.826  1.00  0.00    -0.020 A 
HETATM    5  C4  UNL     1      -3.836  -2.816  -2.064  1.00  0.00    -0.002 A 
HETATM    6  C3  UNL     1      -5.234  -2.695  -2.109  1.00  0.00     0.029 A 
HETATM    7  C2  UNL     1      -5.979  -2.639  -0.918  1.00  0.00     0.156 A 
HETATM    8  C1  UNL     1      -5.318  -2.703   0.324  1.00  0.00     0.156 A 
HETATM    9  O4  UNL     1      -7.291  -2.523  -0.969  1.00  0.00    -0.188 OA
HETATM   10  C6  UNL     1      -3.920  -2.824   0.367  1.00  0.00     0.025 A 
HETATM   11  O5  UNL     1      -6.010  -2.650   1.445  1.00  0.00    -0.188 OA
ENDBRANCH   3   4
ENDBRANCH   2   3
ENDBRANCH   1   2
BRANCH   1  12
HETATM   12  C10 UNL     1       1.195  -0.379  -0.723  1.00  0.00     0.030 C 
BRANCH  12  13
HETATM   13  C11 UNL     1       1.098   0.311   0.639  1.00  0.00     0.003 C 
BRANCH  13  14
HETATM   14  C12 UNL     1       1.756   1.691   0.651  1.00  0.00     0.005 C 
BRANCH  14  15
HETATM   15  C13 UNL     1       1.652   2.383   2.010  1.00  0.00     0.026 C 
BRANCH  15  16
HETATM   16  C14 UNL     1       2.348   3.695   2.010  1.00  0.00    -0.022 A 
HETATM   17  C15 UNL     1       1.602   4.887   2.010  1.00  0.00    -0.002 A 
HETATM   18  C16 UNL     1       2.262   6.129   2.010  1.00  0.00     0.027 A 
HETATM   19  C17 UNL     1       3.666   6.184   2.010  1.00  0.00     0.131 A 
HETATM   20  C18 UNL     1       4.410   4.990   2.010  1.00  0.00     0.027 A 
HETATM   21  O1  UNL     1       4.283   7.348   2.010  1.00  0.00    -0.190 OA
HETATM   22  C19 UNL     1       3.752   3.748   2.010  1.00  0.00    -0.002 A 
ENDBRANCH  15  16
ENDBRANCH  14  15
ENDBRANCH  13  14
ENDBRANCH  12  13
ENDBRANCH   1  12
BRANCH   1  23
HETATM   23  O2  UNL     1       0.994  -2.500  -1.844  1.00  0.00    -0.304 OA
BRANCH  23  24
HETATM   24  C20 UNL     1       2.248  -2.906  -1.672  1.00  0.00     0.272 C 
HETATM   25  O3  UNL     1       2.873  -2.748  -0.650  1.00  0.00    -0.264 OA
HETATM   26  C21 UNL     1       2.865  -3.598  -2.857  1.00  0.00     0.106 C 
ENDBRANCH  23  24
ENDBRANCH   1  23
TORSDOF 10
