REMARK  4 active torsions:
REMARK  status: ('A' for Active; 'I' for Inactive)
REMARK    1  A    between atoms: C9_10  and  C20_24 
REMARK    2  A    between atoms: C13_14  and  C17_18 
REMARK    3  A    between atoms: C13_14  and  C18_20 
REMARK    4  A    between atoms: C18_20  and  O4_22 
ROOT
HETATM    1  O1  UNL     1      -4.580  -2.506   0.533  1.00  0.00    -0.310 OA
HETATM    2  C1  UNL     1      -3.533  -1.596   0.379  1.00  0.00     0.074 A 
HETATM    3  C2  UNL     1      -4.074  -0.367   0.055  1.00  0.00    -0.002 A 
HETATM    4  C3  UNL     1      -5.430  -0.488   0.012  1.00  0.00     0.024 A 
HETATM    5  C4  UNL     1      -5.770  -1.805   0.303  1.00  0.00     0.122 A 
HETATM    6  C5  UNL     1      -3.229   0.865  -0.211  1.00  0.00     0.024 C 
HETATM    7  C6  UNL     1      -1.787   0.684   0.354  1.00  0.00     0.005 C 
HETATM    8  C7  UNL     1      -1.172  -0.713   0.014  1.00  0.00     0.014 C 
HETATM    9  C8  UNL     1      -2.057  -1.881   0.547  1.00  0.00     0.052 C 
HETATM   10  C9  UNL     1       0.320  -0.848   0.457  1.00  0.00     0.060 C 
HETATM   11  C10 UNL     1       1.148   0.340  -0.121  1.00  0.00     0.023 C 
HETATM   12  C11 UNL     1       0.570   1.690   0.354  1.00  0.00     0.001 C 
HETATM   13  C12 UNL     1      -0.883   1.852  -0.092  1.00  0.00     0.000 C 
HETATM   14  C13 UNL     1       2.688   0.221   0.090  1.00  0.00     0.136 C 
HETATM   15  C14 UNL     1       3.191  -1.146  -0.418  1.00  0.00     0.017 C 
HETATM   16  C15 UNL     1       2.418  -2.322   0.189  1.00  0.00     0.001 C 
HETATM   17  C16 UNL     1       0.908  -2.187  -0.057  1.00  0.00     0.007 C 
HETATM   18  C21 UNL     1      -3.250   1.150  -1.719  1.00  0.00     0.005 C 
ENDROOT
BRANCH  14  19
HETATM   19  C17 UNL     1       3.074   0.408   1.539  1.00  0.00     0.216 C 
HETATM   20  O2  UNL     1       3.080   1.506   2.045  1.00  0.00    -0.288 OA
ENDBRANCH  14  19
BRANCH  14  21
HETATM   21  C18 UNL     1       3.410   1.297  -0.687  1.00  0.00     0.278 C 
HETATM   22  O3  UNL     1       2.859   1.897  -1.578  1.00  0.00    -0.264 OA
BRANCH  21  23
HETATM   23  O4  UNL     1       4.668   1.514  -0.314  1.00  0.00    -0.299 OA
HETATM   24  C19 UNL     1       5.293   2.529  -1.086  1.00  0.00     0.184 C 
ENDBRANCH  21  23
ENDBRANCH  14  21
BRANCH  10  25
HETATM   25  C20 UNL     1       0.391  -0.848   1.973  1.00  0.00     0.206 C 
HETATM   26  O5  UNL     1      -0.537  -0.455   2.639  1.00  0.00    -0.288 OA
ENDBRANCH  10  25
TORSDOF 4
