REMARK  2 active torsions:
REMARK  status: ('A' for Active; 'I' for Inactive)
REMARK    1  A    between atoms: C1_2  and  C2_3 
REMARK    2  A    between atoms: C8_9  and  C13_14 
ROOT
HETATM    1  C2  UNL     1       2.350   0.182   0.492  1.00  0.00    -0.016 A 
HETATM    2  C3  UNL     1       2.336  -0.750  -0.477  1.00  0.00    -0.032 A 
HETATM    3  C4  UNL     1       1.277  -0.328  -1.471  1.00  0.00     0.022 A 
HETATM    4  C5  UNL     1       0.557   0.898  -0.951  1.00  0.00     0.008 A 
HETATM    5  C6  UNL     1       1.346   1.291   0.309  1.00  0.00     0.025 A 
HETATM    6  C7  UNL     1      -0.186  -0.434  -1.133  1.00  0.00     0.005 A 
HETATM    7  C8  UNL     1      -1.033  -0.615   0.119  1.00  0.00     0.000 C 
HETATM    8  C9  UNL     1      -2.121   0.475  -0.113  1.00  0.00     0.000 C 
HETATM    9  C10 UNL     1      -1.576   1.893  -0.463  1.00  0.00     0.000 C 
HETATM   10  C11 UNL     1      -0.438   1.912  -1.523  1.00  0.00     0.001 C 
HETATM   11  C12 UNL     1       0.203   3.293  -1.680  1.00  0.00     0.000 C 
ENDROOT
BRANCH   7  12
HETATM   12  C13 UNL     1      -1.607  -2.033   0.156  1.00  0.00     0.000 C 
HETATM   13  C14 UNL     1      -0.523  -3.106   0.266  1.00  0.00     0.000 C 
HETATM   14  C15 UNL     1      -2.709  -2.199   1.205  1.00  0.00     0.000 C 
ENDBRANCH   7  12
BRANCH   1  15
HETATM   15  C1  UNL     1       3.273   0.154   1.682  1.00  0.00     0.204 C 
HETATM   16  O1  UNL     1       2.711  -0.648   2.695  1.00  0.00    -0.216 OA
ENDBRANCH   1  15
TORSDOF 2
