REMARK  9 active torsions:
REMARK  status: ('A' for Active; 'I' for Inactive)
REMARK    1  A    between atoms: C8_10  and  C11_13 
REMARK    2  A    between atoms: C11_13  and  C12_14 
REMARK    3  A    between atoms: C12_14  and  C13_15 
REMARK    4  A    between atoms: C14_16  and  C15_17 
REMARK    5  A    between atoms: C15_17  and  C16_18 
REMARK    6  A    between atoms: C16_18  and  C17_19 
REMARK    7  A    between atoms: C18_20  and  C19_21 
REMARK    8  A    between atoms: C19_21  and  C20_22 
REMARK    9  A    between atoms: C20_22  and  C21_23 
ROOT
HETATM    1  C12 UNL     1      -1.281  -1.205   2.391  1.00  0.00     0.028 C 
ENDROOT
BRANCH   1   2
HETATM    2  C11 UNL     1      -1.353   0.031   3.285  1.00  0.00     0.032 C 
BRANCH   2   3
HETATM    3  C8  UNL     1      -1.154  -0.301   4.770  1.00  0.00     0.099 C 
HETATM    4  O2  UNL     1       0.119  -0.947   4.922  1.00  0.00    -0.336 OA
HETATM    5  C2  UNL     1       1.270  -0.238   4.981  1.00  0.00     0.086 A 
HETATM    6  C1  UNL     1       1.264   1.176   5.151  1.00  0.00     0.002 A 
HETATM    7  C3  UNL     1       2.504  -0.928   4.879  1.00  0.00     0.002 A 
HETATM    8  C6  UNL     1       2.490   1.885   5.205  1.00  0.00     0.025 A 
HETATM    9  C10 UNL     1      -0.021   1.906   5.270  1.00  0.00     0.031 C 
HETATM   10  C5  UNL     1       3.717   1.191   5.098  1.00  0.00     0.131 A 
HETATM   11  C4  UNL     1       3.725  -0.213   4.936  1.00  0.00     0.025 A 
HETATM   12  O1  UNL     1       4.873   1.867   5.151  1.00  0.00    -0.190 OA
HETATM   13  C9  UNL     1      -1.186   0.973   5.637  1.00  0.00     0.033 C 
HETATM   14  C7  UNL     1       2.527  -2.389   4.709  1.00  0.00     0.033 C 
HETATM   15  C27 UNL     1      -2.232  -1.289   5.219  1.00  0.00     0.030 C 
ENDBRANCH   2   3
ENDBRANCH   1   2
BRANCH   1  16
HETATM   16  C13 UNL     1      -1.273  -0.856   0.926  1.00  0.00    -0.035 C 
HETATM   17  C14 UNL     1      -0.855  -1.781   0.047  1.00  0.00    -0.048 C 
HETATM   18  C26 UNL     1      -0.418  -3.123   0.572  1.00  0.00     0.026 C 
BRANCH  17  19
HETATM   19  C15 UNL     1      -0.846  -1.430  -1.416  1.00  0.00     0.026 C 
BRANCH  19  20
HETATM   20  C16 UNL     1      -0.652   0.068  -1.656  1.00  0.00     0.030 C 
BRANCH  20  21
HETATM   21  C17 UNL     1      -0.353   0.385  -3.096  1.00  0.00    -0.034 C 
HETATM   22  C18 UNL     1      -0.508   1.650  -3.520  1.00  0.00    -0.048 C 
HETATM   23  C25 UNL     1      -0.973   2.686  -2.531  1.00  0.00     0.026 C 
BRANCH  22  24
HETATM   24  C19 UNL     1      -0.209   1.969  -4.959  1.00  0.00     0.026 C 
BRANCH  24  25
HETATM   25  C20 UNL     1      -0.432   0.768  -5.879  1.00  0.00     0.030 C 
BRANCH  25  26
HETATM   26  C21 UNL     1      -0.416   1.148  -7.336  1.00  0.00    -0.034 C 
HETATM   27  C22 UNL     1      -0.205   0.186  -8.248  1.00  0.00    -0.048 C 
HETATM   28  C23 UNL     1      -0.117   0.578  -9.699  1.00  0.00     0.026 C 
HETATM   29  C24 UNL     1      -0.068  -1.236  -7.773  1.00  0.00     0.026 C 
ENDBRANCH  25  26
ENDBRANCH  24  25
ENDBRANCH  22  24
ENDBRANCH  20  21
ENDBRANCH  19  20
ENDBRANCH  17  19
ENDBRANCH   1  16
TORSDOF 9
