REMARK  12 active torsions:
REMARK  status: ('A' for Active; 'I' for Inactive)
REMARK    1  A    between atoms: C2_2  and  C27_38 
REMARK    2  A    between atoms: C5_5  and  O5_20 
REMARK    3  A    between atoms: C6_6  and  O1_7 
REMARK    4  A    between atoms: O1_7  and  C7_8 
REMARK    5  A    between atoms: C7_8  and  C8_9 
REMARK    6  A    between atoms: C9_10  and  C10_11 
REMARK    7  A    between atoms: O5_20  and  C16_21 
REMARK    8  A    between atoms: C16_21  and  C17_22 
REMARK    9  A    between atoms: C18_23  and  C19_24 
REMARK   10  A    between atoms: C21_26  and  O8_33 
REMARK   11  A    between atoms: C23_28  and  O6_30 
REMARK   12  A    between atoms: C27_38  and  O13_40 
ROOT
HETATM    1  C1  UNL     1       3.545   0.805   0.904  1.00  0.00     0.073 C 
HETATM    2  C2  UNL     1       4.143   2.217   0.701  1.00  0.00     0.208 C 
HETATM    3  C3  UNL     1       3.193   3.314   1.244  1.00  0.00     0.076 C 
HETATM    4  C4  UNL     1       1.723   3.178   0.789  1.00  0.00     0.185 C 
HETATM    5  C5  UNL     1       1.188   1.748   1.002  1.00  0.00     0.182 C 
HETATM    6  C6  UNL     1       2.104   0.680   0.383  1.00  0.00     0.158 C 
HETATM    7  O10 UNL     1       1.606   3.545  -0.574  1.00  0.00    -0.221 OA
HETATM    8  O11 UNL     1       4.344   2.420  -0.686  1.00  0.00    -0.216 OA
ENDROOT
BRANCH   5   9
HETATM    9  O5  UNL     1      -0.123   1.625   0.463  1.00  0.00    -0.296 OA
BRANCH   9  10
HETATM   10  C16 UNL     1      -1.031   2.273   1.189  1.00  0.00     0.296 C 
HETATM   11  O9  UNL     1      -0.793   2.801   2.250  1.00  0.00    -0.259 OA
BRANCH  10  12
HETATM   12  C17 UNL     1      -2.385   2.318   0.623  1.00  0.00     0.068 C 
HETATM   13  C18 UNL     1      -2.654   1.730  -0.555  1.00  0.00     0.006 C 
BRANCH  13  14
HETATM   14  C19 UNL     1      -4.047   1.803  -1.088  1.00  0.00     0.004 A 
HETATM   15  C20 UNL     1      -4.272   1.801  -2.477  1.00  0.00     0.026 A 
HETATM   16  C21 UNL     1      -5.580   1.869  -2.982  1.00  0.00     0.121 A 
HETATM   17  C22 UNL     1      -6.672   1.941  -2.096  1.00  0.00     0.175 A 
HETATM   18  C23 UNL     1      -6.449   1.943  -0.705  1.00  0.00     0.121 A 
HETATM   19  O7  UNL     1      -7.900   2.006  -2.566  1.00  0.00    -0.186 OA
HETATM   20  C24 UNL     1      -5.139   1.875  -0.205  1.00  0.00     0.026 A 
BRANCH  16  21
HETATM   21  O8  UNL     1      -5.783   1.865  -4.283  1.00  0.00    -0.326 OA
HETATM   22  C26 UNL     1      -4.650   1.762  -5.135  1.00  0.00     0.181 C 
ENDBRANCH  16  21
BRANCH  18  23
HETATM   23  O6  UNL     1      -7.469   2.012   0.129  1.00  0.00    -0.326 OA
HETATM   24  C25 UNL     1      -7.195   1.955   1.521  1.00  0.00     0.181 C 
ENDBRANCH  18  23
ENDBRANCH  13  14
ENDBRANCH  10  12
ENDBRANCH   9  10
ENDBRANCH   5   9
BRANCH   6  25
HETATM   25  O1  UNL     1       1.604  -0.611   0.705  1.00  0.00    -0.298 OA
BRANCH  25  26
HETATM   26  C7  UNL     1       2.143  -1.565  -0.049  1.00  0.00     0.296 C 
HETATM   27  O4  UNL     1       2.824  -1.350  -1.023  1.00  0.00    -0.259 OA
BRANCH  26  28
HETATM   28  C8  UNL     1       1.861  -2.944   0.371  1.00  0.00     0.068 C 
HETATM   29  C9  UNL     1       2.285  -3.983  -0.365  1.00  0.00     0.005 C 
BRANCH  29  30
HETATM   30  C10 UNL     1       1.977  -5.367   0.102  1.00  0.00     0.002 A 
HETATM   31  C11 UNL     1       1.846  -5.635   1.477  1.00  0.00     0.002 A 
HETATM   32  C12 UNL     1       1.555  -6.938   1.914  1.00  0.00     0.029 A 
HETATM   33  C13 UNL     1       1.391  -7.977   0.980  1.00  0.00     0.156 A 
HETATM   34  C14 UNL     1       1.522  -7.711  -0.395  1.00  0.00     0.156 A 
HETATM   35  O3  UNL     1       1.117  -9.198   1.398  1.00  0.00    -0.188 OA
HETATM   36  C15 UNL     1       1.813  -6.406  -0.830  1.00  0.00     0.029 A 
HETATM   37  O2  UNL     1       1.369  -8.680  -1.275  1.00  0.00    -0.188 OA
ENDBRANCH  29  30
ENDBRANCH  26  28
ENDBRANCH  25  26
ENDBRANCH   6  25
BRANCH   2  38
HETATM   38  C27 UNL     1       5.500   2.318   1.352  1.00  0.00     0.300 C 
HETATM   39  O12 UNL     1       6.074   1.332   1.750  1.00  0.00    -0.262 OA
BRANCH  38  40
HETATM   40  O13 UNL     1       5.992   3.549   1.445  1.00  0.00    -0.297 OA
HETATM   41  C28 UNL     1       7.326   3.564   1.932  1.00  0.00     0.185 C 
ENDBRANCH  38  40
ENDBRANCH   2  38
TORSDOF 12
