REMARK  6 active torsions:
REMARK  status: ('A' for Active; 'I' for Inactive)
REMARK    1  A    between atoms: C1_1  and  O4_20 
REMARK    2  A    between atoms: C5_5  and  C7_7 
REMARK    3  A    between atoms: C7_7  and  C8_8 
REMARK    4  A    between atoms: C8_8  and  C9_9 
REMARK    5  A    between atoms: C11_11  and  O2_17 
REMARK    6  A    between atoms: C12_12  and  O1_15 
ROOT
HETATM    1  C8  UNL     1       0.061  -0.014  -0.670  1.00  0.00     0.031 C 
ENDROOT
BRANCH   1   2
HETATM    2  C7  UNL     1      -0.203  -0.510   0.752  1.00  0.00     0.031 C 
BRANCH   2   3
HETATM    3  C5  UNL     1      -0.898  -1.824   0.752  1.00  0.00    -0.018 A 
HETATM    4  C4  UNL     1      -2.305  -1.875   0.752  1.00  0.00     0.023 A 
HETATM    5  C3  UNL     1      -2.965  -3.117   0.752  1.00  0.00     0.133 A 
HETATM    6  C2  UNL     1      -2.215  -4.305   0.752  1.00  0.00     0.051 A 
HETATM    7  O3  UNL     1      -4.281  -3.166   0.752  1.00  0.00    -0.190 OA
HETATM    8  C1  UNL     1      -0.809  -4.260   0.752  1.00  0.00     0.096 A 
HETATM    9  C6  UNL     1      -0.152  -3.016   0.752  1.00  0.00     0.020 A 
BRANCH   8  10
HETATM   10  O4  UNL     1      -0.109  -5.375   0.752  1.00  0.00    -0.328 OA
HETATM   11  C17 UNL     1      -0.816  -6.606   0.832  1.00  0.00     0.181 C 
ENDBRANCH   8  10
ENDBRANCH   2   3
ENDBRANCH   1   2
BRANCH   1  12
HETATM   12  C9  UNL     1       0.758   1.299  -0.668  1.00  0.00    -0.020 A 
HETATM   13  C10 UNL     1       0.014   2.492  -0.666  1.00  0.00     0.022 A 
HETATM   14  C11 UNL     1       0.668   3.736  -0.662  1.00  0.00     0.116 A 
HETATM   15  C12 UNL     1       2.074   3.787  -0.660  1.00  0.00     0.116 A 
HETATM   16  C13 UNL     1       2.818   2.594  -0.662  1.00  0.00     0.026 A 
HETATM   17  C14 UNL     1       2.162   1.352  -0.668  1.00  0.00    -0.002 A 
BRANCH  14  18
HETATM   18  O2  UNL     1      -0.037   4.850  -0.658  1.00  0.00    -0.326 OA
HETATM   19  C16 UNL     1      -1.453   4.742  -0.660  1.00  0.00     0.181 C 
ENDBRANCH  14  18
BRANCH  15  20
HETATM   20  O1  UNL     1       2.695   4.949  -0.656  1.00  0.00    -0.326 OA
HETATM   21  C15 UNL     1       4.115   4.945  -0.654  1.00  0.00     0.181 C 
ENDBRANCH  15  20
ENDBRANCH   1  12
TORSDOF 6
