REMARK  0 active torsions:
REMARK  status: ('A' for Active; 'I' for Inactive)
ROOT
HETATM    1  C1  UNL     1       1.350   1.174   0.336  1.00  0.00     0.178 C 
HETATM    2  C2  UNL     1       1.865  -0.246   0.195  1.00  0.00     0.180 C 
HETATM    3  C3  UNL     1       0.787  -1.277   0.594  1.00  0.00     0.068 C 
HETATM    4  C4  UNL     1      -0.482  -1.084  -0.244  1.00  0.00     0.132 C 
HETATM    5  C5  UNL     1      -0.938   0.391  -0.365  1.00  0.00     0.063 C 
HETATM    6  C6  UNL     1      -0.139   1.342   0.535  1.00  0.00     0.074 C 
HETATM    7  C7  UNL     1      -2.381   0.273   0.012  1.00  0.00     0.043 C 
HETATM    8  C8  UNL     1      -2.648  -1.094   0.428  1.00  0.00     0.292 C 
HETATM    9  O1  UNL     1      -1.553  -1.846   0.334  1.00  0.00    -0.301 OA
HETATM   10  O2  UNL     1      -3.731  -1.475   0.809  1.00  0.00    -0.260 OA
HETATM   11  C9  UNL     1      -3.272   1.281  -0.035  1.00  0.00     0.001 C 
HETATM   12  O3  UNL     1       2.967  -0.426   1.062  1.00  0.00    -0.218 OA
HETATM   13  C10 UNL     1       2.383  -0.484  -1.227  1.00  0.00     0.041 C 
HETATM   14  O4  UNL     1       2.088   2.133   0.285  1.00  0.00    -0.293 OA
ENDROOT
TORSDOF 0
