REMARK  3 active torsions:
REMARK  status: ('A' for Active; 'I' for Inactive)
REMARK    1  A    between atoms: C5_5  and  C7_7 
REMARK    2  A    between atoms: C8_8  and  C9_9 
REMARK    3  A    between atoms: C12_13  and  O2_15 
ROOT
HETATM    1  C9  UNL     1      -0.217  -0.883  -1.678  1.00  0.00     0.153 C 
HETATM    2  O1  UNL     1       0.367  -2.185  -1.828  1.00  0.00    -0.296 OA
HETATM    3  C10 UNL     1       1.697  -2.297  -1.656  1.00  0.00     0.298 C 
HETATM    4  C11 UNL     1       2.559  -1.096  -1.676  1.00  0.00     0.088 C 
HETATM    5  C12 UNL     1       2.069   0.104  -2.037  1.00  0.00     0.080 C 
HETATM    6  C13 UNL     1       0.613   0.174  -2.432  1.00  0.00     0.086 C 
HETATM    7  O3  UNL     1       2.231  -3.369  -1.494  1.00  0.00    -0.259 OA
ENDROOT
BRANCH   1   8
HETATM    8  C8  UNL     1      -0.361  -0.566  -0.209  1.00  0.00     0.004 C 
HETATM    9  C7  UNL     1      -1.597  -0.449   0.303  1.00  0.00    -0.002 C 
BRANCH   9  10
HETATM   10  C5  UNL     1      -1.744  -0.137   1.756  1.00  0.00    -0.000 A 
HETATM   11  C4  UNL     1      -2.869  -0.596   2.465  1.00  0.00    -0.000 A 
HETATM   12  C3  UNL     1      -3.008  -0.301   3.832  1.00  0.00    -0.000 A 
HETATM   13  C2  UNL     1      -2.021   0.453   4.492  1.00  0.00    -0.000 A 
HETATM   14  C1  UNL     1      -0.898   0.912   3.785  1.00  0.00    -0.000 A 
HETATM   15  C6  UNL     1      -0.758   0.617   2.418  1.00  0.00    -0.000 A 
ENDBRANCH   9  10
ENDBRANCH   1   8
BRANCH   5  16
HETATM   16  O2  UNL     1       2.842   1.188  -2.041  1.00  0.00    -0.332 OA
HETATM   17  C14 UNL     1       2.506   2.086  -3.088  1.00  0.00     0.181 C 
ENDBRANCH   5  16
TORSDOF 3
