REMARK  10 active torsions:
REMARK  status: ('A' for Active; 'I' for Inactive)
REMARK    1  A    between atoms: C5_5  and  O2_7 
REMARK    2  A    between atoms: O2_7  and  C6_8 
REMARK    3  A    between atoms: C6_8  and  C7_9 
REMARK    4  A    between atoms: C11_13  and  O4_15 
REMARK    5  A    between atoms: O4_15  and  C12_16 
REMARK    6  A    between atoms: C12_16  and  C13_17 
REMARK    7  A    between atoms: C12_16  and  C18_22 
REMARK    8  A    between atoms: C13_17  and  C14_18 
REMARK    9  A    between atoms: C14_18  and  C15_19 
REMARK   10  A    between atoms: C15_19  and  C16_20 
ROOT
HETATM    1  C7  UNL     1      -1.459  -1.975  -0.717  1.00  0.00     0.180 C 
HETATM    2  C8  UNL     1      -2.164  -3.195  -0.086  1.00  0.00     0.215 C 
HETATM    3  C9  UNL     1      -1.199  -4.393   0.057  1.00  0.00     0.220 C 
HETATM    4  C10 UNL     1       0.100  -3.944   0.762  1.00  0.00     0.241 C 
HETATM    5  C11 UNL     1       0.688  -2.676   0.092  1.00  0.00     0.270 C 
HETATM    6  O3  UNL     1      -0.301  -1.654   0.041  1.00  0.00    -0.326 OA
HETATM    7  O5  UNL     1       1.053  -4.992   0.703  1.00  0.00    -0.215 OA
HETATM    8  O6  UNL     1      -1.822  -5.424   0.805  1.00  0.00    -0.218 OA
HETATM    9  O7  UNL     1      -3.264  -3.557  -0.904  1.00  0.00    -0.218 OA
ENDROOT
BRANCH   1  10
HETATM   10  C6  UNL     1      -2.336  -0.717  -0.730  1.00  0.00     0.177 C 
BRANCH  10  11
HETATM   11  O2  UNL     1      -1.668   0.279  -1.471  1.00  0.00    -0.326 OA
BRANCH  11  12
HETATM   12  C5  UNL     1      -2.365   1.508  -1.508  1.00  0.00     0.270 C 
HETATM   13  C4  UNL     1      -1.482   2.615  -2.139  1.00  0.00     0.241 C 
HETATM   14  C3  UNL     1      -2.281   3.926  -2.332  1.00  0.00     0.220 C 
HETATM   15  O8  UNL     1      -0.367   2.863  -1.299  1.00  0.00    -0.215 OA
HETATM   16  C2  UNL     1      -3.609   3.625  -3.057  1.00  0.00     0.215 C 
HETATM   17  O9  UNL     1      -1.520   4.850  -3.092  1.00  0.00    -0.218 OA
HETATM   18  C1  UNL     1      -4.377   2.480  -2.367  1.00  0.00     0.181 C 
HETATM   19  O10 UNL     1      -4.438   4.773  -3.064  1.00  0.00    -0.218 OA
HETATM   20  O1  UNL     1      -3.545   1.332  -2.281  1.00  0.00    -0.326 OA
ENDBRANCH  11  12
ENDBRANCH  10  11
ENDBRANCH   1  10
BRANCH   5  21
HETATM   21  O4  UNL     1       1.791  -2.192   0.828  1.00  0.00    -0.327 OA
BRANCH  21  22
HETATM   22  C12 UNL     1       2.523  -1.199   0.147  1.00  0.00     0.140 C 
BRANCH  22  23
HETATM   23  C13 UNL     1       3.471  -0.531   1.143  1.00  0.00     0.034 C 
BRANCH  23  24
HETATM   24  C14 UNL     1       2.731   0.291   2.199  1.00  0.00     0.003 C 
BRANCH  24  25
HETATM   25  C15 UNL     1       3.680   0.990   3.174  1.00  0.00     0.000 C 
BRANCH  25  26
HETATM   26  C16 UNL     1       2.939   1.810   4.231  1.00  0.00     0.000 C 
HETATM   27  C17 UNL     1       3.889   2.510   5.205  1.00  0.00     0.000 C 
ENDBRANCH  25  26
ENDBRANCH  24  25
ENDBRANCH  23  24
ENDBRANCH  22  23
BRANCH  22  28
HETATM   28  C18 UNL     1       3.254  -1.820  -1.014  1.00  0.00     0.003 C 
HETATM   29  C19 UNL     1       3.102  -1.281  -2.232  1.00  0.00    -0.002 C 
ENDBRANCH  22  28
ENDBRANCH  21  22
ENDBRANCH   5  21
TORSDOF 10
