REMARK  1 active torsions:
REMARK  status: ('A' for Active; 'I' for Inactive)
REMARK    1  A    between atoms: C10_10  and  C11_11 
ROOT
HETATM    1  C1  UNL     1      -2.002  -2.295  -0.123  1.00  0.00    -0.035 C 
HETATM    2  C2  UNL     1      -2.832  -1.231  -0.127  1.00  0.00    -0.048 C 
HETATM    3  C3  UNL     1      -2.494   0.158  -0.637  1.00  0.00     0.024 C 
HETATM    4  C4  UNL     1      -1.035   0.521  -0.982  1.00  0.00     0.035 C 
HETATM    5  C5  UNL     1       0.037   0.154   0.062  1.00  0.00     0.127 C 
HETATM    6  C6  UNL     1       0.353  -1.371   0.172  1.00  0.00     0.030 C 
HETATM    7  C7  UNL     1      -0.584  -2.281  -0.637  1.00  0.00     0.028 C 
HETATM    8  C8  UNL     1       1.766  -1.484  -0.422  1.00  0.00     0.003 C 
HETATM    9  C9  UNL     1       2.439  -0.199   0.035  1.00  0.00     0.003 C 
HETATM   10  C10 UNL     1       1.375   0.814  -0.363  1.00  0.00     0.028 C 
HETATM   11  C14 UNL     1       0.490  -1.895   1.611  1.00  0.00     0.003 C 
HETATM   12  O1  UNL     1      -0.377   0.676   1.318  1.00  0.00    -0.226 OA
HETATM   13  C15 UNL     1      -4.225  -1.406   0.422  1.00  0.00     0.026 C 
ENDROOT
BRANCH  10  14
HETATM   14  C11 UNL     1       1.695   2.193   0.215  1.00  0.00     0.002 C 
HETATM   15  C12 UNL     1       0.611   3.187  -0.207  1.00  0.00     0.000 C 
HETATM   16  C13 UNL     1       3.094   2.621  -0.231  1.00  0.00     0.000 C 
ENDBRANCH  10  14
TORSDOF 1
