REMARK  3 active torsions:
REMARK  status: ('A' for Active; 'I' for Inactive)
REMARK    1  A    between atoms: C19_20  and  C20_21 
REMARK    2  A    between atoms: C22_23  and  C24_27 
REMARK    3  A    between atoms: C24_27  and  C25_28 
ROOT
HETATM    1  C1  UNL     1      -5.596  -4.199   0.420  1.00  0.00     0.007 C 
HETATM    2  C2  UNL     1      -5.285  -2.994  -0.476  1.00  0.00     0.052 C 
HETATM    3  C3  UNL     1      -3.816  -2.500  -0.299  1.00  0.00     0.011 C 
HETATM    4  C4  UNL     1      -2.795  -3.639  -0.510  1.00  0.00     0.026 C 
HETATM    5  C5  UNL     1      -1.365  -3.215  -0.287  1.00  0.00    -0.035 C 
HETATM    6  C6  UNL     1      -1.045  -2.106   0.412  1.00  0.00    -0.049 C 
HETATM    7  C7  UNL     1      -2.086  -1.209   1.072  1.00  0.00     0.018 C 
HETATM    8  C8  UNL     1      -3.541  -1.777   1.047  1.00  0.00     0.004 C 
HETATM    9  C9  UNL     1      -4.590  -0.660   1.254  1.00  0.00     0.008 C 
HETATM   10  C10 UNL     1      -6.031  -1.174   1.184  1.00  0.00     0.065 C 
HETATM   11  C11 UNL     1      -6.273  -1.902  -0.113  1.00  0.00     0.150 C 
HETATM   12  O1  UNL     1      -7.213  -1.617  -0.820  1.00  0.00    -0.296 OA
HETATM   13  C12 UNL     1      -3.674  -2.781   2.207  1.00  0.00     0.000 C 
HETATM   14  C13 UNL     1      -1.908   0.225   0.504  1.00  0.00     0.004 C 
HETATM   15  C14 UNL     1      -0.453   0.740   0.600  1.00  0.00     0.001 C 
HETATM   16  C15 UNL     1       0.508  -0.240  -0.090  1.00  0.00     0.003 C 
HETATM   17  C16 UNL     1       0.385  -1.625   0.576  1.00  0.00     0.015 C 
HETATM   18  C17 UNL     1       1.537  -2.365  -0.119  1.00  0.00     0.004 C 
HETATM   19  C18 UNL     1       2.662  -1.322  -0.176  1.00  0.00     0.001 C 
HETATM   20  C19 UNL     1       2.006   0.043   0.084  1.00  0.00     0.005 C 
HETATM   21  C28 UNL     1       0.738  -1.623   2.072  1.00  0.00     0.004 C 
HETATM   22  C29 UNL     1       0.193  -0.311  -1.596  1.00  0.00     0.000 C 
HETATM   23  C30 UNL     1      -5.506  -3.420  -1.934  1.00  0.00     0.007 C 
ENDROOT
BRANCH  20  24
HETATM   24  C20 UNL     1       2.557   1.145  -0.820  1.00  0.00     0.062 C 
HETATM   25  C21 UNL     1       4.068   1.346  -0.676  1.00  0.00     0.038 C 
HETATM   26  C22 UNL     1       4.289   2.805  -1.102  1.00  0.00     0.151 C 
HETATM   27  O2  UNL     1       2.996   3.369  -1.189  1.00  0.00    -0.329 OA
HETATM   28  C23 UNL     1       2.043   2.561  -0.537  1.00  0.00     0.269 C 
HETATM   29  O3  UNL     1       2.010   2.840   0.852  1.00  0.00    -0.190 OA
BRANCH  26  30
HETATM   30  C24 UNL     1       5.100   3.592  -0.076  1.00  0.00     0.207 C 
HETATM   31  O5  UNL     1       6.352   2.961   0.072  1.00  0.00    -0.218 OA
BRANCH  30  32
HETATM   32  C25 UNL     1       5.338   5.010  -0.596  1.00  0.00     0.157 C 
HETATM   33  C26 UNL     1       6.293   5.811   0.289  1.00  0.00     0.036 C 
HETATM   34  C27 UNL     1       5.736   5.039  -2.072  1.00  0.00     0.036 C 
HETATM   35  O4  UNL     1       4.141   5.740  -0.449  1.00  0.00    -0.223 OA
ENDBRANCH  30  32
ENDBRANCH  26  30
ENDBRANCH  20  24
TORSDOF 3
