REMARK  4 active torsions:
REMARK  status: ('A' for Active; 'I' for Inactive)
REMARK    1  A    between atoms: C6_6  and  O1_7 
REMARK    2  A    between atoms: O1_7  and  C7_8 
REMARK    3  A    between atoms: C11_12  and  C12_14 
REMARK    4  A    between atoms: C14_21  and  C16_24 
ROOT
HETATM    1  C1  UNL     1       3.373  -0.564   1.080  1.00  0.00     0.155 A 
HETATM    2  C2  UNL     1       3.506  -1.973   1.080  1.00  0.00     0.030 A 
HETATM    3  C3  UNL     1       2.357  -2.797   1.105  1.00  0.00     0.007 A 
HETATM    4  C4  UNL     1       1.070  -2.203   1.133  1.00  0.00     0.064 A 
HETATM    5  C5  UNL     1       0.932  -0.791   1.137  1.00  0.00     0.127 A 
HETATM    6  C6  UNL     1       2.086   0.027   1.107  1.00  0.00     0.145 A 
HETATM    7  O7  UNL     1      -0.297  -0.228   1.166  1.00  0.00    -0.303 OA
HETATM    8  C13 UNL     1      -1.438  -0.947   1.195  1.00  0.00     0.126 A 
HETATM    9  C14 UNL     1      -1.440  -2.301   1.193  1.00  0.00     0.064 A 
HETATM   10  C15 UNL     1      -0.156  -3.047   1.160  1.00  0.00     0.200 A 
HETATM   11  O8  UNL     1      -0.197  -4.258   1.156  1.00  0.00    -0.286 OA
HETATM   12  O10 UNL     1       4.467   0.209   1.053  1.00  0.00    -0.188 OA
ENDROOT
BRANCH   6  13
HETATM   13  O1  UNL     1       1.961   1.361   1.107  1.00  0.00    -0.299 OA
BRANCH  13  14
HETATM   14  C7  UNL     1       1.285   1.969   0.014  1.00  0.00     0.274 C 
HETATM   15  C8  UNL     1       0.904   3.422   0.369  1.00  0.00     0.241 C 
HETATM   16  C9  UNL     1       0.285   4.149  -0.846  1.00  0.00     0.220 C 
HETATM   17  O6  UNL     1      -0.018   3.402   1.445  1.00  0.00    -0.215 OA
HETATM   18  C10 UNL     1       1.209   3.983  -2.072  1.00  0.00     0.215 C 
HETATM   19  O5  UNL     1       0.121   5.527  -0.549  1.00  0.00    -0.218 OA
HETATM   20  C11 UNL     1       1.572   2.498  -2.307  1.00  0.00     0.184 C 
HETATM   21  O4  UNL     1       0.561   4.481  -3.231  1.00  0.00    -0.218 OA
HETATM   22  O2  UNL     1       2.141   1.957  -1.121  1.00  0.00    -0.326 OA
BRANCH  20  23
HETATM   23  C12 UNL     1       2.604   2.309  -3.424  1.00  0.00     0.214 C 
HETATM   24  O3  UNL     1       2.752   0.928  -3.658  1.00  0.00    -0.218 OA
ENDBRANCH  20  23
ENDBRANCH  13  14
ENDBRANCH   6  13
BRANCH   9  25
HETATM   25  C16 UNL     1      -2.744  -3.035   1.223  1.00  0.00     0.005 A 
HETATM   26  C17 UNL     1      -2.850  -4.258   1.910  1.00  0.00     0.002 A 
HETATM   27  C18 UNL     1      -4.074  -4.945   1.938  1.00  0.00     0.027 A 
HETATM   28  C19 UNL     1      -5.199  -4.416   1.281  1.00  0.00     0.131 A 
HETATM   29  C20 UNL     1      -5.092  -3.193   0.598  1.00  0.00     0.027 A 
HETATM   30  O9  UNL     1      -6.348  -5.063   1.309  1.00  0.00    -0.190 OA
HETATM   31  C21 UNL     1      -3.869  -2.502   0.566  1.00  0.00     0.002 A 
ENDBRANCH   9  25
TORSDOF 4
