REMARK  3 active torsions:
REMARK  status: ('A' for Active; 'I' for Inactive)
REMARK    1  A    between atoms: C1_1  and  O5_18 
REMARK    2  A    between atoms: C4_4  and  C7_8 
REMARK    3  A    between atoms: C7_8  and  C8_9 
ROOT
HETATM    1  C1  UNL     1       0.063   2.719  -1.156  1.00  0.00     0.121 A 
HETATM    2  C2  UNL     1      -0.578   3.012   0.063  1.00  0.00     0.153 A 
HETATM    3  C3  UNL     1      -0.990   1.965   0.905  1.00  0.00     0.035 A 
HETATM    4  C4  UNL     1      -0.767   0.627   0.534  1.00  0.00     0.067 A 
HETATM    5  C5  UNL     1      -0.129   0.332  -0.685  1.00  0.00     0.136 A 
HETATM    6  C6  UNL     1       0.283   1.381  -1.525  1.00  0.00     0.054 A 
HETATM    7  O1  UNL     1       0.088  -0.918  -1.046  1.00  0.00    -0.190 OA
HETATM    8  O4  UNL     1      -0.789   4.264   0.416  1.00  0.00    -0.188 OA
ENDROOT
BRANCH   4   9
HETATM    9  C7  UNL     1      -1.215  -0.475   1.440  1.00  0.00     0.200 C 
HETATM   10  O3  UNL     1      -2.182  -0.340   2.153  1.00  0.00    -0.286 OA
BRANCH   9  11
HETATM   11  C8  UNL     1      -0.432  -1.748   1.440  1.00  0.00     0.064 A 
HETATM   12  C9  UNL     1       0.975  -1.699   1.440  1.00  0.00     0.005 A 
HETATM   13  C10 UNL     1       1.721  -2.889   1.440  1.00  0.00     0.000 A 
HETATM   14  C11 UNL     1       1.065  -4.131   1.440  1.00  0.00     0.002 A 
HETATM   15  C12 UNL     1      -0.340  -4.180   1.440  1.00  0.00     0.028 A 
HETATM   16  C13 UNL     1      -1.094  -2.992   1.440  1.00  0.00     0.134 A 
HETATM   17  O2  UNL     1      -2.410  -3.055   1.440  1.00  0.00    -0.190 OA
ENDBRANCH   9  11
ENDBRANCH   4   9
BRANCH   1  18
HETATM   18  O5  UNL     1       0.453   3.695  -1.953  1.00  0.00    -0.326 OA
HETATM   19  C14 UNL     1       1.082   3.344  -3.175  1.00  0.00     0.181 C 
ENDBRANCH   1  18
TORSDOF 3
