REMARK  5 active torsions:
REMARK  status: ('A' for Active; 'I' for Inactive)
REMARK    1  A    between atoms: C3_3  and  O2_13 
REMARK    2  A    between atoms: C5_5  and  C7_7 
REMARK    3  A    between atoms: C7_7  and  C8_8 
REMARK    4  A    between atoms: C8_8  and  C9_9 
REMARK    5  A    between atoms: C9_9  and  C10_11 
ROOT
HETATM    1  C1  UNL     1       0.451  -2.267   1.410  1.00  0.00     0.029 A 
HETATM    2  C2  UNL     1      -0.953  -2.322   1.410  1.00  0.00     0.153 A 
HETATM    3  C3  UNL     1      -1.701  -1.129   1.410  1.00  0.00     0.119 A 
HETATM    4  C4  UNL     1      -1.039   0.112   1.410  1.00  0.00     0.022 A 
HETATM    5  C5  UNL     1       0.365   0.164   1.410  1.00  0.00    -0.020 A 
HETATM    6  C6  UNL     1       1.111  -1.027   1.410  1.00  0.00    -0.002 A 
HETATM    7  O3  UNL     1      -1.566  -3.490   1.410  1.00  0.00    -0.188 OA
ENDROOT
BRANCH   5   8
HETATM    8  C7  UNL     1       1.061   1.479   1.410  1.00  0.00     0.034 C 
BRANCH   8   9
HETATM    9  C8  UNL     1       1.756   1.748   0.076  1.00  0.00     0.069 C 
BRANCH   9  10
HETATM   10  C9  UNL     1       0.779   1.928  -1.055  1.00  0.00     0.151 C 
HETATM   11  O1  UNL     1      -0.412   1.930  -0.854  1.00  0.00    -0.296 OA
BRANCH  10  12
HETATM   12  C10 UNL     1       1.330   2.104  -2.445  1.00  0.00     0.065 C 
HETATM   13  C11 UNL     1       2.023   0.844  -2.963  1.00  0.00     0.008 C 
ENDBRANCH  10  12
ENDBRANCH   9  10
ENDBRANCH   8   9
ENDBRANCH   5   8
BRANCH   3  14
HETATM   14  O2  UNL     1      -3.020  -1.172   1.410  1.00  0.00    -0.326 OA
HETATM   15  C12 UNL     1      -3.674  -1.539   0.205  1.00  0.00     0.181 C 
ENDBRANCH   3  14
TORSDOF 5
