REMARK  7 active torsions:
REMARK  status: ('A' for Active; 'I' for Inactive)
REMARK    1  A    between atoms: C2_2  and  O4_26 
REMARK    2  A    between atoms: C12_12  and  C16_16 
REMARK    3  A    between atoms: C16_16  and  C17_17 
REMARK    4  A    between atoms: C16_16  and  O2_19 
REMARK    5  A    between atoms: O2_19  and  C18_20 
REMARK    6  A    between atoms: O4_26  and  C23_27 
REMARK    7  A    between atoms: C27_34  and  C28_36 
ROOT
HETATM    1  C1  UNL     1      -1.748   2.088   0.250  1.00  0.00     0.030 C 
HETATM    2  C2  UNL     1      -2.135   0.664  -0.215  1.00  0.00     0.118 C 
HETATM    3  C3  UNL     1      -2.455  -0.289   0.963  1.00  0.00     0.025 C 
HETATM    4  C4  UNL     1      -1.238  -0.383   1.959  1.00  0.00     0.003 C 
HETATM    5  C5  UNL     1      -0.244   0.826   1.918  1.00  0.00     0.004 C 
HETATM    6  C6  UNL     1      -1.053   2.107   1.625  1.00  0.00     0.003 C 
HETATM    7  C7  UNL     1       0.914   0.678   0.867  1.00  0.00     0.018 C 
HETATM    8  C8  UNL     1       1.477  -0.732   0.762  1.00  0.00    -0.049 C 
HETATM    9  C9  UNL     1       0.477  -1.865   0.783  1.00  0.00     0.022 C 
HETATM   10  C10 UNL     1      -0.473  -1.723   1.969  1.00  0.00     0.004 C 
HETATM   11  C11 UNL     1       2.797  -0.992   0.637  1.00  0.00    -0.033 C 
HETATM   12  C12 UNL     1       3.857   0.088   0.578  1.00  0.00     0.046 C 
HETATM   13  C13 UNL     1       3.244   1.441   0.180  1.00  0.00     0.007 C 
HETATM   14  C14 UNL     1       2.012   1.754   1.033  1.00  0.00     0.004 C 
HETATM   15  C15 UNL     1       4.920  -0.316  -0.447  1.00  0.00     0.007 C 
HETATM   16  C20 UNL     1       0.369   0.951   3.324  1.00  0.00     0.000 C 
HETATM   17  C21 UNL     1      -2.852  -1.670   0.418  1.00  0.00     0.002 C 
HETATM   18  C22 UNL     1      -3.682   0.256   1.717  1.00  0.00     0.002 C 
ENDROOT
BRANCH   2  19
HETATM   19  O4  UNL     1      -3.229   0.758  -1.109  1.00  0.00    -0.332 OA
BRANCH  19  20
HETATM   20  C23 UNL     1      -3.104  -0.088  -2.234  1.00  0.00     0.270 C 
HETATM   21  C24 UNL     1      -2.520   0.693  -3.440  1.00  0.00     0.241 C 
HETATM   22  O5  UNL     1      -1.188   1.086  -3.143  1.00  0.00    -0.215 OA
HETATM   23  C25 UNL     1      -2.525  -0.174  -4.719  1.00  0.00     0.220 C 
HETATM   24  O6  UNL     1      -2.176   0.623  -5.842  1.00  0.00    -0.218 OA
HETATM   25  C26 UNL     1      -3.924  -0.793  -4.930  1.00  0.00     0.215 C 
HETATM   26  O7  UNL     1      -3.877  -1.736  -5.986  1.00  0.00    -0.218 OA
HETATM   27  C27 UNL     1      -4.422  -1.504  -3.652  1.00  0.00     0.184 C 
HETATM   28  O8  UNL     1      -4.393  -0.592  -2.564  1.00  0.00    -0.326 OA
BRANCH  27  29
HETATM   29  C28 UNL     1      -5.865  -2.004  -3.772  1.00  0.00     0.214 C 
HETATM   30  O9  UNL     1      -6.160  -2.775  -2.629  1.00  0.00    -0.218 OA
ENDBRANCH  27  29
ENDBRANCH  19  20
ENDBRANCH   2  19
BRANCH  12  31
HETATM   31  C16 UNL     1       4.514   0.184   1.961  1.00  0.00     0.161 C 
BRANCH  31  32
HETATM   32  C17 UNL     1       5.275  -1.086   2.342  1.00  0.00     0.213 C 
HETATM   33  O1  UNL     1       5.139  -1.281   3.731  1.00  0.00    -0.218 OA
ENDBRANCH  31  32
BRANCH  31  34
HETATM   34  O2  UNL     1       5.400   1.293   1.986  1.00  0.00    -0.301 OA
BRANCH  34  35
HETATM   35  C18 UNL     1       5.742   1.639   3.225  1.00  0.00     0.272 C 
HETATM   36  O3  UNL     1       5.084   1.373   4.203  1.00  0.00    -0.264 OA
HETATM   37  C19 UNL     1       7.033   2.404   3.342  1.00  0.00     0.106 C 
ENDBRANCH  34  35
ENDBRANCH  31  34
ENDBRANCH  12  31
TORSDOF 7
