REMARK  14 active torsions:
REMARK  status: ('A' for Active; 'I' for Inactive)
REMARK    1  A    between atoms: C1_1  and  C47_65 
REMARK    2  A    between atoms: C5_5  and  O2_7 
REMARK    3  A    between atoms: O2_7  and  C6_8 
REMARK    4  A    between atoms: C9_12  and  O5_15 
REMARK    5  A    between atoms: O5_15  and  C11_16 
REMARK    6  A    between atoms: C12_17  and  C45_58 
REMARK    7  A    between atoms: C26_31  and  C40_52 
REMARK    8  A    between atoms: C31_37  and  C34_40 
REMARK    9  A    between atoms: C34_40  and  O8_42 
REMARK   10  A    between atoms: O8_42  and  C35_43 
REMARK   11  A    between atoms: C35_43  and  C36_44 
REMARK   12  A    between atoms: C36_44  and  C37_46 
REMARK   13  A    between atoms: C37_46  and  C38_48 
REMARK   14  A    between atoms: C38_48  and  C39_50 
ROOT
HETATM    1  C11 UNL     1       2.535   0.248  -1.428  1.00  0.00     0.120 C 
HETATM    2  C12 UNL     1       1.867   1.063  -2.576  1.00  0.00     0.056 C 
HETATM    3  C13 UNL     1       0.316   1.150  -2.363  1.00  0.00     0.005 C 
HETATM    4  C14 UNL     1      -0.105   1.131  -0.867  1.00  0.00     0.004 C 
HETATM    5  C15 UNL     1       0.340  -0.223  -0.238  1.00  0.00     0.003 C 
HETATM    6  C16 UNL     1       1.606  -0.838  -0.871  1.00  0.00     0.030 C 
HETATM    7  C17 UNL     1      -1.656   1.275  -0.746  1.00  0.00     0.022 C 
HETATM    8  C18 UNL     1      -2.293   2.494  -1.506  1.00  0.00     0.007 C 
HETATM    9  C19 UNL     1      -1.854   2.379  -2.986  1.00  0.00     0.001 C 
HETATM   10  C20 UNL     1      -0.328   2.309  -3.152  1.00  0.00     0.000 C 
HETATM   11  C21 UNL     1      -3.881   2.559  -1.291  1.00  0.00     0.021 C 
HETATM   12  C22 UNL     1      -4.348   1.467  -0.318  1.00  0.00    -0.031 C 
HETATM   13  C23 UNL     1      -3.494   1.303   0.873  1.00  0.00    -0.009 C 
HETATM   14  C24 UNL     1      -2.166   1.230   0.682  1.00  0.00    -0.027 C 
HETATM   15  C25 UNL     1      -5.440   0.689  -0.533  1.00  0.00    -0.043 C 
HETATM   16  C26 UNL     1      -6.102   0.559  -1.895  1.00  0.00     0.074 C 
HETATM   17  C27 UNL     1      -5.229   1.209  -3.000  1.00  0.00     0.158 C 
HETATM   18  C28 UNL     1      -4.744   2.596  -2.586  1.00  0.00     0.037 C 
HETATM   19  O6  UNL     1      -5.949   1.303  -4.215  1.00  0.00    -0.223 OA
HETATM   20  C29 UNL     1      -7.537   1.145  -1.775  1.00  0.00     0.009 C 
HETATM   21  C30 UNL     1      -8.180   0.998  -0.373  1.00  0.00     0.010 C 
HETATM   22  C31 UNL     1      -7.647  -0.201   0.445  1.00  0.00     0.082 C 
HETATM   23  C32 UNL     1      -6.100  -0.100   0.594  1.00  0.00     0.031 C 
HETATM   24  C33 UNL     1      -8.072  -1.523  -0.203  1.00  0.00     0.010 C 
HETATM   25  C41 UNL     1      -4.270   3.846  -0.531  1.00  0.00     0.004 C 
HETATM   26  C42 UNL     1      -1.648   3.791  -0.969  1.00  0.00     0.001 C 
HETATM   27  C43 UNL     1       0.594   2.273  -0.113  1.00  0.00     0.000 C 
HETATM   28  C44 UNL     1       2.113   0.422  -3.953  1.00  0.00     0.005 C 
ENDROOT
BRANCH   1  29
HETATM   29  O5  UNL     1       3.756  -0.340  -1.842  1.00  0.00    -0.332 OA
BRANCH  29  30
HETATM   30  C9  UNL     1       4.484  -0.920  -0.777  1.00  0.00     0.270 C 
HETATM   31  O3  UNL     1       4.285  -2.326  -0.809  1.00  0.00    -0.329 OA
HETATM   32  C8  UNL     1       4.928  -3.049   0.236  1.00  0.00     0.151 C 
HETATM   33  C7  UNL     1       6.455  -2.846   0.131  1.00  0.00     0.209 C 
HETATM   34  C46 UNL     1       4.512  -4.514   0.078  1.00  0.00     0.035 C 
HETATM   35  C6  UNL     1       6.822  -1.346   0.148  1.00  0.00     0.186 C 
HETATM   36  O15 UNL     1       7.074  -3.506   1.223  1.00  0.00    -0.218 OA
HETATM   37  C10 UNL     1       5.994  -0.598  -0.918  1.00  0.00     0.238 C 
HETATM   38  O4  UNL     1       6.192   0.801  -0.766  1.00  0.00    -0.215 OA
BRANCH  35  39
HETATM   39  O2  UNL     1       8.209  -1.188  -0.115  1.00  0.00    -0.326 OA
BRANCH  39  40
HETATM   40  C5  UNL     1       8.750  -0.010   0.449  1.00  0.00     0.270 C 
HETATM   41  C4  UNL     1       9.723  -0.275   1.647  1.00  0.00     0.241 C 
HETATM   42  C3  UNL     1      11.223  -0.311   1.219  1.00  0.00     0.220 C 
HETATM   43  O16 UNL     1       9.324  -1.434   2.371  1.00  0.00    -0.215 OA
HETATM   44  C2  UNL     1      11.346  -0.750  -0.256  1.00  0.00     0.215 C 
HETATM   45  O17 UNL     1      12.022  -1.117   2.070  1.00  0.00    -0.218 OA
HETATM   46  C1  UNL     1      10.522   0.166  -1.205  1.00  0.00     0.184 C 
HETATM   47  O18 UNL     1      12.701  -0.734  -0.674  1.00  0.00    -0.218 OA
HETATM   48  O1  UNL     1       9.410   0.777  -0.543  1.00  0.00    -0.326 OA
BRANCH  46  49
HETATM   49  C47 UNL     1      10.010  -0.576  -2.445  1.00  0.00     0.214 C 
HETATM   50  O19 UNL     1       9.361   0.354  -3.281  1.00  0.00    -0.218 OA
ENDBRANCH  46  49
ENDBRANCH  39  40
ENDBRANCH  35  39
ENDBRANCH  29  30
ENDBRANCH   1  29
BRANCH   2  51
HETATM   51  C45 UNL     1       2.512   2.457  -2.600  1.00  0.00     0.184 C 
HETATM   52  O14 UNL     1       3.834   2.322  -3.070  1.00  0.00    -0.221 OA
ENDBRANCH   2  51
BRANCH  16  53
HETATM   53  C40 UNL     1      -6.180  -0.939  -2.238  1.00  0.00     0.188 C 
HETATM   54  O13 UNL     1      -5.260  -1.627  -1.420  1.00  0.00    -0.220 OA
ENDBRANCH  16  53
BRANCH  22  55
HETATM   55  C34 UNL     1      -8.295  -0.195   1.809  1.00  0.00     0.271 C 
HETATM   56  O7  UNL     1      -9.248   0.510   2.041  1.00  0.00    -0.264 OA
BRANCH  55  57
HETATM   57  O8  UNL     1      -7.740  -1.010   2.703  1.00  0.00    -0.299 OA
BRANCH  57  58
HETATM   58  C35 UNL     1      -8.145  -0.709   4.031  1.00  0.00     0.187 C 
BRANCH  58  59
HETATM   59  C36 UNL     1      -7.553  -1.744   4.988  1.00  0.00     0.215 C 
HETATM   60  O9  UNL     1      -8.283  -1.697   6.193  1.00  0.00    -0.218 OA
BRANCH  59  61
HETATM   61  C37 UNL     1      -6.082  -1.479   5.311  1.00  0.00     0.218 C 
HETATM   62  O10 UNL     1      -5.393  -1.287   4.096  1.00  0.00    -0.218 OA
BRANCH  61  63
HETATM   63  C38 UNL     1      -5.422  -2.639   6.057  1.00  0.00     0.218 C 
HETATM   64  O11 UNL     1      -6.014  -2.736   7.332  1.00  0.00    -0.218 OA
BRANCH  63  65
HETATM   65  C39 UNL     1      -3.918  -2.443   6.240  1.00  0.00     0.218 C 
HETATM   66  O12 UNL     1      -3.715  -1.285   7.016  1.00  0.00    -0.218 OA
ENDBRANCH  63  65
ENDBRANCH  61  63
ENDBRANCH  59  61
ENDBRANCH  58  59
ENDBRANCH  57  58
ENDBRANCH  55  57
ENDBRANCH  22  55
TORSDOF 14
