REMARK  8 active torsions:
REMARK  status: ('A' for Active; 'I' for Inactive)
REMARK    1  A    between atoms: C1_1  and  O13_35 
REMARK    2  A    between atoms: C2_2  and  O6_22 
REMARK    3  A    between atoms: C11_12  and  O4_19 
REMARK    4  A    between atoms: C12_13  and  O3_17 
REMARK    5  A    between atoms: C13_14  and  O2_15 
REMARK    6  A    between atoms: O6_22  and  O7_23 
REMARK    7  A    between atoms: O7_23  and  C17_24 
REMARK    8  A    between atoms: C21_31  and  C22_33 
ROOT
HETATM    1  C1  UNL     1      -1.596  -1.848   0.240  1.00  0.00     0.120 A 
HETATM    2  C2  UNL     1      -1.455  -0.561  -0.330  1.00  0.00     0.155 A 
HETATM    3  C3  UNL     1      -0.180   0.049  -0.393  1.00  0.00     0.054 A 
HETATM    4  C4  UNL     1       0.957  -0.623   0.113  1.00  0.00     0.105 A 
HETATM    5  C5  UNL     1       0.819  -1.920   0.682  1.00  0.00     0.064 A 
HETATM    6  C6  UNL     1      -0.463  -2.527   0.744  1.00  0.00     0.032 A 
HETATM    7  C7  UNL     1       2.020  -2.643   1.215  1.00  0.00     0.201 A 
HETATM    8  C8  UNL     1       3.309  -1.879   1.090  1.00  0.00     0.086 A 
HETATM    9  C9  UNL     1       3.309  -0.580   0.502  1.00  0.00     0.107 A 
HETATM   10  O1  UNL     1       2.164  -0.025   0.049  1.00  0.00    -0.307 OA
HETATM   11  C10 UNL     1       4.518   0.143   0.387  1.00  0.00     0.051 A 
HETATM   12  C11 UNL     1       5.731  -0.418   0.852  1.00  0.00     0.120 A 
HETATM   13  C12 UNL     1       5.737  -1.707   1.434  1.00  0.00     0.139 A 
HETATM   14  C13 UNL     1       4.532  -2.440   1.553  1.00  0.00     0.123 A 
HETATM   15  O5  UNL     1       1.951  -3.750   1.703  1.00  0.00    -0.286 OA
ENDROOT
BRANCH   2  16
HETATM   16  O6  UNL     1      -2.527   0.084  -0.813  1.00  0.00    -0.190 OA
BRANCH  16  17
HETATM   17  O7  UNL     1      -2.392   1.475  -0.598  1.00  0.00    -0.185 OA
BRANCH  17  18
HETATM   18  C17 UNL     1      -3.543   2.053  -1.195  1.00  0.00     0.303 C 
HETATM   19  C18 UNL     1      -3.432   3.598  -1.256  1.00  0.00     0.244 C 
HETATM   20  O8  UNL     1      -3.377   4.143   0.055  1.00  0.00    -0.215 OA
HETATM   21  C19 UNL     1      -4.648   4.197  -2.010  1.00  0.00     0.220 C 
HETATM   22  O9  UNL     1      -4.289   4.430  -3.359  1.00  0.00    -0.218 OA
HETATM   23  C20 UNL     1      -5.863   3.230  -1.981  1.00  0.00     0.215 C 
HETATM   24  O10 UNL     1      -7.059   3.979  -2.102  1.00  0.00    -0.218 OA
HETATM   25  C21 UNL     1      -5.892   2.416  -0.666  1.00  0.00     0.184 C 
HETATM   26  O11 UNL     1      -4.723   1.605  -0.525  1.00  0.00    -0.324 OA
BRANCH  25  27
HETATM   27  C22 UNL     1      -7.096   1.475  -0.547  1.00  0.00     0.214 C 
HETATM   28  O12 UNL     1      -7.115   0.949   0.760  1.00  0.00    -0.218 OA
ENDBRANCH  25  27
ENDBRANCH  17  18
ENDBRANCH  16  17
ENDBRANCH   2  16
BRANCH   1  29
HETATM   29  O13 UNL     1      -2.803  -2.428   0.303  1.00  0.00    -0.326 OA
HETATM   30  C23 UNL     1      -2.883  -3.744   0.830  1.00  0.00     0.181 C 
ENDBRANCH   1  29
BRANCH  14  31
HETATM   31  O2  UNL     1       4.561  -3.660   2.109  1.00  0.00    -0.326 OA
HETATM   32  C14 UNL     1       5.619  -4.533   1.742  1.00  0.00     0.181 C 
ENDBRANCH  14  31
BRANCH  12  33
HETATM   33  O4  UNL     1       6.871   0.277   0.738  1.00  0.00    -0.326 OA
HETATM   34  C16 UNL     1       6.811   1.568   0.152  1.00  0.00     0.181 C 
ENDBRANCH  12  33
BRANCH  13  35
HETATM   35  O3  UNL     1       6.889  -2.236   1.871  1.00  0.00    -0.324 OA
HETATM   36  C15 UNL     1       8.057  -2.027   1.092  1.00  0.00     0.182 C 
ENDBRANCH  13  35
TORSDOF 8
