REMARK  9 active torsions:
REMARK  status: ('A' for Active; 'I' for Inactive)
REMARK    1  A    between atoms: C9_9  and  C10_11 
REMARK    2  A    between atoms: C10_11  and  C11_12 
REMARK    3  A    between atoms: C11_12  and  C12_13 
REMARK    4  A    between atoms: C13_14  and  C14_15 
REMARK    5  A    between atoms: C14_15  and  C15_16 
REMARK    6  A    between atoms: C15_16  and  C16_17 
REMARK    7  A    between atoms: C17_18  and  C18_19 
REMARK    8  A    between atoms: C18_19  and  C19_20 
REMARK    9  A    between atoms: C19_20  and  C20_21 
ROOT
HETATM    1  C10 UNL     1      -0.348   1.334   3.291  1.00  0.00     0.032 C 
ENDROOT
BRANCH   1   2
HETATM    2  C9  UNL     1      -0.148   1.000   4.776  1.00  0.00     0.099 C 
HETATM    3  C8  UNL     1      -0.180   2.273   5.643  1.00  0.00     0.033 C 
HETATM    4  C7  UNL     1       0.982   3.209   5.276  1.00  0.00     0.031 C 
HETATM    5  C5  UNL     1       2.268   2.481   5.156  1.00  0.00     0.002 A 
HETATM    6  C4  UNL     1       2.275   1.066   4.986  1.00  0.00     0.086 A 
HETATM    7  C6  UNL     1       3.492   3.190   5.211  1.00  0.00     0.025 A 
HETATM    8  C3  UNL     1       3.512   0.377   4.885  1.00  0.00    -0.002 A 
HETATM    9  O1  UNL     1       1.125   0.356   4.928  1.00  0.00    -0.336 OA
HETATM   10  C2  UNL     1       4.734   1.094   4.942  1.00  0.00     0.002 A 
HETATM   11  C27 UNL     1       3.520  -1.088   4.717  1.00  0.00     0.033 C 
HETATM   12  C1  UNL     1       4.721   2.502   5.104  1.00  0.00     0.127 A 
HETATM   13  C28 UNL     1       6.022   0.385   4.832  1.00  0.00     0.033 C 
HETATM   14  O2  UNL     1       5.871   3.190   5.160  1.00  0.00    -0.191 OA
HETATM   15  C26 UNL     1      -1.225   0.010   5.223  1.00  0.00     0.030 C 
ENDBRANCH   1   2
BRANCH   1  16
HETATM   16  C11 UNL     1      -0.365   0.088   2.404  1.00  0.00     0.028 C 
BRANCH  16  17
HETATM   17  C12 UNL     1      -0.496   0.424   0.943  1.00  0.00    -0.035 C 
HETATM   18  C13 UNL     1      -0.309  -0.553   0.041  1.00  0.00    -0.048 C 
HETATM   19  C25 UNL     1       0.023  -1.934   0.537  1.00  0.00     0.026 C 
BRANCH  18  20
HETATM   20  C14 UNL     1      -0.441  -0.215  -1.420  1.00  0.00     0.026 C 
BRANCH  20  21
HETATM   21  C15 UNL     1      -1.688  -0.834  -2.051  1.00  0.00     0.030 C 
BRANCH  21  22
HETATM   22  C16 UNL     1      -1.834  -0.475  -3.506  1.00  0.00    -0.034 C 
HETATM   23  C17 UNL     1      -1.365  -1.330  -4.428  1.00  0.00    -0.048 C 
HETATM   24  C24 UNL     1      -0.719  -2.607  -3.959  1.00  0.00     0.026 C 
BRANCH  23  25
HETATM   25  C18 UNL     1      -1.512  -0.973  -5.881  1.00  0.00     0.026 C 
BRANCH  25  26
HETATM   26  C19 UNL     1      -2.441  -1.928  -6.629  1.00  0.00     0.030 C 
BRANCH  26  27
HETATM   27  C20 UNL     1      -2.607  -1.555  -8.076  1.00  0.00    -0.034 C 
HETATM   28  C21 UNL     1      -3.684  -0.834  -8.434  1.00  0.00    -0.048 C 
HETATM   29  C22 UNL     1      -3.885  -0.518  -9.891  1.00  0.00     0.026 C 
HETATM   30  C23 UNL     1      -4.635  -0.383  -7.357  1.00  0.00     0.026 C 
ENDBRANCH  26  27
ENDBRANCH  25  26
ENDBRANCH  23  25
ENDBRANCH  21  22
ENDBRANCH  20  21
ENDBRANCH  18  20
ENDBRANCH  16  17
ENDBRANCH   1  16
TORSDOF 9
