REMARK  6 active torsions:
REMARK  status: ('A' for Active; 'I' for Inactive)
REMARK    1  A    between atoms: C2_2  and  O3_12 
REMARK    2  A    between atoms: O3_12  and  C10_13 
REMARK    3  A    between atoms: C14_17  and  C15_19 
REMARK    4  A    between atoms: C15_19  and  O5_20 
REMARK    5  A    between atoms: O5_20  and  C16_21 
REMARK    6  A    between atoms: C18_23  and  C20_27 
ROOT
HETATM    1  C10 UNL     1       1.730   2.471  -1.029  1.00  0.00     0.274 C 
HETATM    2  C11 UNL     1       3.000   3.281  -0.695  1.00  0.00     0.241 C 
HETATM    3  C12 UNL     1       4.207   2.350  -0.443  1.00  0.00     0.220 C 
HETATM    4  C13 UNL     1       3.816   1.264   0.584  1.00  0.00     0.215 C 
HETATM    5  C14 UNL     1       2.502   0.555   0.186  1.00  0.00     0.180 C 
HETATM    6  O4  UNL     1       1.480   1.523   0.000  1.00  0.00    -0.326 OA
HETATM    7  O10 UNL     1       4.848   0.295   0.672  1.00  0.00    -0.218 OA
HETATM    8  O11 UNL     1       5.303   3.105   0.047  1.00  0.00    -0.218 OA
HETATM    9  O12 UNL     1       3.279   4.150  -1.779  1.00  0.00    -0.215 OA
ENDROOT
BRANCH   1  10
HETATM   10  O3  UNL     1       0.611   3.340  -1.135  1.00  0.00    -0.304 OA
BRANCH  10  11
HETATM   11  C2  UNL     1      -0.582   2.799  -1.422  1.00  0.00     0.099 A 
HETATM   12  C1  UNL     1      -0.656   1.474  -1.916  1.00  0.00     0.024 A 
HETATM   13  C6  UNL     1      -1.912   0.900  -2.221  1.00  0.00     0.004 A 
HETATM   14  C5  UNL     1      -3.092   1.656  -2.025  1.00  0.00     0.023 A 
HETATM   15  C4  UNL     1      -3.024   2.986  -1.529  1.00  0.00     0.105 A 
HETATM   16  C7  UNL     1      -4.428   1.082  -2.332  1.00  0.00     0.007 A 
HETATM   17  C3  UNL     1      -1.764   3.555  -1.228  1.00  0.00     0.049 A 
HETATM   18  O1  UNL     1      -4.152   3.707  -1.346  1.00  0.00    -0.273 OA
HETATM   19  C9  UNL     1      -5.383   3.223  -1.611  1.00  0.00     0.300 A 
HETATM   20  C8  UNL     1      -5.524   1.842  -2.129  1.00  0.00     0.069 A 
HETATM   21  O2  UNL     1      -6.385   3.879  -1.441  1.00  0.00    -0.259 OA
ENDBRANCH  10  11
ENDBRANCH   1  10
BRANCH   5  22
HETATM   22  C15 UNL     1       2.000  -0.420   1.256  1.00  0.00     0.177 C 
BRANCH  22  23
HETATM   23  O5  UNL     1       0.889  -1.113   0.732  1.00  0.00    -0.326 OA
BRANCH  23  24
HETATM   24  C16 UNL     1       0.320  -2.024   1.650  1.00  0.00     0.270 C 
HETATM   25  C17 UNL     1      -0.930  -2.701   1.082  1.00  0.00     0.241 C 
HETATM   26  C18 UNL     1      -1.002  -4.012   1.916  1.00  0.00     0.217 C 
HETATM   27  O9  UNL     1      -2.068  -1.861   1.195  1.00  0.00    -0.215 OA
HETATM   28  C19 UNL     1       0.428  -4.168   2.477  1.00  0.00     0.181 C 
HETATM   29  O7  UNL     1      -1.916  -3.942   2.998  1.00  0.00    -0.218 OA
HETATM   30  O6  UNL     1       1.160  -3.127   1.877  1.00  0.00    -0.326 OA
BRANCH  26  31
HETATM   31  C20 UNL     1      -1.406  -5.197   1.045  1.00  0.00     0.218 C 
HETATM   32  O8  UNL     1      -1.270  -6.373   1.811  1.00  0.00    -0.218 OA
ENDBRANCH  26  31
ENDBRANCH  23  24
ENDBRANCH  22  23
ENDBRANCH   5  22
TORSDOF 6
