REMARK  4 active torsions:
REMARK  status: ('A' for Active; 'I' for Inactive)
REMARK    1  A    between atoms: C3_3  and  C14_17 
REMARK    2  A    between atoms: C7_9  and  O3_15 
REMARK    3  A    between atoms: C9_11  and  C10_12 
REMARK    4  A    between atoms: C10_12  and  C11_13 
ROOT
HETATM    1  C1  UNL     1       0.742   2.101   0.664  1.00  0.00     0.004 C 
HETATM    2  C2  UNL     1       0.143   0.810   0.103  1.00  0.00     0.042 C 
HETATM    3  C3  UNL     1       1.082  -0.412   0.230  1.00  0.00     0.144 C 
HETATM    4  O1  UNL     1       0.256  -1.576   0.166  1.00  0.00    -0.333 OA
HETATM    5  C4  UNL     1      -0.973  -1.178   0.469  1.00  0.00     0.079 C 
HETATM    6  C5  UNL     1      -2.068  -1.959   0.402  1.00  0.00     0.064 C 
HETATM    7  C6  UNL     1      -3.404  -1.356   0.539  1.00  0.00     0.219 C 
HETATM    8  O2  UNL     1      -4.381  -2.047   0.707  1.00  0.00    -0.284 OA
HETATM    9  C7  UNL     1      -3.522   0.115   0.439  1.00  0.00     0.129 C 
HETATM   10  C8  UNL     1      -2.416   0.883   0.545  1.00  0.00     0.007 C 
HETATM   11  C9  UNL     1      -1.066   0.269   0.875  1.00  0.00     0.067 C 
ENDROOT
BRANCH   3  12
HETATM   12  C14 UNL     1       2.119  -0.473  -0.815  1.00  0.00     0.007 A 
HETATM   13  C15 UNL     1       3.428  -0.012  -0.547  1.00  0.00     0.024 A 
HETATM   14  C16 UNL     1       4.441  -0.059  -1.539  1.00  0.00     0.119 A 
HETATM   15  C17 UNL     1       4.141  -0.570  -2.805  1.00  0.00     0.119 A 
HETATM   16  O5  UNL     1       5.721   0.314  -1.512  1.00  0.00    -0.300 OA
HETATM   17  C18 UNL     1       2.826  -1.033  -3.074  1.00  0.00     0.026 A 
HETATM   18  O4  UNL     1       5.233  -0.516  -3.567  1.00  0.00    -0.300 OA
HETATM   19  C19 UNL     1       1.816  -0.986  -2.090  1.00  0.00     0.000 A 
HETATM   20  C20 UNL     1       6.318   0.055  -2.803  1.00  0.00     0.304 A 
ENDBRANCH   3  12
BRANCH  11  21
HETATM   21  C10 UNL     1      -0.834   0.385   2.383  1.00  0.00     0.036 C 
BRANCH  21  22
HETATM   22  C11 UNL     1      -1.889  -0.332   3.184  1.00  0.00    -0.025 C 
HETATM   23  C12 UNL     1      -2.738   0.398   3.922  1.00  0.00    -0.005 C 
ENDBRANCH  21  22
ENDBRANCH  11  21
BRANCH   9  24
HETATM   24  O3  UNL     1      -4.711   0.680   0.240  1.00  0.00    -0.325 OA
HETATM   25  C13 UNL     1      -5.363   0.174  -0.914  1.00  0.00     0.181 C 
ENDBRANCH   9  24
TORSDOF 4
