REMARK  0 active torsions:
REMARK  status: ('A' for Active; 'I' for Inactive)
ROOT
HETATM    1  C1  UNL     1       5.914  -0.639   1.711  1.00  0.00     0.033 C 
HETATM    2  C2  UNL     1       6.635  -1.113   0.438  1.00  0.00     0.153 C 
HETATM    3  C3  UNL     1       5.676  -1.799  -0.566  1.00  0.00     0.040 C 
HETATM    4  C4  UNL     1       4.180  -1.512  -0.295  1.00  0.00     0.060 C 
HETATM    5  C5  UNL     1       3.945  -0.027   0.104  1.00  0.00     0.007 C 
HETATM    6  C6  UNL     1       4.692   0.264   1.438  1.00  0.00     0.003 C 
HETATM    7  C7  UNL     1       2.424   0.223   0.262  1.00  0.00     0.001 C 
HETATM    8  C8  UNL     1       1.662  -0.115  -1.051  1.00  0.00     0.007 C 
HETATM    9  C9  UNL     1       1.818  -1.609  -1.361  1.00  0.00     0.065 C 
HETATM   10  C10 UNL     1       3.281  -1.990  -1.424  1.00  0.00     0.150 C 
HETATM   11  O1  UNL     1       3.709  -2.648  -2.346  1.00  0.00    -0.296 OA
HETATM   12  C11 UNL     1       0.221   0.445  -1.010  1.00  0.00     0.003 C 
HETATM   13  C12 UNL     1      -0.279   0.615   0.441  1.00  0.00     0.003 C 
HETATM   14  C13 UNL     1       0.533   1.719   1.145  1.00  0.00     0.000 C 
HETATM   15  C14 UNL     1       2.033   1.623   0.781  1.00  0.00     0.000 C 
HETATM   16  C15 UNL     1      -1.773   0.846   0.201  1.00  0.00     0.030 C 
HETATM   17  C16 UNL     1      -1.951  -0.379  -0.688  1.00  0.00     0.118 C 
HETATM   18  C17 UNL     1      -0.926  -0.229  -1.803  1.00  0.00     0.030 C 
HETATM   19  O2  UNL     1      -3.314  -0.334  -1.014  1.00  0.00    -0.337 OA
HETATM   20  C18 UNL     1      -4.039   0.027   0.152  1.00  0.00     0.187 C 
HETATM   21  C19 UNL     1      -2.939   0.518   1.143  1.00  0.00     0.059 C 
HETATM   22  C20 UNL     1      -5.059   1.139  -0.213  1.00  0.00     0.056 C 
HETATM   23  C21 UNL     1      -6.432   0.543  -0.545  1.00  0.00     0.007 C 
HETATM   24  C22 UNL     1      -6.955  -0.295   0.641  1.00  0.00     0.030 C 
HETATM   25  C23 UNL     1      -5.809  -0.881   1.500  1.00  0.00     0.145 C 
HETATM   26  O3  UNL     1      -4.678  -1.139   0.680  1.00  0.00    -0.335 OA
HETATM   27  C24 UNL     1      -7.918  -1.385   0.156  1.00  0.00     0.003 C 
HETATM   28  C25 UNL     1      -2.041   2.207  -0.465  1.00  0.00     0.003 C 
HETATM   29  C26 UNL     1       4.498   0.900  -0.996  1.00  0.00     0.000 C 
HETATM   30  O4  UNL     1       7.266  -0.002  -0.170  1.00  0.00    -0.223 OA
ENDROOT
TORSDOF 0
