REMARK  2 active torsions:
REMARK  status: ('A' for Active; 'I' for Inactive)
REMARK    1  A    between atoms: C4_5  and  C5_6 
REMARK    2  A    between atoms: C5_6  and  C6_7 
ROOT
HETATM    1  C1  UNL     1       0.139  -1.418  -0.714  1.00  0.00     0.169 A 
HETATM    2  C2  UNL     1       1.462  -1.574  -0.714  1.00  0.00     0.217 A 
HETATM    3  C3  UNL     1       2.069  -0.253  -0.714  1.00  0.00     0.324 A 
HETATM    4  O1  UNL     1       1.122   0.693  -0.714  1.00  0.00    -0.290 OA
HETATM    5  C4  UNL     1      -0.169   0.059  -0.708  1.00  0.00     0.207 A 
HETATM    6  O4  UNL     1       3.263  -0.065  -0.714  1.00  0.00    -0.257 OA
HETATM    7  O5  UNL     1       2.113  -2.733  -0.714  1.00  0.00    -0.183 OA
HETATM    8  O6  UNL     1      -0.761  -2.398  -0.719  1.00  0.00    -0.190 OA
ENDROOT
BRANCH   5   9
HETATM    9  C5  UNL     1      -0.948   0.499   0.525  1.00  0.00     0.219 C 
HETATM   10  O3  UNL     1      -0.164   0.222   1.664  1.00  0.00    -0.217 OA
BRANCH   9  11
HETATM   11  C6  UNL     1      -1.188   2.008   0.465  1.00  0.00     0.218 C 
HETATM   12  O2  UNL     1      -2.100   2.351   1.484  1.00  0.00    -0.218 OA
ENDBRANCH   9  11
ENDBRANCH   5   9
TORSDOF 2
