REMARK  2 active torsions:
REMARK  status: ('A' for Active; 'I' for Inactive)
REMARK    1  A    between atoms: C4_4  and  C9_10 
REMARK    2  A    between atoms: C9_10  and  C10_11 
ROOT
HETATM    1  C1  UNL     1       1.168  -1.834  -0.242  1.00  0.00     0.162 C 
HETATM    2  C2  UNL     1       1.940  -0.562  -0.531  1.00  0.00     0.107 C 
HETATM    3  C3  UNL     1       1.074   0.654  -0.275  1.00  0.00     0.183 C 
HETATM    4  C4  UNL     1      -0.398   0.535  -0.182  1.00  0.00     0.091 C 
HETATM    5  C5  UNL     1      -1.035  -0.642  -0.385  1.00  0.00     0.120 C 
HETATM    6  C6  UNL     1      -0.271  -1.912  -0.717  1.00  0.00     0.095 C 
HETATM    7  C7  UNL     1      -0.293  -2.117  -2.234  1.00  0.00     0.014 C 
HETATM    8  C8  UNL     1      -0.976  -3.100  -0.047  1.00  0.00     0.014 C 
HETATM    9  O1  UNL     1      -2.365  -0.693  -0.293  1.00  0.00    -0.194 OA
HETATM   10  O3  UNL     1       1.592   1.742  -0.143  1.00  0.00    -0.291 OA
HETATM   11  C13 UNL     1       3.186  -0.488   0.361  1.00  0.00     0.015 C 
HETATM   12  C14 UNL     1       2.379  -0.560  -1.998  1.00  0.00     0.015 C 
HETATM   13  O4  UNL     1       1.684  -2.756   0.352  1.00  0.00    -0.295 OA
ENDROOT
BRANCH   4  14
HETATM   14  C9  UNL     1      -1.187   1.738   0.139  1.00  0.00     0.177 C 
HETATM   15  O2  UNL     1      -1.787   2.326  -0.729  1.00  0.00    -0.291 OA
BRANCH  14  16
HETATM   16  C10 UNL     1      -1.226   2.215   1.566  1.00  0.00     0.062 C 
HETATM   17  C11 UNL     1      -2.611   2.059   2.195  1.00  0.00     0.008 C 
HETATM   18  C12 UNL     1      -0.662   3.627   1.727  1.00  0.00     0.008 C 
ENDBRANCH  14  16
ENDBRANCH   4  14
TORSDOF 2
