REMARK  0 active torsions:
REMARK  status: ('A' for Active; 'I' for Inactive)
ROOT
HETATM    1  C1  UNL     1       0.922  -0.957   0.188  1.00  0.00     0.000 C 
HETATM    2  C2  UNL     1       0.479  -0.867   1.645  1.00  0.00     0.000 C 
HETATM    3  C3  UNL     1       0.012   0.570   1.465  1.00  0.00     0.000 C 
HETATM    4  C4  UNL     1       1.305   1.256   1.006  1.00  0.00     0.000 C 
HETATM    5  C5  UNL     1       1.951   0.182   0.133  1.00  0.00     0.000 C 
HETATM    6  C6  UNL     1      -1.023   0.420   0.340  1.00  0.00     0.000 C 
HETATM    7  C7  UNL     1      -0.367  -0.627  -0.588  1.00  0.00     0.000 C 
HETATM    8  C8  UNL     1      -0.068  -0.135  -2.002  1.00  0.00     0.000 C 
HETATM    9  C9  UNL     1      -1.234  -1.887  -0.650  1.00  0.00     0.000 C 
HETATM   10  C10 UNL     1      -1.361   1.762  -0.309  1.00  0.00     0.000 C 
ENDROOT
TORSDOF 0
