REMARK  0 active torsions:
REMARK  status: ('A' for Active; 'I' for Inactive)
ROOT
HETATM    1  N1  UNL     1       0.334   0.045  -1.637  1.00  0.00     0.338 N 
HETATM    2  C1  UNL     1       0.008  -1.121  -0.826  1.00  0.00     0.262 C 
HETATM    3  C2  UNL     1      -1.406  -0.930  -0.244  1.00  0.00     0.069 C 
HETATM    4  C3  UNL     1      -1.439   0.336   0.643  1.00  0.00     0.156 C 
HETATM    5  C4  UNL     1      -0.693   1.526  -0.004  1.00  0.00     0.072 C 
HETATM    6  C5  UNL     1       0.635   1.043  -0.621  1.00  0.00     0.289 C 
HETATM    7  C6  UNL     1       1.498   0.313   0.424  1.00  0.00     0.188 C 
HETATM    8  C7  UNL     1       1.078  -1.164   0.274  1.00  0.00     0.071 C 
HETATM    9  O1  UNL     1       2.871   0.463   0.109  1.00  0.00    -0.221 OA
HETATM   10  O2  UNL     1      -2.779   0.699   0.902  1.00  0.00    -0.223 OA
ENDROOT
TORSDOF 0
