REMARK  2 active torsions:
REMARK  status: ('A' for Active; 'I' for Inactive)
REMARK    1  A    between atoms: C6_8  and  C7_9 
REMARK    2  A    between atoms: C15_18  and  C16_19 
ROOT
HETATM    1  C7  UNL     1       1.088   0.676   1.256  1.00  0.00     0.036 C 
HETATM    2  C8  UNL     1       2.070   0.129   2.311  1.00  0.00     0.002 C 
HETATM    3  C9  UNL     1       2.844  -1.137   1.912  1.00  0.00     0.002 C 
HETATM    4  C10 UNL     1       2.029  -2.190   1.148  1.00  0.00     0.035 C 
HETATM    5  C11 UNL     1       0.570  -2.318   1.611  1.00  0.00     0.250 C 
HETATM    6  N1  UNL     1      -0.336  -1.434   0.853  1.00  0.00     0.135 N 
HETATM    7  C12 UNL     1      -0.297   0.000   1.180  1.00  0.00     0.220 C 
HETATM    8  C13 UNL     1      -1.160   0.154   2.430  1.00  0.00     0.035 C 
HETATM    9  C14 UNL     1      -2.279  -0.857   2.180  1.00  0.00     0.038 C 
HETATM   10  C15 UNL     1      -1.744  -1.783   1.076  1.00  0.00     0.247 C 
ENDROOT
BRANCH   1  11
HETATM   11  C6  UNL     1       1.744   0.705  -0.123  1.00  0.00     0.059 C 
HETATM   12  C3  UNL     1       0.912   1.412  -1.197  1.00  0.00     0.154 C 
HETATM   13  O1  UNL     1       0.293   2.586  -0.668  1.00  0.00    -0.302 OA
HETATM   14  C4  UNL     1       1.959   1.852  -2.234  1.00  0.00     0.152 C 
HETATM   15  C2  UNL     1       0.611   3.625  -1.432  1.00  0.00     0.274 C 
HETATM   16  C1  UNL     1       1.549   3.295  -2.555  1.00  0.00     0.116 C 
HETATM   17  O5  UNL     1       0.199   4.748  -1.254  1.00  0.00    -0.264 OA
HETATM   18  C22 UNL     1       2.697   4.293  -2.703  1.00  0.00     0.013 C 
HETATM   19  O2  UNL     1       3.207   1.746  -1.568  1.00  0.00    -0.356 OA
HETATM   20  C5  UNL     1       3.041   1.510  -0.188  1.00  0.00     0.118 C 
HETATM   21  C21 UNL     1       2.982   2.857   0.531  1.00  0.00     0.032 C 
ENDBRANCH   1  11
BRANCH  10  22
HETATM   22  C16 UNL     1      -2.529  -1.576  -0.217  1.00  0.00     0.156 C 
HETATM   23  O3  UNL     1      -1.912  -2.291  -1.285  1.00  0.00    -0.302 OA
HETATM   24  C17 UNL     1      -2.875  -2.668  -2.115  1.00  0.00     0.271 C 
HETATM   25  C18 UNL     1      -4.254  -2.369  -1.602  1.00  0.00     0.089 C 
HETATM   26  O4  UNL     1      -2.688  -3.207  -3.182  1.00  0.00    -0.264 OA
HETATM   27  C19 UNL     1      -3.973  -2.082  -0.127  1.00  0.00     0.042 C 
HETATM   28  C20 UNL     1      -5.242  -3.518  -1.770  1.00  0.00     0.011 C 
ENDBRANCH  10  22
TORSDOF 2
