REMARK  7 active torsions:
REMARK  status: ('A' for Active; 'I' for Inactive)
REMARK    1  A    between atoms: C1_1  and  O11_36 
REMARK    2  A    between atoms: C2_2  and  O10_34 
REMARK    3  A    between atoms: C4_4  and  C7_7 
REMARK    4  A    between atoms: C11_13  and  C13_16 
REMARK    5  A    between atoms: C16_19  and  O4_22 
REMARK    6  A    between atoms: O4_22  and  C19_23 
REMARK    7  A    between atoms: C23_30  and  C24_32 
ROOT
HETATM    1  C7  UNL     1      -1.855  -2.930   2.598  1.00  0.00     0.143 C 
HETATM    2  C8  UNL     1      -0.332  -2.959   2.834  1.00  0.00     0.069 C 
HETATM    3  C9  UNL     1       0.070  -1.480   2.947  1.00  0.00     0.096 C 
HETATM    4  C10 UNL     1      -1.043  -0.793   2.129  1.00  0.00     0.272 C 
HETATM    5  O1  UNL     1      -2.182  -1.562   2.438  1.00  0.00    -0.327 OA
HETATM    6  O2  UNL     1      -0.812  -0.807   0.732  1.00  0.00    -0.190 OA
HETATM    7  C11 UNL     1       1.566  -1.475   2.566  1.00  0.00     0.143 C 
HETATM    8  O3  UNL     1       1.816  -2.738   1.990  1.00  0.00    -0.352 OA
HETATM    9  C12 UNL     1       0.613  -3.418   1.717  1.00  0.00     0.146 C 
ENDROOT
BRANCH   7  10
HETATM   10  C13 UNL     1       1.996  -0.379   1.654  1.00  0.00     0.005 A 
HETATM   11  C14 UNL     1       2.608  -0.684   0.426  1.00  0.00     0.000 A 
HETATM   12  C15 UNL     1       3.012   0.352  -0.434  1.00  0.00     0.024 A 
HETATM   13  C16 UNL     1       2.807   1.695  -0.070  1.00  0.00     0.097 A 
HETATM   14  C17 UNL     1       2.193   1.998   1.160  1.00  0.00     0.024 A 
HETATM   15  C18 UNL     1       1.789   0.963   2.022  1.00  0.00     0.000 A 
BRANCH  13  16
HETATM   16  O4  UNL     1       3.186   2.666  -0.877  1.00  0.00    -0.304 OA
BRANCH  16  17
HETATM   17  C19 UNL     1       2.447   3.883  -0.852  1.00  0.00     0.274 C 
HETATM   18  C20 UNL     1       0.941   3.641  -1.154  1.00  0.00     0.241 C 
HETATM   19  O5  UNL     1       0.785   2.592  -2.098  1.00  0.00    -0.215 OA
HETATM   20  C21 UNL     1       0.229   4.908  -1.699  1.00  0.00     0.220 C 
HETATM   21  O6  UNL     1      -1.107   4.940  -1.225  1.00  0.00    -0.218 OA
HETATM   22  C22 UNL     1       0.998   6.174  -1.262  1.00  0.00     0.215 C 
HETATM   23  O7  UNL     1       0.397   7.340  -1.799  1.00  0.00    -0.218 OA
HETATM   24  C23 UNL     1       2.490   6.131  -1.701  1.00  0.00     0.184 C 
HETATM   25  O8  UNL     1       2.981   4.795  -1.801  1.00  0.00    -0.326 OA
BRANCH  24  26
HETATM   26  C24 UNL     1       3.402   6.895  -0.732  1.00  0.00     0.214 C 
HETATM   27  O9  UNL     1       4.678   7.002  -1.320  1.00  0.00    -0.218 OA
ENDBRANCH  24  26
ENDBRANCH  16  17
ENDBRANCH  13  16
ENDBRANCH   7  10
BRANCH   1  28
HETATM   28  C4  UNL     1      -2.322  -3.719   1.424  1.00  0.00     0.007 A 
HETATM   29  C3  UNL     1      -3.148  -3.119   0.457  1.00  0.00     0.024 A 
HETATM   30  C2  UNL     1      -3.594  -3.859  -0.652  1.00  0.00     0.116 A 
HETATM   31  C1  UNL     1      -3.209  -5.207  -0.797  1.00  0.00     0.116 A 
HETATM   32  C6  UNL     1      -2.383  -5.805   0.172  1.00  0.00     0.026 A 
HETATM   33  C5  UNL     1      -1.941  -5.064   1.281  1.00  0.00     0.000 A 
BRANCH  30  34
HETATM   34  O10 UNL     1      -4.367  -3.291  -1.557  1.00  0.00    -0.326 OA
HETATM   35  C25 UNL     1      -4.107  -3.566  -2.924  1.00  0.00     0.181 C 
ENDBRANCH  30  34
BRANCH  31  36
HETATM   36  O11 UNL     1      -3.621  -5.908  -1.832  1.00  0.00    -0.326 OA
HETATM   37  C26 UNL     1      -3.107  -7.223  -1.994  1.00  0.00     0.181 C 
ENDBRANCH  31  36
ENDBRANCH   1  28
TORSDOF 7
