REMARK  4 active torsions:
REMARK  status: ('A' for Active; 'I' for Inactive)
REMARK    1  A    between atoms: C3_3  and  C19_19 
REMARK    2  A    between atoms: C7_7  and  C12_12 
REMARK    3  A    between atoms: C12_12  and  C13_13 
REMARK    4  A    between atoms: C14_14  and  C15_15 
ROOT
HETATM    1  C1  UNL     1       2.838  -0.086   1.445  1.00  0.00     0.000 C 
HETATM    2  C2  UNL     1       2.990  -1.561   1.080  1.00  0.00     0.003 C 
HETATM    3  C3  UNL     1       1.711  -2.375   1.379  1.00  0.00     0.031 C 
HETATM    4  C4  UNL     1       0.426  -1.490   1.283  1.00  0.00     0.003 C 
HETATM    5  C5  UNL     1       0.545  -0.340   0.238  1.00  0.00     0.004 C 
HETATM    6  C6  UNL     1       1.735   0.590   0.615  1.00  0.00     0.000 C 
HETATM    7  C7  UNL     1      -0.758   0.506   0.191  1.00  0.00     0.023 C 
HETATM    8  C8  UNL     1      -1.994  -0.361   0.062  1.00  0.00    -0.044 C 
HETATM    9  C9  UNL     1      -2.131  -1.482   1.062  1.00  0.00     0.022 C 
HETATM   10  C10 UNL     1      -0.857  -2.334   1.088  1.00  0.00     0.004 C 
HETATM   11  C11 UNL     1      -2.930  -0.162  -0.887  1.00  0.00    -0.009 C 
HETATM   12  C18 UNL     1       0.797  -0.955  -1.150  1.00  0.00     0.000 C 
HETATM   13  C20 UNL     1       1.801  -2.957   2.797  1.00  0.00     0.003 C 
ENDROOT
BRANCH   7  14
HETATM   14  C12 UNL     1      -0.685   1.609  -0.877  1.00  0.00     0.030 C 
BRANCH  14  15
HETATM   15  C13 UNL     1      -1.707   2.693  -0.654  1.00  0.00    -0.030 C 
HETATM   16  C14 UNL     1      -1.808   3.676  -1.565  1.00  0.00    -0.026 C 
HETATM   17  C17 UNL     1      -0.896   3.645  -2.760  1.00  0.00     0.031 C 
BRANCH  16  18
HETATM   18  C15 UNL     1      -2.789   4.754  -1.395  1.00  0.00    -0.005 C 
HETATM   19  C16 UNL     1      -2.859   5.762  -2.279  1.00  0.00    -0.000 C 
ENDBRANCH  16  18
ENDBRANCH  14  15
ENDBRANCH   7  14
BRANCH   3  20
HETATM   20  C19 UNL     1       1.664  -3.559   0.400  1.00  0.00     0.182 C 
HETATM   21  O1  UNL     1       2.875  -4.270   0.510  1.00  0.00    -0.221 OA
ENDBRANCH   3  20
TORSDOF 4
