REMARK  9 active torsions:
REMARK  status: ('A' for Active; 'I' for Inactive)
REMARK    1  A    between atoms: S1_1  and  O2_3 
REMARK    2  A    between atoms: S1_1  and  O3_7 
REMARK    3  A    between atoms: O2_3  and  C1_4 
REMARK    4  A    between atoms: C1_4  and  C2_5 
REMARK    5  A    between atoms: O3_7  and  C4_8 
REMARK    6  A    between atoms: C4_8  and  C5_9 
REMARK    7  A    between atoms: C6_10  and  S2_11 
REMARK    8  A    between atoms: S2_11  and  C7_12 
REMARK    9  A    between atoms: C7_12  and  C8_13 
ROOT
HETATM    1  O3  UNL     1      -0.928  -0.904  -0.031  1.00  0.00    -0.250 OA
ENDROOT
BRANCH   1   2
HETATM    2  S1  UNL     1      -2.492  -1.012  -0.098  1.00  0.00     0.308 S 
HETATM    3  O1  UNL     1      -2.945  -0.193  -1.209  1.00  0.00    -0.196 OA
BRANCH   2   4
HETATM    4  O2  UNL     1      -2.895  -2.498  -0.402  1.00  0.00    -0.250 OA
BRANCH   4   5
HETATM    5  C1  UNL     1      -4.264  -2.834  -0.371  1.00  0.00     0.189 C 
BRANCH   5   6
HETATM    6  C2  UNL     1      -4.430  -4.295  -0.685  1.00  0.00     0.007 C 
HETATM    7  C3  UNL     1      -5.557  -4.912  -0.293  1.00  0.00    -0.002 C 
ENDBRANCH   5   6
ENDBRANCH   4   5
ENDBRANCH   2   4
ENDBRANCH   1   2
BRANCH   1   8
HETATM    8  C4  UNL     1      -0.363   0.324   0.365  1.00  0.00     0.190 C 
BRANCH   8   9
HETATM    9  C5  UNL     1       1.137   0.211   0.365  1.00  0.00     0.014 C 
HETATM   10  C6  UNL     1       1.865   1.340   0.365  1.00  0.00     0.029 C 
BRANCH  10  11
HETATM   11  S2  UNL     1       3.553   1.340   0.365  1.00  0.00    -0.109 SA
BRANCH  11  12
HETATM   12  C7  UNL     1       3.934   3.049   0.365  1.00  0.00     0.088 C 
BRANCH  12  13
HETATM   13  C8  UNL     1       5.430   3.229   0.365  1.00  0.00    -0.014 C 
HETATM   14  C9  UNL     1       5.930   4.430   0.037  1.00  0.00    -0.004 C 
ENDBRANCH  12  13
ENDBRANCH  11  12
ENDBRANCH  10  11
ENDBRANCH   8   9
ENDBRANCH   1   8
TORSDOF 9
