REMARK  10 active torsions:
REMARK  status: ('A' for Active; 'I' for Inactive)
REMARK    1  A    between atoms: C2_2  and  O3_33 
REMARK    2  A    between atoms: C15_16  and  C18_19 
REMARK    3  A    between atoms: C18_19  and  C19_20 
REMARK    4  A    between atoms: C19_20  and  C20_21 
REMARK    5  A    between atoms: C20_21  and  C21_22 
REMARK    6  A    between atoms: O3_33  and  C31_34 
REMARK    7  A    between atoms: C32_35  and  O4_36 
REMARK    8  A    between atoms: O4_36  and  C33_37 
REMARK    9  A    between atoms: C37_44  and  C38_46 
REMARK   10  A    between atoms: C41_52  and  C42_54 
ROOT
HETATM    1  C1  UNL     1       2.107   0.486  -1.650  1.00  0.00     0.030 C 
HETATM    2  C2  UNL     1       2.596  -0.041  -0.293  1.00  0.00     0.118 C 
HETATM    3  C3  UNL     1       1.893  -1.361   0.108  1.00  0.00     0.025 C 
HETATM    4  C4  UNL     1       0.350  -1.148   0.080  1.00  0.00     0.002 C 
HETATM    5  C5  UNL     1      -0.211  -0.574  -1.258  1.00  0.00     0.000 C 
HETATM    6  C6  UNL     1       0.588   0.697  -1.641  1.00  0.00     0.003 C 
HETATM    7  C7  UNL     1      -1.764  -0.295  -1.164  1.00  0.00     0.003 C 
HETATM    8  C8  UNL     1      -2.455  -0.914   0.082  1.00  0.00     0.000 C 
HETATM    9  C9  UNL     1      -1.941  -2.352   0.270  1.00  0.00     0.000 C 
HETATM   10  C10 UNL     1      -0.430  -2.404   0.551  1.00  0.00     0.000 C 
HETATM   11  C11 UNL     1      -4.004  -0.867  -0.051  1.00  0.00     0.002 C 
HETATM   12  C12 UNL     1      -4.535   0.549  -0.371  1.00  0.00     0.033 C 
HETATM   13  C13 UNL     1      -3.752   1.236  -1.514  1.00  0.00     0.152 C 
HETATM   14  C14 UNL     1      -2.225   1.164  -1.338  1.00  0.00     0.033 C 
HETATM   15  O1  UNL     1      -4.131   2.598  -1.594  1.00  0.00    -0.224 OA
HETATM   16  C15 UNL     1      -5.996   0.320  -0.807  1.00  0.00     0.031 C 
HETATM   17  C16 UNL     1      -6.057  -1.127  -1.314  1.00  0.00     0.003 C 
HETATM   18  C17 UNL     1      -4.633  -1.672  -1.197  1.00  0.00     0.000 C 
HETATM   19  C26 UNL     1      -4.686  -1.381   1.229  1.00  0.00     0.000 C 
HETATM   20  C27 UNL     1      -2.182  -0.084   1.356  1.00  0.00     0.000 C 
HETATM   21  C28 UNL     1       0.021  -1.615  -2.367  1.00  0.00     0.000 C 
HETATM   22  C29 UNL     1       2.326  -1.750   1.529  1.00  0.00     0.002 C 
HETATM   23  C30 UNL     1       2.309  -2.504  -0.834  1.00  0.00     0.002 C 
ENDROOT
BRANCH   2  24
HETATM   24  O3  UNL     1       4.000  -0.207  -0.344  1.00  0.00    -0.332 OA
BRANCH  24  25
HETATM   25  C31 UNL     1       4.691   0.988  -0.646  1.00  0.00     0.267 C 
HETATM   26  C32 UNL     1       6.221   0.789  -0.473  1.00  0.00     0.207 C 
HETATM   27  C39 UNL     1       6.977   2.125  -0.644  1.00  0.00     0.217 C 
HETATM   28  O10 UNL     1       8.338   1.957  -0.283  1.00  0.00    -0.218 OA
HETATM   29  C40 UNL     1       6.332   3.215   0.242  1.00  0.00     0.215 C 
HETATM   30  O11 UNL     1       6.899   4.477  -0.060  1.00  0.00    -0.218 OA
HETATM   31  C41 UNL     1       4.805   3.291   0.016  1.00  0.00     0.184 C 
HETATM   32  O12 UNL     1       4.232   2.008   0.233  1.00  0.00    -0.326 OA
BRANCH  26  33
HETATM   33  O4  UNL     1       6.686  -0.142  -1.437  1.00  0.00    -0.324 OA
BRANCH  33  34
HETATM   34  C33 UNL     1       6.600  -1.484  -1.002  1.00  0.00     0.270 C 
HETATM   35  C34 UNL     1       7.990  -1.994  -0.543  1.00  0.00     0.241 C 
HETATM   36  O5  UNL     1       8.397  -1.275   0.611  1.00  0.00    -0.215 OA
HETATM   37  C35 UNL     1       7.947  -3.504  -0.215  1.00  0.00     0.220 C 
HETATM   38  O6  UNL     1       9.264  -3.986   0.008  1.00  0.00    -0.218 OA
HETATM   39  C36 UNL     1       7.295  -4.277  -1.383  1.00  0.00     0.215 C 
HETATM   40  O7  UNL     1       7.080  -5.627  -1.002  1.00  0.00    -0.218 OA
HETATM   41  C37 UNL     1       5.940  -3.654  -1.781  1.00  0.00     0.184 C 
HETATM   42  O8  UNL     1       6.127  -2.277  -2.082  1.00  0.00    -0.326 OA
BRANCH  41  43
HETATM   43  C38 UNL     1       5.330  -4.299  -3.031  1.00  0.00     0.214 C 
HETATM   44  O9  UNL     1       4.191  -3.557  -3.400  1.00  0.00    -0.218 OA
ENDBRANCH  41  43
ENDBRANCH  33  34
ENDBRANCH  26  33
BRANCH  31  45
HETATM   45  C42 UNL     1       4.106   4.252   0.981  1.00  0.00     0.214 C 
HETATM   46  O13 UNL     1       2.734   4.283   0.658  1.00  0.00    -0.218 OA
ENDBRANCH  31  45
ENDBRANCH  24  25
ENDBRANCH   2  24
BRANCH  16  47
HETATM   47  C18 UNL     1      -6.951   0.518   0.369  1.00  0.00     0.127 C 
HETATM   48  C25 UNL     1      -8.348   0.852  -0.158  1.00  0.00     0.033 C 
HETATM   49  O2  UNL     1      -7.020  -0.691   1.090  1.00  0.00    -0.226 OA
BRANCH  47  50
HETATM   50  C19 UNL     1      -6.399   1.598   1.301  1.00  0.00     0.035 C 
BRANCH  50  51
HETATM   51  C20 UNL     1      -7.477   2.223   2.186  1.00  0.00     0.028 C 
BRANCH  51  52
HETATM   52  C21 UNL     1      -6.918   3.254   3.129  1.00  0.00    -0.035 C 
HETATM   53  C22 UNL     1      -7.766   3.899   3.949  1.00  0.00    -0.048 C 
HETATM   54  C23 UNL     1      -7.213   4.957   4.865  1.00  0.00     0.026 C 
HETATM   55  C24 UNL     1      -9.225   3.529   3.908  1.00  0.00     0.026 C 
ENDBRANCH  51  52
ENDBRANCH  50  51
ENDBRANCH  47  50
ENDBRANCH  16  47
TORSDOF 10
