REMARK  2 active torsions:
REMARK  status: ('A' for Active; 'I' for Inactive)
REMARK    1  A    between atoms: C3_3  and  C7_8 
REMARK    2  A    between atoms: C8_9  and  C9_10 
ROOT
HETATM    1  C7  UNL     1      -0.272  -0.514   0.335  1.00  0.00     0.000 C 
HETATM    2  C8  UNL     1       0.308   0.546  -0.249  1.00  0.00     0.000 C 
ENDROOT
BRANCH   1   3
HETATM    3  C3  UNL     1       0.454  -1.820   0.335  1.00  0.00     0.002 A 
HETATM    4  C2  UNL     1      -0.268  -3.027   0.335  1.00  0.00     0.029 A 
HETATM    5  C1  UNL     1       0.411  -4.258   0.335  1.00  0.00     0.156 A 
HETATM    6  C6  UNL     1       1.819  -4.282   0.335  1.00  0.00     0.156 A 
HETATM    7  O4  UNL     1      -0.272  -5.385   0.335  1.00  0.00    -0.188 OA
HETATM    8  C5  UNL     1       2.539  -3.074   0.335  1.00  0.00     0.029 A 
HETATM    9  O1  UNL     1       2.464  -5.431   0.335  1.00  0.00    -0.188 OA
HETATM   10  C4  UNL     1       1.859  -1.845   0.335  1.00  0.00     0.002 A 
ENDBRANCH   1   3
BRANCH   2  11
HETATM   11  C9  UNL     1      -0.417   1.852  -0.249  1.00  0.00     0.002 A 
HETATM   12  C10 UNL     1      -1.440   2.090   0.686  1.00  0.00     0.002 A 
HETATM   13  C11 UNL     1      -2.121   3.319   0.683  1.00  0.00     0.029 A 
HETATM   14  C12 UNL     1      -1.784   4.313  -0.252  1.00  0.00     0.156 A 
HETATM   15  C13 UNL     1      -0.760   4.076  -1.188  1.00  0.00     0.156 A 
HETATM   16  O3  UNL     1      -2.427   5.464  -0.248  1.00  0.00    -0.188 OA
HETATM   17  C14 UNL     1      -0.079   2.846  -1.185  1.00  0.00     0.029 A 
HETATM   18  O2  UNL     1      -0.437   5.003  -2.068  1.00  0.00    -0.188 OA
ENDBRANCH   2  11
TORSDOF 2
