REMARK  1 active torsions:
REMARK  status: ('A' for Active; 'I' for Inactive)
REMARK    1  A    between atoms: C3_3  and  C17_18 
ROOT
HETATM    1  C1  UNL     1      -1.951   2.023  -0.522  1.00  0.00     0.001 C 
HETATM    2  C2  UNL     1      -2.344   1.334   0.787  1.00  0.00     0.010 C 
HETATM    3  C3  UNL     1      -2.102  -0.195   0.744  1.00  0.00     0.078 C 
HETATM    4  C4  UNL     1      -0.930  -0.568  -0.225  1.00  0.00     0.010 C 
HETATM    5  C5  UNL     1       0.174   0.535  -0.299  1.00  0.00     0.004 C 
HETATM    6  C6  UNL     1      -0.453   1.857  -0.826  1.00  0.00     0.000 C 
HETATM    7  C7  UNL     1       1.310   0.084  -1.260  1.00  0.00     0.019 C 
HETATM    8  C8  UNL     1       1.818  -1.277  -0.836  1.00  0.00    -0.042 C 
HETATM    9  C9  UNL     1       0.789  -2.377  -0.887  1.00  0.00     0.022 C 
HETATM   10  C10 UNL     1      -0.363  -1.988   0.051  1.00  0.00     0.005 C 
HETATM   11  C11 UNL     1       3.082  -1.488  -0.412  1.00  0.00     0.029 C 
HETATM   12  C12 UNL     1       4.053  -0.391  -0.252  1.00  0.00     0.172 C 
HETATM   13  C13 UNL     1       3.570   1.029  -0.436  1.00  0.00     0.070 C 
HETATM   14  C14 UNL     1       2.453   1.105  -1.486  1.00  0.00     0.012 C 
HETATM   15  O1  UNL     1       5.207  -0.627   0.019  1.00  0.00    -0.291 OA
HETATM   16  C15 UNL     1       0.744   0.768   1.111  1.00  0.00     0.000 C 
HETATM   17  C16 UNL     1      -1.846  -0.680   2.180  1.00  0.00     0.011 C 
ENDROOT
BRANCH   3  18
HETATM   18  C17 UNL     1      -3.362  -0.889   0.277  1.00  0.00     0.184 C 
HETATM   19  O2  UNL     1      -3.356  -1.592  -0.705  1.00  0.00    -0.647 OA
HETATM   20  O3  UNL     1      -4.440  -0.662   1.023  1.00  0.00    -0.647 OA
ENDBRANCH   3  18
TORSDOF 1
