REMARK  4 active torsions:
REMARK  status: ('A' for Active; 'I' for Inactive)
REMARK    1  A    between atoms: C3_3  and  C8_10 
REMARK    2  A    between atoms: C14_17  and  C18_22 
REMARK    3  A    between atoms: C16_19  and  O4_20 
REMARK    4  A    between atoms: C18_22  and  C19_23 
ROOT
HETATM    1  C8  UNL     1      -0.445   1.582   0.041  1.00  0.00     0.148 A 
HETATM    2  O3  UNL     1      -0.305   0.830  -1.176  1.00  0.00    -0.327 OA
HETATM    3  C9  UNL     1      -0.561  -0.461  -0.975  1.00  0.00     0.113 A 
HETATM    4  C10 UNL     1      -0.842  -0.740   0.371  1.00  0.00     0.004 A 
HETATM    5  C11 UNL     1      -0.752   0.537   1.170  1.00  0.00     0.056 A 
HETATM    6  C12 UNL     1      -2.064   0.848   1.885  1.00  0.00     0.008 C 
HETATM    7  C13 UNL     1      -1.139  -2.065   0.775  1.00  0.00    -0.006 A 
HETATM    8  C14 UNL     1      -1.160  -3.115  -0.160  1.00  0.00    -0.016 A 
HETATM    9  C15 UNL     1      -0.877  -2.836  -1.512  1.00  0.00     0.022 A 
HETATM   10  C16 UNL     1      -0.576  -1.518  -1.930  1.00  0.00     0.116 A 
ENDROOT
BRANCH   1  11
HETATM   11  C3  UNL     1       0.773   2.371   0.285  1.00  0.00     0.007 A 
HETATM   12  C2  UNL     1       0.684   3.748   0.572  1.00  0.00     0.000 A 
HETATM   13  C1  UNL     1       1.865   4.484   0.801  1.00  0.00     0.026 A 
HETATM   14  C6  UNL     1       3.143   3.865   0.744  1.00  0.00     0.119 A 
HETATM   15  C5  UNL     1       3.231   2.500   0.459  1.00  0.00     0.119 A 
HETATM   16  O1  UNL     1       4.369   4.355   0.922  1.00  0.00    -0.300 OA
HETATM   17  C4  UNL     1       2.043   1.758   0.230  1.00  0.00     0.024 A 
HETATM   18  O2  UNL     1       4.514   2.139   0.457  1.00  0.00    -0.300 OA
HETATM   19  C7  UNL     1       5.334   3.293   0.746  1.00  0.00     0.304 A 
ENDBRANCH   1  11
BRANCH  10  20
HETATM   20  O4  UNL     1      -0.328  -1.406  -3.242  1.00  0.00    -0.326 OA
HETATM   21  C17 UNL     1      -0.033  -0.117  -3.760  1.00  0.00     0.181 C 
ENDBRANCH  10  20
BRANCH   8  22
HETATM   22  C18 UNL     1      -1.471  -4.488   0.266  1.00  0.00     0.052 C 
BRANCH  22  23
HETATM   23  C19 UNL     1      -2.916  -4.842   0.031  1.00  0.00    -0.021 C 
HETATM   24  C20 UNL     1      -3.832  -4.408   0.912  1.00  0.00    -0.005 C 
ENDBRANCH  22  23
ENDBRANCH   8  22
TORSDOF 4
