REMARK  5 active torsions:
REMARK  status: ('A' for Active; 'I' for Inactive)
REMARK    1  A    between atoms: C8_8  and  C10_12 
REMARK    2  A    between atoms: C10_12  and  O3_13 
REMARK    3  A    between atoms: O3_13  and  C11_14 
REMARK    4  A    between atoms: C11_14  and  C12_16 
REMARK    5  A    between atoms: C21_26  and  C23_30 
ROOT
HETATM    1  C1  UNL     1       2.030  -0.725  -1.840  1.00  0.00     0.030 C 
HETATM    2  C2  UNL     1       1.084  -0.656  -0.625  1.00  0.00     0.104 C 
HETATM    3  C3  UNL     1       1.082   0.719   0.044  1.00  0.00     0.060 C 
HETATM    4  C4  UNL     1      -0.020   1.571  -0.476  1.00  0.00     0.145 C 
HETATM    5  C5  UNL     1      -1.273   0.684  -0.315  1.00  0.00     0.129 C 
HETATM    6  C6  UNL     1      -1.087  -0.105  -1.697  1.00  0.00     0.033 C 
HETATM    7  C7  UNL     1      -0.373  -1.125  -0.962  1.00  0.00     0.042 C 
HETATM    8  C8  UNL     1      -1.096  -0.913   0.257  1.00  0.00     0.133 C 
HETATM    9  C9  UNL     1       0.066  -1.439   1.156  1.00  0.00     0.276 C 
HETATM   10  O1  UNL     1      -0.137  -2.128   2.162  1.00  0.00    -0.264 OA
HETATM   11  O2  UNL     1       1.307  -1.454   0.453  1.00  0.00    -0.306 OA
HETATM   12  O5  UNL     1      -2.523   1.353  -0.521  1.00  0.00    -0.351 OA
HETATM   13  C18 UNL     1      -2.551   2.632   0.205  1.00  0.00     0.204 C 
HETATM   14  C19 UNL     1      -3.767   3.432  -0.263  1.00  0.00     0.217 C 
HETATM   15  C20 UNL     1      -3.764   4.816   0.411  1.00  0.00     0.215 C 
HETATM   16  C21 UNL     1      -2.438   5.526   0.042  1.00  0.00     0.184 C 
HETATM   17  O6  UNL     1      -1.319   4.750   0.529  1.00  0.00    -0.326 OA
HETATM   18  C22 UNL     1      -1.273   3.470  -0.125  1.00  0.00     0.267 C 
HETATM   19  O7  UNL     1      -0.110   2.741   0.318  1.00  0.00    -0.329 OA
HETATM   20  O9  UNL     1      -4.874   5.585  -0.064  1.00  0.00    -0.218 OA
HETATM   21  O10 UNL     1      -4.963   2.718   0.052  1.00  0.00    -0.218 OA
ENDROOT
BRANCH   8  22
HETATM   22  C10 UNL     1      -2.399  -1.738   0.349  1.00  0.00     0.164 C 
BRANCH  22  23
HETATM   23  O3  UNL     1      -1.938  -3.116   0.293  1.00  0.00    -0.298 OA
BRANCH  23  24
HETATM   24  C11 UNL     1      -2.830  -4.262   0.215  1.00  0.00     0.296 C 
HETATM   25  O4  UNL     1      -2.276  -5.365   0.173  1.00  0.00    -0.259 OA
BRANCH  24  26
HETATM   26  C12 UNL     1      -4.342  -4.290   0.165  1.00  0.00     0.063 A 
HETATM   27  C13 UNL     1      -4.907  -5.500   0.094  1.00  0.00     0.005 A 
HETATM   28  C14 UNL     1      -6.360  -5.651   0.040  1.00  0.00     0.000 A 
HETATM   29  C15 UNL     1      -7.142  -4.576   0.061  1.00  0.00     0.000 A 
HETATM   30  C16 UNL     1      -6.545  -3.244   0.137  1.00  0.00     0.000 A 
HETATM   31  C17 UNL     1      -5.221  -3.105   0.186  1.00  0.00     0.005 A 
ENDBRANCH  24  26
ENDBRANCH  23  24
ENDBRANCH  22  23
ENDBRANCH   8  22
BRANCH  16  32
HETATM   32  C23 UNL     1      -2.395   6.934   0.666  1.00  0.00     0.214 C 
HETATM   33  O8  UNL     1      -3.472   7.724   0.143  1.00  0.00    -0.218 OA
ENDBRANCH  16  32
TORSDOF 5
