REMARK  13 active torsions:
REMARK  status: ('A' for Active; 'I' for Inactive)
REMARK    1  A    between atoms: C2_2  and  S1_16 
REMARK    2  A    between atoms: C9_11  and  C10_12 
REMARK    3  A    between atoms: C10_12  and  C11_13 
REMARK    4  A    between atoms: S1_16  and  C13_17 
REMARK    5  A    between atoms: C13_17  and  C14_18 
REMARK    6  A    between atoms: C14_18  and  C15_19 
REMARK    7  A    between atoms: C14_18  and  N2_26 
REMARK       I    between atoms: C15_19  and  N1_21 
REMARK    8  A    between atoms: N1_21  and  C16_22 
REMARK    9  A    between atoms: C16_22  and  C17_23 
REMARK       I    between atoms: N2_26  and  C18_27 
REMARK   10  A    between atoms: C18_27  and  C19_28 
REMARK   11  A    between atoms: C19_28  and  C20_29 
REMARK   12  A    between atoms: C20_29  and  C21_30 
REMARK   13  A    between atoms: C21_30  and  C22_32 
ROOT
HETATM    1  C14 UNL     1      -2.170  -0.668   0.832  1.00  0.00     0.197 C 
ENDROOT
BRANCH   1   2
HETATM    2  C13 UNL     1      -0.689  -0.467   1.150  1.00  0.00     0.092 C 
BRANCH   2   3
HETATM    3  S1  UNL     1       0.357  -1.301  -0.076  1.00  0.00    -0.136 SA
BRANCH   3   4
HETATM    4  C2  UNL     1       1.981  -0.955   0.666  1.00  0.00     0.083 C 
HETATM    5  C1  UNL     1       2.397   0.498   0.365  1.00  0.00     0.018 C 
HETATM    6  C6  UNL     1       3.750   0.856   1.010  1.00  0.00     0.029 C 
HETATM    7  C5  UNL     1       4.758  -0.264   0.850  1.00  0.00     0.004 A 
HETATM    8  C4  UNL     1       4.442  -1.496   0.465  1.00  0.00     0.070 A 
HETATM    9  C7  UNL     1       6.211  -0.260   1.062  1.00  0.00     0.095 A 
HETATM   10  C3  UNL     1       3.035  -1.955   0.139  1.00  0.00     0.189 C 
HETATM   11  C8  UNL     1       5.690  -2.256   0.430  1.00  0.00     0.298 A 
HETATM   12  O3  UNL     1       2.781  -3.229   0.697  1.00  0.00    -0.217 OA
HETATM   13  O1  UNL     1       6.731  -1.477   0.789  1.00  0.00    -0.274 OA
HETATM   14  O2  UNL     1       5.754  -3.422   0.115  1.00  0.00    -0.259 OA
HETATM   15  C9  UNL     1       6.965   0.779   1.473  1.00  0.00    -0.002 C 
BRANCH  15  16
HETATM   16  C10 UNL     1       6.395   2.135   1.797  1.00  0.00     0.028 C 
BRANCH  16  17
HETATM   17  C11 UNL     1       7.410   3.045   2.490  1.00  0.00     0.005 C 
HETATM   18  C12 UNL     1       6.842   4.424   2.816  1.00  0.00     0.000 C 
ENDBRANCH  16  17
ENDBRANCH  15  16
ENDBRANCH   3   4
ENDBRANCH   2   3
ENDBRANCH   1   2
BRANCH   1  19
HETATM   19  C15 UNL     1      -3.068  -0.129   1.914  1.00  0.00     0.275 C 
HETATM   20  O4  UNL     1      -2.639   0.607   2.770  1.00  0.00    -0.268 OA
HETATM   21  N1  UNL     1      -4.385  -0.490   1.912  1.00  0.00    -0.225 NA
BRANCH  21  22
HETATM   22  C16 UNL     1      -5.275   0.025   2.961  1.00  0.00     0.226 C 
BRANCH  22  23
HETATM   23  C17 UNL     1      -6.684  -0.480   2.793  1.00  0.00     0.211 C 
HETATM   24  O5  UNL     1      -7.551  -0.057   3.707  1.00  0.00    -0.646 OA
HETATM   25  O6  UNL     1      -6.973  -1.221   1.881  1.00  0.00    -0.646 OA
ENDBRANCH  22  23
ENDBRANCH  21  22
ENDBRANCH   1  19
BRANCH   1  26
HETATM   26  N2  UNL     1      -2.508  -0.103  -0.482  1.00  0.00    -0.229 NA
HETATM   27  C18 UNL     1      -3.270  -0.832  -1.350  1.00  0.00     0.252 C 
HETATM   28  O9  UNL     1      -3.664  -1.932  -1.041  1.00  0.00    -0.271 OA
BRANCH  27  29
HETATM   29  C19 UNL     1      -3.607  -0.238  -2.691  1.00  0.00     0.092 C 
BRANCH  29  30
HETATM   30  C20 UNL     1      -4.490  -1.160  -3.533  1.00  0.00     0.060 C 
BRANCH  30  31
HETATM   31  C21 UNL     1      -4.807  -0.578  -4.910  1.00  0.00     0.388 C 
HETATM   32  N3  UNL     1      -5.604   0.629  -4.783  1.00  0.00     0.628 N 
BRANCH  31  33
HETATM   33  C22 UNL     1      -5.504  -1.568  -5.807  1.00  0.00     0.224 C 
HETATM   34  O7  UNL     1      -5.252  -1.432  -7.106  1.00  0.00    -0.646 OA
HETATM   35  O8  UNL     1      -6.234  -2.414  -5.348  1.00  0.00    -0.646 OA
ENDBRANCH  31  33
ENDBRANCH  30  31
ENDBRANCH  29  30
ENDBRANCH  27  29
ENDBRANCH   1  26
TORSDOF 13
