REMARK  3 active torsions:
REMARK  status: ('A' for Active; 'I' for Inactive)
REMARK    1  A    between atoms: C8_8  and  C10_10 
REMARK    2  A    between atoms: C10_10  and  C11_11 
REMARK    3  A    between atoms: C11_11  and  C12_12 
ROOT
HETATM    1  C1  UNL     1      -2.727  -0.500   0.557  1.00  0.00     0.022 C 
HETATM    2  C2  UNL     1      -1.293  -0.053   0.885  1.00  0.00     0.004 C 
HETATM    3  C3  UNL     1      -1.260   1.223   1.766  1.00  0.00     0.001 C 
HETATM    4  C4  UNL     1      -1.465   1.984   0.430  1.00  0.00     0.004 C 
HETATM    5  C5  UNL     1      -2.940   2.017  -0.004  1.00  0.00     0.022 C 
HETATM    6  C6  UNL     1      -3.598   0.656   0.107  1.00  0.00    -0.044 C 
HETATM    7  C7  UNL     1      -4.901   0.482  -0.178  1.00  0.00    -0.009 C 
HETATM    8  C8  UNL     1      -0.627   0.838  -0.207  1.00  0.00     0.001 C 
HETATM    9  C9  UNL     1      -0.986   0.486  -1.649  1.00  0.00     0.000 C 
ENDROOT
BRANCH   8  10
HETATM   10  C10 UNL     1       0.889   0.998  -0.059  1.00  0.00     0.004 C 
BRANCH  10  11
HETATM   11  C11 UNL     1       1.582  -0.303  -0.467  1.00  0.00     0.025 C 
BRANCH  11  12
HETATM   12  C12 UNL     1       3.039  -0.320  -0.090  1.00  0.00    -0.034 C 
HETATM   13  C13 UNL     1       3.682  -1.498  -0.068  1.00  0.00    -0.048 C 
HETATM   14  C14 UNL     1       2.928  -2.737  -0.477  1.00  0.00     0.026 C 
HETATM   15  C15 UNL     1       5.123  -1.524   0.363  1.00  0.00     0.026 C 
ENDBRANCH  11  12
ENDBRANCH  10  11
ENDBRANCH   8  10
TORSDOF 3
