REMARK  0 active torsions:
REMARK  status: ('A' for Active; 'I' for Inactive)
ROOT
HETATM    1  C1  UNL     1       4.608   0.309   0.477  1.00  0.00     0.000 A 
HETATM    2  C2  UNL     1       4.549  -1.094   0.605  1.00  0.00     0.000 A 
HETATM    3  C3  UNL     1       3.305  -1.758   0.535  1.00  0.00     0.003 A 
HETATM    4  C4  UNL     1       2.104  -1.025   0.334  1.00  0.00     0.042 A 
HETATM    5  C5  UNL     1       2.162   0.393   0.205  1.00  0.00     0.042 A 
HETATM    6  C6  UNL     1       3.420   1.047   0.277  1.00  0.00     0.003 A 
HETATM    7  C7  UNL     1       0.932   1.217  -0.008  1.00  0.00     0.198 A 
HETATM    8  C8  UNL     1      -0.369   0.473  -0.094  1.00  0.00     0.067 A 
HETATM    9  C9  UNL     1      -0.422  -0.947   0.035  1.00  0.00     0.046 A 
HETATM   10  C10 UNL     1       0.809  -1.770   0.264  1.00  0.00     0.196 A 
HETATM   11  O1  UNL     1       0.760  -2.975   0.383  1.00  0.00    -0.287 OA
HETATM   12  C11 UNL     1      -1.676  -1.611  -0.053  1.00  0.00     0.030 A 
HETATM   13  C12 UNL     1      -2.865  -0.883  -0.268  1.00  0.00     0.129 A 
HETATM   14  C13 UNL     1      -2.818   0.521  -0.395  1.00  0.00     0.029 A 
HETATM   15  C14 UNL     1      -1.578   1.197  -0.309  1.00  0.00     0.132 A 
HETATM   16  O2  UNL     1      -1.561   2.535  -0.432  1.00  0.00    -0.190 OA
HETATM   17  C15 UNL     1      -4.061   1.281  -0.619  1.00  0.00     0.035 C 
HETATM   18  O3  UNL     1      -4.035  -1.535  -0.348  1.00  0.00    -0.190 OA
HETATM   19  O4  UNL     1       0.992   2.422  -0.107  1.00  0.00    -0.286 OA
ENDROOT
TORSDOF 0
