REMARK  4 active torsions:
REMARK  status: ('A' for Active; 'I' for Inactive)
REMARK    1  A    between atoms: C4_4  and  C8_8 
REMARK    2  A    between atoms: C8_8  and  C9_9 
REMARK    3  A    between atoms: C9_9  and  C10_10 
REMARK    4  A    between atoms: C11_11  and  C12_12 
ROOT
HETATM    1  C1  UNL     1       3.545  -1.473   0.535  1.00  0.00     0.002 C 
HETATM    2  C2  UNL     1       2.308  -1.789  -0.313  1.00  0.00     0.028 C 
HETATM    3  C3  UNL     1       1.012  -1.258   0.332  1.00  0.00     0.127 C 
HETATM    4  C4  UNL     1       1.125   0.279   0.105  1.00  0.00     0.026 C 
HETATM    5  C5  UNL     1       2.508   0.379  -0.568  1.00  0.00     0.002 C 
HETATM    6  C6  UNL     1       3.674   0.039   0.371  1.00  0.00     0.000 C 
HETATM    7  C7  UNL     1       2.523  -0.840  -1.488  1.00  0.00     0.003 C 
HETATM    8  C14 UNL     1       1.099   1.094   1.398  1.00  0.00     0.003 C 
HETATM    9  O2  UNL     1      -0.100  -1.813  -0.356  1.00  0.00    -0.226 OA
HETATM   10  C15 UNL     1       0.867  -1.705   1.787  1.00  0.00     0.033 C 
ENDROOT
BRANCH   4  11
HETATM   11  C8  UNL     1       0.113   0.877  -0.881  1.00  0.00     0.007 C 
BRANCH  11  12
HETATM   12  C9  UNL     1      -1.246   1.016  -0.195  1.00  0.00     0.025 C 
BRANCH  12  13
HETATM   13  C10 UNL     1      -2.367   1.227  -1.178  1.00  0.00    -0.032 C 
HETATM   14  C11 UNL     1      -3.631   1.102  -0.746  1.00  0.00    -0.015 C 
HETATM   15  C13 UNL     1      -4.752   1.312  -1.729  1.00  0.00     0.029 C 
BRANCH  14  16
HETATM   16  C12 UNL     1      -3.865   0.754   0.701  1.00  0.00     0.204 C 
HETATM   17  O1  UNL     1      -3.783  -0.643   0.869  1.00  0.00    -0.216 OA
ENDBRANCH  14  16
ENDBRANCH  12  13
ENDBRANCH  11  12
ENDBRANCH   4  11
TORSDOF 4
