REMARK  1 active torsions:
REMARK  status: ('A' for Active; 'I' for Inactive)
REMARK    1  A    between atoms: C7_8  and  C10_12 
ROOT
HETATM    1  C1  UNL     1       3.819  -1.901  -0.025  1.00  0.00     0.133 A 
HETATM    2  C2  UNL     1       4.542  -0.685  -0.027  1.00  0.00     0.028 A 
HETATM    3  C3  UNL     1       3.853   0.549  -0.013  1.00  0.00     0.007 A 
HETATM    4  C4  UNL     1       2.436   0.566   0.004  1.00  0.00     0.057 A 
HETATM    5  C5  UNL     1       1.707  -0.655  -0.033  1.00  0.00     0.099 A 
HETATM    6  C6  UNL     1       2.405  -1.885  -0.027  1.00  0.00     0.052 A 
HETATM    7  O1  UNL     1       0.358  -0.664  -0.072  1.00  0.00    -0.328 OA
HETATM    8  C7  UNL     1      -0.363   0.505  -0.479  1.00  0.00     0.151 C 
HETATM    9  C8  UNL     1       0.198   1.758   0.223  1.00  0.00     0.104 C 
HETATM   10  C9  UNL     1       1.701   1.859   0.069  1.00  0.00     0.178 C 
HETATM   11  O2  UNL     1       2.184   2.967   0.018  1.00  0.00    -0.291 OA
HETATM   12  O4  UNL     1       4.475  -3.070  -0.025  1.00  0.00    -0.190 OA
ENDROOT
BRANCH   8  13
HETATM   13  C10 UNL     1      -1.809   0.304  -0.205  1.00  0.00     0.006 A 
HETATM   14  C11 UNL     1      -2.234  -0.100   1.072  1.00  0.00     0.000 A 
HETATM   15  C12 UNL     1      -3.603  -0.291   1.330  1.00  0.00     0.027 A 
HETATM   16  C13 UNL     1      -4.551  -0.078   0.313  1.00  0.00     0.131 A 
HETATM   17  C14 UNL     1      -4.123   0.326  -0.964  1.00  0.00     0.027 A 
HETATM   18  O3  UNL     1      -5.834  -0.257   0.556  1.00  0.00    -0.190 OA
HETATM   19  C15 UNL     1      -2.755   0.517  -1.224  1.00  0.00     0.000 A 
ENDBRANCH   8  13
TORSDOF 1
