REMARK  24 active torsions:
REMARK  status: ('A' for Active; 'I' for Inactive)
REMARK    1  A    between atoms: C1_1  and  O13_56 
REMARK    2  A    between atoms: C15_16  and  C18_19 
REMARK    3  A    between atoms: C18_19  and  C19_20 
REMARK    4  A    between atoms: C18_19  and  O2_26 
REMARK    5  A    between atoms: C19_20  and  C20_21 
REMARK    6  A    between atoms: C20_21  and  C21_22 
REMARK    7  A    between atoms: O2_26  and  C25_27 
REMARK    8  A    between atoms: C25_27  and  C26_28 
REMARK    9  A    between atoms: C30_32  and  C31_34 
REMARK   10  A    between atoms: C31_34  and  O4_35 
REMARK   11  A    between atoms: O4_35  and  C32_36 
REMARK   12  A    between atoms: C36_40  and  C37_42 
REMARK   13  A    between atoms: O13_56  and  C44_57 
REMARK   14  A    between atoms: C45_58  and  O18_67 
REMARK   15  A    between atoms: C48_61  and  C49_63 
REMARK   16  A    between atoms: O18_67  and  C50_68 
REMARK   17  A    between atoms: C54_72  and  C55_74 
REMARK   18  A    between atoms: C55_74  and  O20_75 
REMARK   19  A    between atoms: O20_75  and  C56_76 
REMARK   20  A    between atoms: C56_76  and  C57_77 
REMARK   21  A    between atoms: C58_78  and  C59_79 
REMARK   22  A    between atoms: C59_79  and  C60_80 
REMARK   23  A    between atoms: C60_80  and  C61_81 
REMARK   24  A    between atoms: C61_81  and  C62_82 
ROOT
HETATM    1  C1  UNL     1       0.927  -0.898  -3.510  1.00  0.00     0.118 C 
HETATM    2  C2  UNL     1       1.199  -2.040  -2.502  1.00  0.00     0.025 C 
HETATM    3  C3  UNL     1       0.003  -2.140  -1.508  1.00  0.00     0.002 C 
HETATM    4  C4  UNL     1      -1.399  -2.277  -2.179  1.00  0.00     0.000 C 
HETATM    5  C5  UNL     1      -1.573  -1.154  -3.234  1.00  0.00     0.003 C 
HETATM    6  C6  UNL     1      -0.414  -1.071  -4.236  1.00  0.00     0.030 C 
HETATM    7  C7  UNL     1      -2.559  -2.269  -1.106  1.00  0.00     0.003 C 
HETATM    8  C8  UNL     1      -2.080  -2.436   0.362  1.00  0.00     0.000 C 
HETATM    9  C9  UNL     1      -1.023  -3.551   0.414  1.00  0.00     0.000 C 
HETATM   10  C10 UNL     1       0.232  -3.211  -0.411  1.00  0.00     0.000 C 
HETATM   11  C11 UNL     1      -3.274  -2.728   1.317  1.00  0.00     0.002 C 
HETATM   12  C12 UNL     1      -4.411  -1.690   1.187  1.00  0.00     0.033 C 
HETATM   13  C13 UNL     1      -4.794  -1.403  -0.284  1.00  0.00     0.152 C 
HETATM   14  C14 UNL     1      -3.581  -1.119  -1.188  1.00  0.00     0.033 C 
HETATM   15  O1  UNL     1      -5.663  -0.287  -0.336  1.00  0.00    -0.224 OA
HETATM   16  C15 UNL     1      -5.604  -2.336   1.918  1.00  0.00     0.028 C 
HETATM   17  C16 UNL     1      -5.350  -3.849   1.871  1.00  0.00     0.002 C 
HETATM   18  C17 UNL     1      -4.051  -4.031   1.084  1.00  0.00     0.000 C 
HETATM   19  C39 UNL     1      -2.811  -2.785   2.782  1.00  0.00     0.000 C 
HETATM   20  C40 UNL     1      -1.492  -1.122   0.919  1.00  0.00     0.000 C 
HETATM   21  C41 UNL     1      -1.450  -3.621  -2.929  1.00  0.00     0.000 C 
HETATM   22  C42 UNL     1       2.482  -1.726  -1.718  1.00  0.00     0.002 C 
HETATM   23  C43 UNL     1       1.416  -3.373  -3.236  1.00  0.00     0.002 C 
ENDROOT
BRANCH   1  24
HETATM   24  O13 UNL     1       1.961  -0.814  -4.475  1.00  0.00    -0.332 OA
BRANCH  24  25
HETATM   25  C44 UNL     1       2.024   0.444  -5.116  1.00  0.00     0.267 C 
HETATM   26  C45 UNL     1       2.959   0.377  -6.350  1.00  0.00     0.207 C 
HETATM   27  C46 UNL     1       3.164   1.779  -6.968  1.00  0.00     0.217 C 
HETATM   28  C47 UNL     1       3.569   2.786  -5.869  1.00  0.00     0.215 C 
HETATM   29  O17 UNL     1       4.174   1.723  -7.965  1.00  0.00    -0.218 OA
HETATM   30  C48 UNL     1       2.595   2.732  -4.671  1.00  0.00     0.184 C 
HETATM   31  O16 UNL     1       3.567   4.101  -6.396  1.00  0.00    -0.218 OA
HETATM   32  O14 UNL     1       2.520   1.399  -4.184  1.00  0.00    -0.326 OA
BRANCH  26  33
HETATM   33  O18 UNL     1       2.391  -0.485  -7.323  1.00  0.00    -0.324 OA
BRANCH  33  34
HETATM   34  C50 UNL     1       3.325  -1.391  -7.878  1.00  0.00     0.270 C 
HETATM   35  C51 UNL     1       2.693  -2.159  -9.067  1.00  0.00     0.241 C 
HETATM   36  C52 UNL     1       3.646  -3.262  -9.584  1.00  0.00     0.220 C 
HETATM   37  O24 UNL     1       2.415  -1.248 -10.121  1.00  0.00    -0.215 OA
HETATM   38  C53 UNL     1       4.136  -4.129  -8.405  1.00  0.00     0.215 C 
HETATM   39  O23 UNL     1       2.970  -4.074 -10.532  1.00  0.00    -0.218 OA
HETATM   40  C54 UNL     1       4.701  -3.255  -7.262  1.00  0.00     0.181 C 
HETATM   41  O22 UNL     1       5.153  -5.010  -8.847  1.00  0.00    -0.218 OA
HETATM   42  O19 UNL     1       3.720  -2.305  -6.865  1.00  0.00    -0.326 OA
BRANCH  40  43
HETATM   43  C55 UNL     1       5.061  -4.066  -6.013  1.00  0.00     0.184 C 
BRANCH  43  44
HETATM   44  O20 UNL     1       5.608  -3.200  -5.028  1.00  0.00    -0.296 OA
BRANCH  44  45
HETATM   45  C56 UNL     1       5.950  -3.848  -3.919  1.00  0.00     0.296 C 
HETATM   46  O21 UNL     1       5.802  -5.036  -3.761  1.00  0.00    -0.259 OA
BRANCH  45  47
HETATM   47  C57 UNL     1       6.544  -3.025  -2.858  1.00  0.00     0.064 C 
HETATM   48  C58 UNL     1       6.927  -3.577  -1.695  1.00  0.00    -0.021 C 
BRANCH  48  49
HETATM   49  C59 UNL     1       7.529  -2.689  -0.640  1.00  0.00     0.026 C 
BRANCH  49  50
HETATM   50  C60 UNL     1       7.463  -3.313   0.753  1.00  0.00     0.005 C 
BRANCH  50  51
HETATM   51  C61 UNL     1       8.082  -2.419   1.830  1.00  0.00     0.000 C 
BRANCH  51  52
HETATM   52  C62 UNL     1       8.014  -3.041   3.224  1.00  0.00     0.000 C 
HETATM   53  C63 UNL     1       8.632  -2.147   4.301  1.00  0.00     0.000 C 
ENDBRANCH  51  52
ENDBRANCH  50  51
ENDBRANCH  49  50
ENDBRANCH  48  49
ENDBRANCH  45  47
ENDBRANCH  44  45
ENDBRANCH  43  44
ENDBRANCH  40  43
ENDBRANCH  33  34
ENDBRANCH  26  33
BRANCH  30  54
HETATM   54  C49 UNL     1       3.043   3.605  -3.496  1.00  0.00     0.214 C 
HETATM   55  O15 UNL     1       2.004   3.630  -2.543  1.00  0.00    -0.218 OA
ENDBRANCH  30  54
ENDBRANCH  24  25
ENDBRANCH   1  24
BRANCH  16  56
HETATM   56  C18 UNL     1      -5.684  -1.850   3.364  1.00  0.00     0.093 C 
HETATM   57  C38 UNL     1      -5.953  -3.038   4.288  1.00  0.00     0.030 C 
BRANCH  56  58
HETATM   58  C19 UNL     1      -6.753  -0.762   3.478  1.00  0.00     0.032 C 
BRANCH  58  59
HETATM   59  C20 UNL     1      -6.339   0.546   2.799  1.00  0.00     0.028 C 
BRANCH  59  60
HETATM   60  C21 UNL     1      -7.235   1.695   3.174  1.00  0.00    -0.035 C 
HETATM   61  C22 UNL     1      -7.138   2.836   2.475  1.00  0.00    -0.048 C 
HETATM   62  C23 UNL     1      -8.064   4.017   2.604  1.00  0.00     0.026 C 
HETATM   63  C24 UNL     1      -6.024   2.973   1.472  1.00  0.00     0.026 C 
ENDBRANCH  59  60
ENDBRANCH  58  59
ENDBRANCH  56  58
BRANCH  56  64
HETATM   64  O2  UNL     1      -4.442  -1.286   3.718  1.00  0.00    -0.356 OA
BRANCH  64  65
HETATM   65  C25 UNL     1      -4.426  -0.754   5.024  1.00  0.00     0.174 C 
BRANCH  65  66
HETATM   66  C26 UNL     1      -3.022  -0.207   5.302  1.00  0.00     0.178 C 
HETATM   67  C27 UNL     1      -2.228  -1.070   6.309  1.00  0.00     0.214 C 
HETATM   68  C28 UNL     1      -0.888  -0.400   6.684  1.00  0.00     0.217 C 
HETATM   69  O12 UNL     1      -1.985  -2.337   5.725  1.00  0.00    -0.218 OA
HETATM   70  C29 UNL     1      -1.140   1.062   7.119  1.00  0.00     0.214 C 
HETATM   71  O11 UNL     1      -0.273  -1.117   7.744  1.00  0.00    -0.218 OA
HETATM   72  C30 UNL     1      -1.984   1.819   6.069  1.00  0.00     0.178 C 
HETATM   73  O10 UNL     1       0.097   1.735   7.279  1.00  0.00    -0.218 OA
HETATM   74  O3  UNL     1      -3.190   1.105   5.830  1.00  0.00    -0.349 OA
BRANCH  72  75
HETATM   75  C31 UNL     1      -2.383   3.225   6.525  1.00  0.00     0.177 C 
BRANCH  75  76
HETATM   76  O4  UNL     1      -2.669   3.995   5.378  1.00  0.00    -0.326 OA
BRANCH  76  77
HETATM   77  C32 UNL     1      -3.145   5.291   5.684  1.00  0.00     0.270 C 
HETATM   78  C33 UNL     1      -3.625   6.009   4.396  1.00  0.00     0.241 C 
HETATM   79  C34 UNL     1      -4.000   7.479   4.688  1.00  0.00     0.220 C 
HETATM   80  O9  UNL     1      -4.757   5.331   3.874  1.00  0.00    -0.215 OA
HETATM   81  C35 UNL     1      -2.854   8.171   5.460  1.00  0.00     0.215 C 
HETATM   82  O8  UNL     1      -4.240   8.165   3.469  1.00  0.00    -0.218 OA
HETATM   83  C36 UNL     1      -2.431   7.344   6.695  1.00  0.00     0.184 C 
HETATM   84  O7  UNL     1      -3.275   9.454   5.896  1.00  0.00    -0.218 OA
HETATM   85  O5  UNL     1      -2.089   6.026   6.284  1.00  0.00    -0.326 OA
BRANCH  83  86
HETATM   86  C37 UNL     1      -1.200   7.918   7.404  1.00  0.00     0.214 C 
HETATM   87  O6  UNL     1      -0.997   7.191   8.594  1.00  0.00    -0.218 OA
ENDBRANCH  83  86
ENDBRANCH  76  77
ENDBRANCH  75  76
ENDBRANCH  72  75
ENDBRANCH  65  66
ENDBRANCH  64  65
ENDBRANCH  56  64
ENDBRANCH  16  56
TORSDOF 24
