REMARK  2 active torsions:
REMARK  status: ('A' for Active; 'I' for Inactive)
REMARK    1  A    between atoms: C3_3  and  C8_9 
REMARK    2  A    between atoms: C6_6  and  O1_7 
ROOT
HETATM    1  C1  UNL     1      -0.596   0.967   0.012  1.00  0.00     0.024 A 
HETATM    2  C2  UNL     1      -1.256  -0.275   0.012  1.00  0.00     0.008 A 
HETATM    3  C3  UNL     1      -0.510  -1.467   0.012  1.00  0.00     0.065 A 
HETATM    4  C4  UNL     1       0.896  -1.414   0.012  1.00  0.00     0.008 A 
HETATM    5  C5  UNL     1       1.553  -0.172   0.012  1.00  0.00     0.024 A 
HETATM    6  C6  UNL     1       0.809   1.021   0.012  1.00  0.00     0.094 A 
ENDROOT
BRANCH   3   7
HETATM    7  C8  UNL     1      -1.209  -2.787   0.012  1.00  0.00     0.211 C 
HETATM    8  O2  UNL     1      -2.416  -2.850   0.012  1.00  0.00    -0.644 OA
HETATM    9  O3  UNL     1      -0.410  -3.852   0.012  1.00  0.00    -0.644 OA
ENDBRANCH   3   7
BRANCH   6  10
HETATM   10  O1  UNL     1       1.426   2.186   0.012  1.00  0.00    -0.328 OA
HETATM   11  C7  UNL     1       0.633   3.361  -0.055  1.00  0.00     0.181 C 
ENDBRANCH   6  10
TORSDOF 2
