REMARK  4 active torsions:
REMARK  status: ('A' for Active; 'I' for Inactive)
REMARK    1  A    between atoms: N1_6  and  C7_9 
REMARK    2  A    between atoms: C7_9  and  C8_10 
REMARK    3  A    between atoms: C13_17  and  C14_18 
REMARK    4  A    between atoms: C16_23  and  C17_24 
ROOT
HETATM    1  C1  UNL     1      -0.766  -0.455   0.855  1.00  0.00     0.112 C 
HETATM    2  C2  UNL     1      -0.883  -1.967   0.666  1.00  0.00     0.127 C 
HETATM    3  C3  UNL     1       0.164  -2.775   1.437  1.00  0.00     0.032 C 
HETATM    4  C4  UNL     1       1.578  -2.213   1.244  1.00  0.00     0.027 C 
HETATM    5  C5  UNL     1       1.851  -1.721  -0.186  1.00  0.00     0.109 C 
HETATM    6  N1  UNL     1       1.461  -0.301  -0.428  1.00  0.00    -0.300 N 
HETATM    7  C6  UNL     1       0.289   0.283   0.037  1.00  0.00     0.239 C 
HETATM    8  O1  UNL     1       0.070   1.447  -0.211  1.00  0.00    -0.272 OA
HETATM    9  O6  UNL     1      -2.164  -2.266   1.172  1.00  0.00    -0.333 OA
HETATM   10  C15 UNL     1      -3.078  -1.258   0.816  1.00  0.00     0.215 A 
HETATM   11  C16 UNL     1      -2.203  -0.035   0.486  1.00  0.00     0.068 C 
HETATM   12  C19 UNL     1      -3.969  -1.725  -0.314  1.00  0.00     0.030 A 
HETATM   13  C20 UNL     1      -5.227  -1.709   0.123  1.00  0.00     0.042 A 
HETATM   14  C21 UNL     1      -5.235  -1.260   1.504  1.00  0.00     0.294 A 
HETATM   15  O7  UNL     1      -3.985  -1.002   1.908  1.00  0.00    -0.274 OA
HETATM   16  O8  UNL     1      -6.237  -1.145   2.170  1.00  0.00    -0.259 OA
HETATM   17  C22 UNL     1      -6.438  -2.098  -0.686  1.00  0.00     0.036 C 
ENDROOT
BRANCH   6  18
HETATM   18  C7  UNL     1       2.330   0.467  -1.164  1.00  0.00     0.073 C 
HETATM   19  C13 UNL     1       2.887  -0.033  -2.279  1.00  0.00     0.086 C 
BRANCH  18  20
HETATM   20  C8  UNL     1       2.685   1.871  -0.750  1.00  0.00     0.163 C 
HETATM   21  O2  UNL     1       2.558   2.012   0.664  1.00  0.00    -0.298 OA
HETATM   22  C9  UNL     1       3.435   2.934   1.047  1.00  0.00     0.272 C 
HETATM   23  C10 UNL     1       4.346   3.383  -0.059  1.00  0.00     0.089 C 
HETATM   24  O3  UNL     1       3.517   3.375   2.170  1.00  0.00    -0.264 OA
HETATM   25  C11 UNL     1       4.117   2.293  -1.106  1.00  0.00     0.046 C 
HETATM   26  C12 UNL     1       5.812   3.475   0.346  1.00  0.00     0.011 C 
ENDBRANCH  18  20
BRANCH  19  27
HETATM   27  C14 UNL     1       2.574  -1.395  -2.727  1.00  0.00     0.212 C 
HETATM   28  O4  UNL     1       3.420  -2.258  -2.695  1.00  0.00    -0.644 OA
HETATM   29  O5  UNL     1       1.330  -1.592  -3.152  1.00  0.00    -0.644 OA
ENDBRANCH  19  27
ENDBRANCH   6  18
BRANCH  11  30
HETATM   30  C17 UNL     1      -2.615   1.242   1.219  1.00  0.00     0.006 C 
HETATM   31  C18 UNL     1      -3.787   1.895   0.488  1.00  0.00     0.000 C 
ENDBRANCH  11  30
TORSDOF 4
