REMARK  3 active torsions:
REMARK  status: ('A' for Active; 'I' for Inactive)
REMARK    1  A    between atoms: C6_6  and  C7_7 
REMARK    2  A    between atoms: C9_9  and  C13_14 
REMARK    3  A    between atoms: C13_14  and  C14_15 
ROOT
HETATM    1  C7  UNL     1      -0.170  -0.506  -0.511  1.00  0.00     0.027 A 
HETATM    2  C8  UNL     1      -0.875  -0.022   0.608  1.00  0.00    -0.002 A 
HETATM    3  C9  UNL     1      -2.279  -0.049   0.623  1.00  0.00    -0.018 A 
HETATM    4  C10 UNL     1      -2.984  -0.563  -0.478  1.00  0.00    -0.002 A 
HETATM    5  C11 UNL     1      -2.283  -1.047  -1.595  1.00  0.00     0.027 A 
HETATM    6  C12 UNL     1      -0.877  -1.024  -1.619  1.00  0.00     0.131 A 
HETATM    7  O1  UNL     1      -0.238  -1.485  -2.677  1.00  0.00    -0.190 OA
ENDROOT
BRANCH   1   8
HETATM    8  C6  UNL     1       1.287  -0.471  -0.511  1.00  0.00     0.029 A 
HETATM    9  C1  UNL     1       2.037  -1.668  -0.511  1.00  0.00     0.131 A 
HETATM   10  C2  UNL     1       3.441  -1.608  -0.511  1.00  0.00     0.029 A 
HETATM   11  O3  UNL     1       1.439  -2.844  -0.511  1.00  0.00    -0.190 OA
HETATM   12  C3  UNL     1       4.100  -0.367  -0.511  1.00  0.00     0.029 A 
HETATM   13  C4  UNL     1       3.356   0.826  -0.511  1.00  0.00     0.131 A 
HETATM   14  C5  UNL     1       1.951   0.771  -0.511  1.00  0.00     0.029 A 
HETATM   15  O2  UNL     1       3.973   1.990  -0.511  1.00  0.00    -0.190 OA
ENDBRANCH   1   8
BRANCH   3  16
HETATM   16  C13 UNL     1      -3.022   0.465   1.805  1.00  0.00     0.052 C 
BRANCH  16  17
HETATM   17  C14 UNL     1      -3.250   1.951   1.729  1.00  0.00    -0.021 C 
HETATM   18  C15 UNL     1      -2.293   2.771   2.194  1.00  0.00    -0.005 C 
ENDBRANCH  16  17
ENDBRANCH   3  16
TORSDOF 3
