REMARK  1 active torsions:
REMARK  status: ('A' for Active; 'I' for Inactive)
REMARK    1  A    between atoms: C12_15  and  C13_17 
ROOT
HETATM    1  C1  UNL     1       3.351  -1.293  -0.676  1.00  0.00     0.181 A 
HETATM    2  C2  UNL     1       4.119  -0.523   0.228  1.00  0.00     0.158 A 
HETATM    3  C3  UNL     1       3.476   0.328   1.154  1.00  0.00     0.035 A 
HETATM    4  C4  UNL     1       2.062   0.414   1.170  1.00  0.00     0.066 A 
HETATM    5  C5  UNL     1       1.281  -0.355   0.266  1.00  0.00     0.040 A 
HETATM    6  C6  UNL     1       1.937  -1.217  -0.658  1.00  0.00     0.157 A 
HETATM    7  O1  UNL     1       1.236  -1.975  -1.516  1.00  0.00    -0.188 OA
HETATM    8  C7  UNL     1      -0.203  -0.221   0.373  1.00  0.00     0.170 C 
HETATM    9  C8  UNL     1      -0.596   1.209   0.836  1.00  0.00     0.189 C 
HETATM   10  O2  UNL     1       0.033   1.520   2.086  1.00  0.00    -0.295 OA
HETATM   11  C9  UNL     1       1.361   1.307   2.139  1.00  0.00     0.296 C 
HETATM   12  O3  UNL     1       1.945   1.883   3.027  1.00  0.00    -0.259 OA
HETATM   13  C10 UNL     1      -2.129   1.412   0.943  1.00  0.00     0.215 C 
HETATM   14  C11 UNL     1      -2.928   0.168   0.482  1.00  0.00     0.214 C 
HETATM   15  C12 UNL     1      -2.313  -0.572  -0.746  1.00  0.00     0.181 C 
HETATM   16  O4  UNL     1      -0.897  -0.424  -0.854  1.00  0.00    -0.347 OA
HETATM   17  O6  UNL     1      -3.006  -0.734   1.574  1.00  0.00    -0.218 OA
HETATM   18  O7  UNL     1      -2.514   2.508   0.135  1.00  0.00    -0.218 OA
HETATM   19  O8  UNL     1       5.457  -0.602   0.213  1.00  0.00    -0.188 OA
HETATM   20  O9  UNL     1       3.965  -2.104  -1.551  1.00  0.00    -0.186 OA
ENDROOT
BRANCH  15  21
HETATM   21  C13 UNL     1      -2.893  -0.068  -2.070  1.00  0.00     0.214 C 
HETATM   22  O5  UNL     1      -4.242  -0.469  -2.141  1.00  0.00    -0.218 OA
ENDBRANCH  15  21
TORSDOF 1
