REMARK  8 active torsions:
REMARK  status: ('A' for Active; 'I' for Inactive)
REMARK    1  A    between atoms: C4_4  and  C7_7 
REMARK    2  A    between atoms: C11_13  and  C13_16 
REMARK    3  A    between atoms: C16_19  and  O4_22 
REMARK    4  A    between atoms: O4_22  and  C19_23 
REMARK    5  A    between atoms: C23_30  and  C24_32 
REMARK    6  A    between atoms: C24_32  and  O9_33 
REMARK    7  A    between atoms: O9_33  and  C25_34 
REMARK    8  A    between atoms: C29_41  and  C30_43 
ROOT
HETATM    1  C13 UNL     1       1.674  -0.305  -3.076  1.00  0.00     0.005 A 
HETATM    2  C14 UNL     1       3.045  -0.551  -3.272  1.00  0.00     0.000 A 
HETATM    3  C15 UNL     1       4.002   0.275  -2.658  1.00  0.00     0.024 A 
HETATM    4  C16 UNL     1       3.596   1.352  -1.850  1.00  0.00     0.097 A 
HETATM    5  C17 UNL     1       2.225   1.596  -1.656  1.00  0.00     0.024 A 
HETATM    6  C18 UNL     1       1.264   0.771  -2.268  1.00  0.00     0.000 A 
ENDROOT
BRANCH   4   7
HETATM    7  O4  UNL     1       4.494   2.125  -1.277  1.00  0.00    -0.304 OA
BRANCH   7   8
HETATM    8  C19 UNL     1       4.037   3.113  -0.361  1.00  0.00     0.274 C 
HETATM    9  C20 UNL     1       5.215   4.006   0.084  1.00  0.00     0.241 C 
HETATM   10  O5  UNL     1       5.695   4.713  -1.045  1.00  0.00    -0.215 OA
HETATM   11  C21 UNL     1       4.779   4.998   1.182  1.00  0.00     0.220 C 
HETATM   12  O6  UNL     1       5.916   5.668   1.705  1.00  0.00    -0.218 OA
HETATM   13  C22 UNL     1       4.049   4.238   2.313  1.00  0.00     0.215 C 
HETATM   14  O7  UNL     1       3.475   5.164   3.219  1.00  0.00    -0.218 OA
HETATM   15  C23 UNL     1       2.928   3.336   1.750  1.00  0.00     0.180 C 
HETATM   16  O8  UNL     1       3.471   2.463   0.768  1.00  0.00    -0.326 OA
BRANCH  15  17
HETATM   17  C24 UNL     1       2.283   2.449   2.820  1.00  0.00     0.177 C 
BRANCH  17  18
HETATM   18  O9  UNL     1       1.186   1.783   2.238  1.00  0.00    -0.326 OA
BRANCH  18  19
HETATM   19  C25 UNL     1       0.557   0.869   3.117  1.00  0.00     0.270 C 
HETATM   20  C26 UNL     1      -0.469  -0.002   2.348  1.00  0.00     0.241 C 
HETATM   21  O10 UNL     1       0.217  -0.824   1.416  1.00  0.00    -0.215 OA
HETATM   22  C27 UNL     1      -1.275  -0.895   3.318  1.00  0.00     0.220 C 
HETATM   23  O11 UNL     1      -2.334  -1.529   2.623  1.00  0.00    -0.218 OA
HETATM   24  C28 UNL     1      -1.844  -0.039   4.473  1.00  0.00     0.215 C 
HETATM   25  O12 UNL     1      -2.414  -0.881   5.459  1.00  0.00    -0.218 OA
HETATM   26  C29 UNL     1      -0.742   0.820   5.131  1.00  0.00     0.184 C 
HETATM   27  O13 UNL     1      -0.102   1.607   4.137  1.00  0.00    -0.326 OA
BRANCH  26  28
HETATM   28  C30 UNL     1      -1.291   1.793   6.180  1.00  0.00     0.214 C 
HETATM   29  O14 UNL     1      -0.199   2.402   6.832  1.00  0.00    -0.218 OA
ENDBRANCH  26  28
ENDBRANCH  18  19
ENDBRANCH  17  18
ENDBRANCH  15  17
ENDBRANCH   7   8
ENDBRANCH   4   7
BRANCH   1  30
HETATM   30  C11 UNL     1       0.660  -1.178  -3.723  1.00  0.00     0.143 C 
HETATM   31  C9  UNL     1      -0.691  -1.223  -2.992  1.00  0.00     0.096 C 
HETATM   32  C8  UNL     1      -1.137  -2.697  -3.100  1.00  0.00     0.069 C 
HETATM   33  C10 UNL     1      -1.838  -0.457  -3.674  1.00  0.00     0.272 C 
HETATM   34  C7  UNL     1      -2.522  -2.645  -3.760  1.00  0.00     0.143 C 
HETATM   35  C12 UNL     1      -0.031  -3.356  -3.926  1.00  0.00     0.146 C 
HETATM   36  O1  UNL     1      -2.934  -1.322  -3.508  1.00  0.00    -0.327 OA
HETATM   37  O3  UNL     1       1.076  -2.520  -3.693  1.00  0.00    -0.352 OA
HETATM   38  O2  UNL     1      -2.051   0.803  -3.070  1.00  0.00    -0.190 OA
BRANCH  34  39
HETATM   39  C4  UNL     1      -3.496  -3.600  -3.213  1.00  0.00     0.007 A 
HETATM   40  C3  UNL     1      -4.875  -3.287  -3.205  1.00  0.00     0.024 A 
HETATM   41  C2  UNL     1      -5.832  -4.197  -2.686  1.00  0.00     0.119 A 
HETATM   42  C1  UNL     1      -5.404  -5.424  -2.168  1.00  0.00     0.119 A 
HETATM   43  O15 UNL     1      -7.158  -4.117  -2.578  1.00  0.00    -0.300 OA
HETATM   44  C6  UNL     1      -4.020  -5.738  -2.174  1.00  0.00     0.026 A 
HETATM   45  O16 UNL     1      -6.465  -6.109  -1.738  1.00  0.00    -0.300 OA
HETATM   46  C5  UNL     1      -3.066  -4.836  -2.691  1.00  0.00     0.000 A 
HETATM   47  C31 UNL     1      -7.660  -5.330  -1.973  1.00  0.00     0.304 A 
ENDBRANCH  34  39
ENDBRANCH   1  30
TORSDOF 8
