REMARK  6 active torsions:
REMARK  status: ('A' for Active; 'I' for Inactive)
REMARK    1  A    between atoms: C15_16  and  C18_19 
REMARK    2  A    between atoms: C18_19  and  C19_20 
REMARK    3  A    between atoms: C19_20  and  C20_21 
REMARK    4  A    between atoms: C20_21  and  C21_22 
REMARK    5  A    between atoms: C21_22  and  C22_23 
REMARK    6  A    between atoms: C22_23  and  C23_24 
ROOT
HETATM    1  C1  UNL     1      -4.865   1.340   0.369  1.00  0.00     0.182 C 
HETATM    2  C2  UNL     1      -5.805   0.811   1.490  1.00  0.00     0.183 C 
HETATM    3  C3  UNL     1      -5.123  -0.133   2.514  1.00  0.00     0.043 C 
HETATM    4  C4  UNL     1      -3.590  -0.160   2.373  1.00  0.00     0.065 C 
HETATM    5  C5  UNL     1      -3.147  -0.553   0.938  1.00  0.00     0.013 C 
HETATM    6  C6  UNL     1      -3.941   0.225  -0.158  1.00  0.00     0.036 C 
HETATM    7  C7  UNL     1      -1.604  -0.365   0.818  1.00  0.00     0.024 C 
HETATM    8  C8  UNL     1      -0.842  -0.965   1.994  1.00  0.00    -0.038 C 
HETATM    9  C9  UNL     1      -1.451  -1.316   3.147  1.00  0.00     0.029 C 
HETATM   10  C10 UNL     1      -2.883  -1.047   3.379  1.00  0.00     0.172 C 
HETATM   11  O1  UNL     1      -3.451  -1.518   4.338  1.00  0.00    -0.291 OA
HETATM   12  C11 UNL     1       0.648  -1.088   1.760  1.00  0.00     0.030 C 
HETATM   13  C12 UNL     1       1.172   0.258   1.332  1.00  0.00    -0.043 C 
HETATM   14  C13 UNL     1       0.414   1.231   0.777  1.00  0.00    -0.034 C 
HETATM   15  C14 UNL     1      -1.092   1.082   0.627  1.00  0.00     0.029 C 
HETATM   16  C15 UNL     1       2.629   0.402   1.664  1.00  0.00     0.049 C 
HETATM   17  C16 UNL     1       2.938  -0.867   2.475  1.00  0.00     0.007 C 
HETATM   18  C17 UNL     1       1.564  -1.371   2.957  1.00  0.00     0.008 C 
HETATM   19  C26 UNL     1       0.928  -2.150   0.693  1.00  0.00     0.008 C 
HETATM   20  C27 UNL     1      -3.443  -2.053   0.731  1.00  0.00     0.001 C 
HETATM   21  O5  UNL     1      -6.455   1.877   2.158  1.00  0.00    -0.221 OA
HETATM   22  O6  UNL     1      -4.070   2.432   0.799  1.00  0.00    -0.221 OA
ENDROOT
BRANCH  16  23
HETATM   23  C18 UNL     1       3.525   0.522   0.436  1.00  0.00     0.158 C 
HETATM   24  O4  UNL     1       4.793   0.004   0.764  1.00  0.00    -0.223 OA
HETATM   25  C25 UNL     1       3.682   1.996   0.061  1.00  0.00     0.036 C 
BRANCH  23  26
HETATM   26  C19 UNL     1       2.943  -0.318  -0.701  1.00  0.00     0.180 C 
HETATM   27  O3  UNL     1       3.471  -1.621  -0.601  1.00  0.00    -0.221 OA
BRANCH  26  28
HETATM   28  C20 UNL     1       3.295   0.236  -2.082  1.00  0.00     0.036 C 
BRANCH  28  29
HETATM   29  C21 UNL     1       2.703  -0.598  -3.221  1.00  0.00     0.005 C 
BRANCH  29  30
HETATM   30  C22 UNL     1       2.732   0.133  -4.562  1.00  0.00     0.033 C 
HETATM   31  C24 UNL     1       4.141   0.570  -4.967  1.00  0.00     0.003 C 
BRANCH  30  32
HETATM   32  C23 UNL     1       1.717   1.274  -4.637  1.00  0.00     0.182 C 
HETATM   33  O2  UNL     1       0.424   0.719  -4.555  1.00  0.00    -0.221 OA
ENDBRANCH  30  32
ENDBRANCH  29  30
ENDBRANCH  28  29
ENDBRANCH  26  28
ENDBRANCH  23  26
ENDBRANCH  16  23
TORSDOF 6
