REMARK  8 active torsions:
REMARK  status: ('A' for Active; 'I' for Inactive)
REMARK    1  A    between atoms: C6_6  and  C7_7 
REMARK    2  A    between atoms: C8_8  and  C9_9 
REMARK    3  A    between atoms: C9_9  and  C10_10 
REMARK    4  A    between atoms: C10_10  and  C11_11 
REMARK    5  A    between atoms: C12_12  and  C13_13 
REMARK    6  A    between atoms: C14_14  and  C15_15 
REMARK       I    between atoms: C15_15  and  N1_16 
REMARK    7  A    between atoms: N1_16  and  C16_17 
REMARK    8  A    between atoms: C16_17  and  C17_18 
ROOT
HETATM    1  C9  UNL     1       1.766  -0.580   2.260  1.00  0.00     0.031 C 
ENDROOT
BRANCH   1   2
HETATM    2  C8  UNL     1       3.109  -1.256   2.199  1.00  0.00    -0.026 C 
HETATM    3  C7  UNL     1       4.174  -0.533   1.813  1.00  0.00    -0.004 C 
BRANCH   3   4
HETATM    4  C6  UNL     1       5.494  -1.193   1.750  1.00  0.00     0.002 A 
HETATM    5  C1  UNL     1       6.672  -0.449   1.980  1.00  0.00     0.026 A 
HETATM    6  C2  UNL     1       7.949  -1.065   1.924  1.00  0.00     0.119 A 
HETATM    7  C3  UNL     1       8.043  -2.430   1.639  1.00  0.00     0.119 A 
HETATM    8  O3  UNL     1       9.174  -0.570   2.102  1.00  0.00    -0.300 OA
HETATM    9  C4  UNL     1       6.858  -3.178   1.408  1.00  0.00     0.026 A 
HETATM   10  O2  UNL     1       9.326  -2.787   1.639  1.00  0.00    -0.300 OA
HETATM   11  C5  UNL     1       5.584  -2.570   1.463  1.00  0.00     0.002 A 
HETATM   12  C20 UNL     1      10.143  -1.631   1.928  1.00  0.00     0.304 A 
ENDBRANCH   3   4
ENDBRANCH   1   2
BRANCH   1  13
HETATM   13  C10 UNL     1       0.699  -1.328   1.461  1.00  0.00     0.031 C 
BRANCH  13  14
HETATM   14  C11 UNL     1      -0.648  -0.660   1.535  1.00  0.00    -0.026 C 
HETATM   15  C12 UNL     1      -1.277  -0.359   0.389  1.00  0.00    -0.004 C 
BRANCH  15  16
HETATM   16  C13 UNL     1      -2.592   0.293   0.404  1.00  0.00     0.005 C 
HETATM   17  C14 UNL     1      -3.223   0.594  -0.742  1.00  0.00     0.062 C 
BRANCH  17  18
HETATM   18  C15 UNL     1      -4.537   1.246  -0.727  1.00  0.00     0.275 C 
HETATM   19  N1  UNL     1      -5.152   1.539  -1.910  1.00  0.00    -0.234 NA
HETATM   20  O1  UNL     1      -5.070   1.520   0.322  1.00  0.00    -0.266 OA
BRANCH  19  21
HETATM   21  C16 UNL     1      -6.469   2.191  -1.897  1.00  0.00     0.129 C 
BRANCH  21  22
HETATM   22  C17 UNL     1      -7.000   2.381  -3.318  1.00  0.00     0.025 C 
HETATM   23  C18 UNL     1      -7.387   1.061  -3.984  1.00  0.00     0.002 C 
HETATM   24  C19 UNL     1      -8.111   3.430  -3.398  1.00  0.00     0.002 C 
ENDBRANCH  21  22
ENDBRANCH  19  21
ENDBRANCH  17  18
ENDBRANCH  15  16
ENDBRANCH  13  14
ENDBRANCH   1  13
TORSDOF 8
