REMARK  5 active torsions:
REMARK  status: ('A' for Active; 'I' for Inactive)
REMARK    1  A    between atoms: C2_2  and  O9_22 
REMARK    2  A    between atoms: C3_3  and  O3_10 
REMARK    3  A    between atoms: C4_4  and  O2_8 
REMARK    4  A    between atoms: O3_10  and  C8_11 
REMARK    5  A    between atoms: C9_13  and  C13_20 
ROOT
HETATM    1  O3  UNL     1       1.213   0.703  -0.572  1.00  0.00    -0.300 OA
ENDROOT
BRANCH   1   2
HETATM    2  C3  UNL     1       1.656  -0.437  -0.080  1.00  0.00     0.141 A 
HETATM    3  C2  UNL     1       1.809  -1.555  -0.920  1.00  0.00     0.120 A 
HETATM    4  C1  UNL     1       2.281  -2.769  -0.393  1.00  0.00     0.054 A 
HETATM    5  C6  UNL     1       2.602  -2.871   0.973  1.00  0.00     0.135 A 
HETATM    6  C5  UNL     1       2.447  -1.754   1.809  1.00  0.00     0.054 A 
HETATM    7  O1  UNL     1       3.043  -4.012   1.465  1.00  0.00    -0.190 OA
HETATM    8  C4  UNL     1       1.977  -0.535   1.287  1.00  0.00     0.120 A 
BRANCH   3   9
HETATM    9  O9  UNL     1       1.512  -1.469  -2.201  1.00  0.00    -0.326 OA
HETATM   10  C14 UNL     1       1.684  -2.627  -3.006  1.00  0.00     0.181 C 
ENDBRANCH   3   9
BRANCH   8  11
HETATM   11  O2  UNL     1       1.836   0.508   2.080  1.00  0.00    -0.326 OA
HETATM   12  C7  UNL     1       2.057   0.322   3.471  1.00  0.00     0.181 C 
ENDBRANCH   8  11
ENDBRANCH   1   2
BRANCH   1  13
HETATM   13  C8  UNL     1      -0.049   1.180  -0.125  1.00  0.00     0.274 C 
HETATM   14  O4  UNL     1      -1.062   0.299  -0.590  1.00  0.00    -0.326 OA
HETATM   15  C9  UNL     1      -2.381   0.627  -0.172  1.00  0.00     0.184 C 
HETATM   16  C10 UNL     1      -2.760   2.022  -0.717  1.00  0.00     0.215 C 
HETATM   17  C11 UNL     1      -1.723   3.090  -0.309  1.00  0.00     0.220 C 
HETATM   18  O7  UNL     1      -4.035   2.375  -0.211  1.00  0.00    -0.218 OA
HETATM   19  C12 UNL     1      -0.303   2.600  -0.670  1.00  0.00     0.241 C 
HETATM   20  O6  UNL     1      -1.994   4.309  -0.981  1.00  0.00    -0.218 OA
HETATM   21  O5  UNL     1       0.666   3.475  -0.123  1.00  0.00    -0.215 OA
BRANCH  15  22
HETATM   22  C13 UNL     1      -3.297  -0.488  -0.688  1.00  0.00     0.214 C 
HETATM   23  O8  UNL     1      -2.971  -1.678  -0.006  1.00  0.00    -0.218 OA
ENDBRANCH  15  22
ENDBRANCH   1  13
TORSDOF 5
