REMARK  1 active torsions:
REMARK  status: ('A' for Active; 'I' for Inactive)
REMARK    1  A    between atoms: C2_2  and  C3_3 
ROOT
HETATM    1  C3  UNL     1      -0.338  -0.408  -0.471  1.00  0.00     0.022 C 
HETATM    2  C4  UNL     1       1.147  -0.344  -0.174  1.00  0.00    -0.026 C 
HETATM    3  C5  UNL     1       1.814   0.828  -0.176  1.00  0.00    -0.008 C 
HETATM    4  C6  UNL     1       1.147   2.115  -0.457  1.00  0.00    -0.022 C 
HETATM    5  C7  UNL     1      -0.338   2.119  -0.758  1.00  0.00     0.026 C 
HETATM    6  C8  UNL     1      -1.041   0.914  -0.117  1.00  0.00     0.008 C 
HETATM    7  C9  UNL     1       1.828   3.276  -0.445  1.00  0.00    -0.004 C 
ENDROOT
BRANCH   1   8
HETATM    8  C2  UNL     1      -0.984  -1.594   0.254  1.00  0.00     0.004 C 
HETATM    9  C1  UNL     1      -0.645  -2.937  -0.393  1.00  0.00     0.000 C 
HETATM   10  C10 UNL     1      -0.721  -1.578   1.760  1.00  0.00     0.000 C 
ENDBRANCH   1   8
TORSDOF 1
