REMARK  1 active torsions:
REMARK  status: ('A' for Active; 'I' for Inactive)
REMARK    1  A    between atoms: C15_16  and  C17_20 
ROOT
HETATM    1  C1  UNL     1      -2.242  -2.536  -0.435  1.00  0.00    -0.011 A 
HETATM    2  C2  UNL     1      -2.221  -4.061  -0.438  1.00  0.00     0.174 A 
HETATM    3  O1  UNL     1      -3.646  -4.341  -0.376  1.00  0.00    -0.294 OA
HETATM    4  C3  UNL     1      -4.364  -3.182  -0.358  1.00  0.00     0.294 A 
HETATM    5  C4  UNL     1      -3.485  -2.083  -0.402  1.00  0.00     0.065 A 
HETATM    6  C5  UNL     1      -3.861  -0.622  -0.345  1.00  0.00     0.179 C 
HETATM    7  C6  UNL     1      -2.604   0.270  -0.627  1.00  0.00     0.041 C 
HETATM    8  C7  UNL     1      -1.334  -0.262   0.126  1.00  0.00     0.034 C 
HETATM    9  C8  UNL     1      -1.016  -1.628  -0.493  1.00  0.00     0.026 C 
HETATM   10  C9  UNL     1       0.223  -2.268   0.204  1.00  0.00     0.036 C 
HETATM   11  C10 UNL     1       1.486  -1.344   0.129  1.00  0.00     0.145 A 
HETATM   12  C11 UNL     1       1.240   0.125   0.351  1.00  0.00     0.173 A 
HETATM   13  C12 UNL     1      -0.119   0.690  -0.129  1.00  0.00     0.148 A 
HETATM   14  C13 UNL     1      -0.294   2.198   0.074  1.00  0.00     0.172 A 
HETATM   15  C14 UNL     1       0.920   3.089   0.008  1.00  0.00     0.172 A 
HETATM   16  C15 UNL     1       2.305   2.503   0.383  1.00  0.00     0.150 A 
HETATM   17  C16 UNL     1       2.491   0.986  -0.061  1.00  0.00     0.208 C 
HETATM   18  O2  UNL     1       3.604   0.281   0.514  1.00  0.00    -0.218 OA
HETATM   19  O3  UNL     1       1.670   3.013  -0.985  1.00  0.00    -0.351 OA
HETATM   20  O4  UNL     1      -0.508   1.574   1.129  1.00  0.00    -0.351 OA
HETATM   21  O5  UNL     1       1.425  -0.443   1.474  1.00  0.00    -0.351 OA
HETATM   22  C20 UNL     1      -1.586  -0.402   1.680  1.00  0.00     0.003 C 
HETATM   23  O6  UNL     1      -4.383  -0.371   0.965  1.00  0.00    -0.218 OA
HETATM   24  O7  UNL     1      -5.595  -3.103  -0.278  1.00  0.00    -0.259 OA
ENDROOT
BRANCH  16  25
HETATM   25  C17 UNL     1       3.581   3.453   0.236  1.00  0.00     0.030 C 
HETATM   26  C18 UNL     1       3.241   4.904   0.640  1.00  0.00     0.003 C 
HETATM   27  C19 UNL     1       4.747   3.032   1.153  1.00  0.00     0.003 C 
ENDBRANCH  16  25
TORSDOF 1
