REMARK  1 active torsions:
REMARK  status: ('A' for Active; 'I' for Inactive)
REMARK    1  A    between atoms: C1_1  and  C15_18 
ROOT
HETATM    1  C1  UNL     1       2.172  -0.205   0.234  1.00  0.00     0.103 A 
HETATM    2  C2  UNL     1       3.035   0.734  -0.213  1.00  0.00     0.067 A 
HETATM    3  C3  UNL     1       2.547   2.004  -0.791  1.00  0.00     0.200 A 
HETATM    4  C4  UNL     1       1.068   2.154  -0.836  1.00  0.00     0.062 A 
HETATM    5  C5  UNL     1       0.475   3.326  -1.367  1.00  0.00     0.007 A 
HETATM    6  C6  UNL     1      -0.936   3.444  -1.402  1.00  0.00     0.024 A 
HETATM    7  C7  UNL     1      -1.752   2.393  -0.916  1.00  0.00     0.096 A 
HETATM    8  C8  UNL     1      -1.151   1.227  -0.379  1.00  0.00     0.045 A 
HETATM    9  C9  UNL     1       0.260   1.096  -0.338  1.00  0.00     0.105 A 
HETATM   10  O1  UNL     1       0.836  -0.017   0.170  1.00  0.00    -0.307 OA
HETATM   11  C10 UNL     1      -2.031   0.156   0.150  1.00  0.00     0.002 C 
HETATM   12  C11 UNL     1      -3.361   0.242  -0.027  1.00  0.00     0.001 C 
HETATM   13  C12 UNL     1      -3.963   1.375  -0.844  1.00  0.00     0.117 C 
HETATM   14  O2  UNL     1      -3.096   2.518  -0.955  1.00  0.00    -0.332 OA
HETATM   15  C13 UNL     1      -5.270   1.850  -0.203  1.00  0.00     0.035 C 
HETATM   16  C14 UNL     1      -4.236   0.859  -2.260  1.00  0.00     0.035 C 
HETATM   17  O3  UNL     1       3.377   2.799  -1.170  1.00  0.00    -0.286 OA
ENDROOT
BRANCH   1  18
HETATM   18  C15 UNL     1       2.717  -1.471   0.811  1.00  0.00     0.025 A 
HETATM   19  C16 UNL     1       1.961  -2.203   1.742  1.00  0.00     0.032 A 
HETATM   20  C17 UNL     1       2.469  -3.396   2.285  1.00  0.00     0.156 A 
HETATM   21  C18 UNL     1       3.740  -3.857   1.895  1.00  0.00     0.156 A 
HETATM   22  O5  UNL     1       1.754  -4.078   3.160  1.00  0.00    -0.188 OA
HETATM   23  C19 UNL     1       4.494  -3.125   0.963  1.00  0.00     0.030 A 
HETATM   24  O4  UNL     1       4.225  -4.975   2.401  1.00  0.00    -0.188 OA
HETATM   25  C20 UNL     1       3.984  -1.934   0.420  1.00  0.00     0.004 A 
ENDBRANCH   1  18
TORSDOF 1
