REMARK  1 active torsions:
REMARK  status: ('A' for Active; 'I' for Inactive)
REMARK    1  A    between atoms: C1_1  and  C2_2 
ROOT
HETATM    1  C2  UNL     1       3.998  -0.738   0.539  1.00  0.00     0.062 C 
HETATM    2  C3  UNL     1       2.922  -1.769   0.938  1.00  0.00     0.008 C 
HETATM    3  C4  UNL     1       1.828  -1.939  -0.115  1.00  0.00     0.004 C 
HETATM    4  C5  UNL     1       1.029  -0.646  -0.432  1.00  0.00     0.015 C 
HETATM    5  C6  UNL     1      -0.340  -0.619   0.332  1.00  0.00     0.004 C 
HETATM    6  C7  UNL     1      -1.180  -1.893   0.006  1.00  0.00     0.000 C 
HETATM    7  C8  UNL     1      -2.674  -1.635  -0.238  1.00  0.00     0.000 C 
HETATM    8  C9  UNL     1      -3.275  -0.601   0.733  1.00  0.00     0.002 C 
HETATM    9  C10 UNL     1      -4.830  -0.496   0.598  1.00  0.00     0.028 C 
HETATM   10  C11 UNL     1      -5.359   0.758   1.332  1.00  0.00     0.152 C 
HETATM   11  O1  UNL     1      -5.086   0.656   2.721  1.00  0.00    -0.224 OA
HETATM   12  C12 UNL     1      -4.746   2.063   0.768  1.00  0.00     0.033 C 
HETATM   13  C13 UNL     1      -3.402   1.856   0.037  1.00  0.00     0.003 C 
HETATM   14  C14 UNL     1      -2.520   0.774   0.699  1.00  0.00     0.001 C 
HETATM   15  C15 UNL     1      -1.158   0.650  -0.064  1.00  0.00     0.005 C 
HETATM   16  C16 UNL     1      -0.322   1.955  -0.016  1.00  0.00     0.025 C 
HETATM   17  C17 UNL     1       1.182   1.799   0.027  1.00  0.00    -0.035 C 
HETATM   18  C18 UNL     1       1.826   0.617  -0.103  1.00  0.00    -0.049 C 
HETATM   19  C19 UNL     1       3.342   0.621   0.125  1.00  0.00     0.025 C 
HETATM   20  C20 UNL     1       4.094   1.344  -1.027  1.00  0.00     0.004 C 
HETATM   21  C21 UNL     1       4.248   0.486  -2.305  1.00  0.00     0.000 C 
HETATM   22  C22 UNL     1       4.535  -1.002  -2.008  1.00  0.00     0.001 C 
HETATM   23  C23 UNL     1       4.963  -1.279  -0.555  1.00  0.00     0.008 C 
HETATM   24  C24 UNL     1       3.057   0.652  -3.254  1.00  0.00     0.000 C 
HETATM   25  C25 UNL     1       5.469   1.830  -0.547  1.00  0.00     0.000 C 
HETATM   26  C26 UNL     1      -2.248   1.233   2.149  1.00  0.00     0.000 C 
HETATM   27  C27 UNL     1      -5.484  -1.766   1.166  1.00  0.00     0.003 C 
HETATM   28  C28 UNL     1      -5.258  -0.410  -0.877  1.00  0.00     0.003 C 
HETATM   29  C29 UNL     1      -0.053  -0.594   1.848  1.00  0.00     0.000 C 
HETATM   30  C30 UNL     1       0.754  -0.619  -1.947  1.00  0.00     0.004 C 
ENDROOT
BRANCH   1  31
HETATM   31  C1  UNL     1       4.846  -0.551   1.783  1.00  0.00     0.207 C 
HETATM   32  O2  UNL     1       5.996  -0.920   1.815  1.00  0.00    -0.288 OA
ENDBRANCH   1  31
TORSDOF 1
