REMARK  7 active torsions:
REMARK  status: ('A' for Active; 'I' for Inactive)
REMARK    1  A    between atoms: C5_7  and  C14_18 
REMARK    2  A    between atoms: C7_9  and  C8_10 
REMARK    3  A    between atoms: C14_18  and  C15_19 
REMARK    4  A    between atoms: C16_20  and  C17_21 
REMARK    5  A    between atoms: C18_22  and  C19_23 
REMARK    6  A    between atoms: C19_23  and  C20_24 
REMARK    7  A    between atoms: C19_23  and  C21_26 
ROOT
HETATM    1  C1  UNL     1      -0.475   0.385   2.209  1.00  0.00     0.079 A 
HETATM    2  C2  UNL     1      -1.893  -0.090   2.418  1.00  0.00     0.131 C 
HETATM    3  C3  UNL     1      -1.695  -1.631   2.465  1.00  0.00     0.188 C 
HETATM    4  O1  UNL     1      -0.398  -1.791   3.045  1.00  0.00    -0.250 OA
HETATM    5  N1  UNL     1       0.334  -0.689   2.582  1.00  0.00    -0.185 N 
HETATM    6  C4  UNL     1       1.738  -0.594   2.492  1.00  0.00     0.289 A 
HETATM    7  C5  UNL     1       2.318   0.680   1.980  1.00  0.00     0.122 A 
HETATM    8  C6  UNL     1       1.506   1.709   1.637  1.00  0.00     0.140 A 
HETATM    9  C7  UNL     1       0.029   1.563   1.771  1.00  0.00     0.040 A 
HETATM   10  O3  UNL     1       2.021   2.852   1.180  1.00  0.00    -0.190 OA
HETATM   11  O6  UNL     1       2.439  -1.523   2.822  1.00  0.00    -0.265 OA
HETATM   12  C24 UNL     1      -1.842  -2.438   1.121  1.00  0.00     0.193 C 
HETATM   13  C25 UNL     1      -2.938  -3.527   1.209  1.00  0.00     0.131 C 
HETATM   14  C26 UNL     1      -4.301  -2.955   1.510  1.00  0.00     0.275 C 
HETATM   15  O7  UNL     1      -4.555  -1.725   1.053  1.00  0.00    -0.304 OA
HETATM   16  C27 UNL     1      -5.686  -1.027   1.574  1.00  0.00     0.125 C 
HETATM   17  C28 UNL     1      -5.471   0.469   1.301  1.00  0.00     0.038 C 
HETATM   18  C29 UNL     1      -4.199   1.031   1.967  1.00  0.00     0.068 C 
HETATM   19  C30 UNL     1      -2.899   0.471   1.426  1.00  0.00     0.158 C 
HETATM   20  O8  UNL     1      -2.676   0.488   0.236  1.00  0.00    -0.296 OA
HETATM   21  C31 UNL     1      -6.967  -1.563   0.928  1.00  0.00     0.033 C 
HETATM   22  O9  UNL     1      -5.088  -3.615   2.150  1.00  0.00    -0.264 OA
HETATM   23  O10 UNL     1      -0.648  -3.084   0.697  1.00  0.00    -0.220 OA
ENDROOT
BRANCH   7  24
HETATM   24  C14 UNL     1       3.781   0.811   1.852  1.00  0.00     0.202 C 
HETATM   25  O5  UNL     1       4.457   1.088   2.814  1.00  0.00    -0.286 OA
BRANCH  24  26
HETATM   26  C15 UNL     1       4.406   0.598   0.541  1.00  0.00     0.042 C 
HETATM   27  C16 UNL     1       3.818  -0.186  -0.379  1.00  0.00    -0.001 C 
BRANCH  27  28
HETATM   28  C17 UNL     1       4.443  -0.396  -1.691  1.00  0.00    -0.026 C 
HETATM   29  C18 UNL     1       4.268  -1.516  -2.412  1.00  0.00    -0.028 C 
HETATM   30  C23 UNL     1       5.320   0.689  -2.252  1.00  0.00     0.031 C 
BRANCH  29  31
HETATM   31  C19 UNL     1       4.957  -1.625  -3.746  1.00  0.00     0.055 C 
BRANCH  31  32
HETATM   32  C20 UNL     1       5.705  -2.949  -3.908  1.00  0.00     0.187 C 
HETATM   33  O4  UNL     1       4.756  -3.990  -3.959  1.00  0.00    -0.220 OA
ENDBRANCH  31  32
BRANCH  31  34
HETATM   34  C21 UNL     1       4.018  -1.332  -4.914  1.00  0.00     0.007 C 
HETATM   35  C22 UNL     1       3.404   0.066  -4.842  1.00  0.00     0.000 C 
ENDBRANCH  31  34
ENDBRANCH  29  31
ENDBRANCH  27  28
ENDBRANCH  24  26
ENDBRANCH   7  24
BRANCH   9  36
HETATM   36  C8  UNL     1      -0.859   2.717   1.426  1.00  0.00     0.003 A 
HETATM   37  C9  UNL     1      -0.713   3.375   0.191  1.00  0.00     0.002 A 
HETATM   38  C10 UNL     1      -1.549   4.459  -0.131  1.00  0.00     0.027 A 
HETATM   39  C11 UNL     1      -2.529   4.891   0.779  1.00  0.00     0.131 A 
HETATM   40  C12 UNL     1      -2.674   4.232   2.014  1.00  0.00     0.027 A 
HETATM   41  O2  UNL     1      -3.313   5.908   0.477  1.00  0.00    -0.190 OA
HETATM   42  C13 UNL     1      -1.840   3.148   2.338  1.00  0.00     0.002 A 
ENDBRANCH   9  36
TORSDOF 7
