REMARK  6 active torsions:
REMARK  status: ('A' for Active; 'I' for Inactive)
REMARK    1  A    between atoms: C3_3  and  O2_15 
REMARK    2  A    between atoms: C5_5  and  C8_8 
REMARK    3  A    between atoms: C8_8  and  C9_9 
REMARK    4  A    between atoms: C9_9  and  C10_10 
REMARK    5  A    between atoms: O2_15  and  C14_16 
REMARK    6  A    between atoms: C15_18  and  C19_25 
ROOT
HETATM    1  C1  UNL     1      -2.867   0.127   0.113  1.00  0.00     0.024 C 
HETATM    2  C2  UNL     1      -1.662   0.961   0.560  1.00  0.00     0.034 C 
HETATM    3  C3  UNL     1      -0.371   0.324   0.037  1.00  0.00     0.121 C 
HETATM    4  C4  UNL     1      -0.178  -1.105   0.605  1.00  0.00     0.040 C 
HETATM    5  C5  UNL     1      -1.457  -1.926   0.496  1.00  0.00    -0.050 C 
HETATM    6  C6  UNL     1      -2.674  -1.365   0.289  1.00  0.00    -0.052 C 
HETATM    7  C7  UNL     1      -3.914  -2.221   0.224  1.00  0.00     0.026 C 
HETATM    8  C12 UNL     1       0.949  -1.811  -0.164  1.00  0.00     0.006 C 
HETATM    9  C13 UNL     1       0.185  -1.068   2.098  1.00  0.00     0.006 C 
ENDROOT
BRANCH   3  10
HETATM   10  O2  UNL     1       0.728   1.152   0.369  1.00  0.00    -0.331 OA
BRANCH  10  11
HETATM   11  C14 UNL     1       0.873   2.260  -0.498  1.00  0.00     0.270 C 
HETATM   12  O3  UNL     1       1.387   1.795  -1.738  1.00  0.00    -0.326 OA
HETATM   13  C15 UNL     1       1.539   2.793  -2.738  1.00  0.00     0.184 C 
HETATM   14  C16 UNL     1       2.549   3.857  -2.252  1.00  0.00     0.215 C 
HETATM   15  C17 UNL     1       2.129   4.447  -0.887  1.00  0.00     0.220 C 
HETATM   16  O6  UNL     1       2.621   4.889  -3.219  1.00  0.00    -0.218 OA
HETATM   17  C18 UNL     1       1.838   3.307   0.113  1.00  0.00     0.241 C 
HETATM   18  O5  UNL     1       3.164   5.277  -0.385  1.00  0.00    -0.218 OA
HETATM   19  O4  UNL     1       1.260   3.850   1.291  1.00  0.00    -0.215 OA
BRANCH  13  20
HETATM   20  C19 UNL     1       1.998   2.072  -4.012  1.00  0.00     0.214 C 
HETATM   21  O7  UNL     1       0.939   1.258  -4.463  1.00  0.00    -0.218 OA
ENDBRANCH  13  20
ENDBRANCH  10  11
ENDBRANCH   3  10
BRANCH   5  22
HETATM   22  C8  UNL     1      -1.334  -3.426   0.635  1.00  0.00     0.029 C 
BRANCH  22  23
HETATM   23  C9  UNL     1      -1.637  -3.906   2.055  1.00  0.00     0.069 C 
BRANCH  23  24
HETATM   24  C10 UNL     1      -0.504  -4.701   2.646  1.00  0.00     0.151 C 
HETATM   25  C11 UNL     1      -0.527  -4.975   4.125  1.00  0.00     0.072 C 
HETATM   26  O1  UNL     1       0.398  -5.107   1.953  1.00  0.00    -0.296 OA
ENDBRANCH  23  24
ENDBRANCH  22  23
ENDBRANCH   5  22
TORSDOF 6
