REMARK  1 active torsions:
REMARK  status: ('A' for Active; 'I' for Inactive)
REMARK    1  A    between atoms: C15_16  and  C17_20 
ROOT
HETATM    1  C1  UNL     1      -2.238  -2.478  -0.265  1.00  0.00    -0.013 A 
HETATM    2  C2  UNL     1      -2.259  -4.002  -0.194  1.00  0.00     0.174 A 
HETATM    3  O1  UNL     1      -3.688  -4.234  -0.067  1.00  0.00    -0.294 OA
HETATM    4  C3  UNL     1      -4.371  -3.052  -0.074  1.00  0.00     0.291 A 
HETATM    5  C4  UNL     1      -3.458  -1.988  -0.208  1.00  0.00     0.035 A 
HETATM    6  C5  UNL     1      -3.797  -0.514  -0.217  1.00  0.00     0.031 C 
HETATM    7  C6  UNL     1      -2.537   0.347  -0.563  1.00  0.00     0.008 C 
HETATM    8  C7  UNL     1      -1.277  -0.204   0.158  1.00  0.00     0.032 C 
HETATM    9  C8  UNL     1      -0.998  -1.612  -0.396  1.00  0.00     0.025 C 
HETATM   10  C9  UNL     1       0.245  -2.265   0.285  1.00  0.00     0.036 C 
HETATM   11  C10 UNL     1       1.480  -1.327   0.146  1.00  0.00     0.145 A 
HETATM   12  C11 UNL     1       1.323   0.135   0.350  1.00  0.00     0.173 A 
HETATM   13  C12 UNL     1      -0.022   0.717  -0.155  1.00  0.00     0.147 A 
HETATM   14  C13 UNL     1      -0.142   2.234  -0.038  1.00  0.00     0.172 A 
HETATM   15  C14 UNL     1       1.106   3.084  -0.104  1.00  0.00     0.174 A 
HETATM   16  C15 UNL     1       2.451   2.472   0.369  1.00  0.00     0.176 A 
HETATM   17  C16 UNL     1       2.619   0.941  -0.021  1.00  0.00     0.211 C 
HETATM   18  O2  UNL     1       3.680   0.229   0.640  1.00  0.00    -0.218 OA
HETATM   19  O3  UNL     1       1.905   2.931  -1.055  1.00  0.00    -0.349 OA
HETATM   20  O5  UNL     1      -0.414   1.672   1.044  1.00  0.00    -0.351 OA
HETATM   21  O6  UNL     1       1.309  -0.493   1.500  1.00  0.00    -0.351 OA
HETATM   22  C20 UNL     1      -1.559  -0.246   1.719  1.00  0.00     0.003 C 
HETATM   23  O7  UNL     1      -5.592  -2.930   0.049  1.00  0.00    -0.260 OA
ENDROOT
BRANCH  16  24
HETATM   24  C17 UNL     1       3.764   3.404   0.297  1.00  0.00     0.154 C 
HETATM   25  C18 UNL     1       4.831   2.983   1.328  1.00  0.00     0.036 C 
HETATM   26  C19 UNL     1       3.414   4.870   0.636  1.00  0.00     0.036 C 
HETATM   27  O4  UNL     1       4.330   3.374  -1.015  1.00  0.00    -0.223 OA
ENDBRANCH  16  24
TORSDOF 1
