REMARK  7 active torsions:
REMARK  status: ('A' for Active; 'I' for Inactive)
REMARK    1  A    between atoms: C3_3  and  C8_9 
REMARK    2  A    between atoms: C5_5  and  O1_7 
REMARK    3  A    between atoms: C8_9  and  C9_10 
REMARK    4  A    between atoms: C9_10  and  C10_11 
REMARK    5  A    between atoms: C14_15  and  O3_25 
REMARK    6  A    between atoms: C15_16  and  C16_17 
REMARK    7  A    between atoms: C16_17  and  C17_18 
ROOT
HETATM    1  C10 UNL     1      -0.834  -0.316  -1.627  1.00  0.00    -0.021 A 
HETATM    2  C11 UNL     1      -1.623  -0.424  -2.785  1.00  0.00     0.023 A 
HETATM    3  C12 UNL     1      -1.018  -0.586  -4.043  1.00  0.00     0.133 A 
HETATM    4  C13 UNL     1       0.383  -0.637  -4.139  1.00  0.00     0.051 A 
HETATM    5  C14 UNL     1       1.182  -0.529  -2.987  1.00  0.00     0.092 A 
HETATM    6  C15 UNL     1       0.572  -0.369  -1.727  1.00  0.00     0.001 A 
HETATM    7  O4  UNL     1      -1.760  -0.685  -5.127  1.00  0.00    -0.190 OA
ENDROOT
BRANCH   1   8
HETATM    8  C9  UNL     1      -1.494  -0.146  -0.305  1.00  0.00     0.031 C 
BRANCH   8   9
HETATM    9  C8  UNL     1      -1.598  -1.475   0.447  1.00  0.00     0.031 C 
BRANCH   9  10
HETATM   10  C3  UNL     1      -2.199  -1.295   1.795  1.00  0.00    -0.020 A 
HETATM   11  C2  UNL     1      -3.574  -1.033   1.922  1.00  0.00    -0.004 A 
HETATM   12  C1  UNL     1      -4.143  -0.865   3.195  1.00  0.00     0.002 A 
HETATM   13  C6  UNL     1      -3.336  -0.955   4.344  1.00  0.00     0.024 A 
HETATM   14  C5  UNL     1      -1.959  -1.217   4.221  1.00  0.00     0.094 A 
HETATM   15  C4  UNL     1      -1.393  -1.387   2.943  1.00  0.00     0.020 A 
BRANCH  14  16
HETATM   16  O1  UNL     1      -1.205  -1.303   5.297  1.00  0.00    -0.328 OA
HETATM   17  C7  UNL     1      -1.838  -1.205   6.564  1.00  0.00     0.181 C 
ENDBRANCH  14  16
ENDBRANCH   9  10
ENDBRANCH   8   9
ENDBRANCH   1   8
BRANCH   6  18
HETATM   18  C16 UNL     1       1.416  -0.254  -0.506  1.00  0.00     0.054 C 
BRANCH  18  19
HETATM   19  C17 UNL     1       2.111   1.059  -0.506  1.00  0.00    -0.018 A 
HETATM   20  C18 UNL     1       1.367   2.250  -0.506  1.00  0.00    -0.002 A 
HETATM   21  C19 UNL     1       2.025   3.492  -0.506  1.00  0.00     0.027 A 
HETATM   22  C20 UNL     1       3.432   3.547  -0.506  1.00  0.00     0.131 A 
HETATM   23  C21 UNL     1       4.174   2.354  -0.506  1.00  0.00     0.027 A 
HETATM   24  O2  UNL     1       4.049   4.711  -0.506  1.00  0.00    -0.190 OA
HETATM   25  C22 UNL     1       3.518   1.111  -0.506  1.00  0.00    -0.002 A 
ENDBRANCH  18  19
ENDBRANCH   6  18
BRANCH   5  26
HETATM   26  O3  UNL     1       2.494  -0.580  -3.096  1.00  0.00    -0.328 OA
HETATM   27  C23 UNL     1       3.051  -0.744  -4.391  1.00  0.00     0.181 C 
ENDBRANCH   5  26
TORSDOF 7
