REMARK  11 active torsions:
REMARK  status: ('A' for Active; 'I' for Inactive)
REMARK    1  A    between atoms: C1_1  and  C21_36 
REMARK    2  A    between atoms: C2_2  and  O10_24 
REMARK    3  A    between atoms: C7_9  and  O3_10 
REMARK    4  A    between atoms: O3_10  and  C8_11 
REMARK    5  A    between atoms: C8_11  and  C9_12 
REMARK    6  A    between atoms: C9_12  and  C10_13 
REMARK    7  A    between atoms: C10_13  and  C11_14 
REMARK    8  A    between atoms: C11_14  and  C12_15 
REMARK    9  A    between atoms: O10_24  and  C15_25 
REMARK   10  A    between atoms: C19_32  and  C20_34 
REMARK   11  A    between atoms: C24_40  and  O17_43 
ROOT
HETATM    1  C1  UNL     1       1.361   0.559  -0.674  1.00  0.00     0.125 A 
HETATM    2  C2  UNL     1       1.641  -0.672  -0.180  1.00  0.00     0.158 A 
HETATM    3  C3  UNL     1       0.537  -1.582   0.211  1.00  0.00     0.224 A 
HETATM    4  O1  UNL     1       0.848  -2.670   0.645  1.00  0.00    -0.284 OA
HETATM    5  C4  UNL     1      -0.840  -1.051   0.023  1.00  0.00     0.089 A 
HETATM    6  C5  UNL     1      -1.980  -1.824   0.361  1.00  0.00     0.138 A 
HETATM    7  O2  UNL     1      -1.850  -3.061   0.865  1.00  0.00    -0.190 OA
HETATM    8  C6  UNL     1      -3.273  -1.285   0.168  1.00  0.00     0.052 A 
HETATM    9  C7  UNL     1      -3.430   0.018  -0.361  1.00  0.00     0.101 A 
HETATM   10  C13 UNL     1      -2.291   0.787  -0.699  1.00  0.00     0.049 A 
HETATM   11  C14 UNL     1      -0.994   0.256  -0.506  1.00  0.00     0.107 A 
HETATM   12  O9  UNL     1       0.092   0.992  -0.828  1.00  0.00    -0.305 OA
ENDROOT
BRANCH   2  13
HETATM   13  O10 UNL     1       2.901  -1.090  -0.033  1.00  0.00    -0.298 OA
BRANCH  13  14
HETATM   14  C15 UNL     1       3.477  -0.654   1.195  1.00  0.00     0.274 C 
HETATM   15  C16 UNL     1       5.018  -0.656   1.109  1.00  0.00     0.241 C 
HETATM   16  O11 UNL     1       5.420   0.131   0.004  1.00  0.00    -0.215 OA
HETATM   17  C17 UNL     1       5.572  -2.092   0.981  1.00  0.00     0.220 C 
HETATM   18  O12 UNL     1       6.987  -2.072   1.090  1.00  0.00    -0.218 OA
HETATM   19  C18 UNL     1       4.971  -2.977   2.096  1.00  0.00     0.215 C 
HETATM   20  O13 UNL     1       5.319  -4.332   1.873  1.00  0.00    -0.218 OA
HETATM   21  C19 UNL     1       3.428  -2.863   2.143  1.00  0.00     0.184 C 
HETATM   22  O14 UNL     1       3.053  -1.494   2.260  1.00  0.00    -0.326 OA
BRANCH  21  23
HETATM   23  C20 UNL     1       2.817  -3.594   3.344  1.00  0.00     0.214 C 
HETATM   24  O15 UNL     1       1.414  -3.539   3.225  1.00  0.00    -0.218 OA
ENDBRANCH  21  23
ENDBRANCH  13  14
ENDBRANCH   2  13
BRANCH   1  25
HETATM   25  C21 UNL     1       2.485   1.465  -1.062  1.00  0.00     0.027 A 
HETATM   26  C22 UNL     1       3.479   1.014  -1.947  1.00  0.00     0.032 A 
HETATM   27  C23 UNL     1       4.537   1.863  -2.316  1.00  0.00     0.153 A 
HETATM   28  O16 UNL     1       5.467   1.436  -3.147  1.00  0.00    -0.188 OA
HETATM   29  C24 UNL     1       4.602   3.170  -1.795  1.00  0.00     0.119 A 
HETATM   30  C25 UNL     1       3.606   3.619  -0.910  1.00  0.00     0.026 A 
HETATM   31  C26 UNL     1       2.549   2.770  -0.543  1.00  0.00     0.004 A 
BRANCH  29  32
HETATM   32  O17 UNL     1       5.590   3.973  -2.135  1.00  0.00    -0.326 OA
HETATM   33  C27 UNL     1       5.567   5.305  -1.643  1.00  0.00     0.181 C 
ENDBRANCH  29  32
ENDBRANCH   1  25
BRANCH   9  34
HETATM   34  O3  UNL     1      -4.656   0.525  -0.545  1.00  0.00    -0.301 OA
BRANCH  34  35
HETATM   35  C8  UNL     1      -5.682   0.129   0.354  1.00  0.00     0.307 C 
HETATM   36  O8  UNL     1      -5.305   0.455   1.672  1.00  0.00    -0.187 OA
BRANCH  35  37
HETATM   37  C9  UNL     1      -6.969   0.883   0.023  1.00  0.00     0.244 C 
HETATM   38  O7  UNL     1      -6.646   2.240  -0.178  1.00  0.00    -0.215 OA
BRANCH  37  39
HETATM   39  C10 UNL     1      -7.650   0.361  -1.242  1.00  0.00     0.225 C 
HETATM   40  O6  UNL     1      -6.754   0.512  -2.320  1.00  0.00    -0.217 OA
BRANCH  39  41
HETATM   41  C11 UNL     1      -8.934   1.123  -1.578  1.00  0.00     0.249 C 
HETATM   42  O5  UNL     1      -9.809   1.020  -0.477  1.00  0.00    -0.212 OA
BRANCH  41  43
HETATM   43  C12 UNL     1      -9.613   0.586  -2.811  1.00  0.00     0.243 C 
HETATM   44  O4  UNL     1      -9.314  -0.492  -3.266  1.00  0.00    -0.285 OA
ENDBRANCH  41  43
ENDBRANCH  39  41
ENDBRANCH  37  39
ENDBRANCH  35  37
ENDBRANCH  34  35
ENDBRANCH   9  34
TORSDOF 11
