REMARK  13 active torsions:
REMARK  status: ('A' for Active; 'I' for Inactive)
REMARK    1  A    between atoms: C2_2  and  C17_21 
REMARK    2  A    between atoms: C3_4  and  C5_6 
REMARK    3  A    between atoms: C5_6  and  C6_7 
REMARK    4  A    between atoms: C6_7  and  C7_8 
REMARK    5  A    between atoms: C7_8  and  C8_9 
REMARK    6  A    between atoms: C8_9  and  C9_10 
REMARK    7  A    between atoms: C9_10  and  C10_11 
REMARK    8  A    between atoms: C10_11  and  C11_12 
REMARK    9  A    between atoms: C11_12  and  C12_13 
REMARK   10  A    between atoms: C12_13  and  C13_14 
REMARK   11  A    between atoms: C13_14  and  C14_15 
REMARK   12  A    between atoms: C14_15  and  C15_16 
REMARK   13  A    between atoms: C15_16  and  C16_17 
ROOT
HETATM    1  C8  UNL     1       0.088   1.279   0.338  1.00  0.00     0.000 C 
ENDROOT
BRANCH   1   2
HETATM    2  C7  UNL     1       1.326   1.750   1.103  1.00  0.00     0.000 C 
BRANCH   2   3
HETATM    3  C6  UNL     1       1.373   1.213   2.535  1.00  0.00     0.002 C 
BRANCH   3   4
HETATM    4  C5  UNL     1       1.395  -0.315   2.592  1.00  0.00     0.036 C 
BRANCH   4   5
HETATM    5  C3  UNL     1       1.776  -0.764   3.998  1.00  0.00     0.257 C 
HETATM    6  N1  UNL     1       3.207  -0.561   4.201  1.00  0.00     0.337 N 
HETATM    7  C2  UNL     1       3.826  -1.883   4.225  1.00  0.00     0.286 C 
HETATM    8  C1  UNL     1       2.813  -2.854   3.625  1.00  0.00     0.041 C 
HETATM    9  C4  UNL     1       1.514  -2.262   4.160  1.00  0.00     0.038 C 
BRANCH   7  10
HETATM   10  C17 UNL     1       5.129  -1.883   3.435  1.00  0.00     0.186 C 
HETATM   11  C18 UNL     1       6.147  -0.977   4.129  1.00  0.00     0.038 C 
HETATM   12  O4  UNL     1       4.869  -1.356   2.154  1.00  0.00    -0.221 OA
ENDBRANCH   7  10
ENDBRANCH   4   5
ENDBRANCH   3   4
ENDBRANCH   2   3
ENDBRANCH   1   2
BRANCH   1  13
HETATM   13  C9  UNL     1       0.000   1.879  -1.067  1.00  0.00     0.000 C 
BRANCH  13  14
HETATM   14  C10 UNL     1      -1.119   1.260  -1.904  1.00  0.00     0.000 C 
BRANCH  14  15
HETATM   15  C11 UNL     1      -1.244   1.898  -3.287  1.00  0.00     0.000 C 
BRANCH  15  16
HETATM   16  C12 UNL     1      -2.168   1.113  -4.219  1.00  0.00     0.003 C 
BRANCH  16  17
HETATM   17  C13 UNL     1      -3.629   1.158  -3.776  1.00  0.00     0.034 C 
BRANCH  17  18
HETATM   18  C14 UNL     1      -4.555   0.381  -4.711  1.00  0.00     0.163 C 
HETATM   19  O3  UNL     1      -4.295  -0.996  -4.545  1.00  0.00    -0.223 OA
BRANCH  18  20
HETATM   20  C15 UNL     1      -6.035   0.627  -4.416  1.00  0.00     0.130 C 
BRANCH  20  21
HETATM   21  C16 UNL     1      -6.939  -0.090  -5.383  1.00  0.00     0.188 C 
HETATM   22  O1  UNL     1      -7.303  -1.317  -5.016  1.00  0.00    -0.647 OA
HETATM   23  O2  UNL     1      -7.293   0.435  -6.412  1.00  0.00    -0.647 OA
ENDBRANCH  20  21
ENDBRANCH  18  20
ENDBRANCH  17  18
ENDBRANCH  16  17
ENDBRANCH  15  16
ENDBRANCH  14  15
ENDBRANCH  13  14
ENDBRANCH   1  13
TORSDOF 13
