REMARK  1 active torsions:
REMARK  status: ('A' for Active; 'I' for Inactive)
REMARK    1  A    between atoms: C3_3  and  O4_22 
ROOT
HETATM    1  C1  UNL     1      -3.121  -1.648  -0.069  1.00  0.00     0.007 C 
HETATM    2  C2  UNL     1      -3.707  -0.318   0.445  1.00  0.00     0.032 C 
HETATM    3  C3  UNL     1      -2.732   0.526   1.293  1.00  0.00     0.111 C 
HETATM    4  C4  UNL     1      -1.379   0.574   0.654  1.00  0.00    -0.002 A 
HETATM    5  C5  UNL     1      -0.801  -0.635   0.150  1.00  0.00    -0.021 A 
HETATM    6  C6  UNL     1      -1.629  -1.873   0.252  1.00  0.00     0.026 C 
HETATM    7  C7  UNL     1       0.522  -0.613  -0.410  1.00  0.00     0.040 A 
HETATM    8  C8  UNL     1       1.199   0.643  -0.531  1.00  0.00     0.026 A 
HETATM    9  C9  UNL     1       0.609   1.834  -0.057  1.00  0.00     0.002 A 
HETATM   10  C10 UNL     1      -0.664   1.797   0.543  1.00  0.00    -0.002 A 
HETATM   11  C11 UNL     1       2.547   0.697  -1.162  1.00  0.00     0.103 A 
HETATM   12  C12 UNL     1       3.164  -0.435  -1.615  1.00  0.00     0.063 A 
HETATM   13  C13 UNL     1       2.559  -1.777  -1.508  1.00  0.00     0.236 A 
HETATM   14  C14 UNL     1       1.219  -1.887  -0.865  1.00  0.00     0.234 A 
HETATM   15  O1  UNL     1       0.820  -3.023  -0.762  1.00  0.00    -0.283 OA
HETATM   16  O2  UNL     1       3.139  -2.752  -1.928  1.00  0.00    -0.283 OA
HETATM   17  C15 UNL     1       4.361  -0.023  -2.131  1.00  0.00     0.008 A 
HETATM   18  C16 UNL     1       4.457   1.369  -1.983  1.00  0.00     0.118 A 
HETATM   19  O3  UNL     1       3.289   1.846  -1.360  1.00  0.00    -0.305 OA
HETATM   20  C17 UNL     1       5.414  -0.912  -2.758  1.00  0.00     0.033 C 
HETATM   21  C18 UNL     1      -3.353   1.905   1.560  1.00  0.00     0.034 C 
ENDROOT
BRANCH   3  22
HETATM   22  O4  UNL     1      -2.617  -0.078   2.568  1.00  0.00    -0.352 OA
HETATM   23  C19 UNL     1      -1.812   0.658   3.461  1.00  0.00     0.175 C 
ENDBRANCH   3  22
TORSDOF 1
