REMARK  5 active torsions:
REMARK  status: ('A' for Active; 'I' for Inactive)
REMARK    1  A    between atoms: C1_1  and  O4_34 
REMARK    2  A    between atoms: C2_2  and  C30_32 
REMARK    3  A    between atoms: C16_16  and  C25_25 
REMARK    4  A    between atoms: C21_21  and  C22_22 
REMARK    5  A    between atoms: O4_34  and  C31_35 
ROOT
HETATM    1  C1  UNL     1      -3.637  -0.168   0.356  1.00  0.00     0.120 C 
HETATM    2  C2  UNL     1      -2.926  -0.592   1.676  1.00  0.00     0.056 C 
HETATM    3  C3  UNL     1      -1.361  -0.445   1.561  1.00  0.00     0.005 C 
HETATM    4  C4  UNL     1      -0.836  -0.475   0.094  1.00  0.00     0.000 C 
HETATM    5  C5  UNL     1      -1.519   0.621  -0.777  1.00  0.00     0.003 C 
HETATM    6  C6  UNL     1      -2.934   1.010  -0.320  1.00  0.00     0.030 C 
HETATM    7  C7  UNL     1       0.725  -0.375   0.057  1.00  0.00     0.000 C 
HETATM    8  C8  UNL     1       1.367   0.768   0.912  1.00  0.00     0.000 C 
HETATM    9  C9  UNL     1       0.766   0.732   2.332  1.00  0.00     0.000 C 
HETATM   10  C10 UNL     1      -0.768   0.758   2.328  1.00  0.00     0.000 C 
HETATM   11  C11 UNL     1       2.928   0.582   0.938  1.00  0.00     0.000 C 
HETATM   12  C12 UNL     1       3.465   0.617  -0.525  1.00  0.00     0.001 C 
HETATM   13  C13 UNL     1       2.824  -0.480  -1.392  1.00  0.00     0.000 C 
HETATM   14  C14 UNL     1       1.293  -0.381  -1.379  1.00  0.00     0.000 C 
HETATM   15  C15 UNL     1       5.004   0.650  -0.685  1.00  0.00     0.013 C 
HETATM   16  C16 UNL     1       5.639   1.734   0.203  1.00  0.00     0.079 C 
HETATM   17  C17 UNL     1       5.166   1.604   1.662  1.00  0.00     0.010 C 
HETATM   18  C18 UNL     1       3.633   1.690   1.754  1.00  0.00     0.001 C 
HETATM   19  C19 UNL     1       7.117   1.367   0.065  1.00  0.00     0.011 C 
HETATM   20  C20 UNL     1       7.156  -0.154   0.139  1.00  0.00     0.005 C 
HETATM   21  C21 UNL     1       5.803  -0.637  -0.398  1.00  0.00     0.019 C 
HETATM   22  C26 UNL     1       3.264  -0.766   1.602  1.00  0.00     0.000 C 
HETATM   23  C27 UNL     1       1.047   2.152   0.322  1.00  0.00     0.000 C 
HETATM   24  C28 UNL     1      -1.213  -1.848  -0.494  1.00  0.00     0.000 C 
HETATM   25  C29 UNL     1      -3.459   0.213   2.877  1.00  0.00     0.005 C 
ENDROOT
BRANCH   1  26
HETATM   26  O4  UNL     1      -4.998   0.160   0.572  1.00  0.00    -0.331 OA
BRANCH  26  27
HETATM   27  C31 UNL     1      -5.793   0.035  -0.592  1.00  0.00     0.272 C 
HETATM   28  O5  UNL     1      -6.000  -1.348  -0.844  1.00  0.00    -0.300 OA
HETATM   29  C32 UNL     1      -6.748  -1.641  -2.015  1.00  0.00     0.304 C 
HETATM   30  C33 UNL     1      -8.168  -1.031  -1.896  1.00  0.00     0.244 C 
HETATM   31  O9  UNL     1      -6.822  -3.045  -2.158  1.00  0.00    -0.187 OA
HETATM   32  C34 UNL     1      -8.098   0.482  -1.592  1.00  0.00     0.223 C 
HETATM   33  O8  UNL     1      -8.869  -1.234  -3.113  1.00  0.00    -0.215 OA
HETATM   34  C35 UNL     1      -7.156   0.744  -0.394  1.00  0.00     0.241 C 
HETATM   35  O7  UNL     1      -9.397   0.975  -1.299  1.00  0.00    -0.218 OA
HETATM   36  O6  UNL     1      -6.945   2.141  -0.260  1.00  0.00    -0.215 OA
ENDBRANCH  26  27
ENDBRANCH   1  26
BRANCH   2  37
HETATM   37  C30 UNL     1      -3.281  -2.061   1.949  1.00  0.00     0.184 C 
HETATM   38  O3  UNL     1      -4.684  -2.162   2.057  1.00  0.00    -0.221 OA
ENDBRANCH   2  37
BRANCH  16  39
HETATM   39  C25 UNL     1       5.385   3.133  -0.318  1.00  0.00     0.184 C 
HETATM   40  O1  UNL     1       4.781   3.313  -1.349  1.00  0.00    -0.647 OA
HETATM   41  O2  UNL     1       5.871   4.113   0.438  1.00  0.00    -0.647 OA
ENDBRANCH  16  39
BRANCH  21  42
HETATM   42  C22 UNL     1       5.940  -1.529  -1.607  1.00  0.00    -0.044 C 
HETATM   43  C23 UNL     1       5.774  -0.988  -2.826  1.00  0.00    -0.009 C 
HETATM   44  C24 UNL     1       6.252  -2.998  -1.512  1.00  0.00     0.026 C 
ENDBRANCH  21  42
TORSDOF 5
