REMARK  1 active torsions:
REMARK  status: ('A' for Active; 'I' for Inactive)
REMARK    1  A    between atoms: C12_15  and  C18_22 
ROOT
HETATM    1  C1  UNL     1      -4.504  -1.244   0.303  1.00  0.00     0.030 A 
HETATM    2  C2  UNL     1      -3.197  -1.750   0.147  1.00  0.00     0.004 A 
HETATM    3  C3  UNL     1      -2.074  -0.879   0.100  1.00  0.00     0.025 A 
HETATM    4  C4  UNL     1      -2.277   0.521   0.217  1.00  0.00     0.127 A 
HETATM    5  C5  UNL     1      -3.600   1.020   0.369  1.00  0.00     0.179 A 
HETATM    6  C6  UNL     1      -4.707   0.145   0.412  1.00  0.00     0.158 A 
HETATM    7  O1  UNL     1      -5.947   0.631   0.559  1.00  0.00    -0.188 OA
HETATM    8  O2  UNL     1      -3.805   2.340   0.475  1.00  0.00    -0.186 OA
HETATM    9  O3  UNL     1      -1.334   1.477   0.197  1.00  0.00    -0.303 OA
HETATM   10  C7  UNL     1       0.010   1.523   0.174  1.00  0.00     0.125 A 
HETATM   11  C8  UNL     1       0.942   0.439   0.069  1.00  0.00     0.024 A 
HETATM   12  C9  UNL     1       0.524  -1.004  -0.109  1.00  0.00     0.037 A 
HETATM   13  C10 UNL     1      -0.736  -1.504  -0.078  1.00  0.00     0.005 A 
HETATM   14  C11 UNL     1       1.613  -2.002  -0.348  1.00  0.00     0.183 C 
HETATM   15  C12 UNL     1       2.969  -1.500  -0.789  1.00  0.00     0.153 C 
HETATM   16  C13 UNL     1       3.373  -0.320   0.094  1.00  0.00     0.045 C 
HETATM   17  C14 UNL     1       2.344   0.746   0.129  1.00  0.00    -0.019 A 
HETATM   18  C15 UNL     1       2.791   2.084   0.235  1.00  0.00    -0.002 A 
HETATM   19  C16 UNL     1       1.865   3.139   0.299  1.00  0.00     0.029 A 
HETATM   20  C17 UNL     1       0.488   2.856   0.274  1.00  0.00     0.154 A 
HETATM   21  O4  UNL     1      -0.379   3.877   0.350  1.00  0.00    -0.188 OA
HETATM   22  O7  UNL     1       1.424  -3.190  -0.193  1.00  0.00    -0.291 OA
ENDROOT
BRANCH  15  23
HETATM   23  C18 UNL     1       4.014  -2.592  -0.742  1.00  0.00     0.193 C 
HETATM   24  O5  UNL     1       4.365  -3.072   0.309  1.00  0.00    -0.647 OA
HETATM   25  O6  UNL     1       4.494  -2.965  -1.926  1.00  0.00    -0.647 OA
ENDBRANCH  15  23
TORSDOF 1
