REMARK  0 active torsions:
REMARK  status: ('A' for Active; 'I' for Inactive)
ROOT
HETATM    1  C1  UNL     1       1.289  -1.356   0.008  1.00  0.00     0.273 C 
HETATM    2  O1  UNL     1       1.049  -1.760  -1.344  1.00  0.00    -0.273 OA
HETATM    3  C2  UNL     1      -0.191  -2.213  -1.598  1.00  0.00     0.273 C 
HETATM    4  C3  UNL     1      -1.172  -2.379  -0.449  1.00  0.00     0.089 C 
HETATM    5  C4  UNL     1      -1.125  -1.193   0.570  1.00  0.00     0.042 C 
HETATM    6  C5  UNL     1       0.189  -0.338   0.445  1.00  0.00     0.179 C 
HETATM    7  C6  UNL     1       0.059   0.885  -0.547  1.00  0.00     0.033 C 
HETATM    8  C7  UNL     1      -1.330   1.578  -0.557  1.00  0.00     0.003 C 
HETATM    9  C8  UNL     1      -2.473   0.566  -0.625  1.00  0.00     0.000 C 
HETATM   10  C9  UNL     1      -2.408  -0.348   0.594  1.00  0.00     0.003 C 
HETATM   11  C10 UNL     1      -1.545   2.533   0.631  1.00  0.00     0.000 C 
HETATM   12  C11 UNL     1       1.150   1.971  -0.410  1.00  0.00     0.008 C 
HETATM   13  C12 UNL     1       2.588   1.467  -0.256  1.00  0.00     0.059 C 
HETATM   14  C13 UNL     1       2.787   0.352   0.799  1.00  0.00     0.221 C 
HETATM   15  O2  UNL     1       2.627  -0.904   0.160  1.00  0.00    -0.306 OA
HETATM   16  O3  UNL     1       1.936   0.519   1.934  1.00  0.00    -0.198 OA
HETATM   17  O4  UNL     1       0.525   0.152   1.746  1.00  0.00    -0.219 OA
HETATM   18  C14 UNL     1       4.223   0.363   1.332  1.00  0.00     0.064 C 
HETATM   19  C15 UNL     1      -2.578  -2.766  -0.928  1.00  0.00     0.011 C 
HETATM   20  O5  UNL     1      -0.537  -2.492  -2.725  1.00  0.00    -0.264 OA
ENDROOT
TORSDOF 0
