REMARK  6 active torsions:
REMARK  status: ('A' for Active; 'I' for Inactive)
REMARK    1  A    between atoms: C3_3  and  O2_7 
REMARK    2  A    between atoms: O2_7  and  C6_8 
REMARK    3  A    between atoms: C10_12  and  C11_14 
REMARK    4  A    between atoms: C14_21  and  O8_22 
REMARK    5  A    between atoms: O8_22  and  C15_23 
REMARK    6  A    between atoms: C19_27  and  C20_29 
ROOT
HETATM    1  C1  UNL     1      -0.125  -0.785   2.383  1.00  0.00     0.059 C 
HETATM    2  C2  UNL     1       0.170   0.711   2.199  1.00  0.00     0.091 C 
HETATM    3  C3  UNL     1      -0.867   1.270   1.199  1.00  0.00     0.244 C 
HETATM    4  O1  UNL     1      -2.205   1.051   1.660  1.00  0.00    -0.304 OA
HETATM    5  C4  UNL     1      -2.518  -0.176   2.109  1.00  0.00     0.115 C 
HETATM    6  C5  UNL     1      -1.602  -1.102   2.455  1.00  0.00     0.003 C 
HETATM    7  C12 UNL     1       1.635   0.686   1.713  1.00  0.00     0.134 C 
HETATM    8  C13 UNL     1       1.656  -0.471   0.711  1.00  0.00     0.061 C 
HETATM    9  C14 UNL     1       0.588  -1.459   1.197  1.00  0.00     0.125 C 
HETATM   10  O14 UNL     1       2.494   0.383   2.799  1.00  0.00    -0.226 OA
HETATM   11  C21 UNL     1       2.158   1.981   1.096  1.00  0.00     0.033 C 
ENDROOT
BRANCH   3  12
HETATM   12  O2  UNL     1      -0.691   2.660   1.033  1.00  0.00    -0.304 OA
BRANCH  12  13
HETATM   13  C6  UNL     1      -1.412   3.188  -0.064  1.00  0.00     0.272 C 
HETATM   14  C7  UNL     1      -0.998   4.652  -0.402  1.00  0.00     0.241 C 
HETATM   15  C8  UNL     1      -2.049   5.369  -1.301  1.00  0.00     0.220 C 
HETATM   16  O7  UNL     1      -0.822   5.432   0.773  1.00  0.00    -0.215 OA
HETATM   17  C9  UNL     1      -2.959   4.326  -1.986  1.00  0.00     0.215 C 
HETATM   18  O6  UNL     1      -1.377   6.162  -2.264  1.00  0.00    -0.218 OA
HETATM   19  C10 UNL     1      -3.639   3.373  -0.957  1.00  0.00     0.184 C 
HETATM   20  O5  UNL     1      -3.940   4.955  -2.793  1.00  0.00    -0.218 OA
HETATM   21  O3  UNL     1      -2.811   3.141   0.182  1.00  0.00    -0.326 OA
BRANCH  19  22
HETATM   22  C11 UNL     1      -4.977   3.873  -0.395  1.00  0.00     0.214 C 
HETATM   23  O4  UNL     1      -5.555   2.832   0.357  1.00  0.00    -0.218 OA
ENDBRANCH  19  22
ENDBRANCH  12  13
ENDBRANCH   3  12
BRANCH   9  24
HETATM   24  O8  UNL     1       1.184  -2.676   1.609  1.00  0.00    -0.331 OA
BRANCH  24  25
HETATM   25  C15 UNL     1       1.332  -3.607   0.555  1.00  0.00     0.270 C 
HETATM   26  C16 UNL     1       1.857  -4.973   1.084  1.00  0.00     0.241 C 
HETATM   27  C17 UNL     1       2.117  -5.959  -0.076  1.00  0.00     0.220 C 
HETATM   28  O13 UNL     1       3.072  -4.805   1.801  1.00  0.00    -0.215 OA
HETATM   29  C18 UNL     1       2.953  -5.266  -1.180  1.00  0.00     0.215 C 
HETATM   30  O12 UNL     1       0.859  -6.375  -0.586  1.00  0.00    -0.218 OA
HETATM   31  C19 UNL     1       2.354  -3.900  -1.600  1.00  0.00     0.184 C 
HETATM   32  O11 UNL     1       3.092  -6.106  -2.313  1.00  0.00    -0.218 OA
HETATM   33  O9  UNL     1       2.195  -3.080  -0.447  1.00  0.00    -0.326 OA
BRANCH  31  34
HETATM   34  C20 UNL     1       3.252  -3.129  -2.572  1.00  0.00     0.214 C 
HETATM   35  O10 UNL     1       2.551  -1.988  -3.010  1.00  0.00    -0.218 OA
ENDBRANCH  31  34
ENDBRANCH  24  25
ENDBRANCH   9  24
TORSDOF 6
