REMARK  8 active torsions:
REMARK  status: ('A' for Active; 'I' for Inactive)
REMARK    1  A    between atoms: C1_1  and  C7_8 
REMARK    2  A    between atoms: C8_9  and  C9_10 
REMARK    3  A    between atoms: C9_10  and  O2_11 
REMARK    4  A    between atoms: O2_11  and  C10_12 
REMARK    5  A    between atoms: C10_12  and  C11_13 
REMARK    6  A    between atoms: C11_13  and  C12_14 
REMARK    7  A    between atoms: C11_13  and  O4_17 
REMARK    8  A    between atoms: C12_14  and  O3_15 
ROOT
HETATM    1  C9  UNL     1      -0.975   0.275   0.526  1.00  0.00     0.296 C 
HETATM    2  O5  UNL     1      -2.059   0.119   1.031  1.00  0.00    -0.259 OA
ENDROOT
BRANCH   1   3
HETATM    3  C8  UNL     1      -0.326   1.592   0.549  1.00  0.00     0.068 C 
HETATM    4  C7  UNL     1      -0.928   2.641   1.135  1.00  0.00     0.005 C 
BRANCH   4   5
HETATM    5  C1  UNL     1      -0.228   3.961   1.135  1.00  0.00     0.000 A 
HETATM    6  C2  UNL     1      -0.973   5.152   1.135  1.00  0.00     0.002 A 
HETATM    7  C3  UNL     1      -0.314   6.395   1.135  1.00  0.00     0.027 A 
HETATM    8  C4  UNL     1       1.092   6.449   1.135  1.00  0.00     0.131 A 
HETATM    9  C5  UNL     1       1.834   5.256   1.135  1.00  0.00     0.027 A 
HETATM   10  O1  UNL     1       1.709   7.613   1.135  1.00  0.00    -0.190 OA
HETATM   11  C6  UNL     1       1.178   4.012   1.135  1.00  0.00     0.002 A 
ENDBRANCH   4   5
ENDBRANCH   1   3
BRANCH   1  12
HETATM   12  O2  UNL     1      -0.291  -0.693  -0.080  1.00  0.00    -0.296 OA
BRANCH  12  13
HETATM   13  C10 UNL     1      -0.982  -1.934  -0.062  1.00  0.00     0.184 C 
BRANCH  13  14
HETATM   14  C11 UNL     1      -0.143  -2.994  -0.771  1.00  0.00     0.175 C 
BRANCH  14  15
HETATM   15  C12 UNL     1      -0.838  -4.356  -0.830  1.00  0.00     0.174 C 
BRANCH  15  16
HETATM   16  O3  UNL     1      -0.490  -4.977  -2.047  1.00  0.00    -0.349 OA
HETATM   17  C13 UNL     1      -1.080  -6.246  -2.209  1.00  0.00     0.174 C 
ENDBRANCH  15  16
ENDBRANCH  14  15
BRANCH  14  18
HETATM   18  O4  UNL     1       1.066  -3.147  -0.062  1.00  0.00    -0.349 OA
HETATM   19  C14 UNL     1       2.012  -3.943  -0.742  1.00  0.00     0.174 C 
ENDBRANCH  14  18
ENDBRANCH  13  14
ENDBRANCH  12  13
ENDBRANCH   1  12
TORSDOF 8
