REMARK  8 active torsions:
REMARK  status: ('A' for Active; 'I' for Inactive)
REMARK    1  A    between atoms: C3_3  and  O12_37 
REMARK    2  A    between atoms: C6_6  and  C7_7 
REMARK    3  A    between atoms: C8_8  and  C9_9 
REMARK    4  A    between atoms: C9_9  and  O2_11 
REMARK    5  A    between atoms: O2_11  and  C10_12 
REMARK    6  A    between atoms: C15_18  and  O4_19 
REMARK    7  A    between atoms: O4_19  and  C16_20 
REMARK    8  A    between atoms: C20_24  and  C21_26 
ROOT
HETATM    1  C10 UNL     1      -0.162  -1.037   0.027  1.00  0.00     0.111 C 
HETATM    2  C11 UNL     1      -1.666  -0.912   0.383  1.00  0.00     0.108 C 
HETATM    3  C12 UNL     1      -2.074  -2.401   0.570  1.00  0.00     0.182 C 
HETATM    4  C13 UNL     1      -3.570  -2.617   0.506  1.00  0.00     0.032 C 
HETATM    5  C14 UNL     1      -4.383  -1.658   0.025  1.00  0.00     0.117 C 
HETATM    6  O3  UNL     1      -3.947  -0.479  -0.449  1.00  0.00    -0.304 OA
HETATM    7  C15 UNL     1      -2.557  -0.365  -0.768  1.00  0.00     0.246 C 
HETATM    8  C22 UNL     1      -1.324  -3.100  -0.592  1.00  0.00     0.186 C 
HETATM    9  C23 UNL     1      -0.082  -2.254  -0.900  1.00  0.00     0.064 C 
HETATM   10  O10 UNL     1      -0.975  -4.447  -0.324  1.00  0.00    -0.220 OA
HETATM   11  O11 UNL     1      -1.627  -2.871   1.838  1.00  0.00    -0.218 OA
HETATM   12  C24 UNL     1      -1.854  -0.072   1.654  1.00  0.00     0.010 C 
HETATM   13  C25 UNL     1       0.467   0.189  -0.629  1.00  0.00     0.031 C 
ENDROOT
BRANCH   1  14
HETATM   14  O2  UNL     1       0.592  -1.318   1.201  1.00  0.00    -0.303 OA
BRANCH  14  15
HETATM   15  C9  UNL     1       1.896  -1.399   0.959  1.00  0.00     0.296 C 
HETATM   16  O1  UNL     1       2.365  -1.766  -0.094  1.00  0.00    -0.259 OA
BRANCH  15  17
HETATM   17  C8  UNL     1       2.775  -1.004   2.066  1.00  0.00     0.068 C 
HETATM   18  C7  UNL     1       4.111  -1.047   1.928  1.00  0.00     0.005 C 
BRANCH  18  19
HETATM   19  C6  UNL     1       4.965  -0.637   3.082  1.00  0.00     0.000 A 
HETATM   20  C1  UNL     1       6.365  -0.670   2.969  1.00  0.00     0.002 A 
HETATM   21  C2  UNL     1       7.168  -0.283   4.057  1.00  0.00     0.024 A 
HETATM   22  C3  UNL     1       6.574   0.137   5.260  1.00  0.00     0.094 A 
HETATM   23  C4  UNL     1       5.172   0.170   5.371  1.00  0.00     0.024 A 
HETATM   24  C5  UNL     1       4.369  -0.217   4.285  1.00  0.00     0.002 A 
BRANCH  22  25
HETATM   25  O12 UNL     1       7.328   0.500   6.279  1.00  0.00    -0.328 OA
HETATM   26  C26 UNL     1       6.682   0.986   7.445  1.00  0.00     0.181 C 
ENDBRANCH  22  25
ENDBRANCH  18  19
ENDBRANCH  15  17
ENDBRANCH  14  15
ENDBRANCH   1  14
BRANCH   7  27
HETATM   27  O4  UNL     1      -2.287   0.996  -1.027  1.00  0.00    -0.304 OA
BRANCH  27  28
HETATM   28  C16 UNL     1      -2.986   1.500  -2.146  1.00  0.00     0.272 C 
HETATM   29  C17 UNL     1      -2.869   3.047  -2.209  1.00  0.00     0.241 C 
HETATM   30  C18 UNL     1      -3.492   3.592  -3.516  1.00  0.00     0.220 C 
HETATM   31  O9  UNL     1      -3.539   3.613  -1.096  1.00  0.00    -0.215 OA
HETATM   32  C19 UNL     1      -2.928   2.836  -4.742  1.00  0.00     0.215 C 
HETATM   33  O8  UNL     1      -3.285   4.990  -3.641  1.00  0.00    -0.218 OA
HETATM   34  C20 UNL     1      -3.068   1.309  -4.539  1.00  0.00     0.184 C 
HETATM   35  O7  UNL     1      -1.563   3.168  -4.957  1.00  0.00    -0.218 OA
HETATM   36  O5  UNL     1      -2.441   0.914  -3.322  1.00  0.00    -0.326 OA
BRANCH  34  37
HETATM   37  C21 UNL     1      -2.451   0.480  -5.674  1.00  0.00     0.214 C 
HETATM   38  O6  UNL     1      -2.871  -0.856  -5.522  1.00  0.00    -0.218 OA
ENDBRANCH  34  37
ENDBRANCH  27  28
ENDBRANCH   7  27
TORSDOF 8
