REMARK  4 active torsions:
REMARK  status: ('A' for Active; 'I' for Inactive)
REMARK    1  A    between atoms: C1_2  and  C2_3 
REMARK    2  A    between atoms: C2_3  and  O6_12 
REMARK    3  A    between atoms: C5_8  and  C6_10 
REMARK    4  A    between atoms: O6_12  and  C7_13 
ROOT
HETATM    1  C2  UNL     1      -0.592   0.049   0.088  1.00  0.00     0.250 C 
HETATM    2  C3  UNL     1      -0.599  -1.481   0.317  1.00  0.00     0.238 C 
HETATM    3  O2  UNL     1      -0.881  -2.205  -0.881  1.00  0.00    -0.215 OA
HETATM    4  C4  UNL     1       0.867  -1.768   0.727  1.00  0.00     0.217 C 
HETATM    5  O3  UNL     1       0.932  -2.082   2.110  1.00  0.00    -0.218 OA
HETATM    6  C5  UNL     1       1.629  -0.453   0.453  1.00  0.00     0.184 C 
HETATM    7  O4  UNL     1       0.729   0.295  -0.340  1.00  0.00    -0.328 OA
ENDROOT
BRANCH   1   8
HETATM    8  C1  UNL     1      -0.838   0.807   1.399  1.00  0.00     0.241 C 
HETATM    9  O1  UNL     1      -2.193   0.654   1.748  1.00  0.00    -0.215 OA
ENDBRANCH   1   8
BRANCH   1  10
HETATM   10  O6  UNL     1      -1.562   0.494  -0.848  1.00  0.00    -0.331 OA
BRANCH  10  11
HETATM   11  C7  UNL     1      -1.420   1.853  -1.193  1.00  0.00     0.145 C 
HETATM   12  C8  UNL     1      -2.379   2.158  -2.342  1.00  0.00     0.035 C 
ENDBRANCH  10  11
ENDBRANCH   1  10
BRANCH   6  13
HETATM   13  C6  UNL     1       2.944  -0.625  -0.307  1.00  0.00     0.214 C 
HETATM   14  O5  UNL     1       3.862  -1.275   0.543  1.00  0.00    -0.218 OA
ENDBRANCH   6  13
TORSDOF 4
