REMARK  8 active torsions:
REMARK  status: ('A' for Active; 'I' for Inactive)
REMARK    1  A    between atoms: C2_2  and  O8_41 
REMARK    2  A    between atoms: C9_10  and  O3_14 
REMARK    3  A    between atoms: O3_14  and  C12_15 
REMARK    4  A    between atoms: C12_15  and  C13_16 
REMARK    5  A    between atoms: C19_24  and  O6_26 
REMARK    6  A    between atoms: O6_26  and  C21_27 
REMARK    7  A    between atoms: C24_30  and  C27_33 
REMARK    8  A    between atoms: O8_41  and  C34_42 
ROOT
HETATM    1  C1  UNL     1       3.731  -2.098  -1.174  1.00  0.00     0.063 C 
HETATM    2  C2  UNL     1       4.445  -1.387  -0.014  1.00  0.00     0.129 C 
HETATM    3  C3  UNL     1       3.699  -0.190   0.586  1.00  0.00     0.056 C 
HETATM    4  C4  UNL     1       2.277  -0.578   1.059  1.00  0.00     0.037 C 
HETATM    5  C5  UNL     1       1.555  -1.690   0.221  1.00  0.00     0.031 C 
HETATM    6  C6  UNL     1       2.193  -1.936  -1.184  1.00  0.00     0.155 C 
HETATM    7  O1  UNL     1       1.858  -0.920  -2.111  1.00  0.00    -0.223 OA
HETATM    8  C7  UNL     1       0.012  -1.418   0.113  1.00  0.00     0.013 C 
HETATM    9  C8  UNL     1      -0.570  -0.588   1.293  1.00  0.00     0.045 C 
HETATM   10  C9  UNL     1       0.074   0.824   1.182  1.00  0.00     0.155 C 
HETATM   11  C10 UNL     1       1.611   0.799   1.023  1.00  0.00     0.143 C 
HETATM   12  O2  UNL     1       2.090   1.330  -0.191  1.00  0.00    -0.354 OA
HETATM   13  C11 UNL     1       3.457   1.010  -0.356  1.00  0.00     0.145 C 
HETATM   14  C17 UNL     1      -2.102  -0.457   1.332  1.00  0.00    -0.023 C 
HETATM   15  C18 UNL     1      -3.094  -1.149   0.418  1.00  0.00     0.136 C 
HETATM   16  O5  UNL     1      -2.668  -1.283  -0.926  1.00  0.00    -0.329 OA
HETATM   17  C19 UNL     1      -1.945  -2.471  -1.211  1.00  0.00     0.236 C 
HETATM   18  C20 UNL     1      -0.791  -2.699  -0.209  1.00  0.00     0.062 C 
HETATM   19  C23 UNL     1      -4.340  -0.252   0.480  1.00  0.00     0.042 C 
HETATM   20  C24 UNL     1      -4.268   0.291   1.914  1.00  0.00     0.045 C 
HETATM   21  C25 UNL     1      -2.793   0.301   2.203  1.00  0.00    -0.045 C 
HETATM   22  C26 UNL     1      -2.223   1.090   3.355  1.00  0.00     0.026 C 
HETATM   23  C31 UNL     1      -0.201  -1.250   2.631  1.00  0.00     0.007 C 
HETATM   24  C32 UNL     1       1.811  -2.957   1.062  1.00  0.00     0.003 C 
HETATM   25  C33 UNL     1       4.467   0.344   1.803  1.00  0.00     0.005 C 
ENDROOT
BRANCH  10  26
HETATM   26  O3  UNL     1      -0.531   1.541   0.107  1.00  0.00    -0.298 OA
BRANCH  26  27
HETATM   27  C12 UNL     1      -0.348   2.853   0.209  1.00  0.00     0.291 C 
HETATM   28  O4  UNL     1       0.295   3.379   1.086  1.00  0.00    -0.260 OA
BRANCH  27  29
HETATM   29  C13 UNL     1      -0.986   3.668  -0.834  1.00  0.00     0.037 C 
HETATM   30  C14 UNL     1      -0.857   5.168  -0.828  1.00  0.00     0.036 C 
HETATM   31  C15 UNL     1      -1.695   3.090  -1.816  1.00  0.00    -0.025 C 
HETATM   32  C16 UNL     1      -2.328   3.969  -2.859  1.00  0.00     0.030 C 
ENDBRANCH  27  29
ENDBRANCH  26  27
ENDBRANCH  10  26
BRANCH  17  33
HETATM   33  O6  UNL     1      -1.424  -2.381  -2.522  1.00  0.00    -0.331 OA
BRANCH  33  34
HETATM   34  C21 UNL     1      -2.422  -2.393  -3.518  1.00  0.00     0.145 C 
HETATM   35  C22 UNL     1      -1.734  -2.361  -4.883  1.00  0.00     0.035 C 
ENDBRANCH  33  34
ENDBRANCH  17  33
BRANCH  20  36
HETATM   36  C27 UNL     1      -4.912   1.656   2.033  1.00  0.00     0.008 A 
HETATM   37  C28 UNL     1      -5.148   2.377   3.209  1.00  0.00     0.119 A 
HETATM   38  O7  UNL     1      -5.748   3.578   2.963  1.00  0.00    -0.303 OA
HETATM   39  C29 UNL     1      -5.889   3.609   1.605  1.00  0.00     0.122 A 
HETATM   40  C30 UNL     1      -5.391   2.455   0.996  1.00  0.00     0.025 A 
ENDBRANCH  20  36
BRANCH   2  41
HETATM   41  O8  UNL     1       5.736  -0.975  -0.445  1.00  0.00    -0.304 OA
BRANCH  41  42
HETATM   42  C34 UNL     1       6.557  -2.002  -0.643  1.00  0.00     0.272 C 
HETATM   43  C35 UNL     1       7.904  -1.647  -1.211  1.00  0.00     0.106 C 
HETATM   44  O9  UNL     1       6.270  -3.151  -0.393  1.00  0.00    -0.264 OA
ENDBRANCH  41  42
ENDBRANCH   2  41
TORSDOF 8
