REMARK  4 active torsions:
REMARK  status: ('A' for Active; 'I' for Inactive)
REMARK    1  A    between atoms: C2_2  and  O4_18 
REMARK    2  A    between atoms: C5_5  and  C7_7 
REMARK    3  A    between atoms: C8_8  and  C9_9 
REMARK    4  A    between atoms: C12_13  and  O2_15 
ROOT
HETATM    1  C7  UNL     1       0.713  -0.217   0.644  1.00  0.00     0.002 C 
HETATM    2  C8  UNL     1       0.109   0.832   0.060  1.00  0.00     0.025 C 
ENDROOT
BRANCH   2   3
HETATM    3  C9  UNL     1       0.760   2.150   0.035  1.00  0.00     0.105 A 
HETATM    4  O1  UNL     1       1.977   2.256   0.621  1.00  0.00    -0.273 OA
HETATM    5  C10 UNL     1       2.586   3.467   0.605  1.00  0.00     0.302 A 
HETATM    6  C11 UNL     1       1.951   4.643  -0.028  1.00  0.00     0.093 A 
HETATM    7  O3  UNL     1       3.672   3.629   1.111  1.00  0.00    -0.259 OA
HETATM    8  C12 UNL     1       0.746   4.510  -0.602  1.00  0.00     0.101 A 
HETATM    9  C13 UNL     1       0.123   3.184  -0.561  1.00  0.00     0.049 A 
BRANCH   8  10
HETATM   10  O2  UNL     1       0.141   5.541  -1.186  1.00  0.00    -0.328 OA
HETATM   11  C14 UNL     1      -0.609   5.154  -2.329  1.00  0.00     0.181 C 
ENDBRANCH   8  10
ENDBRANCH   2   3
BRANCH   1  12
HETATM   12  C5  UNL     1       0.014  -1.537   0.644  1.00  0.00     0.000 A 
HETATM   13  C4  UNL     1       0.758  -2.729   0.644  1.00  0.00     0.002 A 
HETATM   14  C3  UNL     1       0.100  -3.971   0.644  1.00  0.00     0.024 A 
HETATM   15  C2  UNL     1      -1.307  -4.026   0.644  1.00  0.00     0.094 A 
HETATM   16  C1  UNL     1      -2.049  -2.832   0.644  1.00  0.00     0.024 A 
HETATM   17  C6  UNL     1      -1.393  -1.590   0.644  1.00  0.00     0.002 A 
BRANCH  15  18
HETATM   18  O4  UNL     1      -1.924  -5.190   0.644  1.00  0.00    -0.328 OA
HETATM   19  C15 UNL     1      -1.127  -6.365   0.644  1.00  0.00     0.181 C 
ENDBRANCH  15  18
ENDBRANCH   1  12
TORSDOF 4
