REMARK  8 active torsions:
REMARK  status: ('A' for Active; 'I' for Inactive)
REMARK    1  A    between atoms: C1_1  and  O11_38 
REMARK    2  A    between atoms: C12_13  and  O7_25 
REMARK    3  A    between atoms: C14_15  and  C18_22 
REMARK    4  A    between atoms: O7_25  and  C19_26 
REMARK    5  A    between atoms: C19_26  and  C20_28 
REMARK    6  A    between atoms: C21_29  and  C22_30 
REMARK    7  A    between atoms: O11_38  and  C28_39 
REMARK    8  A    between atoms: C32_43  and  C33_45 
ROOT
HETATM    1  C1  UNL     1      -3.686   1.316   0.482  1.00  0.00     0.127 C 
HETATM    2  C2  UNL     1      -4.018   0.412   1.594  1.00  0.00     0.194 C 
HETATM    3  C3  UNL     1      -2.963  -0.543   2.107  1.00  0.00     0.064 C 
HETATM    4  C4  UNL     1      -1.920  -0.906   1.021  1.00  0.00     0.014 C 
HETATM    5  C5  UNL     1      -1.352   0.346   0.285  1.00  0.00     0.024 C 
HETATM    6  C6  UNL     1      -2.481   1.283  -0.117  1.00  0.00     0.001 C 
HETATM    7  C7  UNL     1      -0.285   1.057   1.186  1.00  0.00     0.042 C 
HETATM    8  C8  UNL     1       0.848   0.066   1.658  1.00  0.00     0.061 C 
HETATM    9  C9  UNL     1       0.611  -1.402   1.248  1.00  0.00     0.127 C 
HETATM   10  C10 UNL     1      -0.818  -1.814   1.619  1.00  0.00     0.031 C 
HETATM   11  O1  UNL     1       1.521  -2.305   1.871  1.00  0.00    -0.302 OA
HETATM   12  C11 UNL     1       2.828  -2.039   1.771  1.00  0.00     0.300 C 
HETATM   13  C12 UNL     1       3.340  -0.639   1.506  1.00  0.00     0.213 C 
HETATM   14  C13 UNL     1       2.273   0.436   1.184  1.00  0.00     0.080 C 
HETATM   15  C14 UNL     1       2.447   1.748   1.982  1.00  0.00     0.203 C 
HETATM   16  C15 UNL     1       1.600   2.867   1.316  1.00  0.00     0.217 C 
HETATM   17  C16 UNL     1       0.353   2.330   0.557  1.00  0.00     0.186 C 
HETATM   18  O2  UNL     1      -0.594   3.381   0.490  1.00  0.00    -0.221 OA
HETATM   19  O3  UNL     1       2.389   3.590   0.383  1.00  0.00    -0.218 OA
HETATM   20  O4  UNL     1       1.850   1.449   3.234  1.00  0.00    -0.346 OA
HETATM   21  C17 UNL     1       1.062   0.283   3.164  1.00  0.00     0.145 C 
HETATM   22  O9  UNL     1       3.648  -2.916   1.914  1.00  0.00    -0.262 OA
HETATM   23  C26 UNL     1      -0.732  -0.072  -1.059  1.00  0.00     0.004 C 
HETATM   24  C27 UNL     1      -3.617  -1.801   2.693  1.00  0.00     0.008 C 
HETATM   25  O10 UNL     1      -5.125   0.441   2.080  1.00  0.00    -0.289 OA
ENDROOT
BRANCH   1  26
HETATM   26  O11 UNL     1      -4.596   2.188   0.055  1.00  0.00    -0.301 OA
BRANCH  26  27
HETATM   27  C28 UNL     1      -5.125   1.838  -1.217  1.00  0.00     0.274 C 
HETATM   28  C29 UNL     1      -6.027   2.973  -1.744  1.00  0.00     0.241 C 
HETATM   29  C30 UNL     1      -6.727   2.565  -3.059  1.00  0.00     0.220 C 
HETATM   30  O16 UNL     1      -5.227   4.121  -1.961  1.00  0.00    -0.215 OA
HETATM   31  C31 UNL     1      -7.414   1.191  -2.881  1.00  0.00     0.215 C 
HETATM   32  O15 UNL     1      -7.690   3.543  -3.414  1.00  0.00    -0.218 OA
HETATM   33  C32 UNL     1      -6.436   0.147  -2.295  1.00  0.00     0.184 C 
HETATM   34  O14 UNL     1      -7.883   0.725  -4.133  1.00  0.00    -0.218 OA
HETATM   35  O12 UNL     1      -5.883   0.643  -1.084  1.00  0.00    -0.326 OA
BRANCH  33  36
HETATM   36  C33 UNL     1      -7.117  -1.184  -1.957  1.00  0.00     0.214 C 
HETATM   37  O13 UNL     1      -6.117  -2.115  -1.609  1.00  0.00    -0.218 OA
ENDBRANCH  33  36
ENDBRANCH  26  27
ENDBRANCH   1  26
BRANCH  13  38
HETATM   38  O7  UNL     1       4.285  -0.685   0.445  1.00  0.00    -0.291 OA
BRANCH  38  39
HETATM   39  C19 UNL     1       5.475  -1.121   0.846  1.00  0.00     0.296 C 
HETATM   40  O8  UNL     1       5.742  -1.396   1.992  1.00  0.00    -0.259 OA
BRANCH  39  41
HETATM   41  C20 UNL     1       6.490  -1.260  -0.207  1.00  0.00     0.060 C 
HETATM   42  C21 UNL     1       7.168  -2.410  -0.357  1.00  0.00    -0.039 C 
HETATM   43  C25 UNL     1       6.861  -3.551   0.574  1.00  0.00     0.026 C 
BRANCH  42  44
HETATM   44  C22 UNL     1       8.197  -2.498  -1.451  1.00  0.00     0.018 C 
HETATM   45  C23 UNL     1       8.590  -1.125  -1.996  1.00  0.00     0.004 C 
HETATM   46  C24 UNL     1       7.795  -3.477  -2.555  1.00  0.00     0.004 C 
ENDBRANCH  42  44
ENDBRANCH  39  41
ENDBRANCH  38  39
ENDBRANCH  13  38
BRANCH  15  47
HETATM   47  C18 UNL     1       3.875   2.168   2.260  1.00  0.00     0.213 C 
HETATM   48  O5  UNL     1       4.772   1.867   1.506  1.00  0.00    -0.646 OA
HETATM   49  O6  UNL     1       4.051   2.877   3.371  1.00  0.00    -0.646 OA
ENDBRANCH  15  47
TORSDOF 8
