REMARK  6 active torsions:
REMARK  status: ('A' for Active; 'I' for Inactive)
REMARK    1  A    between atoms: C1_1  and  C2_2 
REMARK    2  A    between atoms: C1_1  and  O2_6 
REMARK    3  A    between atoms: O2_6  and  C5_7 
REMARK    4  A    between atoms: C5_7  and  C6_8 
REMARK    5  A    between atoms: C6_8  and  C7_9 
REMARK    6  A    between atoms: C8_10  and  C9_11 
ROOT
HETATM    1  O2  UNL     1       0.867   0.775  -0.160  1.00  0.00    -0.301 OA
ENDROOT
BRANCH   1   2
HETATM    2  C1  UNL     1       1.437   1.930  -0.494  1.00  0.00     0.271 C 
HETATM    3  O1  UNL     1       0.818   2.924  -0.791  1.00  0.00    -0.264 OA
BRANCH   2   4
HETATM    4  C2  UNL     1       2.941   1.930  -0.480  1.00  0.00     0.086 C 
HETATM    5  C3  UNL     1       3.533   3.117  -1.242  1.00  0.00     0.010 C 
HETATM    6  C4  UNL     1       3.514   1.789   0.930  1.00  0.00     0.010 C 
ENDBRANCH   2   4
ENDBRANCH   1   2
BRANCH   1   7
HETATM    7  C5  UNL     1      -0.551   0.842  -0.193  1.00  0.00     0.157 C 
BRANCH   7   8
HETATM    8  C6  UNL     1      -1.133  -0.516   0.199  1.00  0.00     0.058 C 
BRANCH   8   9
HETATM    9  C7  UNL     1      -2.639  -0.516   0.199  1.00  0.00    -0.028 C 
HETATM   10  C8  UNL     1      -3.279  -1.697   0.199  1.00  0.00    -0.031 C 
BRANCH  10  11
HETATM   11  C9  UNL     1      -2.459  -2.959   0.199  1.00  0.00     0.026 C 
HETATM   12  C10 UNL     1      -3.283  -4.190   0.578  1.00  0.00     0.005 C 
ENDBRANCH  10  11
ENDBRANCH   8   9
ENDBRANCH   7   8
ENDBRANCH   1   7
TORSDOF 6
