REMARK  6 active torsions:
REMARK  status: ('A' for Active; 'I' for Inactive)
REMARK    1  A    between atoms: C1_1  and  C2_2 
REMARK    2  A    between atoms: C1_1  and  C7_9 
REMARK    3  A    between atoms: C2_2  and  C3_3 
REMARK    4  A    between atoms: C4_4  and  C5_5 
REMARK    5  A    between atoms: C4_4  and  C6_7 
REMARK    6  A    between atoms: C7_9  and  C8_10 
ROOT
HETATM    1  C7  UNL     1      -0.490   0.320  -0.387  1.00  0.00     0.127 C 
HETATM    2  C15 UNL     1      -1.731  -0.027  -1.209  1.00  0.00     0.033 C 
HETATM    3  O3  UNL     1       0.324  -0.809  -0.617  1.00  0.00    -0.226 OA
ENDROOT
BRANCH   1   4
HETATM    4  C1  UNL     1       0.242   1.553  -0.916  1.00  0.00     0.035 C 
BRANCH   4   5
HETATM    5  C2  UNL     1       1.719   1.580  -0.516  1.00  0.00     0.028 C 
BRANCH   5   6
HETATM    6  C3  UNL     1       2.590   0.822  -1.480  1.00  0.00    -0.029 C 
HETATM    7  C4  UNL     1       3.469  -0.066  -0.990  1.00  0.00     0.017 C 
BRANCH   7   8
HETATM    8  C5  UNL     1       4.357  -0.805  -1.953  1.00  0.00     0.207 C 
HETATM    9  O1  UNL     1       3.771  -2.043  -2.281  1.00  0.00    -0.216 OA
ENDBRANCH   7   8
BRANCH   7  10
HETATM   10  C6  UNL     1       3.644  -0.398   0.469  1.00  0.00     0.207 C 
HETATM   11  O2  UNL     1       4.217   0.705   1.135  1.00  0.00    -0.216 OA
ENDBRANCH   7  10
ENDBRANCH   5   6
ENDBRANCH   4   5
ENDBRANCH   1   4
BRANCH   1  12
HETATM   12  C8  UNL     1      -0.781   0.404   1.117  1.00  0.00     0.033 C 
HETATM   13  C9  UNL     1      -1.912   1.418   1.410  1.00  0.00     0.007 C 
HETATM   14  C10 UNL     1      -3.301   0.793   1.678  1.00  0.00     0.022 C 
HETATM   15  C11 UNL     1      -3.475  -0.613   1.148  1.00  0.00    -0.048 C 
HETATM   16  C12 UNL     1      -2.438  -1.471   1.166  1.00  0.00    -0.035 C 
HETATM   17  C14 UNL     1      -4.817  -1.031   0.607  1.00  0.00     0.026 C 
HETATM   18  C13 UNL     1      -1.102  -0.992   1.682  1.00  0.00     0.028 C 
ENDBRANCH   1  12
TORSDOF 6
