REMARK  2 active torsions:
REMARK  status: ('A' for Active; 'I' for Inactive)
REMARK    1  A    between atoms: C3_4  and  O2_7 
REMARK    2  A    between atoms: C11_14  and  C14_17 
ROOT
HETATM    1  C1  UNL     1       2.654  -1.791   0.353  1.00  0.00     0.294 A 
HETATM    2  O1  UNL     1       2.270  -1.342  -0.848  1.00  0.00    -0.288 OA
HETATM    3  C2  UNL     1       1.744  -0.006  -0.711  1.00  0.00     0.225 A 
HETATM    4  C3  UNL     1       1.838   0.274   0.775  1.00  0.00     0.107 A 
HETATM    5  C4  UNL     1       2.377  -0.791   1.367  1.00  0.00     0.062 A 
HETATM    6  C5  UNL     1       2.648  -0.937   2.842  1.00  0.00     0.038 C 
HETATM    7  C7  UNL     1       2.648   0.940  -1.457  1.00  0.00     0.201 C 
HETATM    8  C8  UNL     1       1.838   1.811  -2.281  1.00  0.00     0.012 C 
HETATM    9  C9  UNL     1       0.545   1.457  -2.227  1.00  0.00     0.016 C 
HETATM   10  C10 UNL     1       0.334   0.188  -1.395  1.00  0.00     0.244 C 
HETATM   11  N1  UNL     1      -0.740   0.244  -0.369  1.00  0.00     0.140 N 
HETATM   12  C11 UNL     1      -1.311  -1.107  -0.250  1.00  0.00     0.247 C 
HETATM   13  C12 UNL     1      -0.555  -2.027  -1.207  1.00  0.00     0.038 C 
HETATM   14  C13 UNL     1      -0.016  -1.047  -2.246  1.00  0.00     0.041 C 
HETATM   15  C19 UNL     1      -1.791   1.287  -0.352  1.00  0.00     0.251 C 
HETATM   16  C20 UNL     1      -1.272   2.731  -0.457  1.00  0.00     0.038 C 
HETATM   17  C21 UNL     1      -1.189   3.252  -1.904  1.00  0.00     0.039 C 
HETATM   18  C22 UNL     1      -0.551   2.264  -2.899  1.00  0.00     0.172 C 
HETATM   19  O5  UNL     1      -1.545   1.444  -3.473  1.00  0.00    -0.219 OA
HETATM   20  C23 UNL     1       2.393   2.969  -3.072  1.00  0.00     0.034 C 
HETATM   21  O6  UNL     1       3.856   0.969  -1.379  1.00  0.00    -0.289 OA
HETATM   22  O7  UNL     1       3.158  -2.865   0.582  1.00  0.00    -0.259 OA
ENDROOT
BRANCH   4  23
HETATM   23  O2  UNL     1       1.449   1.391   1.385  1.00  0.00    -0.330 OA
HETATM   24  C6  UNL     1       2.488   2.356   1.461  1.00  0.00     0.181 C 
ENDBRANCH   4  23
BRANCH  12  25
HETATM   25  C14 UNL     1      -1.213  -1.601   1.189  1.00  0.00     0.156 C 
HETATM   26  O3  UNL     1      -1.873  -0.693   2.066  1.00  0.00    -0.302 OA
HETATM   27  C15 UNL     1      -2.367  -1.404   3.072  1.00  0.00     0.271 C 
HETATM   28  C16 UNL     1      -2.213  -2.885   2.881  1.00  0.00     0.089 C 
HETATM   29  O4  UNL     1      -2.898  -0.930   4.049  1.00  0.00    -0.264 OA
HETATM   30  C17 UNL     1      -1.875  -2.969   1.395  1.00  0.00     0.042 C 
HETATM   31  C18 UNL     1      -3.469  -3.685   3.217  1.00  0.00     0.011 C 
ENDBRANCH  12  25
TORSDOF 2
