REMARK  0 active torsions:
REMARK  status: ('A' for Active; 'I' for Inactive)
ROOT
HETATM    1  C1  UNL     1      -1.842   0.172   0.066  1.00  0.00     0.122 A 
HETATM    2  C2  UNL     1      -1.547  -0.666  -1.234  1.00  0.00     0.141 A 
HETATM    3  O1  UNL     1      -2.810  -0.226  -0.861  1.00  0.00    -0.356 OA
HETATM    4  C3  UNL     1      -1.426  -2.189  -1.164  1.00  0.00     0.036 C 
HETATM    5  C4  UNL     1       0.033  -2.578  -0.873  1.00  0.00     0.024 C 
HETATM    6  C5  UNL     1       0.539  -2.021   0.443  1.00  0.00    -0.048 C 
HETATM    7  C6  UNL     1       1.213  -0.855   0.566  1.00  0.00    -0.034 C 
HETATM    8  C7  UNL     1       1.568   0.072  -0.584  1.00  0.00     0.029 C 
HETATM    9  C8  UNL     1       1.461   1.604  -0.314  1.00  0.00     0.022 C 
HETATM   10  C9  UNL     1       0.432   2.258  -1.232  1.00  0.00    -0.031 C 
HETATM   11  C10 UNL     1      -0.910   2.301  -1.068  1.00  0.00    -0.028 C 
HETATM   12  C11 UNL     1      -1.699   1.697   0.074  1.00  0.00     0.055 C 
HETATM   13  C12 UNL     1       2.807   2.258  -0.658  1.00  0.00     0.005 C 
HETATM   14  C13 UNL     1       1.192   1.947   1.156  1.00  0.00     0.005 C 
HETATM   15  C14 UNL     1       0.262  -2.840   1.678  1.00  0.00     0.026 C 
HETATM   16  C15 UNL     1      -2.166  -0.527   1.381  1.00  0.00     0.033 C 
ENDROOT
TORSDOF 0
