REMARK  0 active torsions:
REMARK  status: ('A' for Active; 'I' for Inactive)
ROOT
HETATM    1  O1  UNL     1      -2.242  -2.217   0.961  1.00  0.00    -0.296 OA
HETATM    2  C1  UNL     1      -0.918  -1.729   0.695  1.00  0.00     0.150 C 
HETATM    3  C2  UNL     1      -0.971  -0.184   0.783  1.00  0.00     0.060 C 
HETATM    4  C3  UNL     1      -2.193  -0.029   1.635  1.00  0.00     0.043 C 
HETATM    5  C4  UNL     1      -2.920  -1.289   1.633  1.00  0.00     0.292 C 
HETATM    6  O2  UNL     1      -3.994  -1.447   2.168  1.00  0.00    -0.259 OA
HETATM    7  C5  UNL     1      -2.541   1.096   2.285  1.00  0.00     0.001 C 
HETATM    8  C6  UNL     1      -1.111   0.557  -0.564  1.00  0.00     0.012 C 
HETATM    9  C7  UNL     1      -0.484   1.963  -0.592  1.00  0.00     0.022 C 
HETATM   10  C8  UNL     1       0.887   2.139   0.043  1.00  0.00    -0.048 C 
HETATM   11  C9  UNL     1       1.967   1.363  -0.203  1.00  0.00    -0.034 C 
HETATM   12  C10 UNL     1       2.002   0.182  -1.146  1.00  0.00     0.030 C 
HETATM   13  C11 UNL     1       1.855  -1.178  -0.424  1.00  0.00     0.026 C 
HETATM   14  C12 UNL     1       0.861  -2.121  -1.068  1.00  0.00    -0.045 C 
HETATM   15  C13 UNL     1      -0.373  -2.363  -0.570  1.00  0.00    -0.005 C 
HETATM   16  C14 UNL     1       1.297  -2.816  -2.332  1.00  0.00     0.026 C 
HETATM   17  C15 UNL     1       1.029   3.273   1.027  1.00  0.00     0.026 C 
ENDROOT
TORSDOF 0
