REMARK  1 active torsions:
REMARK  status: ('A' for Active; 'I' for Inactive)
REMARK    1  A    between atoms: C1_1  and  O5_20 
ROOT
HETATM    1  C1  UNL     1      -1.687   1.150  -0.121  1.00  0.00     0.122 A 
HETATM    2  C2  UNL     1      -2.926   0.475  -0.209  1.00  0.00     0.149 A 
HETATM    3  C3  UNL     1      -2.976  -0.932  -0.082  1.00  0.00     0.006 A 
HETATM    4  C4  UNL     1      -1.785  -1.658   0.133  1.00  0.00     0.001 A 
HETATM    5  C5  UNL     1      -0.533  -0.996   0.223  1.00  0.00     0.044 A 
HETATM    6  C6  UNL     1       0.697  -1.816   0.449  1.00  0.00     0.196 A 
HETATM    7  O1  UNL     1       0.649  -3.021   0.568  1.00  0.00    -0.287 OA
HETATM    8  C7  UNL     1       1.994  -1.072   0.520  1.00  0.00     0.044 A 
HETATM    9  C8  UNL     1       3.195  -1.805   0.723  1.00  0.00     0.031 A 
HETATM   10  C9  UNL     1       4.440  -1.141   0.793  1.00  0.00     0.131 A 
HETATM   11  C10 UNL     1       4.498   0.262   0.662  1.00  0.00     0.028 A 
HETATM   12  C11 UNL     1       3.311   1.000   0.463  1.00  0.00     0.005 A 
HETATM   13  C12 UNL     1       2.051   0.346   0.391  1.00  0.00     0.042 A 
HETATM   14  C13 UNL     1       0.822   1.170   0.178  1.00  0.00     0.198 A 
HETATM   15  O2  UNL     1       0.881   2.377   0.080  1.00  0.00    -0.286 OA
HETATM   16  C14 UNL     1      -0.478   0.426   0.094  1.00  0.00     0.066 A 
HETATM   17  O3  UNL     1       5.565  -1.844   0.983  1.00  0.00    -0.190 OA
HETATM   18  C15 UNL     1      -4.264  -1.643  -0.172  1.00  0.00     0.033 C 
HETATM   19  O4  UNL     1      -4.053   1.174  -0.414  1.00  0.00    -0.188 OA
ENDROOT
BRANCH   1  20
HETATM   20  O5  UNL     1      -1.676   2.486  -0.246  1.00  0.00    -0.326 OA
HETATM   21  C16 UNL     1      -1.633   3.031  -1.557  1.00  0.00     0.181 C 
ENDBRANCH   1  20
TORSDOF 1
