REMARK  2 active torsions:
REMARK  status: ('A' for Active; 'I' for Inactive)
REMARK    1  A    between atoms: C3_3  and  O1_16 
REMARK    2  A    between atoms: C6_6  and  C7_7 
ROOT
HETATM    1  C1  UNL     1      -2.094  -0.164  -0.053  1.00  0.00     0.003 C 
HETATM    2  C2  UNL     1      -1.943   1.316   0.324  1.00  0.00     0.027 C 
HETATM    3  C3  UNL     1      -0.564   1.879  -0.082  1.00  0.00     0.093 C 
HETATM    4  C4  UNL     1       0.574   1.019   0.523  1.00  0.00     0.029 C 
HETATM    5  C5  UNL     1       0.420  -0.471   0.125  1.00  0.00     0.024 C 
HETATM    6  C6  UNL     1      -0.963  -1.025   0.535  1.00  0.00     0.004 C 
HETATM    7  C10 UNL     1       1.572  -1.272   0.693  1.00  0.00    -0.035 C 
HETATM    8  C11 UNL     1       2.824  -0.805   0.541  1.00  0.00    -0.048 C 
HETATM    9  C12 UNL     1       3.033   0.506  -0.180  1.00  0.00     0.022 C 
HETATM   10  C13 UNL     1       2.002   1.574   0.240  1.00  0.00     0.007 C 
HETATM   11  C14 UNL     1       4.016  -1.557   1.076  1.00  0.00     0.026 C 
HETATM   12  C15 UNL     1      -0.447   2.004  -1.606  1.00  0.00     0.030 C 
ENDROOT
BRANCH   3  13
HETATM   13  O1  UNL     1      -0.472   3.193   0.435  1.00  0.00    -0.356 OA
HETATM   14  C16 UNL     1      -1.562   4.010   0.074  1.00  0.00     0.174 C 
ENDBRANCH   3  13
BRANCH   6  15
HETATM   15  C7  UNL     1      -1.139  -2.490   0.119  1.00  0.00     0.000 C 
HETATM   16  C8  UNL     1      -2.541  -3.024   0.410  1.00  0.00     0.000 C 
HETATM   17  C9  UNL     1      -0.695  -2.754  -1.320  1.00  0.00     0.000 C 
ENDBRANCH   6  15
TORSDOF 2
