REMARK  1 active torsions:
REMARK  status: ('A' for Active; 'I' for Inactive)
REMARK    1  A    between atoms: C9_10  and  C11_12 
ROOT
HETATM    1  C1  UNL     1      -2.168   1.369  -0.762  1.00  0.00     0.035 C 
HETATM    2  C2  UNL     1      -2.797   0.150  -0.053  1.00  0.00     0.033 C 
HETATM    3  C3  UNL     1      -1.969  -0.396   1.139  1.00  0.00     0.127 C 
HETATM    4  C4  UNL     1      -0.451  -0.117   0.977  1.00  0.00     0.033 C 
HETATM    5  C5  UNL     1      -0.100   1.408   0.783  1.00  0.00     0.031 C 
HETATM    6  C6  UNL     1      -1.278   2.225   0.153  1.00  0.00     0.152 C 
HETATM    7  O1  UNL     1      -2.106   2.844   1.123  1.00  0.00    -0.224 OA
HETATM    8  C7  UNL     1       1.131   1.565  -0.150  1.00  0.00     0.005 C 
HETATM    9  C8  UNL     1       2.215   0.518   0.129  1.00  0.00     0.031 C 
HETATM   10  C9  UNL     1       1.711  -0.910  -0.191  1.00  0.00     0.127 C 
HETATM   11  C10 UNL     1       0.168  -1.004  -0.131  1.00  0.00     0.033 C 
HETATM   12  O2  UNL     1       2.252  -1.795   0.772  1.00  0.00    -0.226 OA
HETATM   13  C14 UNL     1       0.308   1.996   2.151  1.00  0.00     0.003 C 
HETATM   14  O3  UNL     1      -2.408   0.229   2.330  1.00  0.00    -0.226 OA
HETATM   15  C15 UNL     1      -2.268  -1.883   1.373  1.00  0.00     0.033 C 
ENDROOT
BRANCH  10  16
HETATM   16  C11 UNL     1       2.226  -1.400  -1.549  1.00  0.00     0.028 C 
HETATM   17  C12 UNL     1       1.744  -2.811  -1.889  1.00  0.00     0.003 C 
HETATM   18  C13 UNL     1       1.965  -0.400  -2.676  1.00  0.00     0.003 C 
ENDBRANCH  10  16
TORSDOF 1
