REMARK  6 active torsions:
REMARK  status: ('A' for Active; 'I' for Inactive)
REMARK    1  A    between atoms: C1_1  and  C2_2 
REMARK    2  A    between atoms: C1_1  and  O2_9 
REMARK    3  A    between atoms: O2_9  and  C8_10 
REMARK    4  A    between atoms: C9_11  and  C10_12 
REMARK    5  A    between atoms: C10_12  and  C11_13 
REMARK    6  A    between atoms: C11_13  and  C12_14 
ROOT
HETATM    1  C1  UNL     1      -1.834  -1.000   0.277  1.00  0.00     0.300 C 
HETATM    2  O1  UNL     1      -2.459   0.033   0.277  1.00  0.00    -0.259 OA
ENDROOT
BRANCH   1   3
HETATM    3  C2  UNL     1      -2.533  -2.320   0.277  1.00  0.00     0.064 A 
HETATM    4  C3  UNL     1      -3.938  -2.373   0.277  1.00  0.00     0.005 A 
HETATM    5  C4  UNL     1      -4.596  -3.615   0.277  1.00  0.00     0.000 A 
HETATM    6  C5  UNL     1      -3.850  -4.807   0.277  1.00  0.00     0.000 A 
HETATM    7  C6  UNL     1      -2.445  -4.756   0.277  1.00  0.00     0.000 A 
HETATM    8  C7  UNL     1      -1.787  -3.514   0.277  1.00  0.00     0.005 A 
ENDBRANCH   1   3
BRANCH   1   9
HETATM    9  O2  UNL     1      -0.504  -1.064   0.277  1.00  0.00    -0.271 OA
BRANCH   9  10
HETATM   10  C8  UNL     1      -0.010   0.029  -0.299  1.00  0.00     0.121 C 
HETATM   11  C9  UNL     1       1.297   0.320  -0.192  1.00  0.00     0.001 C 
BRANCH  11  12
HETATM   12  C10 UNL     1       1.813   1.566  -0.860  1.00  0.00     0.028 C 
BRANCH  12  13
HETATM   13  C11 UNL     1       2.584   2.469   0.105  1.00  0.00     0.005 C 
BRANCH  13  14
HETATM   14  C12 UNL     1       3.117   3.733  -0.571  1.00  0.00     0.000 C 
HETATM   15  C13 UNL     1       3.887   4.637   0.394  1.00  0.00     0.000 C 
ENDBRANCH  13  14
ENDBRANCH  12  13
ENDBRANCH  11  12
ENDBRANCH   9  10
ENDBRANCH   1   9
TORSDOF 6
