REMARK  3 active torsions:
REMARK  status: ('A' for Active; 'I' for Inactive)
REMARK    1  A    between atoms: C3_3  and  C20_22 
REMARK    2  A    between atoms: C12_12  and  C16_16 
REMARK    3  A    between atoms: C16_16  and  C17_18 
ROOT
HETATM    1  C1  UNL     1       3.231   1.922  -0.521  1.00  0.00     0.034 C 
HETATM    2  C2  UNL     1       3.854   0.553  -0.891  1.00  0.00     0.162 C 
HETATM    3  C3  UNL     1       3.238  -0.635  -0.104  1.00  0.00     0.107 C 
HETATM    4  C4  UNL     1       1.666  -0.654  -0.146  1.00  0.00     0.017 C 
HETATM    5  C5  UNL     1       0.986   0.666  -0.615  1.00  0.00     0.004 C 
HETATM    6  C6  UNL     1       1.770   1.856  -0.029  1.00  0.00     0.003 C 
HETATM    7  C7  UNL     1      -0.486   0.611  -0.121  1.00  0.00     0.018 C 
HETATM    8  C8  UNL     1      -1.178  -0.666  -0.586  1.00  0.00    -0.049 C 
HETATM    9  C9  UNL     1      -0.486  -1.781  -0.918  1.00  0.00    -0.035 C 
HETATM   10  C10 UNL     1       1.027  -1.851  -0.879  1.00  0.00     0.026 C 
HETATM   11  C11 UNL     1      -2.689  -0.648  -0.680  1.00  0.00     0.024 C 
HETATM   12  C12 UNL     1      -3.330   0.369   0.281  1.00  0.00     0.035 C 
HETATM   13  C13 UNL     1      -2.779   1.791   0.014  1.00  0.00     0.003 C 
HETATM   14  C14 UNL     1      -1.338   1.830  -0.533  1.00  0.00     0.004 C 
HETATM   15  C15 UNL     1      -4.852   0.363   0.102  1.00  0.00     0.003 C 
HETATM   16  C18 UNL     1       0.961   0.793  -2.150  1.00  0.00     0.000 C 
HETATM   17  C19 UNL     1       3.850  -1.969  -0.561  1.00  0.00     0.013 C 
HETATM   18  O5  UNL     1       3.740   0.326  -2.285  1.00  0.00    -0.223 OA
ENDROOT
BRANCH  12  19
HETATM   19  C16 UNL     1      -3.029  -0.043   1.729  1.00  0.00     0.185 C 
HETATM   20  O1  UNL     1      -3.889   0.680   2.580  1.00  0.00    -0.221 OA
BRANCH  19  21
HETATM   21  C17 UNL     1      -3.256  -1.535   1.977  1.00  0.00     0.215 C 
HETATM   22  O2  UNL     1      -3.023  -1.795   3.344  1.00  0.00    -0.218 OA
ENDBRANCH  19  21
ENDBRANCH  12  19
BRANCH   3  23
HETATM   23  C20 UNL     1       3.701  -0.476   1.330  1.00  0.00     0.187 C 
HETATM   24  O3  UNL     1       4.408   0.447   1.656  1.00  0.00    -0.647 OA
HETATM   25  O4  UNL     1       3.276  -1.416   2.168  1.00  0.00    -0.647 OA
ENDBRANCH   3  23
TORSDOF 3
