REMARK  2 active torsions:
REMARK  status: ('A' for Active; 'I' for Inactive)
REMARK    1  A    between atoms: C2_2  and  O3_32 
REMARK    2  A    between atoms: O3_32  and  C29_33 
ROOT
HETATM    1  C1  UNL     1       3.383  -2.061  -0.402  1.00  0.00     0.030 C 
HETATM    2  C2  UNL     1       4.490  -0.994  -0.328  1.00  0.00     0.118 C 
HETATM    3  C3  UNL     1       4.072   0.225   0.518  1.00  0.00     0.037 C 
HETATM    4  C4  UNL     1       2.746   0.818   0.002  1.00  0.00     0.060 C 
HETATM    5  C5  UNL     1       1.629  -0.260  -0.008  1.00  0.00     0.007 C 
HETATM    6  C6  UNL     1       2.055  -1.457  -0.881  1.00  0.00     0.003 C 
HETATM    7  C7  UNL     1       0.389   0.410  -0.635  1.00  0.00     0.001 C 
HETATM    8  C8  UNL     1      -0.092   1.600   0.197  1.00  0.00     0.007 C 
HETATM    9  C9  UNL     1       0.996   2.674   0.273  1.00  0.00     0.065 C 
HETATM   10  C10 UNL     1       2.305   2.072   0.736  1.00  0.00     0.150 C 
HETATM   11  O1  UNL     1       2.947   2.561   1.635  1.00  0.00    -0.296 OA
HETATM   12  C11 UNL     1      -1.381   1.988  -0.527  1.00  0.00     0.001 C 
HETATM   13  C12 UNL     1      -1.963   0.646  -1.020  1.00  0.00     0.002 C 
HETATM   14  C13 UNL     1      -0.899  -0.406  -0.688  1.00  0.00     0.000 C 
HETATM   15  C14 UNL     1      -3.320   0.318  -0.379  1.00  0.00     0.024 C 
HETATM   16  C15 UNL     1      -4.307   1.482  -0.652  1.00  0.00     0.032 C 
HETATM   17  C16 UNL     1      -3.711   2.869  -0.270  1.00  0.00     0.003 C 
HETATM   18  C17 UNL     1      -2.324   2.779   0.385  1.00  0.00     0.000 C 
HETATM   19  C18 UNL     1      -5.699   1.187  -0.027  1.00  0.00     0.143 C 
HETATM   20  C19 UNL     1      -6.244  -0.225  -0.443  1.00  0.00     0.086 C 
HETATM   21  N1  UNL     1      -5.195  -1.260  -0.311  1.00  0.00    -0.369 N 
HETATM   22  C20 UNL     1      -3.883  -1.010  -0.906  1.00  0.00     0.097 C 
HETATM   23  C21 UNL     1      -5.389  -2.412   0.586  1.00  0.00     0.097 C 
HETATM   24  C22 UNL     1      -5.965  -1.981   1.943  1.00  0.00     0.022 C 
HETATM   25  C23 UNL     1      -7.256  -1.147   1.787  1.00  0.00     0.004 C 
HETATM   26  C24 UNL     1      -7.510  -0.670   0.342  1.00  0.00     0.023 C 
HETATM   27  C25 UNL     1      -4.902  -1.266   2.789  1.00  0.00     0.002 C 
HETATM   28  C26 UNL     1      -6.615  -0.186  -1.934  1.00  0.00     0.025 C 
HETATM   29  O2  UNL     1      -5.553   1.270   1.377  1.00  0.00    -0.224 OA
HETATM   30  C27 UNL     1      -6.705   2.291  -0.383  1.00  0.00     0.035 C 
HETATM   31  C28 UNL     1       1.295  -0.738   1.416  1.00  0.00     0.000 C 
ENDROOT
BRANCH   2  32
HETATM   32  O3  UNL     1       5.656  -1.568   0.225  1.00  0.00    -0.332 OA
BRANCH  32  33
HETATM   33  C29 UNL     1       6.834  -0.850  -0.088  1.00  0.00     0.272 C 
HETATM   34  O4  UNL     1       7.104  -1.014  -1.479  1.00  0.00    -0.300 OA
HETATM   35  C30 UNL     1       8.262  -0.346  -1.969  1.00  0.00     0.304 C 
HETATM   36  C31 UNL     1       9.514  -0.867  -1.215  1.00  0.00     0.244 C 
HETATM   37  O8  UNL     1       8.129   1.062  -1.859  1.00  0.00    -0.187 OA
HETATM   38  C32 UNL     1       9.359  -0.734   0.316  1.00  0.00     0.223 C 
HETATM   39  O7  UNL     1      10.678  -0.193  -1.666  1.00  0.00    -0.215 OA
HETATM   40  C33 UNL     1       8.023  -1.375   0.756  1.00  0.00     0.241 C 
HETATM   41  O6  UNL     1      10.442  -1.383   0.967  1.00  0.00    -0.218 OA
HETATM   42  O5  UNL     1       7.793  -1.082   2.125  1.00  0.00    -0.215 OA
ENDBRANCH  32  33
ENDBRANCH   2  32
TORSDOF 2
