REMARK  8 active torsions:
REMARK  status: ('A' for Active; 'I' for Inactive)
REMARK    1  A    between atoms: C1_1  and  O9_29 
REMARK    2  A    between atoms: C4_4  and  C7_8 
REMARK    3  A    between atoms: C8_9  and  C9_10 
REMARK    4  A    between atoms: C11_12  and  O3_17 
REMARK    5  A    between atoms: O3_17  and  C15_18 
REMARK    6  A    between atoms: C19_25  and  C20_27 
REMARK    7  A    between atoms: O9_29  and  C21_30 
REMARK    8  A    between atoms: C25_37  and  C26_39 
ROOT
HETATM    1  C7  UNL     1       1.810  -0.182  -1.207  1.00  0.00     0.002 C 
HETATM    2  C8  UNL     1       1.101  -0.453  -0.099  1.00  0.00     0.000 C 
ENDROOT
BRANCH   1   3
HETATM    3  C4  UNL     1       2.107   1.246  -1.537  1.00  0.00     0.025 A 
HETATM    4  C3  UNL     1       1.639   2.268  -0.691  1.00  0.00     0.004 A 
HETATM    5  C2  UNL     1       1.912   3.611  -0.994  1.00  0.00     0.024 A 
HETATM    6  C1  UNL     1       2.650   3.941  -2.142  1.00  0.00     0.099 A 
HETATM    7  C6  UNL     1       3.117   2.920  -2.986  1.00  0.00     0.052 A 
HETATM    8  C5  UNL     1       2.850   1.570  -2.691  1.00  0.00     0.133 A 
HETATM    9  O1  UNL     1       3.293   0.625  -3.494  1.00  0.00    -0.190 OA
BRANCH   6  10
HETATM   10  O9  UNL     1       2.906   5.203  -2.426  1.00  0.00    -0.304 OA
BRANCH  10  11
HETATM   11  C21 UNL     1       2.012   6.192  -1.932  1.00  0.00     0.274 C 
HETATM   12  C22 UNL     1       2.406   7.580  -2.478  1.00  0.00     0.241 C 
HETATM   13  O10 UNL     1       3.685   7.920  -1.975  1.00  0.00    -0.215 OA
HETATM   14  C23 UNL     1       1.375   8.654  -2.070  1.00  0.00     0.220 C 
HETATM   15  O11 UNL     1       1.656   9.871  -2.742  1.00  0.00    -0.218 OA
HETATM   16  C24 UNL     1      -0.049   8.172  -2.430  1.00  0.00     0.215 C 
HETATM   17  O12 UNL     1      -1.008   9.059  -1.881  1.00  0.00    -0.218 OA
HETATM   18  C25 UNL     1      -0.317   6.752  -1.885  1.00  0.00     0.184 C 
HETATM   19  O13 UNL     1       0.693   5.867  -2.350  1.00  0.00    -0.326 OA
BRANCH  18  20
HETATM   20  C26 UNL     1      -1.658   6.174  -2.351  1.00  0.00     0.214 C 
HETATM   21  O14 UNL     1      -1.861   4.945  -1.693  1.00  0.00    -0.218 OA
ENDBRANCH  18  20
ENDBRANCH  10  11
ENDBRANCH   6  10
ENDBRANCH   1   3
BRANCH   2  22
HETATM   22  C9  UNL     1       0.807  -1.879   0.233  1.00  0.00     0.004 A 
HETATM   23  C10 UNL     1       0.062  -2.195   1.383  1.00  0.00     0.024 A 
HETATM   24  C11 UNL     1      -0.217  -3.537   1.697  1.00  0.00     0.099 A 
HETATM   25  C12 UNL     1       0.250  -4.561   0.856  1.00  0.00     0.052 A 
HETATM   26  C13 UNL     1       0.994  -4.250  -0.297  1.00  0.00     0.133 A 
HETATM   27  C14 UNL     1       1.271  -2.908  -0.605  1.00  0.00     0.028 A 
HETATM   28  O2  UNL     1       1.430  -5.215  -1.082  1.00  0.00    -0.190 OA
BRANCH  24  29
HETATM   29  O3  UNL     1      -0.914  -3.832   2.776  1.00  0.00    -0.304 OA
BRANCH  29  30
HETATM   30  C15 UNL     1      -1.160  -5.205   3.055  1.00  0.00     0.274 C 
HETATM   31  C16 UNL     1      -1.774  -5.356   4.463  1.00  0.00     0.241 C 
HETATM   32  O4  UNL     1      -0.822  -4.926   5.420  1.00  0.00    -0.215 OA
HETATM   33  C17 UNL     1      -2.178  -6.820   4.742  1.00  0.00     0.220 C 
HETATM   34  O5  UNL     1      -2.910  -6.893   5.957  1.00  0.00    -0.218 OA
HETATM   35  C18 UNL     1      -3.041  -7.352   3.576  1.00  0.00     0.215 C 
HETATM   36  O6  UNL     1      -3.248  -8.744   3.731  1.00  0.00    -0.218 OA
HETATM   37  C19 UNL     1      -2.361  -7.098   2.211  1.00  0.00     0.184 C 
HETATM   38  O7  UNL     1      -2.061  -5.715   2.082  1.00  0.00    -0.326 OA
BRANCH  37  39
HETATM   39  C20 UNL     1      -3.254  -7.469   1.022  1.00  0.00     0.214 C 
HETATM   40  O8  UNL     1      -2.494  -7.330  -0.158  1.00  0.00    -0.218 OA
ENDBRANCH  37  39
ENDBRANCH  29  30
ENDBRANCH  24  29
ENDBRANCH   2  22
TORSDOF 8
