REMARK  3 active torsions:
REMARK  status: ('A' for Active; 'I' for Inactive)
REMARK    1  A    between atoms: C1_1  and  C7_7 
REMARK    2  A    between atoms: C7_7  and  C8_8 
REMARK    3  A    between atoms: C8_8  and  C9_9 
ROOT
HETATM    1  C1  UNL     1      -0.109  -0.189  -0.428  1.00  0.00    -0.022 A 
HETATM    2  C2  UNL     1      -1.514  -0.242  -0.428  1.00  0.00    -0.004 A 
HETATM    3  C3  UNL     1      -2.172  -1.484  -0.428  1.00  0.00    -0.000 A 
HETATM    4  C4  UNL     1      -1.426  -2.674  -0.428  1.00  0.00    -0.000 A 
HETATM    5  C5  UNL     1      -0.021  -2.623  -0.428  1.00  0.00    -0.000 A 
HETATM    6  C6  UNL     1       0.637  -1.383  -0.428  1.00  0.00    -0.004 A 
ENDROOT
BRANCH   1   7
HETATM    7  C7  UNL     1       0.588   1.123  -0.428  1.00  0.00     0.035 C 
BRANCH   7   8
HETATM    8  C8  UNL     1       0.852   1.621   0.994  1.00  0.00     0.077 C 
BRANCH   8   9
HETATM    9  C9  UNL     1       1.565   2.947   1.015  1.00  0.00     0.208 C 
HETATM   10  O1  UNL     1       2.656   3.057   1.521  1.00  0.00    -0.288 OA
ENDBRANCH   8   9
ENDBRANCH   7   8
ENDBRANCH   1   7
TORSDOF 3
