REMARK  6 active torsions:
REMARK  status: ('A' for Active; 'I' for Inactive)
REMARK    1  A    between atoms: C5_5  and  C9_9 
REMARK    2  A    between atoms: C9_9  and  C10_10 
REMARK    3  A    between atoms: C10_10  and  C11_11 
REMARK    4  A    between atoms: C11_11  and  O1_13 
REMARK    5  A    between atoms: O1_13  and  C13_14 
REMARK    6  A    between atoms: C14_16  and  C18_23 
ROOT
HETATM    1  C11 UNL     1       0.283  -0.070   1.793  1.00  0.00     0.118 C 
HETATM    2  C12 UNL     1       0.666   0.266   3.234  1.00  0.00     0.032 C 
ENDROOT
BRANCH   1   3
HETATM    3  C10 UNL     1       1.441  -0.678   1.000  1.00  0.00     0.033 C 
BRANCH   3   4
HETATM    4  C9  UNL     1       1.023  -1.141  -0.395  1.00  0.00     0.037 C 
BRANCH   4   5
HETATM    5  C5  UNL     1       2.148  -1.871  -1.139  1.00  0.00     0.142 C 
HETATM    6  C4  UNL     1       3.463  -1.162  -0.844  1.00  0.00    -0.014 C 
HETATM    7  C3  UNL     1       3.963  -0.244  -1.697  1.00  0.00     0.031 C 
HETATM    8  C19 UNL     1       4.221  -1.481   0.426  1.00  0.00     0.029 C 
HETATM    9  C2  UNL     1       3.283   0.123  -2.953  1.00  0.00     0.173 C 
HETATM   10  C1  UNL     1       1.977  -0.555  -3.295  1.00  0.00     0.072 C 
HETATM   11  O8  UNL     1       3.770   0.947  -3.693  1.00  0.00    -0.291 OA
HETATM   12  C6  UNL     1       1.869  -1.963  -2.670  1.00  0.00     0.036 C 
HETATM   13  C7  UNL     1       2.889  -2.883  -3.363  1.00  0.00     0.003 C 
HETATM   14  C8  UNL     1       0.467  -2.526  -2.943  1.00  0.00     0.003 C 
HETATM   15  O7  UNL     1       2.172  -3.184  -0.602  1.00  0.00    -0.222 OA
ENDBRANCH   4   5
ENDBRANCH   3   4
ENDBRANCH   1   3
BRANCH   1  16
HETATM   16  O1  UNL     1      -0.111   1.123   1.152  1.00  0.00    -0.332 OA
BRANCH  16  17
HETATM   17  C13 UNL     1      -1.359   1.611   1.604  1.00  0.00     0.270 C 
HETATM   18  O2  UNL     1      -2.377   0.734   1.143  1.00  0.00    -0.326 OA
HETATM   19  C14 UNL     1      -3.693   1.064   1.563  1.00  0.00     0.184 C 
HETATM   20  C15 UNL     1      -4.072   2.457   1.014  1.00  0.00     0.215 C 
HETATM   21  C16 UNL     1      -3.033   3.527   1.420  1.00  0.00     0.220 C 
HETATM   22  O5  UNL     1      -5.348   2.812   1.518  1.00  0.00    -0.218 OA
HETATM   23  C17 UNL     1      -1.611   3.041   1.063  1.00  0.00     0.241 C 
HETATM   24  O4  UNL     1      -3.309   4.744   0.746  1.00  0.00    -0.218 OA
HETATM   25  O3  UNL     1      -0.656   3.930   1.621  1.00  0.00    -0.215 OA
BRANCH  19  26
HETATM   26  C18 UNL     1      -4.611  -0.051   1.053  1.00  0.00     0.214 C 
HETATM   27  O6  UNL     1      -4.291  -1.236   1.742  1.00  0.00    -0.218 OA
ENDBRANCH  19  26
ENDBRANCH  16  17
ENDBRANCH   1  16
TORSDOF 6
