REMARK  13 active torsions:
REMARK  status: ('A' for Active; 'I' for Inactive)
REMARK    1  A    between atoms: C5_5  and  C7_7 
REMARK    2  A    between atoms: C7_7  and  C8_8 
REMARK    3  A    between atoms: C8_8  and  O1_9 
REMARK    4  A    between atoms: C8_8  and  C36_48 
REMARK    5  A    between atoms: O1_9  and  C9_10 
REMARK    6  A    between atoms: C9_10  and  C10_12 
REMARK    7  A    between atoms: C14_16  and  C22_26 
REMARK    8  A    between atoms: C15_17  and  C16_18 
REMARK    9  A    between atoms: C22_26  and  O6_28 
REMARK   10  A    between atoms: O6_28  and  C23_29 
REMARK   11  A    between atoms: C23_29  and  C24_30 
REMARK   12  A    between atoms: C23_29  and  C31_39 
REMARK   13  A    between atoms: C24_30  and  C25_31 
ROOT
HETATM    1  C10 UNL     1       0.793   0.830   0.412  1.00  0.00     0.045 C 
HETATM    2  C11 UNL     1      -0.508   1.186   0.356  1.00  0.00     0.001 C 
HETATM    3  C12 UNL     1      -1.582   0.174   0.154  1.00  0.00    -0.002 A 
HETATM    4  C13 UNL     1      -1.236  -1.152  -0.221  1.00  0.00     0.015 A 
HETATM    5  C14 UNL     1       0.189  -1.492  -0.482  1.00  0.00     0.119 C 
HETATM    6  C15 UNL     1       1.174  -0.643   0.373  1.00  0.00     0.063 C 
HETATM    7  C32 UNL     1      -2.264  -2.127  -0.361  1.00  0.00     0.153 A 
HETATM    8  C33 UNL     1      -3.617  -1.766  -0.162  1.00  0.00     0.156 A 
HETATM    9  C34 UNL     1      -3.955  -0.434   0.178  1.00  0.00     0.029 A 
HETATM   10  C35 UNL     1      -2.939   0.537   0.336  1.00  0.00     0.002 A 
HETATM   11  O11 UNL     1      -4.584  -2.682  -0.299  1.00  0.00    -0.188 OA
HETATM   12  O12 UNL     1      -1.957  -3.389  -0.693  1.00  0.00    -0.188 OA
ENDROOT
BRANCH   1  13
HETATM   13  C9  UNL     1       1.854   1.844   0.524  1.00  0.00     0.292 C 
HETATM   14  O2  UNL     1       3.014   1.533   0.397  1.00  0.00    -0.259 OA
BRANCH  13  15
HETATM   15  O1  UNL     1       1.441   3.086   0.768  1.00  0.00    -0.290 OA
BRANCH  15  16
HETATM   16  C8  UNL     1       2.518   4.012   0.809  1.00  0.00     0.215 C 
BRANCH  16  17
HETATM   17  C7  UNL     1       2.029   5.332   1.408  1.00  0.00     0.068 C 
BRANCH  17  18
HETATM   18  C5  UNL     1       1.580   5.158   2.815  1.00  0.00    -0.017 A 
HETATM   19  C4  UNL     1       2.461   5.434   3.875  1.00  0.00    -0.002 A 
HETATM   20  C3  UNL     1       2.033   5.268   5.203  1.00  0.00     0.029 A 
HETATM   21  C2  UNL     1       0.725   4.830   5.477  1.00  0.00     0.156 A 
HETATM   22  C1  UNL     1      -0.158   4.555   4.416  1.00  0.00     0.156 A 
HETATM   23  O15 UNL     1       0.330   4.678   6.725  1.00  0.00    -0.188 OA
HETATM   24  C6  UNL     1       0.272   4.721   3.086  1.00  0.00     0.025 A 
HETATM   25  O16 UNL     1      -1.385   4.143   4.662  1.00  0.00    -0.188 OA
ENDBRANCH  17  18
ENDBRANCH  16  17
BRANCH  16  26
HETATM   26  C36 UNL     1       3.082   4.188  -0.576  1.00  0.00     0.215 C 
HETATM   27  O13 UNL     1       2.379   4.537  -1.496  1.00  0.00    -0.646 OA
HETATM   28  O14 UNL     1       4.381   3.928  -0.693  1.00  0.00    -0.646 OA
ENDBRANCH  16  26
ENDBRANCH  15  16
ENDBRANCH  13  15
ENDBRANCH   1  13
BRANCH   6  29
HETATM   29  C16 UNL     1       1.297  -1.176   1.756  1.00  0.00    -0.015 A 
HETATM   30  C17 UNL     1       0.213  -1.078   2.647  1.00  0.00    -0.002 A 
HETATM   31  C18 UNL     1       0.332  -1.584   3.951  1.00  0.00     0.029 A 
HETATM   32  C19 UNL     1       1.531  -2.186   4.371  1.00  0.00     0.156 A 
HETATM   33  C20 UNL     1       2.617  -2.283   3.481  1.00  0.00     0.156 A 
HETATM   34  O4  UNL     1       1.637  -2.656   5.598  1.00  0.00    -0.188 OA
HETATM   35  C21 UNL     1       2.496  -1.777   2.174  1.00  0.00     0.026 A 
HETATM   36  O3  UNL     1       3.744  -2.846   3.865  1.00  0.00    -0.188 OA
ENDBRANCH   6  29
BRANCH   5  37
HETATM   37  C22 UNL     1       0.492  -1.328  -1.953  1.00  0.00     0.277 C 
HETATM   38  O5  UNL     1       0.918  -0.283  -2.389  1.00  0.00    -0.264 OA
BRANCH  37  39
HETATM   39  O6  UNL     1       0.256  -2.400  -2.703  1.00  0.00    -0.293 OA
BRANCH  39  40
HETATM   40  C23 UNL     1       0.693  -2.231  -4.043  1.00  0.00     0.215 C 
BRANCH  40  41
HETATM   41  C24 UNL     1       0.111  -3.344  -4.914  1.00  0.00     0.068 C 
BRANCH  41  42
HETATM   42  C25 UNL     1      -1.373  -3.295  -4.945  1.00  0.00    -0.017 A 
HETATM   43  C26 UNL     1      -2.121  -4.022  -4.004  1.00  0.00     0.025 A 
HETATM   44  C27 UNL     1      -3.527  -3.979  -4.029  1.00  0.00     0.156 A 
HETATM   45  C28 UNL     1      -4.186  -3.205  -5.004  1.00  0.00     0.156 A 
HETATM   46  O8  UNL     1      -4.223  -4.662  -3.143  1.00  0.00    -0.188 OA
HETATM   47  C29 UNL     1      -3.436  -2.481  -5.947  1.00  0.00     0.029 A 
HETATM   48  O7  UNL     1      -5.504  -3.160  -5.037  1.00  0.00    -0.188 OA
HETATM   49  C30 UNL     1      -2.031  -2.523  -5.918  1.00  0.00    -0.002 A 
ENDBRANCH  41  42
ENDBRANCH  40  41
BRANCH  40  50
HETATM   50  C31 UNL     1       2.197  -2.199  -4.078  1.00  0.00     0.215 C 
HETATM   51  O9  UNL     1       2.850  -3.117  -3.641  1.00  0.00    -0.646 OA
HETATM   52  O10 UNL     1       2.727  -1.105  -4.619  1.00  0.00    -0.646 OA
ENDBRANCH  40  50
ENDBRANCH  39  40
ENDBRANCH  37  39
ENDBRANCH   5  37
TORSDOF 13
