REMARK  15 active torsions:
REMARK  status: ('A' for Active; 'I' for Inactive)
REMARK    1  A    between atoms: C4_4  and  O2_7 
REMARK    2  A    between atoms: O2_7  and  C6_8 
REMARK    3  A    between atoms: C6_8  and  C7_9 
REMARK    4  A    between atoms: C11_13  and  O4_15 
REMARK    5  A    between atoms: O4_15  and  C12_16 
REMARK    6  A    between atoms: C12_16  and  C13_17 
REMARK    7  A    between atoms: C12_16  and  C20_25 
REMARK    8  A    between atoms: C13_17  and  C14_18 
REMARK    9  A    between atoms: C15_19  and  C16_20 
REMARK   10  A    between atoms: C34_40  and  O8_44 
REMARK   11  A    between atoms: O8_44  and  C37_45 
REMARK   12  A    between atoms: C38_47  and  C48_65 
REMARK   13  A    between atoms: C39_48  and  O12_53 
REMARK   14  A    between atoms: O12_53  and  C42_54 
REMARK   15  A    between atoms: C46_58  and  C47_60 
ROOT
HETATM    1  C20 UNL     1       4.109  -0.502   0.510  1.00  0.00     0.028 C 
HETATM    2  C21 UNL     1       2.949  -0.555  -0.502  1.00  0.00     0.033 C 
HETATM    3  C22 UNL     1       2.473   0.910  -0.723  1.00  0.00     0.002 C 
HETATM    4  C23 UNL     1       3.529   1.748   0.025  1.00  0.00     0.000 C 
HETATM    5  C24 UNL     1       4.027   0.869   1.168  1.00  0.00     0.002 C 
HETATM    6  C25 UNL     1       1.008   1.182  -0.250  1.00  0.00     0.000 C 
HETATM    7  C26 UNL     1       0.062   0.156  -0.947  1.00  0.00     0.003 C 
HETATM    8  C27 UNL     1       0.602  -1.305  -0.953  1.00  0.00     0.033 C 
HETATM    9  C28 UNL     1       1.826  -1.514  -0.047  1.00  0.00     0.152 C 
HETATM   10  O6  UNL     1       2.264  -2.852  -0.162  1.00  0.00    -0.224 OA
HETATM   11  C29 UNL     1      -1.445   0.307  -0.533  1.00  0.00     0.003 C 
HETATM   12  C30 UNL     1      -1.895   1.816  -0.459  1.00  0.00     0.002 C 
HETATM   13  C31 UNL     1      -0.871   2.756  -1.135  1.00  0.00     0.000 C 
HETATM   14  C32 UNL     1       0.557   2.639  -0.566  1.00  0.00     0.000 C 
HETATM   15  C33 UNL     1      -2.402   2.330   0.934  1.00  0.00     0.028 C 
HETATM   16  C34 UNL     1      -3.471   1.369   1.543  1.00  0.00     0.148 C 
HETATM   17  C35 UNL     1      -3.234  -0.129   1.221  1.00  0.00     0.179 C 
HETATM   18  C36 UNL     1      -1.787  -0.422   0.791  1.00  0.00     0.035 C 
HETATM   19  O7  UNL     1      -3.547  -0.918   2.350  1.00  0.00    -0.221 OA
HETATM   20  C49 UNL     1      -2.963   3.756   0.787  1.00  0.00     0.003 C 
HETATM   21  C50 UNL     1      -1.262   2.469   1.940  1.00  0.00     0.003 C 
HETATM   22  C51 UNL     1      -2.258  -0.389  -1.646  1.00  0.00     0.000 C 
HETATM   23  C52 UNL     1       1.012   0.984   1.272  1.00  0.00     0.000 C 
HETATM   24  C53 UNL     1       2.639   1.238  -2.213  1.00  0.00     0.000 C 
ENDROOT
BRANCH   1  25
HETATM   25  C12 UNL     1       5.453  -0.623  -0.213  1.00  0.00     0.100 C 
HETATM   26  C19 UNL     1       6.590  -0.432   0.791  1.00  0.00     0.030 C 
BRANCH  25  27
HETATM   27  O4  UNL     1       5.547  -1.920  -0.756  1.00  0.00    -0.334 OA
BRANCH  27  28
HETATM   28  C11 UNL     1       5.961  -2.891   0.186  1.00  0.00     0.270 C 
HETATM   29  C10 UNL     1       6.334  -4.217  -0.545  1.00  0.00     0.241 C 
HETATM   30  C9  UNL     1       6.117  -5.461   0.367  1.00  0.00     0.220 C 
HETATM   31  O19 UNL     1       7.680  -4.102  -0.988  1.00  0.00    -0.215 OA
HETATM   32  C8  UNL     1       6.238  -5.098   1.863  1.00  0.00     0.215 C 
HETATM   33  O20 UNL     1       6.934  -6.572   0.023  1.00  0.00    -0.218 OA
HETATM   34  C7  UNL     1       5.262  -3.938   2.238  1.00  0.00     0.180 C 
HETATM   35  O21 UNL     1       7.580  -4.740   2.158  1.00  0.00    -0.218 OA
HETATM   36  O3  UNL     1       4.910  -3.135   1.109  1.00  0.00    -0.326 OA
BRANCH  34  37
HETATM   37  C6  UNL     1       5.752  -3.004   3.356  1.00  0.00     0.177 C 
BRANCH  37  38
HETATM   38  O2  UNL     1       4.701  -2.123   3.686  1.00  0.00    -0.326 OA
BRANCH  38  39
HETATM   39  C4  UNL     1       3.861  -2.619   4.711  1.00  0.00     0.270 C 
HETATM   40  C3  UNL     1       2.539  -1.816   4.815  1.00  0.00     0.241 C 
HETATM   41  C2  UNL     1       2.768  -0.391   5.367  1.00  0.00     0.220 C 
HETATM   42  O22 UNL     1       1.889  -1.768   3.555  1.00  0.00    -0.215 OA
HETATM   43  C1  UNL     1       3.584  -0.480   6.674  1.00  0.00     0.215 C 
HETATM   44  O23 UNL     1       1.519   0.236   5.623  1.00  0.00    -0.218 OA
HETATM   45  C5  UNL     1       4.863  -1.320   6.479  1.00  0.00     0.181 C 
HETATM   46  O24 UNL     1       3.961   0.815   7.108  1.00  0.00    -0.218 OA
HETATM   47  O1  UNL     1       4.529  -2.609   5.971  1.00  0.00    -0.326 OA
ENDBRANCH  38  39
ENDBRANCH  37  38
ENDBRANCH  34  37
ENDBRANCH  27  28
ENDBRANCH  25  27
BRANCH  25  48
HETATM   48  C13 UNL     1       5.506   0.383  -1.361  1.00  0.00     0.053 C 
BRANCH  48  49
HETATM   49  C14 UNL     1       6.406  -0.068  -2.480  1.00  0.00    -0.026 C 
HETATM   50  C15 UNL     1       5.848  -0.414  -3.652  1.00  0.00    -0.001 C 
BRANCH  50  51
HETATM   51  C16 UNL     1       6.750  -0.865  -4.772  1.00  0.00     0.145 C 
HETATM   52  C17 UNL     1       7.850   0.150  -5.080  1.00  0.00     0.038 C 
HETATM   53  C18 UNL     1       5.967  -1.285  -6.016  1.00  0.00     0.038 C 
HETATM   54  O5  UNL     1       7.352  -2.016  -4.221  1.00  0.00    -0.222 OA
ENDBRANCH  50  51
ENDBRANCH  48  49
ENDBRANCH  25  48
ENDBRANCH   1  25
BRANCH  16  55
HETATM   55  O8  UNL     1      -4.777   1.707   1.100  1.00  0.00    -0.329 OA
BRANCH  55  56
HETATM   56  C37 UNL     1      -5.801   1.072   1.840  1.00  0.00     0.270 C 
HETATM   57  O9  UNL     1      -6.219  -0.143   1.229  1.00  0.00    -0.326 OA
HETATM   58  C38 UNL     1      -6.723  -0.047  -0.105  1.00  0.00     0.181 C 
HETATM   59  C39 UNL     1      -7.522   1.274  -0.334  1.00  0.00     0.181 C 
HETATM   60  C40 UNL     1      -8.139   1.811   0.973  1.00  0.00     0.217 C 
HETATM   61  C41 UNL     1      -7.016   2.027   2.025  1.00  0.00     0.241 C 
HETATM   62  O11 UNL     1      -8.815   3.037   0.748  1.00  0.00    -0.218 OA
HETATM   63  O10 UNL     1      -7.565   1.836   3.316  1.00  0.00    -0.215 OA
BRANCH  58  64
HETATM   64  C48 UNL     1      -7.528  -1.336  -0.322  1.00  0.00     0.214 C 
HETATM   65  O18 UNL     1      -6.637  -2.428  -0.264  1.00  0.00    -0.218 OA
ENDBRANCH  58  64
BRANCH  59  66
HETATM   66  O12 UNL     1      -8.512   1.088  -1.328  1.00  0.00    -0.326 OA
BRANCH  66  67
HETATM   67  C42 UNL     1      -7.979   0.986  -2.635  1.00  0.00     0.270 C 
HETATM   68  C43 UNL     1      -9.053   0.592  -3.686  1.00  0.00     0.241 C 
HETATM   69  C44 UNL     1     -10.059   1.729  -3.988  1.00  0.00     0.220 C 
HETATM   70  O17 UNL     1      -9.715  -0.609  -3.322  1.00  0.00    -0.215 OA
HETATM   71  C45 UNL     1      -9.256   3.014  -4.299  1.00  0.00     0.215 C 
HETATM   72  O16 UNL     1     -10.928   1.938  -2.883  1.00  0.00    -0.218 OA
HETATM   73  C46 UNL     1      -8.203   3.328  -3.209  1.00  0.00     0.184 C 
HETATM   74  O15 UNL     1     -10.121   4.123  -4.473  1.00  0.00    -0.218 OA
HETATM   75  O13 UNL     1      -7.344   2.201  -3.031  1.00  0.00    -0.326 OA
BRANCH  73  76
HETATM   76  C47 UNL     1      -7.299   4.508  -3.580  1.00  0.00     0.214 C 
HETATM   77  O14 UNL     1      -6.438   4.764  -2.494  1.00  0.00    -0.218 OA
ENDBRANCH  73  76
ENDBRANCH  66  67
ENDBRANCH  59  66
ENDBRANCH  55  56
ENDBRANCH  16  55
TORSDOF 15
