REMARK  4 active torsions:
REMARK  status: ('A' for Active; 'I' for Inactive)
REMARK    1  A    between atoms: C1_1  and  O1_10 
REMARK    2  A    between atoms: C4_4  and  C7_7 
REMARK    3  A    between atoms: C7_7  and  C8_8 
REMARK    4  A    between atoms: O1_10  and  C10_11 
ROOT
HETATM    1  C1  UNL     1      -0.713  -1.171  -0.664  1.00  0.00     0.103 A 
HETATM    2  C2  UNL     1      -0.736  -0.077  -1.548  1.00  0.00     0.025 A 
HETATM    3  C3  UNL     1      -0.276   1.182  -1.129  1.00  0.00    -0.002 A 
HETATM    4  C4  UNL     1       0.211   1.353   0.179  1.00  0.00    -0.018 A 
HETATM    5  C5  UNL     1       0.235   0.262   1.066  1.00  0.00    -0.002 A 
HETATM    6  C6  UNL     1      -0.226  -0.997   0.644  1.00  0.00     0.025 A 
ENDROOT
BRANCH   1   7
HETATM    7  O1  UNL     1      -1.145  -2.351  -1.058  1.00  0.00    -0.276 OA
BRANCH   7   8
HETATM    8  C10 UNL     1      -1.810  -3.116  -0.197  1.00  0.00     0.277 C 
HETATM    9  C11 UNL     1      -1.873  -4.577  -0.553  1.00  0.00     0.107 C 
HETATM   10  O2  UNL     1      -2.336  -2.697   0.808  1.00  0.00    -0.264 OA
ENDBRANCH   7   8
ENDBRANCH   1   7
BRANCH   4  11
HETATM   11  C7  UNL     1       0.698   2.684   0.624  1.00  0.00     0.052 C 
BRANCH  11  12
HETATM   12  C8  UNL     1       2.201   2.767   0.624  1.00  0.00    -0.021 C 
HETATM   13  C9  UNL     1       2.776   3.980   0.624  1.00  0.00    -0.005 C 
ENDBRANCH  11  12
ENDBRANCH   4  11
TORSDOF 4
