REMARK  0 active torsions:
REMARK  status: ('A' for Active; 'I' for Inactive)
ROOT
HETATM    1  C1  UNL     1       4.463   0.575   0.301  1.00  0.00     0.000 A 
HETATM    2  C2  UNL     1       4.570  -0.767  -0.131  1.00  0.00     0.002 A 
HETATM    3  C3  UNL     1       3.408  -1.523  -0.408  1.00  0.00     0.019 A 
HETATM    4  C4  UNL     1       2.121  -0.947  -0.258  1.00  0.00     0.088 A 
HETATM    5  C5  UNL     1       2.021   0.422   0.185  1.00  0.00     0.074 A 
HETATM    6  C6  UNL     1       3.193   1.170   0.461  1.00  0.00     0.006 A 
HETATM    7  C7  UNL     1       0.676   1.057   0.357  1.00  0.00     0.267 A 
HETATM    8  N1  UNL     1      -0.354   0.157   0.037  1.00  0.00    -0.257 N 
HETATM    9  C8  UNL     1      -0.158  -1.189  -0.401  1.00  0.00     0.190 A 
HETATM   10  N2  UNL     1       1.019  -1.730  -0.545  1.00  0.00    -0.225 NA
HETATM   11  C9  UNL     1      -1.475  -1.820  -0.641  1.00  0.00     0.231 A 
HETATM   12  C10 UNL     1      -2.416  -0.756  -0.313  1.00  0.00     0.058 A 
HETATM   13  C11 UNL     1      -1.811   0.434   0.094  1.00  0.00     0.071 A 
HETATM   14  C12 UNL     1      -2.533   1.592   0.459  1.00  0.00     0.018 A 
HETATM   15  C13 UNL     1      -3.947   1.526   0.408  1.00  0.00     0.002 A 
HETATM   16  C14 UNL     1      -4.594   0.328   0.000  1.00  0.00     0.000 A 
HETATM   17  C15 UNL     1      -3.832  -0.812  -0.361  1.00  0.00     0.005 A 
HETATM   18  O1  UNL     1      -1.740  -2.937  -1.018  1.00  0.00    -0.283 OA
HETATM   19  O2  UNL     1       0.420   2.184   0.717  1.00  0.00    -0.267 OA
ENDROOT
TORSDOF 0
