REMARK  19 active torsions:
REMARK  status: ('A' for Active; 'I' for Inactive)
REMARK    1  A    between atoms: O1_1  and  C1_2 
REMARK    2  A    between atoms: O1_1  and  C19_21 
REMARK    3  A    between atoms: C1_2  and  C2_3 
REMARK    4  A    between atoms: C2_3  and  C3_4 
REMARK    5  A    between atoms: C3_4  and  C4_5 
REMARK    6  A    between atoms: C4_5  and  C5_6 
REMARK    7  A    between atoms: C5_6  and  C6_7 
REMARK    8  A    between atoms: C6_7  and  C7_8 
REMARK    9  A    between atoms: C7_8  and  C8_9 
REMARK   10  A    between atoms: C8_9  and  C9_10 
REMARK   11  A    between atoms: C10_11  and  C11_12 
REMARK   12  A    between atoms: C11_12  and  C12_13 
REMARK   13  A    between atoms: C12_13  and  C13_14 
REMARK   14  A    between atoms: C13_14  and  C14_15 
REMARK   15  A    between atoms: C14_15  and  C15_16 
REMARK   16  A    between atoms: C15_16  and  C16_17 
REMARK   17  A    between atoms: C16_17  and  C17_18 
REMARK   18  A    between atoms: C19_21  and  C20_22 
REMARK   19  A    between atoms: C20_22  and  C21_23 
ROOT
HETATM    1  C19 UNL     1       4.785  -0.670   4.178  1.00  0.00     0.156 C 
ENDROOT
BRANCH   1   2
HETATM    2  O1  UNL     1       4.197  -0.670   2.885  1.00  0.00    -0.301 OA
BRANCH   2   3
HETATM    3  C1  UNL     1       4.865  -1.432   2.025  1.00  0.00     0.272 C 
HETATM    4  O2  UNL     1       5.869  -2.045   2.307  1.00  0.00    -0.264 OA
BRANCH   3   5
HETATM    5  C2  UNL     1       4.287  -1.490   0.637  1.00  0.00     0.096 C 
BRANCH   5   6
HETATM    6  C3  UNL     1       4.736  -0.314  -0.232  1.00  0.00     0.010 C 
BRANCH   6   7
HETATM    7  C4  UNL     1       4.156  -0.369  -1.647  1.00  0.00     0.001 C 
BRANCH   7   8
HETATM    8  C5  UNL     1       4.605   0.807  -2.514  1.00  0.00     0.000 C 
BRANCH   8   9
HETATM    9  C6  UNL     1       3.992   0.773  -3.914  1.00  0.00     0.000 C 
BRANCH   9  10
HETATM   10  C7  UNL     1       2.809   1.730  -4.061  1.00  0.00     0.005 C 
BRANCH  10  11
HETATM   11  C8  UNL     1       1.611   1.326  -3.201  1.00  0.00     0.026 C 
BRANCH  11  12
HETATM   12  C9  UNL     1       0.406   2.195  -3.447  1.00  0.00    -0.031 C 
HETATM   13  C10 UNL     1      -0.768   1.832  -2.904  1.00  0.00    -0.031 C 
BRANCH  13  14
HETATM   14  C11 UNL     1      -0.818   0.576  -2.076  1.00  0.00     0.026 C 
BRANCH  14  15
HETATM   15  C12 UNL     1      -1.184  -0.654  -2.906  1.00  0.00     0.005 C 
BRANCH  15  16
HETATM   16  C13 UNL     1      -2.649  -0.658  -3.344  1.00  0.00     0.000 C 
BRANCH  16  17
HETATM   17  C14 UNL     1      -2.856  -0.020  -4.717  1.00  0.00     0.000 C 
BRANCH  17  18
HETATM   18  C15 UNL     1      -4.315  -0.053  -5.170  1.00  0.00     0.000 C 
BRANCH  18  19
HETATM   19  C16 UNL     1      -4.522   0.586  -6.543  1.00  0.00     0.000 C 
BRANCH  19  20
HETATM   20  C17 UNL     1      -5.981   0.553  -6.996  1.00  0.00     0.000 C 
HETATM   21  C18 UNL     1      -6.188   1.191  -8.371  1.00  0.00     0.000 C 
ENDBRANCH  19  20
ENDBRANCH  18  19
ENDBRANCH  17  18
ENDBRANCH  16  17
ENDBRANCH  15  16
ENDBRANCH  14  15
ENDBRANCH  13  14
ENDBRANCH  11  12
ENDBRANCH  10  11
ENDBRANCH   9  10
ENDBRANCH   8   9
ENDBRANCH   7   8
ENDBRANCH   6   7
ENDBRANCH   5   6
ENDBRANCH   3   5
ENDBRANCH   2   3
ENDBRANCH   1   2
BRANCH   1  22
HETATM   22  C20 UNL     1       3.965   0.223   5.111  1.00  0.00     0.058 C 
HETATM   23  C36 UNL     1       4.545   0.289   6.524  1.00  0.00     0.007 C 
BRANCH  22  24
HETATM   24  C21 UNL     1       2.498  -0.137   5.107  1.00  0.00     0.047 A 
HETATM   25  C22 UNL     1       1.525   0.842   4.576  1.00  0.00     0.194 A 
HETATM   26  C23 UNL     1       0.084   0.463   4.566  1.00  0.00     0.042 A 
HETATM   27  O5  UNL     1       1.988   1.891   4.186  1.00  0.00    -0.287 OA
HETATM   28  C24 UNL     1      -0.854   1.387   4.049  1.00  0.00     0.003 A 
HETATM   29  C32 UNL     1      -0.346  -0.803   5.065  1.00  0.00     0.044 A 
HETATM   30  C25 UNL     1      -2.223   1.074   4.016  1.00  0.00    -0.000 A 
HETATM   31  C26 UNL     1      -2.686  -0.176   4.500  1.00  0.00    -0.004 A 
HETATM   32  C27 UNL     1      -4.078  -0.473   4.455  1.00  0.00    -0.022 A 
HETATM   33  C31 UNL     1      -1.748  -1.131   5.029  1.00  0.00     0.003 A 
HETATM   34  C28 UNL     1      -4.547  -1.717   4.932  1.00  0.00    -0.004 A 
HETATM   35  C35 UNL     1      -5.068   0.482   3.920  1.00  0.00     0.031 C 
HETATM   36  C29 UNL     1      -3.643  -2.664   5.449  1.00  0.00    -0.000 A 
HETATM   37  C30 UNL     1      -2.260  -2.379   5.498  1.00  0.00     0.000 A 
HETATM   38  C33 UNL     1       0.693  -1.750   5.613  1.00  0.00     0.221 A 
HETATM   39  C34 UNL     1       2.115  -1.336   5.588  1.00  0.00     0.169 A 
HETATM   40  O4  UNL     1       0.521  -2.848   6.092  1.00  0.00    -0.284 OA
HETATM   41  O3  UNL     1       3.039  -2.178   6.055  1.00  0.00    -0.187 OA
ENDBRANCH  22  24
ENDBRANCH   1  22
TORSDOF 19
