REMARK  10 active torsions:
REMARK  status: ('A' for Active; 'I' for Inactive)
REMARK    1  A    between atoms: C2_2  and  C3_3 
REMARK    2  A    between atoms: C3_3  and  S1_4 
REMARK    3  A    between atoms: S1_4  and  C4_5 
REMARK    4  A    between atoms: C4_5  and  C5_6 
REMARK    5  A    between atoms: C5_6  and  N1_7 
REMARK    6  A    between atoms: C5_6  and  C11_17 
REMARK       I    between atoms: N1_7  and  C6_8 
REMARK    7  A    between atoms: C6_8  and  C7_9 
REMARK    8  A    between atoms: C7_9  and  C8_10 
REMARK    9  A    between atoms: C8_10  and  C9_11 
REMARK   10  A    between atoms: C9_11  and  C10_13 
ROOT
HETATM    1  N1  UNL     1       0.100   0.602  -0.711  1.00  0.00    -0.228 NA
HETATM    2  C6  UNL     1       0.791  -0.578  -0.711  1.00  0.00     0.252 C 
HETATM    3  O3  UNL     1       1.998  -0.578  -0.711  1.00  0.00    -0.271 OA
ENDROOT
BRANCH   1   4
HETATM    4  C5  UNL     1       0.842   1.871  -0.711  1.00  0.00     0.203 C 
BRANCH   4   5
HETATM    5  C4  UNL     1      -0.033   3.016  -0.197  1.00  0.00     0.093 C 
BRANCH   5   6
HETATM    6  S1  UNL     1      -0.566   2.709   1.510  1.00  0.00    -0.133 SA
BRANCH   6   7
HETATM    7  C3  UNL     1      -1.543   4.217   1.770  1.00  0.00     0.084 C 
BRANCH   7   8
HETATM    8  C2  UNL     1      -2.119   4.209   3.160  1.00  0.00    -0.015 C 
HETATM    9  C1  UNL     1      -2.592   5.361   3.664  1.00  0.00    -0.004 C 
ENDBRANCH   7   8
ENDBRANCH   6   7
ENDBRANCH   5   6
ENDBRANCH   4   5
BRANCH   4  10
HETATM   10  C11 UNL     1       1.436   2.164  -2.062  1.00  0.00     0.210 C 
HETATM   11  O4  UNL     1       0.777   2.682  -2.934  1.00  0.00    -0.646 OA
HETATM   12  O5  UNL     1       2.713   1.816  -2.205  1.00  0.00    -0.646 OA
ENDBRANCH   4  10
ENDBRANCH   1   4
BRANCH   2  13
HETATM   13  C7  UNL     1       0.016  -1.869  -0.711  1.00  0.00     0.092 C 
BRANCH  13  14
HETATM   14  C8  UNL     1       0.926  -3.096  -0.678  1.00  0.00     0.060 C 
BRANCH  14  15
HETATM   15  C9  UNL     1       0.147  -4.410  -0.713  1.00  0.00     0.388 C 
HETATM   16  N2  UNL     1      -0.662  -4.555   0.484  1.00  0.00     0.628 N 
BRANCH  15  17
HETATM   17  C10 UNL     1       1.045  -5.608  -0.881  1.00  0.00     0.224 C 
HETATM   18  O1  UNL     1       2.039  -5.738  -0.205  1.00  0.00    -0.646 OA
HETATM   19  O2  UNL     1       0.660  -6.479  -1.809  1.00  0.00    -0.646 OA
ENDBRANCH  15  17
ENDBRANCH  14  15
ENDBRANCH  13  14
ENDBRANCH   2  13
TORSDOF 10
