REMARK  7 active torsions:
REMARK  status: ('A' for Active; 'I' for Inactive)
REMARK    1  A    between atoms: C1_1  and  C2_2 
REMARK    2  A    between atoms: C2_2  and  C3_3 
REMARK    3  A    between atoms: C3_3  and  C4_4 
REMARK    4  A    between atoms: C4_4  and  C5_5 
REMARK    5  A    between atoms: C5_5  and  C6_6 
REMARK    6  A    between atoms: C6_6  and  C7_7 
REMARK    7  A    between atoms: C7_7  and  C8_8 
ROOT
HETATM    1  C5  UNL     1       0.503   0.586  -0.074  1.00  0.00     0.000 C 
ENDROOT
BRANCH   1   2
HETATM    2  C4  UNL     1      -0.408   1.814  -0.089  1.00  0.00     0.001 C 
BRANCH   2   3
HETATM    3  C3  UNL     1       0.373   3.129  -0.101  1.00  0.00     0.008 C 
BRANCH   3   4
HETATM    4  C2  UNL     1      -0.539   4.356  -0.118  1.00  0.00     0.072 C 
BRANCH   4   5
HETATM    5  C1  UNL     1       0.236   5.647  -0.118  1.00  0.00     0.207 C 
HETATM    6  O1  UNL     1       1.445   5.647  -0.118  1.00  0.00    -0.288 OA
ENDBRANCH   4   5
ENDBRANCH   3   4
ENDBRANCH   2   3
ENDBRANCH   1   2
BRANCH   1   7
HETATM    7  C6  UNL     1      -0.278  -0.728  -0.063  1.00  0.00     0.000 C 
BRANCH   7   8
HETATM    8  C7  UNL     1       0.634  -1.956  -0.040  1.00  0.00     0.000 C 
BRANCH   8   9
HETATM    9  C8  UNL     1      -0.139  -3.267  -0.179  1.00  0.00     0.000 C 
HETATM   10  C9  UNL     1       0.771  -4.461  -0.467  1.00  0.00     0.000 C 
HETATM   11  C10 UNL     1      -1.089  -3.519   0.993  1.00  0.00     0.000 C 
ENDBRANCH   8   9
ENDBRANCH   7   8
ENDBRANCH   1   7
TORSDOF 7
