REMARK  4 active torsions:
REMARK  status: ('A' for Active; 'I' for Inactive)
REMARK    1  A    between atoms: C2_2  and  O5_35 
REMARK    2  A    between atoms: C22_24  and  C23_25 
REMARK    3  A    between atoms: O5_35  and  C31_36 
REMARK    4  A    between atoms: C35_43  and  C36_45 
ROOT
HETATM    1  C1  UNL     1       2.742   2.006   1.156  1.00  0.00     0.030 C 
HETATM    2  C2  UNL     1       3.805   0.895   1.121  1.00  0.00     0.118 C 
HETATM    3  C3  UNL     1       3.201  -0.498   1.428  1.00  0.00     0.025 C 
HETATM    4  C4  UNL     1       2.000  -0.783   0.490  1.00  0.00     0.002 C 
HETATM    5  C5  UNL     1       0.941   0.340   0.568  1.00  0.00     0.000 A 
HETATM    6  C6  UNL     1       1.537   1.721   0.244  1.00  0.00     0.003 C 
HETATM    7  C7  UNL     1      -0.541   0.023   0.260  1.00  0.00     0.000 A 
HETATM    8  C8  UNL     1      -0.984  -1.432  -0.078  1.00  0.00     0.003 C 
HETATM    9  C9  UNL     1       0.230  -2.377  -0.275  1.00  0.00     0.000 C 
HETATM   10  C10 UNL     1       1.365  -2.164   0.715  1.00  0.00     0.000 C 
HETATM   11  C11 UNL     1      -2.047  -1.674  -1.232  1.00  0.00     0.033 C 
HETATM   12  C12 UNL     1      -2.779  -0.410  -1.828  1.00  0.00     0.007 C 
HETATM   13  C13 UNL     1      -1.980   0.881  -1.611  1.00  0.00     0.000 C 
HETATM   14  C14 UNL     1      -1.523   1.111  -0.183  1.00  0.00     0.000 C 
HETATM   15  C15 UNL     1      -4.229  -0.430  -1.254  1.00  0.00     0.054 C 
HETATM   16  C16 UNL     1      -4.166  -1.438  -0.099  1.00  0.00     0.215 C 
HETATM   17  C17 UNL     1      -3.205  -2.522  -0.605  1.00  0.00     0.203 C 
HETATM   18  O1  UNL     1      -3.861  -3.338  -1.568  1.00  0.00    -0.218 OA
HETATM   19  O2  UNL     1      -5.484  -1.824   0.217  1.00  0.00    -0.333 OA
HETATM   20  C18 UNL     1      -6.072  -0.730   0.883  1.00  0.00     0.147 C 
HETATM   21  C19 UNL     1      -6.313   0.395  -0.156  1.00  0.00     0.033 C 
HETATM   22  C20 UNL     1      -5.006   0.846  -0.867  1.00  0.00     0.007 C 
HETATM   23  C21 UNL     1      -5.293   1.684  -2.119  1.00  0.00     0.000 C 
HETATM   24  C22 UNL     1      -4.922  -0.363   1.830  1.00  0.00     0.173 C 
HETATM   25  O4  UNL     1      -3.781  -0.854   1.139  1.00  0.00    -0.330 OA
HETATM   26  C26 UNL     1      -3.010  -0.506  -3.348  1.00  0.00     0.000 C 
HETATM   27  C27 UNL     1      -1.428  -2.451  -2.416  1.00  0.00     0.003 C 
HETATM   28  C28 UNL     1      -0.072   0.277   1.688  1.00  0.00     0.000 A 
HETATM   29  C29 UNL     1       2.742  -0.527   2.893  1.00  0.00     0.002 C 
HETATM   30  C30 UNL     1       4.275  -1.586   1.268  1.00  0.00     0.002 C 
ENDROOT
BRANCH   2  31
HETATM   31  O5  UNL     1       4.418   0.900  -0.156  1.00  0.00    -0.332 OA
BRANCH  31  32
HETATM   32  C31 UNL     1       5.809   0.645  -0.107  1.00  0.00     0.270 C 
HETATM   33  C32 UNL     1       6.352  -0.125  -1.359  1.00  0.00     0.241 C 
HETATM   34  O6  UNL     1       5.361  -1.008  -1.875  1.00  0.00    -0.215 OA
HETATM   35  C33 UNL     1       6.943   0.822  -2.445  1.00  0.00     0.220 C 
HETATM   36  O7  UNL     1       6.863   0.279  -3.756  1.00  0.00    -0.218 OA
HETATM   37  C34 UNL     1       6.276   2.211  -2.367  1.00  0.00     0.215 C 
HETATM   38  O8  UNL     1       6.848   3.100  -3.312  1.00  0.00    -0.218 OA
HETATM   39  C35 UNL     1       6.414   2.840  -0.951  1.00  0.00     0.184 C 
HETATM   40  O9  UNL     1       6.547   1.850   0.074  1.00  0.00    -0.326 OA
BRANCH  39  41
HETATM   41  C36 UNL     1       5.238   3.760  -0.598  1.00  0.00     0.214 C 
HETATM   42  O10 UNL     1       5.393   4.180   0.738  1.00  0.00    -0.218 OA
ENDBRANCH  39  41
ENDBRANCH  31  32
ENDBRANCH   2  31
BRANCH  24  43
HETATM   43  C23 UNL     1      -5.025  -1.102   3.160  1.00  0.00     0.154 C 
HETATM   44  O3  UNL     1      -5.199  -2.477   2.899  1.00  0.00    -0.223 OA
HETATM   45  C24 UNL     1      -3.725  -0.926   3.944  1.00  0.00     0.036 C 
HETATM   46  C25 UNL     1      -6.248  -0.602   3.928  1.00  0.00     0.036 C 
ENDBRANCH  24  43
TORSDOF 4
