REMARK  4 active torsions:
REMARK  status: ('A' for Active; 'I' for Inactive)
REMARK    1  A    between atoms: C1_1  and  C4_4 
REMARK    2  A    between atoms: C4_4  and  C5_5 
REMARK    3  A    between atoms: C7_8  and  C19_28 
REMARK    4  A    between atoms: C19_28  and  C20_29 
ROOT
HETATM    1  C5  UNL     1      -2.170   0.578  -0.656  1.00  0.00     0.186 C 
HETATM    2  N1  UNL     1      -1.268  -0.584  -0.855  1.00  0.00    -0.229 NA
HETATM    3  C6  UNL     1      -0.225  -0.883  -0.006  1.00  0.00     0.275 C 
HETATM    4  C7  UNL     1       0.719  -2.020  -0.352  1.00  0.00     0.191 C 
HETATM    5  N2  UNL     1       2.078  -1.494  -0.627  1.00  0.00    -0.228 NA
HETATM    6  C8  UNL     1       2.316  -0.592  -1.645  1.00  0.00     0.272 C 
HETATM    7  C9  UNL     1       3.705  -0.020  -1.887  1.00  0.00     0.165 C 
HETATM    8  N3  UNL     1       4.371   0.482  -0.686  1.00  0.00    -0.312 N 
HETATM    9  C10 UNL     1       3.945   1.590   0.094  1.00  0.00     0.259 C 
HETATM   10  C11 UNL     1       2.680   2.297  -0.367  1.00  0.00     0.216 C 
HETATM   11  N4  UNL     1       2.336   3.498   0.438  1.00  0.00    -0.226 NA
HETATM   12  C12 UNL     1       1.144   4.178   0.305  1.00  0.00     0.274 C 
HETATM   13  C13 UNL     1       0.090   3.756  -0.707  1.00  0.00     0.186 C 
HETATM   14  N5  UNL     1      -0.658   2.553  -0.260  1.00  0.00    -0.229 NA
HETATM   15  C14 UNL     1      -1.477   1.850  -1.117  1.00  0.00     0.274 C 
HETATM   16  O1  UNL     1      -1.643   2.238  -2.250  1.00  0.00    -0.268 OA
HETATM   17  C15 UNL     1      -0.891   4.897  -1.008  1.00  0.00     0.037 C 
HETATM   18  O2  UNL     1       0.941   5.141   1.012  1.00  0.00    -0.268 OA
HETATM   19  O3  UNL     1       4.576   1.930   1.070  1.00  0.00    -0.270 OA
HETATM   20  C16 UNL     1       5.563  -0.281  -0.344  1.00  0.00     0.105 C 
HETATM   21  C17 UNL     1       5.502  -1.522  -1.234  1.00  0.00     0.027 C 
HETATM   22  C18 UNL     1       4.691  -1.051  -2.453  1.00  0.00     0.034 C 
HETATM   23  O4  UNL     1       1.408  -0.238  -2.363  1.00  0.00    -0.269 OA
HETATM   24  O6  UNL     1      -0.045  -0.236   1.002  1.00  0.00    -0.268 OA
ENDROOT
BRANCH   4  25
HETATM   25  C19 UNL     1       0.758  -3.053   0.779  1.00  0.00     0.060 C 
BRANCH  25  26
HETATM   26  C20 UNL     1      -0.572  -3.678   0.996  1.00  0.00    -0.020 A 
HETATM   27  C21 UNL     1      -1.024  -4.690   0.129  1.00  0.00    -0.002 A 
HETATM   28  C22 UNL     1      -2.283  -5.279   0.336  1.00  0.00     0.027 A 
HETATM   29  C23 UNL     1      -3.092  -4.865   1.406  1.00  0.00     0.131 A 
HETATM   30  C24 UNL     1      -2.637  -3.854   2.272  1.00  0.00     0.027 A 
HETATM   31  O5  UNL     1      -4.272  -5.420   1.600  1.00  0.00    -0.190 OA
HETATM   32  C25 UNL     1      -1.379  -3.262   2.068  1.00  0.00    -0.002 A 
ENDBRANCH  25  26
ENDBRANCH   4  25
BRANCH   1  33
HETATM   33  C4  UNL     1      -2.734   0.637   0.770  1.00  0.00     0.034 C 
BRANCH  33  34
HETATM   34  C1  UNL     1      -3.873   1.648   0.912  1.00  0.00     0.002 C 
HETATM   35  C2  UNL     1      -5.168   1.178   0.250  1.00  0.00     0.000 C 
HETATM   36  C3  UNL     1      -4.082   2.102   2.357  1.00  0.00     0.000 C 
ENDBRANCH  33  34
ENDBRANCH   1  33
TORSDOF 4
