REMARK  5 active torsions:
REMARK  status: ('A' for Active; 'I' for Inactive)
REMARK    1  A    between atoms: C7_9  and  O3_10 
REMARK    2  A    between atoms: O3_10  and  C8_11 
REMARK    3  A    between atoms: C9_12  and  O4_13 
REMARK    4  A    between atoms: O4_13  and  C10_14 
REMARK    5  A    between atoms: C18_28  and  C19_30 
ROOT
HETATM    1  C8  UNL     1      -0.422   0.740   0.857  1.00  0.00     0.271 C 
HETATM    2  C9  UNL     1      -1.846   0.166   0.686  1.00  0.00     0.207 C 
HETATM    3  C16 UNL     1      -2.892   1.041   1.410  1.00  0.00     0.217 C 
HETATM    4  O9  UNL     1      -4.152   0.391   1.396  1.00  0.00    -0.218 OA
HETATM    5  C17 UNL     1      -2.443   1.287   2.867  1.00  0.00     0.215 C 
HETATM    6  O10 UNL     1      -3.291   2.246   3.475  1.00  0.00    -0.218 OA
HETATM    7  C18 UNL     1      -0.988   1.805   2.930  1.00  0.00     0.184 C 
HETATM    8  O11 UNL     1      -0.135   0.900   2.240  1.00  0.00    -0.326 OA
ENDROOT
BRANCH   1   9
HETATM    9  O3  UNL     1       0.533  -0.147   0.291  1.00  0.00    -0.304 OA
BRANCH   9  10
HETATM   10  C7  UNL     1       1.819   0.228   0.295  1.00  0.00     0.101 A 
HETATM   11  C6  UNL     1       2.168   1.547   0.670  1.00  0.00     0.052 A 
HETATM   12  C5  UNL     1       3.524   1.951   0.674  1.00  0.00     0.138 A 
HETATM   13  C4  UNL     1       4.533   1.025   0.301  1.00  0.00     0.087 A 
HETATM   14  O2  UNL     1       3.836   3.205   1.031  1.00  0.00    -0.190 OA
HETATM   15  C3  UNL     1       5.971   1.414   0.291  1.00  0.00     0.202 A 
HETATM   16  C21 UNL     1       4.184  -0.303  -0.074  1.00  0.00     0.107 A 
HETATM   17  C2  UNL     1       6.908   0.346  -0.115  1.00  0.00     0.069 A 
HETATM   18  O1  UNL     1       6.447   2.488   0.576  1.00  0.00    -0.286 OA
HETATM   19  C1  UNL     1       6.455  -0.881  -0.447  1.00  0.00     0.126 A 
HETATM   20  O13 UNL     1       5.141  -1.188  -0.428  1.00  0.00    -0.305 OA
HETATM   21  C20 UNL     1       2.824  -0.695  -0.078  1.00  0.00     0.049 A 
ENDBRANCH   9  10
ENDBRANCH   1   9
BRANCH   2  22
HETATM   22  O4  UNL     1      -2.141   0.101  -0.697  1.00  0.00    -0.324 OA
BRANCH  22  23
HETATM   23  C10 UNL     1      -2.828  -1.080  -1.066  1.00  0.00     0.270 C 
HETATM   24  C11 UNL     1      -3.465  -0.902  -2.469  1.00  0.00     0.241 C 
HETATM   25  O5  UNL     1      -4.410  -1.945  -2.660  1.00  0.00    -0.215 OA
HETATM   26  C12 UNL     1      -2.391  -0.922  -3.582  1.00  0.00     0.220 C 
HETATM   27  O6  UNL     1      -2.990  -0.899  -4.867  1.00  0.00    -0.218 OA
HETATM   28  C13 UNL     1      -1.467  -2.151  -3.416  1.00  0.00     0.212 C 
HETATM   29  O7  UNL     1      -0.385  -2.065  -4.326  1.00  0.00    -0.218 OA
HETATM   30  C14 UNL     1      -0.902  -2.231  -1.981  1.00  0.00     0.151 C 
HETATM   31  O8  UNL     1      -1.969  -2.221  -1.033  1.00  0.00    -0.329 OA
HETATM   32  C15 UNL     1      -0.103  -3.514  -1.727  1.00  0.00     0.035 C 
ENDBRANCH  22  23
ENDBRANCH   2  22
BRANCH   7  33
HETATM   33  C19 UNL     1      -0.451   1.914   4.359  1.00  0.00     0.214 C 
HETATM   34  O12 UNL     1       0.809   2.543   4.313  1.00  0.00    -0.218 OA
ENDBRANCH   7  33
TORSDOF 5
