REMARK  0 active torsions:
REMARK  status: ('A' for Active; 'I' for Inactive)
ROOT
HETATM    1  C1  UNL     1       1.541  -1.031   0.410  1.00  0.00     0.105 A 
HETATM    2  C2  UNL     1       0.832   0.164   0.053  1.00  0.00     0.025 A 
HETATM    3  C3  UNL     1      -0.656   0.094  -0.088  1.00  0.00     0.033 A 
HETATM    4  C4  UNL     1      -1.281  -1.168   0.148  1.00  0.00     0.068 A 
HETATM    5  C5  UNL     1      -0.426  -2.326   0.519  1.00  0.00     0.300 A 
HETATM    6  O1  UNL     1       0.902  -2.201   0.625  1.00  0.00    -0.273 OA
HETATM    7  O2  UNL     1      -0.873  -3.428   0.742  1.00  0.00    -0.259 OA
HETATM    8  C6  UNL     1      -2.684  -1.328   0.037  1.00  0.00     0.033 A 
HETATM    9  C7  UNL     1      -3.490  -0.229  -0.316  1.00  0.00     0.133 A 
HETATM   10  C8  UNL     1      -2.896   1.029  -0.557  1.00  0.00     0.055 A 
HETATM   11  C9  UNL     1      -1.496   1.201  -0.447  1.00  0.00     0.133 A 
HETATM   12  O3  UNL     1      -1.025   2.430  -0.693  1.00  0.00    -0.190 OA
HETATM   13  O4  UNL     1      -4.816  -0.375  -0.424  1.00  0.00    -0.190 OA
HETATM   14  C10 UNL     1       1.588   1.357  -0.147  1.00  0.00     0.004 A 
HETATM   15  C11 UNL     1       2.994   1.357  -0.004  1.00  0.00     0.028 A 
HETATM   16  C12 UNL     1       3.676   0.174   0.342  1.00  0.00     0.133 A 
HETATM   17  C13 UNL     1       2.949  -1.018   0.549  1.00  0.00     0.052 A 
HETATM   18  O5  UNL     1       5.010   0.178   0.473  1.00  0.00    -0.190 OA
ENDROOT
TORSDOF 0
