REMARK  6 active torsions:
REMARK  status: ('A' for Active; 'I' for Inactive)
REMARK    1  A    between atoms: C7_8  and  C15_17 
REMARK    2  A    between atoms: C8_9  and  C10_12 
REMARK    3  A    between atoms: C10_12  and  C11_13 
REMARK    4  A    between atoms: C21_25  and  C25_29 
REMARK    5  A    between atoms: C25_29  and  C26_30 
REMARK    6  A    between atoms: C26_30  and  C27_31 
ROOT
HETATM    1  C1  UNL     1       6.328  -1.316   4.701  1.00  0.00     0.135 A 
HETATM    2  C2  UNL     1       7.223  -1.660   3.660  1.00  0.00     0.055 A 
HETATM    3  C3  UNL     1       6.834  -1.508   2.309  1.00  0.00     0.138 A 
HETATM    4  C4  UNL     1       5.539  -1.010   2.004  1.00  0.00     0.087 A 
HETATM    5  C5  UNL     1       4.645  -0.666   3.045  1.00  0.00     0.107 A 
HETATM    6  C6  UNL     1       5.039  -0.820   4.395  1.00  0.00     0.052 A 
HETATM    7  O1  UNL     1       3.416  -0.190   2.752  1.00  0.00    -0.307 OA
HETATM    8  C7  UNL     1       2.934   0.000   1.504  1.00  0.00     0.101 A 
HETATM    9  C8  UNL     1       3.713  -0.301   0.428  1.00  0.00     0.044 A 
HETATM   10  C9  UNL     1       5.088  -0.834   0.600  1.00  0.00     0.198 A 
HETATM   11  O2  UNL     1       5.721  -1.080  -0.402  1.00  0.00    -0.287 OA
HETATM   12  O5  UNL     1       7.694  -1.838   1.334  1.00  0.00    -0.190 OA
HETATM   13  O6  UNL     1       6.701  -1.463   5.981  1.00  0.00    -0.190 OA
ENDROOT
BRANCH   8  14
HETATM   14  C15 UNL     1       1.578   0.525   1.227  1.00  0.00     0.048 A 
HETATM   15  C16 UNL     1       0.455  -0.338   1.285  1.00  0.00     0.135 A 
HETATM   16  O3  UNL     1       0.613  -1.635   1.588  1.00  0.00    -0.190 OA
HETATM   17  C17 UNL     1      -0.836   0.185   1.018  1.00  0.00     0.048 A 
HETATM   18  C18 UNL     1      -1.006   1.559   0.701  1.00  0.00     0.096 A 
HETATM   19  C23 UNL     1      -2.033  -0.688   1.051  1.00  0.00     0.002 C 
HETATM   20  C19 UNL     1       0.123   2.408   0.639  1.00  0.00     0.024 A 
HETATM   21  O4  UNL     1      -2.234   2.059   0.441  1.00  0.00    -0.332 OA
HETATM   22  C20 UNL     1       1.414   1.895   0.902  1.00  0.00     0.006 A 
HETATM   23  C21 UNL     1      -3.436   1.363   0.820  1.00  0.00     0.117 C 
HETATM   24  C22 UNL     1      -3.258  -0.143   0.918  1.00  0.00     0.001 C 
HETATM   25  C24 UNL     1      -3.865   1.891   2.191  1.00  0.00     0.035 C 
BRANCH  23  26
HETATM   26  C25 UNL     1      -4.506   1.695  -0.221  1.00  0.00     0.037 C 
BRANCH  26  27
HETATM   27  C26 UNL     1      -4.092   1.299  -1.639  1.00  0.00     0.028 C 
BRANCH  27  28
HETATM   28  C27 UNL     1      -5.150   1.625  -2.658  1.00  0.00    -0.035 C 
HETATM   29  C28 UNL     1      -6.043   0.676  -2.980  1.00  0.00    -0.048 C 
HETATM   30  C29 UNL     1      -6.000  -0.635  -2.240  1.00  0.00     0.026 C 
HETATM   31  C30 UNL     1      -7.043   0.969  -4.068  1.00  0.00     0.026 C 
ENDBRANCH  27  28
ENDBRANCH  26  27
ENDBRANCH  23  26
ENDBRANCH   8  14
BRANCH   9  32
HETATM   32  C10 UNL     1       3.211  -0.104  -0.988  1.00  0.00     0.057 C 
BRANCH  32  33
HETATM   33  C11 UNL     1       2.359  -1.270  -1.412  1.00  0.00    -0.030 C 
HETATM   34  C12 UNL     1       1.645  -1.164  -2.545  1.00  0.00    -0.048 C 
HETATM   35  C13 UNL     1       0.738  -2.227  -3.104  1.00  0.00     0.026 C 
HETATM   36  C14 UNL     1       1.742   0.113  -3.338  1.00  0.00     0.026 C 
ENDBRANCH  32  33
ENDBRANCH   9  32
TORSDOF 6
