REMARK  11 active torsions:
REMARK  status: ('A' for Active; 'I' for Inactive)
REMARK    1  A    between atoms: C2_2  and  O7_23 
REMARK    2  A    between atoms: C2_2  and  C27_37 
REMARK    3  A    between atoms: C6_6  and  O1_7 
REMARK    4  A    between atoms: O1_7  and  C7_8 
REMARK    5  A    between atoms: C7_8  and  C8_9 
REMARK    6  A    between atoms: C8_9  and  C9_10 
REMARK    7  A    between atoms: C10_11  and  C11_12 
REMARK    8  A    between atoms: O7_23  and  C17_24 
REMARK    9  A    between atoms: C17_24  and  C18_25 
REMARK   10  A    between atoms: C18_25  and  C19_26 
REMARK   11  A    between atoms: C20_27  and  C21_28 
ROOT
HETATM    1  C1  UNL     1      -0.914   0.842   1.344  1.00  0.00     0.070 C 
HETATM    2  C2  UNL     1      -0.141   1.934   0.572  1.00  0.00     0.176 C 
HETATM    3  C3  UNL     1      -0.783   3.316   0.803  1.00  0.00     0.074 C 
HETATM    4  C4  UNL     1      -2.279   3.326   0.432  1.00  0.00     0.188 C 
HETATM    5  C5  UNL     1      -3.063   2.221   1.182  1.00  0.00     0.209 C 
HETATM    6  C6  UNL     1      -2.412   0.830   0.977  1.00  0.00     0.152 C 
HETATM    7  O5  UNL     1      -4.400   2.189   0.713  1.00  0.00    -0.218 OA
HETATM    8  O6  UNL     1      -2.807   4.602   0.750  1.00  0.00    -0.221 OA
ENDROOT
BRANCH   2   9
HETATM    9  O7  UNL     1       1.182   1.973   1.076  1.00  0.00    -0.340 OA
BRANCH   9  10
HETATM   10  C17 UNL     1       1.951   3.020   0.531  1.00  0.00     0.211 C 
BRANCH  10  11
HETATM   11  C18 UNL     1       3.406   2.783   0.836  1.00  0.00     0.203 C 
HETATM   12  O10 UNL     1       3.756   2.369   1.918  1.00  0.00    -0.289 OA
BRANCH  11  13
HETATM   13  C19 UNL     1       4.399   3.066  -0.207  1.00  0.00     0.040 C 
HETATM   14  C20 UNL     1       5.707   2.867   0.021  1.00  0.00     0.003 C 
BRANCH  14  15
HETATM   15  C21 UNL     1       6.680   3.170  -1.070  1.00  0.00     0.002 A 
HETATM   16  C22 UNL     1       6.291   3.047  -2.416  1.00  0.00     0.002 A 
HETATM   17  C23 UNL     1       7.207   3.332  -3.441  1.00  0.00     0.029 A 
HETATM   18  C24 UNL     1       8.516   3.742  -3.129  1.00  0.00     0.156 A 
HETATM   19  C25 UNL     1       8.906   3.867  -1.781  1.00  0.00     0.156 A 
HETATM   20  O9  UNL     1       9.369   4.008  -4.096  1.00  0.00    -0.188 OA
HETATM   21  C26 UNL     1       7.988   3.580  -0.756  1.00  0.00     0.029 A 
HETATM   22  O8  UNL     1      10.131   4.250  -1.479  1.00  0.00    -0.188 OA
ENDBRANCH  14  15
ENDBRANCH  11  13
ENDBRANCH  10  11
ENDBRANCH   9  10
ENDBRANCH   2   9
BRANCH   2  23
HETATM   23  C27 UNL     1      -0.045   1.607  -0.898  1.00  0.00     0.211 C 
HETATM   24  O11 UNL     1       0.266   0.500  -1.273  1.00  0.00    -0.646 OA
HETATM   25  O12 UNL     1      -0.324   2.615  -1.721  1.00  0.00    -0.646 OA
ENDBRANCH   2  23
BRANCH   6  26
HETATM   26  O1  UNL     1      -3.057  -0.139   1.785  1.00  0.00    -0.346 OA
BRANCH  26  27
HETATM   27  C7  UNL     1      -2.648  -1.457   1.502  1.00  0.00     0.211 C 
BRANCH  27  28
HETATM   28  C8  UNL     1      -3.647  -2.426   2.080  1.00  0.00     0.203 C 
HETATM   29  O4  UNL     1      -4.231  -2.178   3.109  1.00  0.00    -0.289 OA
BRANCH  28  30
HETATM   30  C9  UNL     1      -3.900  -3.682   1.367  1.00  0.00     0.040 C 
HETATM   31  C10 UNL     1      -4.785  -4.572   1.844  1.00  0.00     0.003 C 
BRANCH  31  32
HETATM   32  C11 UNL     1      -5.010  -5.838   1.082  1.00  0.00     0.002 A 
HETATM   33  C12 UNL     1      -4.846  -5.859  -0.314  1.00  0.00     0.002 A 
HETATM   34  C13 UNL     1      -5.059  -7.053  -1.027  1.00  0.00     0.029 A 
HETATM   35  C14 UNL     1      -5.436  -8.225  -0.350  1.00  0.00     0.156 A 
HETATM   36  C15 UNL     1      -5.600  -8.205   1.049  1.00  0.00     0.156 A 
HETATM   37  O3  UNL     1      -5.633  -9.340  -1.025  1.00  0.00    -0.188 OA
HETATM   38  C16 UNL     1      -5.387  -7.012   1.760  1.00  0.00     0.029 A 
HETATM   39  O2  UNL     1      -5.953  -9.301   1.691  1.00  0.00    -0.188 OA
ENDBRANCH  31  32
ENDBRANCH  28  30
ENDBRANCH  27  28
ENDBRANCH  26  27
ENDBRANCH   6  26
TORSDOF 11
