REMARK  4 active torsions:
REMARK  status: ('A' for Active; 'I' for Inactive)
REMARK    1  A    between atoms: C1_1  and  O5_19 
REMARK    2  A    between atoms: C4_4  and  C7_7 
REMARK    3  A    between atoms: C8_9  and  C9_10 
REMARK    4  A    between atoms: C11_12  and  O4_17 
ROOT
HETATM    1  C7  UNL     1      -0.473   0.221  -0.838  1.00  0.00     0.171 A 
HETATM    2  O1  UNL     1      -0.555   0.793   0.425  1.00  0.00    -0.343 OA
HETATM    3  C8  UNL     1       0.760   0.486   0.097  1.00  0.00     0.192 A 
ENDROOT
BRANCH   3   4
HETATM    4  C9  UNL     1       1.564   1.766  -0.020  1.00  0.00     0.113 A 
HETATM    5  C10 UNL     1       1.734   2.502   1.101  1.00  0.00     0.047 A 
HETATM    6  C11 UNL     1       2.502   3.752   1.058  1.00  0.00     0.101 A 
HETATM    7  C12 UNL     1       3.020   4.115  -0.125  1.00  0.00     0.093 A 
HETATM    8  C13 UNL     1       2.795   3.258  -1.309  1.00  0.00     0.302 A 
HETATM    9  O2  UNL     1       2.076   2.113  -1.227  1.00  0.00    -0.275 OA
HETATM   10  O3  UNL     1       3.279   3.623  -2.354  1.00  0.00    -0.259 OA
BRANCH   6  11
HETATM   11  O4  UNL     1       2.676   4.492   2.148  1.00  0.00    -0.328 OA
HETATM   12  C14 UNL     1       1.531   4.496   2.988  1.00  0.00     0.181 C 
ENDBRANCH   6  11
ENDBRANCH   3   4
BRANCH   1  13
HETATM   13  C4  UNL     1      -1.174  -1.105  -0.838  1.00  0.00     0.007 A 
HETATM   14  C3  UNL     1      -2.580  -1.158  -0.838  1.00  0.00     0.000 A 
HETATM   15  C2  UNL     1      -3.236  -2.400  -0.838  1.00  0.00     0.024 A 
HETATM   16  C1  UNL     1      -2.494  -3.594  -0.838  1.00  0.00     0.094 A 
HETATM   17  C6  UNL     1      -1.088  -3.539  -0.838  1.00  0.00     0.024 A 
HETATM   18  C5  UNL     1      -0.430  -2.297  -0.838  1.00  0.00     0.000 A 
BRANCH  16  19
HETATM   19  O5  UNL     1      -3.109  -4.758  -0.838  1.00  0.00    -0.328 OA
HETATM   20  C15 UNL     1      -2.314  -5.934  -0.838  1.00  0.00     0.181 C 
ENDBRANCH  16  19
ENDBRANCH   1  13
TORSDOF 4
