REMARK  1 active torsions:
REMARK  status: ('A' for Active; 'I' for Inactive)
REMARK    1  A    between atoms: C10_11  and  O1_17 
ROOT
HETATM    1  C1  UNL     1      -4.204   0.535  -0.046  1.00  0.00     0.000 A 
HETATM    2  C2  UNL     1      -3.970  -0.855   0.158  1.00  0.00     0.002 A 
HETATM    3  C3  UNL     1      -2.647  -1.356   0.280  1.00  0.00     0.018 A 
HETATM    4  C4  UNL     1      -1.577  -0.439   0.192  1.00  0.00     0.067 A 
HETATM    5  C5  UNL     1      -1.808   0.932  -0.006  1.00  0.00     0.018 A 
HETATM    6  C6  UNL     1      -3.119   1.447  -0.131  1.00  0.00     0.002 A 
HETATM    7  C7  UNL     1      -0.615   1.596  -0.048  1.00  0.00     0.021 A 
HETATM    8  C8  UNL     1       0.396   0.671   0.118  1.00  0.00     0.085 A 
HETATM    9  N1  UNL     1      -0.182  -0.567   0.262  1.00  0.00    -0.272 N 
HETATM   10  C9  UNL     1       0.677  -1.696   0.445  1.00  0.00     0.287 A 
HETATM   11  C10 UNL     1       2.155  -1.427   0.467  1.00  0.00     0.152 A 
HETATM   12  C11 UNL     1       2.653  -0.164   0.321  1.00  0.00     0.050 A 
HETATM   13  C12 UNL     1       1.752   1.021   0.127  1.00  0.00     0.100 A 
HETATM   14  N2  UNL     1       2.114   2.348  -0.035  1.00  0.00    -0.242 NA
HETATM   15  C13 UNL     1       1.109   3.308  -0.206  1.00  0.00     0.099 A 
HETATM   16  C14 UNL     1      -0.283   2.967  -0.220  1.00  0.00     0.022 A 
HETATM   17  O2  UNL     1       0.245  -2.819   0.575  1.00  0.00    -0.264 OA
ENDROOT
BRANCH  11  18
HETATM   18  O1  UNL     1       3.000  -2.441   0.632  1.00  0.00    -0.323 OA
HETATM   19  C15 UNL     1       3.842  -2.633  -0.495  1.00  0.00     0.182 C 
ENDBRANCH  11  18
TORSDOF 1
