REMARK  5 active torsions:
REMARK  status: ('A' for Active; 'I' for Inactive)
REMARK    1  A    between atoms: C2_2  and  O5_22 
REMARK    2  A    between atoms: C5_5  and  C10_12 
REMARK    3  A    between atoms: C10_12  and  O3_13 
REMARK    4  A    between atoms: O3_13  and  C11_14 
REMARK    5  A    between atoms: C11_14  and  C12_15 
ROOT
HETATM    1  C1  UNL     1       0.635   0.857   2.854  1.00  0.00     0.045 A 
HETATM    2  C2  UNL     1      -0.646   1.308   3.303  1.00  0.00     0.098 A 
HETATM    3  C3  UNL     1      -1.766   0.826   2.576  1.00  0.00     0.047 A 
HETATM    4  C4  UNL     1      -1.635  -0.018   1.510  1.00  0.00     0.102 A 
HETATM    5  C5  UNL     1      -0.387  -0.477   1.045  1.00  0.00     0.053 A 
HETATM    6  C6  UNL     1       0.770  -0.027   1.734  1.00  0.00     0.105 A 
HETATM    7  O1  UNL     1       1.994  -0.438   1.332  1.00  0.00    -0.273 OA
HETATM    8  C7  UNL     1       3.137  -0.057   1.937  1.00  0.00     0.300 A 
HETATM    9  C8  UNL     1       3.070   0.855   3.100  1.00  0.00     0.069 A 
HETATM   10  C9  UNL     1       1.879   1.299   3.545  1.00  0.00     0.009 A 
HETATM   11  O2  UNL     1       4.223  -0.436   1.564  1.00  0.00    -0.259 OA
HETATM   12  O4  UNL     1      -2.877  -0.330   0.988  1.00  0.00    -0.305 OA
HETATM   13  C16 UNL     1      -3.781   0.390   1.822  1.00  0.00     0.123 A 
HETATM   14  C17 UNL     1      -3.068   1.107   2.809  1.00  0.00     0.031 A 
ENDROOT
BRANCH   5  15
HETATM   15  C10 UNL     1      -0.289  -1.385  -0.109  1.00  0.00     0.173 C 
BRANCH  15  16
HETATM   16  O3  UNL     1      -0.004  -0.639  -1.272  1.00  0.00    -0.345 OA
BRANCH  16  17
HETATM   17  C11 UNL     1       0.106  -1.436  -2.430  1.00  0.00     0.168 C 
BRANCH  17  18
HETATM   18  C12 UNL     1       0.408  -0.557  -3.615  1.00  0.00    -0.003 C 
HETATM   19  C13 UNL     1       0.774  -1.141  -4.768  1.00  0.00    -0.045 C 
HETATM   20  C14 UNL     1       1.137  -0.412  -6.033  1.00  0.00     0.026 C 
HETATM   21  C15 UNL     1       0.830  -2.645  -4.826  1.00  0.00     0.026 C 
ENDBRANCH  17  18
ENDBRANCH  16  17
ENDBRANCH  15  16
ENDBRANCH   5  15
BRANCH   2  22
HETATM   22  O5  UNL     1      -0.654   2.137   4.359  1.00  0.00    -0.328 OA
HETATM   23  C18 UNL     1      -1.635   3.162   4.397  1.00  0.00     0.181 C 
ENDBRANCH   2  22
TORSDOF 5
