REMARK  2 active torsions:
REMARK  status: ('A' for Active; 'I' for Inactive)
REMARK    1  A    between atoms: C1_1  and  C8_10 
REMARK    2  A    between atoms: C4_4  and  C7_8 
ROOT
HETATM    1  C1  UNL     1       0.756   0.385  -0.414  1.00  0.00     0.050 C 
HETATM    2  C2  UNL     1       0.848  -1.088  -0.072  1.00  0.00    -0.026 C 
HETATM    3  C3  UNL     1      -0.199  -1.910  -0.275  1.00  0.00     0.002 C 
HETATM    4  C4  UNL     1      -1.508  -1.367  -0.805  1.00  0.00     0.175 C 
HETATM    5  C5  UNL     1      -1.808  -0.018  -0.121  1.00  0.00     0.038 C 
HETATM    6  C6  UNL     1      -0.652   1.000  -0.207  1.00  0.00     0.010 C 
HETATM    7  O1  UNL     1      -1.402  -1.164  -2.199  1.00  0.00    -0.219 OA
ENDROOT
BRANCH   1   8
HETATM    8  C8  UNL     1       1.832   1.184   0.324  1.00  0.00     0.131 C 
HETATM    9  O3  UNL     1       3.094   0.742  -0.123  1.00  0.00    -0.226 OA
HETATM   10  C9  UNL     1       1.862   2.656  -0.088  1.00  0.00     0.033 C 
HETATM   11  C10 UNL     1       1.772   0.998   1.842  1.00  0.00     0.033 C 
ENDBRANCH   1   8
BRANCH   4  12
HETATM   12  C7  UNL     1      -2.646  -2.367  -0.594  1.00  0.00     0.217 C 
HETATM   13  O2  UNL     1      -2.744  -2.645   0.785  1.00  0.00    -0.218 OA
ENDBRANCH   4  12
TORSDOF 2
