REMARK  9 active torsions:
REMARK  status: ('A' for Active; 'I' for Inactive)
REMARK    1  A    between atoms: C1_1  and  O11_37 
REMARK    2  A    between atoms: C12_14  and  O8_27 
REMARK    3  A    between atoms: C14_16  and  C17_21 
REMARK    4  A    between atoms: C17_21  and  O6_23 
REMARK    5  A    between atoms: O8_27  and  C20_28 
REMARK    6  A    between atoms: C20_28  and  C21_30 
REMARK    7  A    between atoms: C21_30  and  C22_31 
REMARK    8  A    between atoms: O11_37  and  C27_38 
REMARK    9  A    between atoms: C31_42  and  C32_44 
ROOT
HETATM    1  C1  UNL     1       3.156   0.336  -0.809  1.00  0.00     0.170 C 
HETATM    2  C2  UNL     1       3.168  -1.068  -1.363  1.00  0.00    -0.003 C 
HETATM    3  C3  UNL     1       2.041  -1.783  -1.547  1.00  0.00    -0.046 C 
HETATM    4  C4  UNL     1       0.672  -1.232  -1.174  1.00  0.00     0.023 C 
HETATM    5  C5  UNL     1       0.600   0.324  -1.190  1.00  0.00     0.037 C 
HETATM    6  C6  UNL     1       1.774   0.807  -0.283  1.00  0.00     0.184 C 
HETATM    7  O1  UNL     1       1.820   2.219  -0.182  1.00  0.00    -0.221 OA
HETATM    8  C7  UNL     1      -0.826   0.776  -0.664  1.00  0.00     0.041 C 
HETATM    9  C8  UNL     1      -1.996   0.027  -1.383  1.00  0.00     0.061 C 
HETATM   10  C9  UNL     1      -1.834  -1.504  -1.397  1.00  0.00     0.127 C 
HETATM   11  C10 UNL     1      -0.473  -1.861  -1.994  1.00  0.00     0.034 C 
HETATM   12  O2  UNL     1      -1.902  -2.094  -0.088  1.00  0.00    -0.302 OA
HETATM   13  C11 UNL     1      -2.801  -1.648   0.807  1.00  0.00     0.300 C 
HETATM   14  C12 UNL     1      -3.396  -0.264   0.705  1.00  0.00     0.213 C 
HETATM   15  C13 UNL     1      -3.371   0.240  -0.734  1.00  0.00     0.079 C 
HETATM   16  C14 UNL     1      -3.600   1.709  -1.109  1.00  0.00     0.203 C 
HETATM   17  C15 UNL     1      -2.625   2.686  -0.406  1.00  0.00     0.216 C 
HETATM   18  C16 UNL     1      -1.123   2.315  -0.584  1.00  0.00     0.185 C 
HETATM   19  O3  UNL     1      -0.658   2.988  -1.740  1.00  0.00    -0.221 OA
HETATM   20  O4  UNL     1      -2.926   2.776   0.975  1.00  0.00    -0.218 OA
HETATM   21  O7  UNL     1      -3.260   1.684  -2.483  1.00  0.00    -0.347 OA
HETATM   22  C19 UNL     1      -2.359   0.625  -2.760  1.00  0.00     0.145 C 
HETATM   23  O10 UNL     1      -3.141  -2.346   1.734  1.00  0.00    -0.262 OA
HETATM   24  C25 UNL     1       0.854   0.793  -2.635  1.00  0.00     0.003 C 
HETATM   25  C26 UNL     1       2.147  -3.172  -2.131  1.00  0.00     0.026 C 
ENDROOT
BRANCH   1  26
HETATM   26  O11 UNL     1       4.115   0.424   0.228  1.00  0.00    -0.324 OA
BRANCH  26  27
HETATM   27  C27 UNL     1       5.447   0.309  -0.232  1.00  0.00     0.270 C 
HETATM   28  C28 UNL     1       6.371   1.301   0.519  1.00  0.00     0.241 C 
HETATM   29  C29 UNL     1       7.852   1.078   0.139  1.00  0.00     0.220 C 
HETATM   30  O16 UNL     1       5.996   2.629   0.195  1.00  0.00    -0.215 OA
HETATM   31  C30 UNL     1       8.213  -0.416   0.275  1.00  0.00     0.215 C 
HETATM   32  O15 UNL     1       8.688   1.854   0.984  1.00  0.00    -0.218 OA
HETATM   33  C31 UNL     1       7.197  -1.310  -0.471  1.00  0.00     0.184 C 
HETATM   34  O14 UNL     1       9.504  -0.650  -0.258  1.00  0.00    -0.218 OA
HETATM   35  O12 UNL     1       5.885  -1.023  -0.008  1.00  0.00    -0.326 OA
BRANCH  33  36
HETATM   36  C32 UNL     1       7.432  -2.807  -0.232  1.00  0.00     0.214 C 
HETATM   37  O13 UNL     1       6.555  -3.529  -1.070  1.00  0.00    -0.218 OA
ENDBRANCH  33  36
ENDBRANCH  26  27
ENDBRANCH   1  26
BRANCH  14  38
HETATM   38  O8  UNL     1      -4.738  -0.273   1.174  1.00  0.00    -0.294 OA
BRANCH  38  39
HETATM   39  C20 UNL     1      -4.811  -0.291   2.502  1.00  0.00     0.272 C 
HETATM   40  O9  UNL     1      -3.846  -0.289   3.229  1.00  0.00    -0.264 OA
BRANCH  39  41
HETATM   41  C21 UNL     1      -6.207  -0.314   3.064  1.00  0.00     0.096 C 
BRANCH  41  42
HETATM   42  C22 UNL     1      -6.309  -1.164   4.332  1.00  0.00     0.010 C 
HETATM   43  C23 UNL     1      -7.705  -1.131   4.955  1.00  0.00     0.001 C 
HETATM   44  C24 UNL     1      -5.787  -2.588   4.133  1.00  0.00     0.001 C 
ENDBRANCH  41  42
ENDBRANCH  39  41
ENDBRANCH  38  39
ENDBRANCH  14  38
BRANCH  16  45
HETATM   45  C17 UNL     1      -5.043   2.137  -0.990  1.00  0.00     0.299 C 
HETATM   46  O5  UNL     1      -5.908   1.338  -0.711  1.00  0.00    -0.262 OA
BRANCH  45  47
HETATM   47  O6  UNL     1      -5.272   3.428  -1.213  1.00  0.00    -0.297 OA
HETATM   48  C18 UNL     1      -6.645   3.766  -1.080  1.00  0.00     0.185 C 
ENDBRANCH  45  47
ENDBRANCH  16  45
TORSDOF 9
