REMARK  4 active torsions:
REMARK  status: ('A' for Active; 'I' for Inactive)
REMARK    1  A    between atoms: C4_4  and  C5_5 
REMARK    2  A    between atoms: C5_5  and  C6_6 
REMARK    3  A    between atoms: C6_6  and  C7_7 
REMARK    4  A    between atoms: C7_7  and  C9_9 
ROOT
HETATM    1  C5  UNL     1       0.106  -0.045  -0.101  1.00  0.00     0.037 C 
ENDROOT
BRANCH   1   2
HETATM    2  C4  UNL     1      -0.548  -1.419  -0.057  1.00  0.00     0.140 A 
HETATM    3  C2  UNL     1      -1.494  -1.933  -1.200  1.00  0.00     0.118 A 
HETATM    4  C1  UNL     1      -1.776  -1.063  -2.418  1.00  0.00     0.032 C 
HETATM    5  C3  UNL     1      -2.050  -3.348  -1.143  1.00  0.00     0.032 C 
HETATM    6  O1  UNL     1      -1.928  -1.248  -0.070  1.00  0.00    -0.357 OA
ENDBRANCH   1   2
BRANCH   1   7
HETATM    7  C6  UNL     1       0.567   0.346   1.304  1.00  0.00     0.029 C 
BRANCH   7   8
HETATM    8  C7  UNL     1       1.216   1.703   1.338  1.00  0.00    -0.022 C 
HETATM    9  C8  UNL     1       0.428   2.790   1.369  1.00  0.00    -0.005 C 
BRANCH   8  10
HETATM   10  C9  UNL     1       2.678   1.838   1.338  1.00  0.00    -0.004 C 
HETATM   11  C10 UNL     1       3.253   3.052   1.338  1.00  0.00    -0.000 C 
ENDBRANCH   8  10
ENDBRANCH   7   8
ENDBRANCH   1   7
TORSDOF 4
