REMARK  5 active torsions:
REMARK  status: ('A' for Active; 'I' for Inactive)
REMARK    1  A    between atoms: C16_17  and  C19_20 
REMARK    2  A    between atoms: C19_20  and  C21_22 
REMARK    3  A    between atoms: C21_22  and  C22_23 
REMARK    4  A    between atoms: C22_23  and  C23_24 
REMARK    5  A    between atoms: C23_24  and  C24_25 
ROOT
HETATM    1  C1  UNL     1       5.662   0.221   0.353  1.00  0.00     0.182 C 
HETATM    2  C2  UNL     1       6.194   0.143  -1.096  1.00  0.00     0.183 C 
HETATM    3  C3  UNL     1       5.065   0.406  -2.107  1.00  0.00     0.043 C 
HETATM    4  C4  UNL     1       4.301   1.721  -1.820  1.00  0.00     0.065 C 
HETATM    5  C5  UNL     1       3.750   1.789  -0.371  1.00  0.00     0.013 C 
HETATM    6  C6  UNL     1       4.910   1.539   0.625  1.00  0.00     0.036 C 
HETATM    7  C7  UNL     1       2.586   0.764  -0.184  1.00  0.00     0.021 C 
HETATM    8  C8  UNL     1       1.557   0.834  -1.313  1.00  0.00    -0.015 C 
HETATM    9  C9  UNL     1       1.854   1.393  -2.506  1.00  0.00     0.031 C 
HETATM   10  C10 UNL     1       3.190   1.916  -2.826  1.00  0.00     0.172 C 
HETATM   11  O1  UNL     1       3.387   2.490  -3.871  1.00  0.00    -0.291 OA
HETATM   12  C11 UNL     1       0.193   0.225  -1.045  1.00  0.00     0.142 C 
HETATM   13  C12 UNL     1      -0.353   0.635   0.338  1.00  0.00     0.029 C 
HETATM   14  C13 UNL     1       0.609   0.141   1.426  1.00  0.00     0.003 C 
HETATM   15  C14 UNL     1       1.967   0.848   1.242  1.00  0.00     0.004 C 
HETATM   16  C15 UNL     1      -0.523   2.162   0.424  1.00  0.00     0.003 C 
HETATM   17  C16 UNL     1      -1.756   0.006   0.332  1.00  0.00     0.005 C 
HETATM   18  C17 UNL     1      -2.242   0.258  -1.106  1.00  0.00     0.003 C 
HETATM   19  C18 UNL     1      -0.998   0.611  -1.936  1.00  0.00     0.034 C 
HETATM   20  O3  UNL     1       0.361  -1.184  -1.148  1.00  0.00    -0.222 OA
HETATM   21  C28 UNL     1       3.221   3.215  -0.129  1.00  0.00     0.001 C 
HETATM   22  O4  UNL     1       7.221   1.098  -1.314  1.00  0.00    -0.221 OA
HETATM   23  O5  UNL     1       6.715   0.072   1.289  1.00  0.00    -0.221 OA
ENDROOT
BRANCH  17  24
HETATM   24  C19 UNL     1      -2.709   0.561   1.387  1.00  0.00     0.031 C 
HETATM   25  C20 UNL     1      -2.123   0.320   2.779  1.00  0.00     0.003 C 
BRANCH  24  26
HETATM   26  C21 UNL     1      -4.090  -0.074   1.211  1.00  0.00     0.156 C 
HETATM   27  O2  UNL     1      -5.045   0.785   1.789  1.00  0.00    -0.223 OA
BRANCH  26  28
HETATM   28  C22 UNL     1      -4.201  -1.439   1.889  1.00  0.00     0.055 C 
BRANCH  28  29
HETATM   29  C23 UNL     1      -5.109  -2.379   1.139  1.00  0.00    -0.042 C 
HETATM   30  C27 UNL     1      -6.312  -2.662   1.664  1.00  0.00    -0.009 C 
BRANCH  29  31
HETATM   31  C24 UNL     1      -4.730  -3.014  -0.172  1.00  0.00     0.018 C 
HETATM   32  C25 UNL     1      -5.900  -3.754  -0.822  1.00  0.00     0.004 C 
HETATM   33  C26 UNL     1      -3.475  -3.877  -0.061  1.00  0.00     0.004 C 
ENDBRANCH  29  31
ENDBRANCH  28  29
ENDBRANCH  26  28
ENDBRANCH  24  26
ENDBRANCH  17  24
TORSDOF 5
