REMARK  5 active torsions:
REMARK  status: ('A' for Active; 'I' for Inactive)
REMARK    1  A    between atoms: C1_1  and  C2_2 
REMARK    2  A    between atoms: C2_2  and  C3_4 
REMARK    3  A    between atoms: C12_15  and  O5_24 
REMARK    4  A    between atoms: C15_18  and  C17_21 
REMARK    5  A    between atoms: C17_21  and  C18_22 
ROOT
HETATM    1  C1  UNL     1      -2.544   3.206  -0.838  1.00  0.00     0.047 C 
HETATM    2  C10 UNL     1      -4.106   3.251  -1.021  1.00  0.00     0.004 C 
HETATM    3  C11 UNL     1      -1.783   3.169   0.611  1.00  0.00     0.092 C 
HETATM    4  C12 UNL     1      -2.794   4.059   0.995  1.00  0.00     0.127 C 
HETATM    5  C13 UNL     1      -3.005   4.579  -0.180  1.00  0.00     0.053 C 
HETATM    6  C14 UNL     1      -2.075   5.687  -0.426  1.00  0.00    -0.025 C 
HETATM    7  C15 UNL     1      -0.793   5.351  -0.173  1.00  0.00     0.013 C 
HETATM    8  C16 UNL     1      -0.545   3.969   0.339  1.00  0.00     0.171 C 
HETATM    9  O4  UNL     1       0.589   3.523   0.509  1.00  0.00    -0.292 OA
ENDROOT
BRANCH   1  10
HETATM   10  C2  UNL     1      -3.073   1.646  -0.919  1.00  0.00     0.175 C 
HETATM   11  O1  UNL     1      -3.991   1.274   0.167  1.00  0.00    -0.219 OA
BRANCH  10  12
HETATM   12  C3  UNL     1      -1.926   0.596  -0.864  1.00  0.00     0.010 A 
HETATM   13  C4  UNL     1      -0.495   0.918  -1.179  1.00  0.00     0.025 A 
HETATM   14  C5  UNL     1       0.421   0.018  -0.840  1.00  0.00     0.119 A 
HETATM   15  O2  UNL     1       1.746   0.116  -0.967  1.00  0.00    -0.300 OA
HETATM   16  C7  UNL     1       0.104  -1.189  -0.273  1.00  0.00     0.119 A 
HETATM   17  C6  UNL     1       2.363  -1.084  -0.433  1.00  0.00     0.304 A 
HETATM   18  O3  UNL     1       1.220  -1.879  -0.032  1.00  0.00    -0.300 OA
HETATM   19  C8  UNL     1      -1.144  -1.562  -0.023  1.00  0.00     0.026 A 
HETATM   20  C9  UNL     1      -2.213  -0.594  -0.317  1.00  0.00     0.000 A 
ENDBRANCH  10  12
ENDBRANCH   1  10
BRANCH   4  21
HETATM   21  O5  UNL     1      -3.465   4.217   2.228  1.00  0.00    -0.353 OA
HETATM   22  C20 UNL     1      -2.929   3.334   3.245  1.00  0.00     0.174 C 
ENDBRANCH   4  21
BRANCH   7  23
HETATM   23  C17 UNL     1       0.377   6.286  -0.346  1.00  0.00     0.055 C 
BRANCH  23  24
HETATM   24  C18 UNL     1      -0.035   7.721  -0.296  1.00  0.00    -0.021 C 
HETATM   25  C19 UNL     1       0.906   8.652  -0.141  1.00  0.00    -0.005 C 
ENDBRANCH  23  24
ENDBRANCH   7  23
TORSDOF 5
