REMARK  2 active torsions:
REMARK  status: ('A' for Active; 'I' for Inactive)
REMARK    1  A    between atoms: C1_1  and  C2_2 
REMARK    2  A    between atoms: C2_2  and  C3_3 
ROOT
HETATM    1  C3  UNL     1       0.178   0.318   0.241  1.00  0.00    -0.014 A 
HETATM    2  C4  UNL     1      -1.228   0.266   0.241  1.00  0.00    -0.004 A 
HETATM    3  C5  UNL     1      -1.887  -0.977   0.241  1.00  0.00    -0.000 A 
HETATM    4  C6  UNL     1      -1.141  -2.166   0.241  1.00  0.00    -0.000 A 
HETATM    5  C7  UNL     1       0.264  -2.115   0.241  1.00  0.00    -0.000 A 
HETATM    6  C8  UNL     1       0.924  -0.873   0.241  1.00  0.00    -0.004 A 
ENDROOT
BRANCH   1   7
HETATM    7  C2  UNL     1       0.873   1.633   0.241  1.00  0.00     0.099 C 
BRANCH   7   8
HETATM    8  C1  UNL     1       1.121   2.142  -1.152  1.00  0.00     0.212 C 
HETATM    9  O1  UNL     1       0.498   3.080  -1.593  1.00  0.00    -0.288 OA
ENDBRANCH   7   8
ENDBRANCH   1   7
TORSDOF 2
