REMARK  9 active torsions:
REMARK  status: ('A' for Active; 'I' for Inactive)
REMARK    1  A    between atoms: C5_5  and  C7_7 
REMARK    2  A    between atoms: C8_8  and  C9_9 
REMARK    3  A    between atoms: C9_9  and  O1_10 
REMARK    4  A    between atoms: O1_10  and  C10_11 
REMARK    5  A    between atoms: C12_13  and  C25_31 
REMARK    6  A    between atoms: C14_15  and  O3_18 
REMARK    7  A    between atoms: O3_18  and  C16_19 
REMARK    8  A    between atoms: C16_19  and  C17_20 
REMARK    9  A    between atoms: C18_21  and  C19_22 
ROOT
HETATM    1  C10 UNL     1       1.594  -0.305  -0.955  1.00  0.00     0.160 C 
HETATM    2  C11 UNL     1       2.725  -0.244  -2.004  1.00  0.00     0.074 C 
HETATM    3  C12 UNL     1       2.986  -1.600  -2.723  1.00  0.00     0.209 C 
HETATM    4  C13 UNL     1       2.381  -2.785  -1.939  1.00  0.00     0.074 C 
HETATM    5  C14 UNL     1       0.861  -2.649  -1.684  1.00  0.00     0.160 C 
HETATM    6  C15 UNL     1       0.414  -1.195  -1.381  1.00  0.00     0.207 C 
HETATM    7  O2  UNL     1      -0.203  -0.635  -2.527  1.00  0.00    -0.218 OA
HETATM    8  O9  UNL     1       2.369  -1.570  -3.996  1.00  0.00    -0.215 OA
ENDROOT
BRANCH   1   9
HETATM    9  O1  UNL     1       1.143   1.012  -0.666  1.00  0.00    -0.298 OA
BRANCH   9  10
HETATM   10  C9  UNL     1       0.463   1.074   0.477  1.00  0.00     0.296 C 
HETATM   11  O10 UNL     1       0.359   0.152   1.250  1.00  0.00    -0.259 OA
BRANCH  10  12
HETATM   12  C8  UNL     1      -0.182   2.361   0.766  1.00  0.00     0.068 C 
HETATM   13  C7  UNL     1      -0.576   3.170  -0.232  1.00  0.00     0.005 C 
BRANCH  13  14
HETATM   14  C5  UNL     1      -1.226   4.469   0.111  1.00  0.00     0.002 A 
HETATM   15  C4  UNL     1      -0.891   5.133   1.305  1.00  0.00     0.002 A 
HETATM   16  C3  UNL     1      -1.504   6.356   1.625  1.00  0.00     0.029 A 
HETATM   17  C2  UNL     1      -2.455   6.920   0.756  1.00  0.00     0.156 A 
HETATM   18  C1  UNL     1      -2.793   6.256  -0.438  1.00  0.00     0.156 A 
HETATM   19  O11 UNL     1      -3.025   8.066   1.064  1.00  0.00    -0.188 OA
HETATM   20  C6  UNL     1      -2.178   5.033  -0.758  1.00  0.00     0.029 A 
HETATM   21  O12 UNL     1      -3.684   6.779  -1.258  1.00  0.00    -0.188 OA
ENDBRANCH  13  14
ENDBRANCH  10  12
ENDBRANCH   9  10
ENDBRANCH   1   9
BRANCH   3  22
HETATM   22  C25 UNL     1       4.459  -1.815  -2.967  1.00  0.00     0.214 C 
HETATM   23  O7  UNL     1       4.830  -3.082  -3.117  1.00  0.00    -0.646 OA
HETATM   24  O8  UNL     1       5.225  -0.879  -3.020  1.00  0.00    -0.646 OA
ENDBRANCH   3  22
BRANCH   5  25
HETATM   25  O3  UNL     1       0.522  -3.475  -0.580  1.00  0.00    -0.298 OA
BRANCH  25  26
HETATM   26  C16 UNL     1      -0.742  -3.883  -0.621  1.00  0.00     0.296 C 
HETATM   27  O6  UNL     1      -1.625  -3.285  -1.193  1.00  0.00    -0.259 OA
BRANCH  26  28
HETATM   28  C17 UNL     1      -1.031  -5.139   0.080  1.00  0.00     0.068 C 
HETATM   29  C18 UNL     1      -1.168  -5.160   1.416  1.00  0.00     0.005 C 
BRANCH  29  30
HETATM   30  C19 UNL     1      -1.019  -3.881   2.174  1.00  0.00     0.002 A 
HETATM   31  C20 UNL     1      -0.086  -3.785   3.219  1.00  0.00     0.002 A 
HETATM   32  C21 UNL     1       0.053  -2.580   3.930  1.00  0.00     0.029 A 
HETATM   33  C22 UNL     1      -0.742  -1.469   3.596  1.00  0.00     0.156 A 
HETATM   34  C23 UNL     1      -1.678  -1.563   2.549  1.00  0.00     0.156 A 
HETATM   35  O5  UNL     1      -0.607  -0.342   4.268  1.00  0.00    -0.188 OA
HETATM   36  C24 UNL     1      -1.814  -2.770   1.840  1.00  0.00     0.029 A 
HETATM   37  O4  UNL     1      -2.426  -0.525   2.231  1.00  0.00    -0.188 OA
ENDBRANCH  29  30
ENDBRANCH  26  28
ENDBRANCH  25  26
ENDBRANCH   5  25
TORSDOF 9
