REMARK  11 active torsions:
REMARK  status: ('A' for Active; 'I' for Inactive)
REMARK    1  A    between atoms: C1_1  and  C34_40 
REMARK    2  A    between atoms: C4_4  and  O5_33 
REMARK    3  A    between atoms: C6_6  and  O3_29 
REMARK    4  A    between atoms: C8_8  and  O2_20 
REMARK    5  A    between atoms: O2_20  and  C19_21 
REMARK    6  A    between atoms: C19_21  and  C20_22 
REMARK    7  A    between atoms: O3_29  and  O4_30 
REMARK    8  A    between atoms: O4_30  and  C27_31 
REMARK    9  A    between atoms: O5_33  and  O6_34 
REMARK   10  A    between atoms: O6_34  and  C29_35 
REMARK   11  A    between atoms: C34_40  and  O8_42 
ROOT
HETATM    1  C29 UNL     1       5.309  -0.840  -2.031  1.00  0.00     0.107 C 
HETATM    2  C30 UNL     1       5.654  -1.137  -3.131  1.00  0.00     0.019 C 
HETATM    3  C31 UNL     1       6.055  -1.482  -4.404  1.00  0.00     0.001 C 
HETATM    4  C32 UNL     1       6.401  -1.781  -5.504  1.00  0.00     0.000 C 
ENDROOT
BRANCH   1   5
HETATM    5  O6  UNL     1       4.916  -0.502  -0.785  1.00  0.00    -0.142 OA
BRANCH   5   6
HETATM    6  O5  UNL     1       3.721   0.234  -0.963  1.00  0.00    -0.210 OA
BRANCH   6   7
HETATM    7  C4  UNL     1       3.285   0.551   0.350  1.00  0.00     0.157 C 
HETATM    8  C3  UNL     1       4.029   1.775   0.885  1.00  0.00     0.032 C 
HETATM    9  C2  UNL     1       3.242   2.973   0.334  1.00  0.00     0.019 C 
HETATM   10  C33 UNL     1       5.524   1.840   0.559  1.00  0.00     0.003 C 
HETATM   11  C1  UNL     1       1.891   2.461  -0.215  1.00  0.00     0.138 C 
HETATM   12  C5  UNL     1       1.813   1.031   0.402  1.00  0.00     0.081 C 
HETATM   13  C14 UNL     1       0.781   3.449   0.135  1.00  0.00     0.177 C 
HETATM   14  C6  UNL     1       0.692   0.080  -0.141  1.00  0.00     0.176 C 
HETATM   15  C7  UNL     1      -0.447  -0.305   0.799  1.00  0.00     0.012 C 
HETATM   16  C8  UNL     1      -1.738  -0.812   0.168  1.00  0.00     0.136 C 
HETATM   17  C26 UNL     1      -0.318  -0.227   2.139  1.00  0.00    -0.004 C 
HETATM   18  C9  UNL     1      -2.797   0.272  -0.107  1.00  0.00     0.034 C 
HETATM   19  C10 UNL     1      -3.254   1.070   1.125  1.00  0.00     0.007 A 
HETATM   20  C11 UNL     1      -2.703   2.453   1.436  1.00  0.00     0.022 A 
HETATM   21  C16 UNL     1      -4.127   2.295   0.922  1.00  0.00     0.004 A 
HETATM   22  C12 UNL     1      -1.623   3.020   0.525  1.00  0.00    -0.028 C 
HETATM   23  C13 UNL     1      -0.353   3.068   0.998  1.00  0.00     0.009 C 
HETATM   24  C15 UNL     1      -0.053   2.736   2.439  1.00  0.00     0.034 C 
HETATM   25  C17 UNL     1      -4.447   2.746  -0.502  1.00  0.00     0.000 C 
HETATM   26  C18 UNL     1      -5.264   2.500   1.914  1.00  0.00     0.000 C 
HETATM   27  O1  UNL     1       0.809   4.576  -0.307  1.00  0.00    -0.291 OA
BRANCH  11  28
HETATM   28  C34 UNL     1       1.934   2.399  -1.729  1.00  0.00     0.278 C 
HETATM   29  O7  UNL     1       2.986   2.428  -2.320  1.00  0.00    -0.264 OA
BRANCH  28  30
HETATM   30  O8  UNL     1       0.748   2.313  -2.324  1.00  0.00    -0.299 OA
HETATM   31  C35 UNL     1       0.859   2.258  -3.740  1.00  0.00     0.184 C 
ENDBRANCH  28  30
ENDBRANCH  11  28
BRANCH  14  32
HETATM   32  O3  UNL     1       1.240  -1.145  -0.594  1.00  0.00    -0.219 OA
BRANCH  32  33
HETATM   33  O4  UNL     1       0.662  -1.443  -1.881  1.00  0.00    -0.221 OA
BRANCH  33  34
HETATM   34  C27 UNL     1       1.227  -2.646  -2.344  1.00  0.00     0.182 C 
HETATM   35  C28 UNL     1       0.617  -2.969  -3.709  1.00  0.00     0.038 C 
ENDBRANCH  33  34
ENDBRANCH  32  33
ENDBRANCH  14  32
BRANCH  16  36
HETATM   36  O2  UNL     1      -2.320  -1.855   0.932  1.00  0.00    -0.348 OA
BRANCH  36  37
HETATM   37  C19 UNL     1      -1.541  -3.029   0.951  1.00  0.00     0.169 C 
BRANCH  37  38
HETATM   38  C20 UNL     1      -2.248  -4.080   1.729  1.00  0.00     0.007 A 
HETATM   39  C21 UNL     1      -1.666  -5.350   1.891  1.00  0.00    -0.002 A 
HETATM   40  C22 UNL     1      -2.336  -6.344   2.627  1.00  0.00    -0.000 A 
HETATM   41  C23 UNL     1      -3.588  -6.068   3.201  1.00  0.00    -0.000 A 
HETATM   42  C24 UNL     1      -4.172  -4.799   3.039  1.00  0.00    -0.000 A 
HETATM   43  C25 UNL     1      -3.502  -3.807   2.305  1.00  0.00    -0.002 A 
ENDBRANCH  37  38
ENDBRANCH  36  37
ENDBRANCH  16  36
ENDBRANCH   6   7
ENDBRANCH   5   6
ENDBRANCH   1   5
TORSDOF 11
