REMARK  5 active torsions:
REMARK  status: ('A' for Active; 'I' for Inactive)
REMARK    1  A    between atoms: C2_2  and  C3_3 
REMARK    2  A    between atoms: C3_3  and  S1_4 
REMARK    3  A    between atoms: S1_4  and  C4_5 
REMARK    4  A    between atoms: C4_5  and  C5_6 
REMARK    5  A    between atoms: C5_6  and  C6_7 
ROOT
HETATM    1  C4  UNL     1       0.707  -0.172  -0.034  1.00  0.00     0.108 C 
ENDROOT
BRANCH   1   2
HETATM    2  S1  UNL     1      -1.094  -0.388  -0.092  1.00  0.00    -0.133 SA
BRANCH   2   3
HETATM    3  C3  UNL     1      -1.526   1.131  -0.986  1.00  0.00     0.084 C 
BRANCH   3   4
HETATM    4  C2  UNL     1      -3.019   1.197  -1.171  1.00  0.00    -0.015 C 
HETATM    5  C1  UNL     1      -3.589   2.398  -1.359  1.00  0.00    -0.004 C 
ENDBRANCH   3   4
ENDBRANCH   2   3
ENDBRANCH   1   2
BRANCH   1   6
HETATM    6  C5  UNL     1       1.376  -1.342   0.687  1.00  0.00     0.398 C 
HETATM    7  N1  UNL     1       0.881  -1.450   2.049  1.00  0.00     0.629 N 
BRANCH   6   8
HETATM    8  C6  UNL     1       2.878  -1.234   0.687  1.00  0.00     0.225 C 
HETATM    9  O1  UNL     1       3.423  -0.155   0.687  1.00  0.00    -0.646 OA
HETATM   10  O2  UNL     1       3.528  -2.393   0.687  1.00  0.00    -0.646 OA
ENDBRANCH   6   8
ENDBRANCH   1   6
TORSDOF 5
