REMARK  1 active torsions:
REMARK  status: ('A' for Active; 'I' for Inactive)
REMARK    1  A    between atoms: C20_22  and  C21_23 
ROOT
HETATM    1  C1  UNL     1       0.865  -3.004  -2.088  1.00  0.00    -0.000 A 
HETATM    2  C2  UNL     1      -0.506  -3.164  -2.365  1.00  0.00     0.002 A 
HETATM    3  C3  UNL     1      -1.453  -2.502  -1.561  1.00  0.00     0.017 A 
HETATM    4  C4  UNL     1      -0.979  -1.699  -0.494  1.00  0.00     0.058 A 
HETATM    5  C5  UNL     1       0.367  -1.547  -0.102  1.00  0.00    -0.003 A 
HETATM    6  C6  UNL     1       1.279  -2.215  -0.986  1.00  0.00    -0.003 A 
HETATM    7  C7  UNL     1       0.564  -0.750   1.250  1.00  0.00     0.078 C 
HETATM    8  C8  UNL     1      -0.891  -0.207   1.437  1.00  0.00     0.095 C 
HETATM    9  N1  UNL     1      -1.723  -0.830   0.404  1.00  0.00    -0.301 N 
HETATM   10  C9  UNL     1      -3.076  -0.498   0.146  1.00  0.00     0.237 C 
HETATM   11  C10 UNL     1      -3.502   0.705   0.955  1.00  0.00     0.088 C 
HETATM   12  C11 UNL     1      -2.436   1.809   0.764  1.00  0.00     0.012 C 
HETATM   13  C12 UNL     1      -1.022   1.322   1.203  1.00  0.00     0.026 C 
HETATM   14  C13 UNL     1       0.213   1.941   0.436  1.00  0.00     0.025 C 
HETATM   15  C14 UNL     1       1.277   1.969   1.500  1.00  0.00     0.045 C 
HETATM   16  C15 UNL     1       1.559   0.457   1.660  1.00  0.00     0.255 C 
HETATM   17  N2  UNL     1       2.773   0.111   0.859  1.00  0.00     0.066 N 
HETATM   18  C16 UNL     1       2.824  -1.311   1.523  1.00  0.00     0.287 C 
HETATM   19  C17 UNL     1       1.420  -1.727   2.068  1.00  0.00     0.052 C 
HETATM   20  C18 UNL     1       2.346   0.660  -0.568  1.00  0.00     0.308 C 
HETATM   21  C19 UNL     1       0.920   1.264  -0.768  1.00  0.00    -0.006 C 
HETATM   22  C20 UNL     1       0.349   1.191  -1.988  1.00  0.00     0.003 C 
HETATM   23  O2  UNL     1       3.914   0.836   1.309  1.00  0.00    -0.061 OA
HETATM   24  O3  UNL     1      -3.791  -1.059  -0.652  1.00  0.00    -0.272 OA
ENDROOT
BRANCH  22  25
HETATM   25  C21 UNL     1      -1.004   1.771  -2.293  1.00  0.00     0.208 C 
HETATM   26  O1  UNL     1      -1.127   1.971  -3.684  1.00  0.00    -0.215 OA
ENDBRANCH  22  25
TORSDOF 1
