REMARK  7 active torsions:
REMARK  status: ('A' for Active; 'I' for Inactive)
REMARK    1  A    between atoms: C3_3  and  C7_8 
REMARK    2  A    between atoms: C7_8  and  C8_9 
REMARK    3  A    between atoms: C8_9  and  C9_10 
REMARK    4  A    between atoms: C11_12  and  O8_28 
REMARK    5  A    between atoms: C13_14  and  O2_16 
REMARK    6  A    between atoms: O2_16  and  C15_17 
REMARK    7  A    between atoms: C19_21  and  C20_23 
ROOT
HETATM    1  C9  UNL     1      -0.371  -0.496  -2.352  1.00  0.00    -0.018 A 
HETATM    2  C10 UNL     1      -0.549  -1.844  -1.992  1.00  0.00     0.020 A 
HETATM    3  C11 UNL     1      -1.391  -2.182  -0.918  1.00  0.00     0.096 A 
HETATM    4  C12 UNL     1      -2.053  -1.168  -0.205  1.00  0.00     0.048 A 
HETATM    5  C13 UNL     1      -1.879   0.182  -0.560  1.00  0.00     0.099 A 
HETATM    6  C14 UNL     1      -1.037   0.516  -1.635  1.00  0.00     0.020 A 
ENDROOT
BRANCH   5   7
HETATM    7  O2  UNL     1      -2.502   1.129   0.111  1.00  0.00    -0.304 OA
BRANCH   7   8
HETATM    8  C15 UNL     1      -2.732   0.924   1.498  1.00  0.00     0.274 C 
HETATM    9  C16 UNL     1      -3.336   2.213   2.102  1.00  0.00     0.241 C 
HETATM   10  C17 UNL     1      -2.342   3.401   2.020  1.00  0.00     0.220 C 
HETATM   11  O7  UNL     1      -3.687   1.973   3.453  1.00  0.00    -0.215 OA
HETATM   12  C18 UNL     1      -0.877   2.904   1.908  1.00  0.00     0.215 C 
HETATM   13  O6  UNL     1      -2.643   4.182   0.877  1.00  0.00    -0.218 OA
HETATM   14  C19 UNL     1      -0.685   1.570   2.664  1.00  0.00     0.184 C 
HETATM   15  O5  UNL     1      -0.008   3.885   2.447  1.00  0.00    -0.218 OA
HETATM   16  O3  UNL     1      -1.500   0.535   2.113  1.00  0.00    -0.326 OA
BRANCH  14  17
HETATM   17  C20 UNL     1       0.754   1.049   2.647  1.00  0.00     0.214 C 
HETATM   18  O4  UNL     1       0.830  -0.062   3.512  1.00  0.00    -0.218 OA
ENDBRANCH  14  17
ENDBRANCH   7   8
ENDBRANCH   5   7
BRANCH   3  19
HETATM   19  O8  UNL     1      -1.559  -3.445  -0.580  1.00  0.00    -0.328 OA
HETATM   20  C21 UNL     1      -1.016  -4.441  -1.435  1.00  0.00     0.181 C 
ENDBRANCH   3  19
BRANCH   1  21
HETATM   21  C8  UNL     1       0.518  -0.141  -3.486  1.00  0.00     0.031 C 
BRANCH  21  22
HETATM   22  C7  UNL     1       1.848   0.438  -3.000  1.00  0.00     0.031 C 
BRANCH  22  23
HETATM   23  C3  UNL     1       2.582  -0.529  -2.143  1.00  0.00    -0.020 A 
HETATM   24  C2  UNL     1       3.445  -1.473  -2.727  1.00  0.00    -0.004 A 
HETATM   25  C1  UNL     1       4.141  -2.387  -1.914  1.00  0.00     0.002 A 
HETATM   26  C6  UNL     1       3.971  -2.355  -0.519  1.00  0.00     0.027 A 
HETATM   27  C5  UNL     1       3.110  -1.412   0.068  1.00  0.00     0.131 A 
HETATM   28  C4  UNL     1       2.416  -0.500  -0.746  1.00  0.00     0.023 A 
HETATM   29  O1  UNL     1       2.953  -1.385   1.377  1.00  0.00    -0.190 OA
ENDBRANCH  22  23
ENDBRANCH  21  22
ENDBRANCH   1  21
TORSDOF 7
