REMARK  6 active torsions:
REMARK  status: ('A' for Active; 'I' for Inactive)
REMARK    1  A    between atoms: C1_1  and  C22_35 
REMARK    2  A    between atoms: C7_9  and  O3_10 
REMARK    3  A    between atoms: O3_10  and  C8_11 
REMARK    4  A    between atoms: C9_12  and  O4_13 
REMARK    5  A    between atoms: O4_13  and  C10_14 
REMARK    6  A    between atoms: C18_28  and  C19_30 
ROOT
HETATM    1  C8  UNL     1      -2.172  -1.406   0.066  1.00  0.00     0.271 C 
HETATM    2  C9  UNL     1      -3.486  -0.609  -0.080  1.00  0.00     0.207 C 
HETATM    3  C16 UNL     1      -4.717  -1.537   0.023  1.00  0.00     0.217 C 
HETATM    4  O9  UNL     1      -5.893  -0.814  -0.305  1.00  0.00    -0.218 OA
HETATM    5  C17 UNL     1      -4.549  -2.731  -0.941  1.00  0.00     0.215 C 
HETATM    6  O10 UNL     1      -5.572  -3.684  -0.709  1.00  0.00    -0.218 OA
HETATM    7  C18 UNL     1      -3.178  -3.422  -0.752  1.00  0.00     0.184 C 
HETATM    8  O11 UNL     1      -2.141  -2.459  -0.887  1.00  0.00    -0.326 OA
ENDROOT
BRANCH   1   9
HETATM    9  O3  UNL     1      -1.057  -0.553  -0.156  1.00  0.00    -0.304 OA
BRANCH   9  10
HETATM   10  C7  UNL     1       0.170  -1.057   0.037  1.00  0.00     0.101 A 
HETATM   11  C6  UNL     1       0.322  -2.363   0.555  1.00  0.00     0.052 A 
HETATM   12  C5  UNL     1       1.615  -2.900   0.764  1.00  0.00     0.138 A 
HETATM   13  C4  UNL     1       2.758  -2.119   0.449  1.00  0.00     0.087 A 
HETATM   14  O2  UNL     1       1.742  -4.143   1.254  1.00  0.00    -0.190 OA
HETATM   15  C3  UNL     1       4.135  -2.649   0.652  1.00  0.00     0.202 A 
HETATM   16  C21 UNL     1       2.605  -0.805  -0.068  1.00  0.00     0.107 A 
HETATM   17  C2  UNL     1       5.227  -1.723   0.285  1.00  0.00     0.067 A 
HETATM   18  O1  UNL     1       4.451  -3.734   1.078  1.00  0.00    -0.286 OA
HETATM   19  C1  UNL     1       4.959  -0.488  -0.201  1.00  0.00     0.103 A 
HETATM   20  O13 UNL     1       3.691  -0.059  -0.367  1.00  0.00    -0.307 OA
HETATM   21  C20 UNL     1       1.309  -0.277  -0.273  1.00  0.00     0.049 A 
BRANCH  19  22
HETATM   22  C22 UNL     1       6.102   0.408  -0.555  1.00  0.00     0.025 A 
HETATM   23  C23 UNL     1       7.340   0.260   0.092  1.00  0.00     0.004 A 
HETATM   24  C24 UNL     1       8.412   1.105  -0.246  1.00  0.00     0.030 A 
HETATM   25  C25 UNL     1       8.250   2.100  -1.227  1.00  0.00     0.156 A 
HETATM   26  O14 UNL     1       9.260   2.887  -1.537  1.00  0.00    -0.188 OA
HETATM   27  C26 UNL     1       7.008   2.248  -1.875  1.00  0.00     0.156 A 
HETATM   28  C27 UNL     1       5.938   1.402  -1.537  1.00  0.00     0.032 A 
HETATM   29  O15 UNL     1       6.848   3.178  -2.795  1.00  0.00    -0.188 OA
ENDBRANCH  19  22
ENDBRANCH   9  10
ENDBRANCH   1   9
BRANCH   2  30
HETATM   30  O4  UNL     1      -3.533   0.373   0.939  1.00  0.00    -0.324 OA
BRANCH  30  31
HETATM   31  C10 UNL     1      -4.037   1.617   0.490  1.00  0.00     0.270 C 
HETATM   32  C11 UNL     1      -4.447   2.488   1.705  1.00  0.00     0.241 C 
HETATM   33  O5  UNL     1      -5.246   3.563   1.230  1.00  0.00    -0.215 OA
HETATM   34  C12 UNL     1      -3.205   3.020   2.461  1.00  0.00     0.220 C 
HETATM   35  O6  UNL     1      -3.584   3.926   3.486  1.00  0.00    -0.218 OA
HETATM   36  C13 UNL     1      -2.213   3.674   1.475  1.00  0.00     0.212 C 
HETATM   37  O7  UNL     1      -1.008   3.994   2.145  1.00  0.00    -0.218 OA
HETATM   38  C14 UNL     1      -1.889   2.721   0.301  1.00  0.00     0.151 C 
HETATM   39  O8  UNL     1      -3.094   2.301  -0.336  1.00  0.00    -0.329 OA
HETATM   40  C15 UNL     1      -1.027   3.383  -0.779  1.00  0.00     0.035 C 
ENDBRANCH  30  31
ENDBRANCH   2  30
BRANCH   7  41
HETATM   41  C19 UNL     1      -2.908  -4.512  -1.795  1.00  0.00     0.214 C 
HETATM   42  O12 UNL     1      -1.750  -5.215  -1.406  1.00  0.00    -0.218 OA
ENDBRANCH   7  41
TORSDOF 6
