REMARK  8 active torsions:
REMARK  status: ('A' for Active; 'I' for Inactive)
REMARK    1  A    between atoms: C1_1  and  O6_26 
REMARK    2  A    between atoms: C5_5  and  C7_7 
REMARK    3  A    between atoms: C7_7  and  C8_8 
REMARK    4  A    between atoms: C8_8  and  C9_9 
REMARK    5  A    between atoms: C9_9  and  C10_10 
REMARK    6  A    between atoms: C11_11  and  C12_12 
REMARK    7  A    between atoms: C13_13  and  C14_14 
REMARK    8  A    between atoms: C18_18  and  O1_20 
ROOT
HETATM    1  C10 UNL     1      -0.904   1.324   0.084  1.00  0.00     0.065 C 
HETATM    2  C11 UNL     1      -0.947   0.574   1.197  1.00  0.00     0.134 C 
HETATM    3  O3  UNL     1      -0.342   0.983   2.308  1.00  0.00    -0.190 OA
ENDROOT
BRANCH   1   4
HETATM    4  C9  UNL     1      -0.189   2.606   0.072  1.00  0.00     0.175 C 
HETATM    5  O4  UNL     1      -0.787   3.639  -0.114  1.00  0.00    -0.291 OA
BRANCH   4   6
HETATM    6  C8  UNL     1       1.299   2.602   0.297  1.00  0.00     0.074 C 
BRANCH   6   7
HETATM    7  C7  UNL     1       2.061   3.293  -0.834  1.00  0.00     0.035 C 
BRANCH   7   8
HETATM    8  C5  UNL     1       3.529   3.277  -0.596  1.00  0.00    -0.020 A 
HETATM    9  C4  UNL     1       4.141   4.332   0.101  1.00  0.00    -0.002 A 
HETATM   10  C3  UNL     1       5.527   4.315   0.326  1.00  0.00     0.029 A 
HETATM   11  C2  UNL     1       6.307   3.242  -0.147  1.00  0.00     0.153 A 
HETATM   12  C1  UNL     1       5.693   2.186  -0.844  1.00  0.00     0.119 A 
HETATM   13  O5  UNL     1       7.608   3.233   0.068  1.00  0.00    -0.188 OA
HETATM   14  C6  UNL     1       4.307   2.205  -1.069  1.00  0.00     0.022 A 
BRANCH  12  15
HETATM   15  O6  UNL     1       6.416   1.178  -1.291  1.00  0.00    -0.326 OA
HETATM   16  C21 UNL     1       5.748   0.133  -1.985  1.00  0.00     0.181 C 
ENDBRANCH  12  15
ENDBRANCH   7   8
ENDBRANCH   6   7
ENDBRANCH   4   6
ENDBRANCH   1   4
BRANCH   2  17
HETATM   17  C12 UNL     1      -1.672  -0.703   1.172  1.00  0.00     0.028 C 
HETATM   18  C13 UNL     1      -2.879  -0.795   0.590  1.00  0.00     0.002 C 
BRANCH  18  19
HETATM   19  C14 UNL     1      -3.576  -2.115   0.590  1.00  0.00     0.002 A 
HETATM   20  C15 UNL     1      -2.832  -3.307   0.590  1.00  0.00     0.002 A 
HETATM   21  C16 UNL     1      -3.492  -4.547   0.590  1.00  0.00     0.029 A 
HETATM   22  C17 UNL     1      -4.897  -4.602   0.590  1.00  0.00     0.153 A 
HETATM   23  C18 UNL     1      -5.645  -3.408   0.590  1.00  0.00     0.119 A 
HETATM   24  O2  UNL     1      -5.508  -5.770   0.590  1.00  0.00    -0.188 OA
HETATM   25  C19 UNL     1      -4.982  -2.168   0.590  1.00  0.00     0.026 A 
BRANCH  23  26
HETATM   26  O1  UNL     1      -6.961  -3.451   0.590  1.00  0.00    -0.326 OA
HETATM   27  C20 UNL     1      -7.598  -4.418  -0.235  1.00  0.00     0.181 C 
ENDBRANCH  23  26
ENDBRANCH  18  19
ENDBRANCH   2  17
TORSDOF 8
