REMARK  8 active torsions:
REMARK  status: ('A' for Active; 'I' for Inactive)
REMARK    1  A    between atoms: C5_5  and  O2_7 
REMARK    2  A    between atoms: O2_7  and  C6_8 
REMARK    3  A    between atoms: C9_11  and  C40_48 
REMARK    4  A    between atoms: C10_13  and  O4_14 
REMARK    5  A    between atoms: O4_14  and  C11_15 
REMARK    6  A    between atoms: C21_26  and  C24_29 
REMARK    7  A    between atoms: C26_31  and  C27_32 
REMARK    8  A    between atoms: C27_32  and  C28_34 
ROOT
HETATM    1  C11 UNL     1       1.214  -0.460   0.507  1.00  0.00     0.118 C 
HETATM    2  C12 UNL     1       1.741   0.704  -0.385  1.00  0.00     0.030 C 
HETATM    3  C13 UNL     1       0.645   1.818  -0.613  1.00  0.00     0.003 C 
HETATM    4  C14 UNL     1      -0.377   1.818   0.570  1.00  0.00     0.003 C 
HETATM    5  C15 UNL     1      -1.157   0.477   0.720  1.00  0.00     0.003 C 
HETATM    6  C16 UNL     1      -0.281  -0.726   0.291  1.00  0.00     0.030 C 
HETATM    7  C17 UNL     1      -2.432   0.448  -0.181  1.00  0.00     0.003 C 
HETATM    8  C18 UNL     1      -3.333   1.689  -0.171  1.00  0.00     0.034 C 
HETATM    9  C19 UNL     1      -2.492   2.966  -0.344  1.00  0.00     0.152 C 
HETATM   10  C20 UNL     1      -1.333   3.030   0.661  1.00  0.00     0.033 C 
HETATM   11  O5  UNL     1      -3.308   4.110  -0.191  1.00  0.00    -0.224 OA
HETATM   12  C21 UNL     1      -4.171   1.527   1.108  1.00  0.00     0.021 C 
HETATM   13  C22 UNL     1      -4.411   0.014   1.193  1.00  0.00     0.004 C 
HETATM   14  C23 UNL     1      -3.449  -0.632   0.196  1.00  0.00     0.000 C 
HETATM   15  C32 UNL     1      -1.544   0.305   2.199  1.00  0.00     0.000 C 
HETATM   16  C33 UNL     1       1.290   3.221  -0.763  1.00  0.00     0.003 C 
HETATM   17  C34 UNL     1       2.573   3.182  -1.594  1.00  0.00     0.033 C 
HETATM   18  C35 UNL     1       3.663   2.296  -0.946  1.00  0.00     0.152 C 
HETATM   19  C36 UNL     1       3.111   1.275   0.096  1.00  0.00     0.030 C 
HETATM   20  C37 UNL     1       4.145   0.157   0.342  1.00  0.00     0.003 C 
HETATM   21  C38 UNL     1       2.938   1.972   1.452  1.00  0.00     0.003 C 
HETATM   22  O8  UNL     1       4.355   1.636  -1.993  1.00  0.00    -0.224 OA
HETATM   23  C39 UNL     1      -0.076   1.523  -1.937  1.00  0.00     0.000 C 
ENDROOT
BRANCH   1  24
HETATM   24  O4  UNL     1       1.912  -1.660   0.221  1.00  0.00    -0.332 OA
BRANCH  24  25
HETATM   25  C10 UNL     1       2.175  -2.439   1.371  1.00  0.00     0.267 C 
HETATM   26  C6  UNL     1       3.148  -3.597   1.029  1.00  0.00     0.207 C 
HETATM   27  C7  UNL     1       3.323  -4.550   2.232  1.00  0.00     0.217 C 
HETATM   28  C8  UNL     1       1.940  -4.968   2.777  1.00  0.00     0.215 C 
HETATM   29  O11 UNL     1       4.051  -5.700   1.836  1.00  0.00    -0.218 OA
HETATM   30  C9  UNL     1       1.042  -3.737   3.038  1.00  0.00     0.184 C 
HETATM   31  O10 UNL     1       2.099  -5.680   3.993  1.00  0.00    -0.218 OA
HETATM   32  O3  UNL     1       0.946  -2.966   1.849  1.00  0.00    -0.326 OA
BRANCH  26  33
HETATM   33  O2  UNL     1       4.411  -3.059   0.669  1.00  0.00    -0.324 OA
BRANCH  33  34
HETATM   34  C5  UNL     1       5.015  -3.732  -0.417  1.00  0.00     0.270 C 
HETATM   35  C4  UNL     1       6.509  -3.333  -0.538  1.00  0.00     0.241 C 
HETATM   36  C3  UNL     1       7.142  -3.937  -1.814  1.00  0.00     0.220 C 
HETATM   37  O12 UNL     1       7.213  -3.799   0.601  1.00  0.00    -0.215 OA
HETATM   38  C2  UNL     1       6.257  -3.627  -3.039  1.00  0.00     0.212 C 
HETATM   39  O13 UNL     1       8.440  -3.399  -2.006  1.00  0.00    -0.218 OA
HETATM   40  C1  UNL     1       4.786  -4.023  -2.787  1.00  0.00     0.151 C 
HETATM   41  O14 UNL     1       6.732  -4.341  -4.168  1.00  0.00    -0.218 OA
HETATM   42  O1  UNL     1       4.321  -3.381  -1.606  1.00  0.00    -0.329 OA
HETATM   43  C41 UNL     1       3.847  -3.596  -3.919  1.00  0.00     0.035 C 
ENDBRANCH  33  34
ENDBRANCH  26  33
BRANCH  30  44
HETATM   44  C40 UNL     1      -0.387  -4.113   3.437  1.00  0.00     0.214 C 
HETATM   45  O9  UNL     1      -1.057  -2.940   3.838  1.00  0.00    -0.218 OA
ENDBRANCH  30  44
ENDBRANCH  24  25
ENDBRANCH   1  24
BRANCH  12  46
HETATM   46  C24 UNL     1      -5.454   2.321   1.101  1.00  0.00    -0.046 C 
HETATM   47  C25 UNL     1      -5.839   3.265   2.210  1.00  0.00     0.026 C 
HETATM   48  C26 UNL     1      -6.292   2.178   0.062  1.00  0.00     0.000 C 
BRANCH  48  49
HETATM   49  C27 UNL     1      -7.573   2.971   0.055  1.00  0.00     0.203 C 
HETATM   50  O6  UNL     1      -8.610   2.189   0.602  1.00  0.00    -0.216 OA
BRANCH  49  51
HETATM   51  C28 UNL     1      -7.984   3.399  -1.346  1.00  0.00     0.174 A 
HETATM   52  O7  UNL     1      -8.643   4.620  -1.254  1.00  0.00    -0.354 OA
HETATM   53  C29 UNL     1      -7.471   4.734  -1.996  1.00  0.00     0.121 A 
HETATM   54  C30 UNL     1      -6.517   5.645  -1.239  1.00  0.00     0.032 C 
HETATM   55  C31 UNL     1      -7.850   5.067  -3.433  1.00  0.00     0.032 C 
ENDBRANCH  49  51
ENDBRANCH  48  49
ENDBRANCH  12  46
TORSDOF 8
