REMARK  3 active torsions:
REMARK  status: ('A' for Active; 'I' for Inactive)
REMARK    1  A    between atoms: C2_2  and  O9_35 
REMARK    2  A    between atoms: C15_19  and  C18_23 
REMARK    3  A    between atoms: O9_35  and  C27_36 
ROOT
HETATM    1  C1  UNL     1      -3.859  -0.213   0.334  1.00  0.00     0.063 C 
HETATM    2  C2  UNL     1      -3.988  -0.014  -1.182  1.00  0.00     0.132 C 
HETATM    3  C3  UNL     1      -2.908  -0.777  -1.998  1.00  0.00     0.081 C 
HETATM    4  C4  UNL     1      -1.518  -0.316  -1.482  1.00  0.00     0.015 C 
HETATM    5  C5  UNL     1      -1.338  -0.816  -0.002  1.00  0.00     0.059 C 
HETATM    6  C6  UNL     1      -2.414  -0.053   0.854  1.00  0.00     0.157 C 
HETATM    7  O1  UNL     1      -2.127   1.332   0.941  1.00  0.00    -0.223 OA
HETATM    8  C7  UNL     1       0.145  -0.523   0.490  1.00  0.00     0.047 C 
HETATM    9  C8  UNL     1       1.238  -0.990  -0.533  1.00  0.00     0.057 C 
HETATM   10  C9  UNL     1       1.020  -0.353  -1.922  1.00  0.00     0.154 C 
HETATM   11  C10 UNL     1      -0.375  -0.693  -2.459  1.00  0.00     0.033 C 
HETATM   12  O2  UNL     1       1.164   1.055  -1.871  1.00  0.00    -0.223 OA
HETATM   13  C11 UNL     1       2.633  -0.543   0.010  1.00  0.00     0.126 A 
HETATM   14  C12 UNL     1       2.801   0.074   1.399  1.00  0.00     0.083 C 
HETATM   15  C13 UNL     1       1.955  -0.707   2.371  1.00  0.00     0.182 C 
HETATM   16  C14 UNL     1       0.516  -0.973   1.957  1.00  0.00     0.209 C 
HETATM   17  O3  UNL     1      -0.275  -0.297   2.908  1.00  0.00    -0.215 OA
HETATM   18  O4  UNL     1       2.404  -1.107   3.422  1.00  0.00    -0.293 OA
HETATM   19  C15 UNL     1       4.334   0.145   1.639  1.00  0.00     0.036 C 
HETATM   20  C16 UNL     1       4.938   0.424   0.236  1.00  0.00     0.037 C 
HETATM   21  C17 UNL     1       3.951  -0.215  -0.748  1.00  0.00     0.141 A 
HETATM   22  O5  UNL     1       3.621  -1.490  -0.322  1.00  0.00    -0.356 OA
HETATM   23  C22 UNL     1       2.318   1.526   1.303  1.00  0.00     0.010 C 
HETATM   24  C23 UNL     1       1.191  -2.527  -0.676  1.00  0.00     0.005 C 
HETATM   25  C24 UNL     1      -1.695  -2.340   0.117  1.00  0.00     0.147 C 
HETATM   26  O7  UNL     1      -1.971  -2.939  -1.141  1.00  0.00    -0.329 OA
HETATM   27  C25 UNL     1      -3.016  -2.346  -1.906  1.00  0.00     0.271 C 
HETATM   28  O8  UNL     1      -4.283  -2.797  -1.465  1.00  0.00    -0.190 OA
HETATM   29  C26 UNL     1      -3.100  -0.369  -3.471  1.00  0.00     0.008 C 
ENDROOT
BRANCH  19  30
HETATM   30  C18 UNL     1       4.762   1.166   2.678  1.00  0.00     0.005 A 
HETATM   31  C19 UNL     1       4.359   1.229   4.016  1.00  0.00     0.118 A 
HETATM   32  O6  UNL     1       4.934   2.276   4.678  1.00  0.00    -0.303 OA
HETATM   33  C20 UNL     1       5.713   2.881   3.734  1.00  0.00     0.122 A 
HETATM   34  C21 UNL     1       5.639   2.235   2.496  1.00  0.00     0.025 A 
ENDBRANCH  19  30
BRANCH   2  35
HETATM   35  O9  UNL     1      -3.897   1.379  -1.457  1.00  0.00    -0.304 OA
BRANCH  35  36
HETATM   36  C27 UNL     1      -4.998   2.039  -1.113  1.00  0.00     0.272 C 
HETATM   37  O10 UNL     1      -6.000   1.504  -0.695  1.00  0.00    -0.264 OA
HETATM   38  C28 UNL     1      -4.930   3.533  -1.275  1.00  0.00     0.106 C 
ENDBRANCH  35  36
ENDBRANCH   2  35
TORSDOF 3
