REMARK  0 active torsions:
REMARK  status: ('A' for Active; 'I' for Inactive)
ROOT
HETATM    1  C1  UNL     1       1.539  -1.746  -0.244  1.00  0.00     0.172 C 
HETATM    2  C2  UNL     1       2.576  -0.740   0.205  1.00  0.00     0.070 C 
HETATM    3  C3  UNL     1       2.195   0.693  -0.166  1.00  0.00     0.012 C 
HETATM    4  C4  UNL     1       0.811   1.045   0.399  1.00  0.00     0.027 C 
HETATM    5  C5  UNL     1      -0.244   0.047   0.061  1.00  0.00    -0.018 A 
HETATM    6  C6  UNL     1       0.104  -1.305  -0.281  1.00  0.00     0.027 A 
HETATM    7  C7  UNL     1      -0.920  -2.236  -0.654  1.00  0.00    -0.017 A 
HETATM    8  C8  UNL     1      -2.279  -1.840  -0.668  1.00  0.00     0.021 A 
HETATM    9  C9  UNL     1      -2.578  -0.516  -0.293  1.00  0.00     0.099 A 
HETATM   10  C10 UNL     1      -1.629   0.398   0.066  1.00  0.00     0.017 A 
HETATM   11  C11 UNL     1      -2.225   1.580   0.395  1.00  0.00     0.004 A 
HETATM   12  C12 UNL     1      -3.607   1.365   0.209  1.00  0.00     0.118 A 
HETATM   13  O1  UNL     1      -3.844   0.035  -0.228  1.00  0.00    -0.305 OA
HETATM   14  C13 UNL     1      -1.598   2.877   0.867  1.00  0.00     0.033 C 
HETATM   15  C14 UNL     1      -0.602  -3.625  -1.033  1.00  0.00     0.031 C 
HETATM   16  C15 UNL     1       3.256   1.691   0.309  1.00  0.00     0.001 C 
HETATM   17  O2  UNL     1       1.965  -2.840  -0.541  1.00  0.00    -0.291 OA
ENDROOT
TORSDOF 0
