REMARK  2 active torsions:
REMARK  status: ('A' for Active; 'I' for Inactive)
REMARK    1  A    between atoms: N3_8  and  C6_11 
REMARK    2  A    between atoms: C9_14  and  C10_16 
ROOT
HETATM    1  C1  UNL     1      -3.508   2.348  -0.164  1.00  0.00     0.203 A 
HETATM    2  N1  UNL     1      -3.318   3.633  -0.064  1.00  0.00    -0.184 NA
HETATM    3  C2  UNL     1      -2.064   4.219  -0.103  1.00  0.00     0.301 A 
HETATM    4  O1  UNL     1      -1.916   5.414  -0.010  1.00  0.00    -0.263 OA
HETATM    5  C3  UNL     1      -0.926   3.293  -0.266  1.00  0.00     0.175 A 
HETATM    6  C4  UNL     1      -1.111   1.937  -0.369  1.00  0.00     0.171 A 
HETATM    7  N2  UNL     1      -2.496   1.387  -0.318  1.00  0.00    -0.205 NA
HETATM    8  N3  UNL     1       0.031   1.256  -0.510  1.00  0.00    -0.270 N 
HETATM    9  C5  UNL     1       0.981   2.248  -0.492  1.00  0.00     0.182 A 
HETATM   10  N4  UNL     1       0.410   3.498  -0.342  1.00  0.00    -0.217 NA
ENDROOT
BRANCH   8  11
HETATM   11  C6  UNL     1       0.233  -0.196  -0.648  1.00  0.00     0.241 C 
HETATM   12  C7  UNL     1       1.688  -0.639  -0.801  1.00  0.00     0.234 C 
HETATM   13  C8  UNL     1       1.647  -2.094  -0.269  1.00  0.00     0.216 C 
HETATM   14  O5  UNL     1       2.135  -0.506  -2.141  1.00  0.00    -0.216 OA
HETATM   15  C9  UNL     1       0.358  -2.143   0.578  1.00  0.00     0.183 C 
HETATM   16  O4  UNL     1       1.567  -3.071  -1.297  1.00  0.00    -0.218 OA
HETATM   17  O2  UNL     1      -0.123  -0.819   0.561  1.00  0.00    -0.331 OA
BRANCH  15  18
HETATM   18  C10 UNL     1       0.590  -2.555   2.028  1.00  0.00     0.214 C 
HETATM   19  O3  UNL     1       0.965  -3.912   2.045  1.00  0.00    -0.218 OA
ENDBRANCH  15  18
ENDBRANCH   8  11
TORSDOF 2
