REMARK  6 active torsions:
REMARK  status: ('A' for Active; 'I' for Inactive)
REMARK    1  A    between atoms: C2_2  and  O6_25 
REMARK    2  A    between atoms: C4_4  and  C7_7 
REMARK    3  A    between atoms: C8_8  and  C19_23 
REMARK    4  A    between atoms: C9_9  and  C11_12 
REMARK    5  A    between atoms: C11_12  and  C12_13 
REMARK    6  A    between atoms: C14_15  and  O3_20 
ROOT
HETATM    1  C7  UNL     1      -1.291   0.592  -0.102  1.00  0.00     0.143 C 
HETATM    2  C8  UNL     1      -0.869  -0.781  -0.646  1.00  0.00     0.095 C 
HETATM    3  C9  UNL     1       0.559  -0.887  -0.086  1.00  0.00     0.163 C 
HETATM    4  C10 UNL     1       1.027   0.547  -0.330  1.00  0.00     0.173 C 
HETATM    5  O1  UNL     1      -0.094   1.338  -0.004  1.00  0.00    -0.349 OA
HETATM    6  O4  UNL     1       1.336  -1.801  -0.834  1.00  0.00    -0.223 OA
ENDROOT
BRANCH   3   7
HETATM    7  C11 UNL     1       0.637  -1.275   1.391  1.00  0.00     0.059 C 
BRANCH   7   8
HETATM    8  C12 UNL     1       2.029  -1.186   1.906  1.00  0.00    -0.018 A 
HETATM    9  C13 UNL     1       2.912  -2.266   1.738  1.00  0.00     0.022 A 
HETATM   10  C14 UNL     1       4.229  -2.188   2.223  1.00  0.00     0.119 A 
HETATM   11  C15 UNL     1       4.664  -1.020   2.879  1.00  0.00     0.153 A 
HETATM   12  C16 UNL     1       3.781   0.060   3.047  1.00  0.00     0.029 A 
HETATM   13  O2  UNL     1       5.898  -0.938   3.338  1.00  0.00    -0.188 OA
HETATM   14  C17 UNL     1       2.465  -0.022   2.563  1.00  0.00    -0.002 A 
BRANCH  10  15
HETATM   15  O3  UNL     1       5.053  -3.203   2.061  1.00  0.00    -0.326 OA
HETATM   16  C18 UNL     1       4.520  -4.416   1.547  1.00  0.00     0.181 C 
ENDBRANCH  10  15
ENDBRANCH   7   8
ENDBRANCH   3   7
BRANCH   2  17
HETATM   17  C19 UNL     1      -1.797  -1.906  -0.191  1.00  0.00     0.188 C 
HETATM   18  O5  UNL     1      -1.342  -3.111  -0.760  1.00  0.00    -0.221 OA
ENDBRANCH   2  17
BRANCH   1  19
HETATM   19  C4  UNL     1      -2.275   1.309  -0.957  1.00  0.00     0.007 A 
HETATM   20  C3  UNL     1      -2.527   2.676  -0.746  1.00  0.00     0.024 A 
HETATM   21  C2  UNL     1      -3.457   3.357  -1.551  1.00  0.00     0.119 A 
HETATM   22  C1  UNL     1      -4.139   2.668  -2.572  1.00  0.00     0.153 A 
HETATM   23  C6  UNL     1      -3.887   1.299  -2.781  1.00  0.00     0.029 A 
HETATM   24  O7  UNL     1      -5.012   3.297  -3.330  1.00  0.00    -0.188 OA
HETATM   25  C5  UNL     1      -2.957   0.621  -1.975  1.00  0.00     0.000 A 
BRANCH  21  26
HETATM   26  O6  UNL     1      -3.688   4.639  -1.348  1.00  0.00    -0.326 OA
HETATM   27  C20 UNL     1      -3.838   5.477  -2.484  1.00  0.00     0.181 C 
ENDBRANCH  21  26
ENDBRANCH   1  19
TORSDOF 6
