REMARK  13 active torsions:
REMARK  status: ('A' for Active; 'I' for Inactive)
REMARK    1  A    between atoms: C2_2  and  C25_35 
REMARK    2  A    between atoms: C4_4  and  O6_21 
REMARK    3  A    between atoms: C6_6  and  O1_7 
REMARK    4  A    between atoms: O1_7  and  C7_8 
REMARK    5  A    between atoms: C7_8  and  C8_10 
REMARK    6  A    between atoms: C9_11  and  C10_12 
REMARK    7  A    between atoms: O6_21  and  C16_22 
REMARK    8  A    between atoms: C16_22  and  C17_24 
REMARK    9  A    between atoms: C18_25  and  C19_26 
REMARK   10  A    between atoms: C25_35  and  O12_37 
REMARK   11  A    between atoms: O12_37  and  C26_38 
REMARK   12  A    between atoms: C26_38  and  C27_40 
REMARK   13  A    between atoms: C28_41  and  C29_42 
ROOT
HETATM    1  C1  UNL     1       1.115   2.637   3.565  1.00  0.00     0.073 C 
HETATM    2  C2  UNL     1       2.045   1.559   2.963  1.00  0.00     0.209 C 
HETATM    3  C3  UNL     1       1.477   0.145   3.211  1.00  0.00     0.073 C 
HETATM    4  C4  UNL     1       0.035   0.008   2.689  1.00  0.00     0.160 C 
HETATM    5  C5  UNL     1      -0.881   1.080   3.309  1.00  0.00     0.207 C 
HETATM    6  C6  UNL     1      -0.340   2.506   3.082  1.00  0.00     0.160 C 
HETATM    7  O5  UNL     1      -2.180   0.971   2.762  1.00  0.00    -0.218 OA
HETATM    8  O10 UNL     1       3.293   1.645   3.621  1.00  0.00    -0.216 OA
ENDROOT
BRANCH   2   9
HETATM    9  C25 UNL     1       2.309   1.795   1.494  1.00  0.00     0.306 C 
HETATM   10  O11 UNL     1       2.299   2.912   1.031  1.00  0.00    -0.261 OA
BRANCH   9  11
HETATM   11  O12 UNL     1       2.543   0.699   0.777  1.00  0.00    -0.238 OA
BRANCH  11  12
HETATM   12  C26 UNL     1       3.385   0.988  -0.211  1.00  0.00     0.302 C 
HETATM   13  O13 UNL     1       4.219   1.860  -0.152  1.00  0.00    -0.259 OA
BRANCH  12  14
HETATM   14  C27 UNL     1       3.248   0.172  -1.424  1.00  0.00     0.069 C 
HETATM   15  C28 UNL     1       2.320  -0.797  -1.496  1.00  0.00     0.006 C 
BRANCH  15  16
HETATM   16  C29 UNL     1       2.219  -1.601  -2.750  1.00  0.00     0.002 A 
HETATM   17  C30 UNL     1       1.781  -2.937  -2.699  1.00  0.00     0.002 A 
HETATM   18  C31 UNL     1       1.688  -3.691  -3.881  1.00  0.00     0.029 A 
HETATM   19  C32 UNL     1       2.031  -3.115  -5.117  1.00  0.00     0.156 A 
HETATM   20  C33 UNL     1       2.471  -1.779  -5.170  1.00  0.00     0.156 A 
HETATM   21  O15 UNL     1       1.941  -3.830  -6.221  1.00  0.00    -0.188 OA
HETATM   22  C34 UNL     1       2.563  -1.025  -3.986  1.00  0.00     0.029 A 
HETATM   23  O14 UNL     1       2.793  -1.232  -6.324  1.00  0.00    -0.188 OA
ENDBRANCH  15  16
ENDBRANCH  12  14
ENDBRANCH  11  12
ENDBRANCH   9  11
ENDBRANCH   2   9
BRANCH   6  24
HETATM   24  O1  UNL     1      -0.404   2.836   1.699  1.00  0.00    -0.298 OA
BRANCH  24  25
HETATM   25  C7  UNL     1      -1.570   3.377   1.361  1.00  0.00     0.296 C 
HETATM   26  O2  UNL     1      -2.445   3.641   2.152  1.00  0.00    -0.259 OA
BRANCH  25  27
HETATM   27  C8  UNL     1      -1.758   3.651  -0.068  1.00  0.00     0.068 C 
HETATM   28  C9  UNL     1      -0.795   3.344  -0.955  1.00  0.00     0.005 C 
BRANCH  28  29
HETATM   29  C10 UNL     1      -1.029   3.641  -2.400  1.00  0.00     0.002 A 
HETATM   30  C11 UNL     1      -1.848   4.721  -2.773  1.00  0.00     0.002 A 
HETATM   31  C12 UNL     1      -2.068   4.996  -4.135  1.00  0.00     0.029 A 
HETATM   32  C13 UNL     1      -1.473   4.195  -5.125  1.00  0.00     0.156 A 
HETATM   33  C14 UNL     1      -0.652   3.113  -4.750  1.00  0.00     0.156 A 
HETATM   34  O4  UNL     1      -1.682   4.461  -6.399  1.00  0.00    -0.188 OA
HETATM   35  C15 UNL     1      -0.434   2.838  -3.389  1.00  0.00     0.029 A 
HETATM   36  O3  UNL     1      -0.090   2.358  -5.672  1.00  0.00    -0.188 OA
ENDBRANCH  28  29
ENDBRANCH  25  27
ENDBRANCH  24  25
ENDBRANCH   6  24
BRANCH   4  37
HETATM   37  O6  UNL     1      -0.451  -1.287   3.014  1.00  0.00    -0.298 OA
BRANCH  37  38
HETATM   38  C16 UNL     1      -0.176  -1.633   4.268  1.00  0.00     0.296 C 
HETATM   39  O7  UNL     1      -0.445  -0.951   5.229  1.00  0.00    -0.259 OA
BRANCH  38  40
HETATM   40  C17 UNL     1       0.496  -2.926   4.441  1.00  0.00     0.068 C 
HETATM   41  C18 UNL     1      -0.070  -4.057   3.994  1.00  0.00     0.005 C 
BRANCH  41  42
HETATM   42  C19 UNL     1      -1.400  -3.975   3.316  1.00  0.00     0.002 A 
HETATM   43  C20 UNL     1      -2.467  -3.301   3.938  1.00  0.00     0.002 A 
HETATM   44  C21 UNL     1      -3.715  -3.223   3.299  1.00  0.00     0.029 A 
HETATM   45  C22 UNL     1      -3.904  -3.818   2.039  1.00  0.00     0.156 A 
HETATM   46  C23 UNL     1      -2.836  -4.494   1.416  1.00  0.00     0.156 A 
HETATM   47  O9  UNL     1      -5.078  -3.742   1.445  1.00  0.00    -0.188 OA
HETATM   48  C24 UNL     1      -1.588  -4.570   2.057  1.00  0.00     0.029 A 
HETATM   49  O8  UNL     1      -3.004  -5.055   0.234  1.00  0.00    -0.188 OA
ENDBRANCH  41  42
ENDBRANCH  38  40
ENDBRANCH  37  38
ENDBRANCH   4  37
TORSDOF 13
