REMARK  15 active torsions:
REMARK  status: ('A' for Active; 'I' for Inactive)
REMARK    1  A    between atoms: C3_3  and  C49_65 
REMARK    2  A    between atoms: C23_23  and  O2_28 
REMARK    3  A    between atoms: C24_24  and  C26_26 
REMARK    4  A    between atoms: O2_28  and  C27_29 
REMARK    5  A    between atoms: C28_31  and  C45_59 
REMARK    6  A    between atoms: C31_34  and  O4_35 
REMARK    7  A    between atoms: O4_35  and  C32_36 
REMARK    8  A    between atoms: C33_38  and  C44_55 
REMARK    9  A    between atoms: C36_41  and  O6_42 
REMARK   10  A    between atoms: O6_42  and  C37_43 
REMARK   11  A    between atoms: C49_65  and  O18_67 
REMARK   12  A    between atoms: O18_67  and  C50_68 
REMARK   13  A    between atoms: C51_70  and  C61_87 
REMARK   14  A    between atoms: C54_73  and  O20_74 
REMARK   15  A    between atoms: O20_74  and  C55_75 
ROOT
HETATM    1  C1  UNL     1      -5.348   1.412   2.117  1.00  0.00     0.004 C 
HETATM    2  C2  UNL     1      -4.564   2.301   1.102  1.00  0.00     0.027 C 
HETATM    3  C3  UNL     1      -5.281   2.309  -0.285  1.00  0.00     0.082 C 
HETATM    4  C4  UNL     1      -5.553   0.861  -0.754  1.00  0.00     0.010 C 
HETATM    5  C5  UNL     1      -6.428   0.084   0.240  1.00  0.00     0.001 C 
HETATM    6  C6  UNL     1      -5.781   0.000   1.631  1.00  0.00     0.000 C 
HETATM    7  C7  UNL     1      -6.799  -0.574   2.623  1.00  0.00     0.000 C 
HETATM    8  C8  UNL     1      -4.613  -0.990   1.564  1.00  0.00     0.000 C 
HETATM    9  C9  UNL     1      -4.469   3.061  -1.361  1.00  0.00     0.010 C 
HETATM   10  C10 UNL     1      -2.975   2.705  -1.373  1.00  0.00     0.004 C 
HETATM   11  C11 UNL     1      -2.299   2.959  -0.002  1.00  0.00     0.015 C 
HETATM   12  C12 UNL     1      -3.059   2.049   0.963  1.00  0.00    -0.049 C 
HETATM   13  C13 UNL     1      -2.432   1.066   1.641  1.00  0.00    -0.035 C 
HETATM   14  C14 UNL     1      -1.012   0.652   1.369  1.00  0.00     0.025 C 
HETATM   15  C15 UNL     1      -0.394   1.223   0.072  1.00  0.00     0.005 C 
HETATM   16  C16 UNL     1      -0.738   2.736  -0.049  1.00  0.00     0.004 C 
HETATM   17  C17 UNL     1       0.025   3.475   1.082  1.00  0.00     0.000 C 
HETATM   18  C18 UNL     1       1.547   3.236   1.022  1.00  0.00     0.000 C 
HETATM   19  C19 UNL     1       1.920   1.738   1.055  1.00  0.00     0.005 C 
HETATM   20  C20 UNL     1       1.139   0.926  -0.025  1.00  0.00     0.001 C 
HETATM   21  C21 UNL     1       1.445  -0.576   0.176  1.00  0.00     0.003 C 
HETATM   22  C22 UNL     1       2.951  -0.875   0.119  1.00  0.00     0.030 C 
HETATM   23  C23 UNL     1       3.713  -0.045   1.170  1.00  0.00     0.120 C 
HETATM   24  C24 UNL     1       3.455   1.482   1.047  1.00  0.00     0.056 C 
HETATM   25  C25 UNL     1       4.104   2.053  -0.225  1.00  0.00     0.005 C 
HETATM   26  C46 UNL     1       1.625   1.279  -1.439  1.00  0.00     0.000 C 
HETATM   27  C47 UNL     1      -0.215   3.332  -1.371  1.00  0.00     0.000 C 
HETATM   28  C48 UNL     1      -2.572   4.418   0.404  1.00  0.00     0.004 C 
ENDROOT
BRANCH  23  29
HETATM   29  O2  UNL     1       5.094  -0.336   1.066  1.00  0.00    -0.332 OA
BRANCH  29  30
HETATM   30  C27 UNL     1       5.410  -1.672   1.402  1.00  0.00     0.267 C 
HETATM   31  O3  UNL     1       4.908  -2.018   2.693  1.00  0.00    -0.318 OA
HETATM   32  C28 UNL     1       5.512  -1.344   3.799  1.00  0.00     0.237 C 
HETATM   33  C29 UNL     1       7.041  -1.609   3.848  1.00  0.00     0.223 C 
HETATM   34  C30 UNL     1       7.727  -1.293   2.500  1.00  0.00     0.217 C 
HETATM   35  O14 UNL     1       7.293  -2.969   4.170  1.00  0.00    -0.217 OA
HETATM   36  C31 UNL     1       6.936  -1.953   1.344  1.00  0.00     0.207 C 
HETATM   37  O13 UNL     1       7.779   0.115   2.348  1.00  0.00    -0.218 OA
BRANCH  32  38
HETATM   38  C45 UNL     1       4.789  -1.754   5.059  1.00  0.00     0.217 C 
HETATM   39  O15 UNL     1       5.315  -2.477   5.871  1.00  0.00    -0.646 OA
HETATM   40  O16 UNL     1       3.561  -1.262   5.192  1.00  0.00    -0.646 OA
ENDBRANCH  32  38
BRANCH  36  41
HETATM   41  O4  UNL     1       7.479  -1.609   0.078  1.00  0.00    -0.324 OA
BRANCH  41  42
HETATM   42  C32 UNL     1       8.758  -2.168  -0.150  1.00  0.00     0.267 C 
HETATM   43  O5  UNL     1       9.719  -1.127   0.037  1.00  0.00    -0.326 OA
HETATM   44  C33 UNL     1      11.012  -1.373  -0.500  1.00  0.00     0.184 C 
HETATM   45  C34 UNL     1      10.938  -1.465  -2.053  1.00  0.00     0.215 C 
HETATM   46  C35 UNL     1       9.539  -1.891  -2.600  1.00  0.00     0.217 C 
HETATM   47  O11 UNL     1      11.387  -0.244  -2.629  1.00  0.00    -0.218 OA
HETATM   48  C36 UNL     1       8.803  -2.783  -1.584  1.00  0.00     0.204 C 
HETATM   49  O10 UNL     1       8.699  -0.773  -2.855  1.00  0.00    -0.218 OA
BRANCH  44  50
HETATM   50  C44 UNL     1      11.604  -2.631   0.152  1.00  0.00     0.214 C 
HETATM   51  O12 UNL     1      12.133  -2.270   1.408  1.00  0.00    -0.218 OA
ENDBRANCH  44  50
BRANCH  48  52
HETATM   52  O6  UNL     1       9.469  -4.033  -1.531  1.00  0.00    -0.349 OA
BRANCH  52  53
HETATM   53  C37 UNL     1       9.651  -4.625  -2.805  1.00  0.00     0.149 C 
HETATM   54  C38 UNL     1       8.291  -4.688  -3.533  1.00  0.00     0.035 C 
HETATM   55  C39 UNL     1       7.305  -5.695  -2.908  1.00  0.00     0.036 C 
HETATM   56  C40 UNL     1       7.957  -7.090  -2.777  1.00  0.00     0.185 C 
HETATM   57  C43 UNL     1       6.742  -5.172  -1.576  1.00  0.00     0.003 C 
HETATM   58  C41 UNL     1       9.317  -7.055  -2.031  1.00  0.00     0.215 C 
HETATM   59  O9  UNL     1       7.055  -7.969  -2.123  1.00  0.00    -0.221 OA
HETATM   60  C42 UNL     1      10.279  -6.033  -2.684  1.00  0.00     0.212 C 
HETATM   61  O8  UNL     1       9.906  -8.348  -2.080  1.00  0.00    -0.218 OA
HETATM   62  O7  UNL     1      11.504  -5.961  -1.969  1.00  0.00    -0.218 OA
ENDBRANCH  52  53
ENDBRANCH  48  52
ENDBRANCH  41  42
ENDBRANCH  36  41
ENDBRANCH  29  30
ENDBRANCH  23  29
BRANCH  24  63
HETATM   63  C26 UNL     1       4.100   2.191   2.250  1.00  0.00     0.184 C 
HETATM   64  O1  UNL     1       3.442   1.762   3.420  1.00  0.00    -0.221 OA
ENDBRANCH  24  63
BRANCH   3  65
HETATM   65  C49 UNL     1      -6.609   3.027  -0.166  1.00  0.00     0.273 C 
HETATM   66  O17 UNL     1      -6.727   4.008   0.531  1.00  0.00    -0.264 OA
BRANCH  65  67
HETATM   67  O18 UNL     1      -7.604   2.500  -0.875  1.00  0.00    -0.273 OA
BRANCH  67  68
HETATM   68  C50 UNL     1      -8.627   3.445  -1.158  1.00  0.00     0.273 C 
HETATM   69  O19 UNL     1      -8.365   4.096  -2.402  1.00  0.00    -0.326 OA
HETATM   70  C51 UNL     1      -8.828   3.424  -3.572  1.00  0.00     0.184 C 
HETATM   71  C52 UNL     1     -10.383   3.340  -3.561  1.00  0.00     0.215 C 
HETATM   72  C53 UNL     1     -10.992   3.379  -2.135  1.00  0.00     0.217 C 
HETATM   73  O26 UNL     1     -10.918   4.412  -4.316  1.00  0.00    -0.218 OA
HETATM   74  C54 UNL     1     -10.008   2.736  -1.137  1.00  0.00     0.207 C 
HETATM   75  O25 UNL     1     -12.236   2.699  -2.131  1.00  0.00    -0.218 OA
BRANCH  70  76
HETATM   76  C61 UNL     1      -8.152   2.049  -3.668  1.00  0.00     0.214 C 
HETATM   77  O27 UNL     1      -6.764   2.248  -3.809  1.00  0.00    -0.218 OA
ENDBRANCH  70  76
BRANCH  74  78
HETATM   78  O20 UNL     1     -10.524   2.783   0.182  1.00  0.00    -0.324 OA
BRANCH  78  79
HETATM   79  C55 UNL     1      -9.766   2.025   1.104  1.00  0.00     0.270 C 
HETATM   80  C56 UNL     1     -10.115   2.443   2.565  1.00  0.00     0.241 C 
HETATM   81  C57 UNL     1     -11.137   1.494   3.246  1.00  0.00     0.220 C 
HETATM   82  O24 UNL     1      -8.928   2.461   3.338  1.00  0.00    -0.215 OA
HETATM   83  C58 UNL     1     -12.072   0.889   2.180  1.00  0.00     0.212 C 
HETATM   84  O23 UNL     1     -11.875   2.215   4.219  1.00  0.00    -0.218 OA
HETATM   85  C59 UNL     1     -11.283   0.127   1.080  1.00  0.00     0.151 C 
HETATM   86  O22 UNL     1     -13.000  -0.004   2.775  1.00  0.00    -0.218 OA
HETATM   87  O21 UNL     1      -9.951   0.623   0.926  1.00  0.00    -0.329 OA
HETATM   88  C60 UNL     1     -11.983   0.170  -0.283  1.00  0.00     0.035 C 
ENDBRANCH  78  79
ENDBRANCH  74  78
ENDBRANCH  67  68
ENDBRANCH  65  67
ENDBRANCH   3  65
TORSDOF 15
