REMARK  2 active torsions:
REMARK  status: ('A' for Active; 'I' for Inactive)
REMARK    1  A    between atoms: C2_2  and  O3_33 
REMARK    2  A    between atoms: O3_33  and  C30_34 
ROOT
HETATM    1  C1  UNL     1       4.438  -2.074  -0.297  1.00  0.00     0.028 C 
HETATM    2  C2  UNL     1       5.555  -1.047  -0.039  1.00  0.00     0.102 C 
HETATM    3  C3  UNL     1       5.033   0.141   0.795  1.00  0.00     0.035 C 
HETATM    4  C4  UNL     1       3.781   0.781   0.164  1.00  0.00     0.060 C 
HETATM    5  C5  UNL     1       2.658  -0.272  -0.029  1.00  0.00     0.007 C 
HETATM    6  C6  UNL     1       3.176  -1.432  -0.902  1.00  0.00     0.003 C 
HETATM    7  C7  UNL     1       1.496   0.453  -0.748  1.00  0.00     0.001 C 
HETATM    8  C8  UNL     1       0.947   1.602   0.103  1.00  0.00     0.007 C 
HETATM    9  C9  UNL     1       2.035   2.650   0.344  1.00  0.00     0.065 C 
HETATM   10  C10 UNL     1       3.277   2.002   0.910  1.00  0.00     0.150 C 
HETATM   11  O1  UNL     1       3.826   2.432   1.898  1.00  0.00    -0.296 OA
HETATM   12  C11 UNL     1      -0.236   2.053  -0.748  1.00  0.00     0.001 C 
HETATM   13  C12 UNL     1      -0.879   0.730  -1.211  1.00  0.00     0.002 C 
HETATM   14  C13 UNL     1       0.217  -0.336  -1.022  1.00  0.00     0.000 C 
HETATM   15  C14 UNL     1      -2.182   0.334  -0.477  1.00  0.00     0.024 C 
HETATM   16  C15 UNL     1      -3.182   1.512  -0.291  1.00  0.00     0.032 C 
HETATM   17  C16 UNL     1      -2.570   2.883  -0.645  1.00  0.00     0.003 C 
HETATM   18  C17 UNL     1      -1.176   3.018  -0.023  1.00  0.00     0.000 C 
HETATM   19  C18 UNL     1      -4.547   1.221  -0.953  1.00  0.00     0.143 C 
HETATM   20  C19 UNL     1      -5.107  -0.170  -0.504  1.00  0.00     0.086 C 
HETATM   21  N1  UNL     1      -4.135  -1.248  -0.826  1.00  0.00    -0.369 N 
HETATM   22  C20 UNL     1      -2.775  -0.869  -1.250  1.00  0.00     0.097 C 
HETATM   23  C21 UNL     1      -4.238  -2.463  -0.008  1.00  0.00     0.097 C 
HETATM   24  C22 UNL     1      -3.893  -2.192   1.469  1.00  0.00     0.022 C 
HETATM   25  C23 UNL     1      -4.387  -0.809   1.936  1.00  0.00     0.004 C 
HETATM   26  C24 UNL     1      -5.482  -0.238   1.018  1.00  0.00     0.023 C 
HETATM   27  C25 UNL     1      -2.398  -2.379   1.752  1.00  0.00     0.002 C 
HETATM   28  C26 UNL     1      -6.375  -0.488  -1.318  1.00  0.00     0.025 C 
HETATM   29  O2  UNL     1      -5.461   2.238  -0.576  1.00  0.00    -0.224 OA
HETATM   30  C27 UNL     1      -4.455   1.344  -2.484  1.00  0.00     0.035 C 
HETATM   31  C28 UNL     1       2.158  -0.815   1.322  1.00  0.00     0.000 C 
HETATM   32  C29 UNL     1       6.168  -0.563  -1.359  1.00  0.00     0.030 C 
ENDROOT
BRANCH   2  33
HETATM   33  O3  UNL     1       6.586  -1.688   0.699  1.00  0.00    -0.307 OA
BRANCH  33  34
HETATM   34  C30 UNL     1       7.516  -0.832   1.119  1.00  0.00     0.272 C 
HETATM   35  O4  UNL     1       7.885   0.127   0.482  1.00  0.00    -0.264 OA
HETATM   36  C31 UNL     1       8.100  -1.135   2.473  1.00  0.00     0.106 C 
ENDBRANCH  33  34
ENDBRANCH   2  33
TORSDOF 2
