REMARK  8 active torsions:
REMARK  status: ('A' for Active; 'I' for Inactive)
REMARK    1  A    between atoms: C2_2  and  O10_36 
REMARK    2  A    between atoms: C10_10  and  O1_11 
REMARK    3  A    between atoms: O1_11  and  C11_12 
REMARK    4  A    between atoms: C11_12  and  C12_13 
REMARK    5  A    between atoms: C19_22  and  C22_27 
REMARK    6  A    between atoms: C22_27  and  O7_29 
REMARK    7  A    between atoms: O10_36  and  C27_37 
REMARK    8  A    between atoms: C31_41  and  C32_43 
ROOT
HETATM    1  C1  UNL     1      -1.641  -1.717   1.658  1.00  0.00     0.195 C 
HETATM    2  C2  UNL     1      -2.221  -0.590   0.898  1.00  0.00     0.123 C 
HETATM    3  C3  UNL     1      -1.441   0.391   0.395  1.00  0.00    -0.017 C 
HETATM    4  C4  UNL     1       0.070   0.393   0.623  1.00  0.00     0.051 C 
HETATM    5  C5  UNL     1       0.617  -1.062   0.674  1.00  0.00     0.016 C 
HETATM    6  C6  UNL     1      -0.139  -1.826   1.783  1.00  0.00     0.072 C 
HETATM    7  C7  UNL     1       2.152  -1.068   0.990  1.00  0.00     0.039 C 
HETATM    8  C8  UNL     1       2.957  -0.113   0.063  1.00  0.00     0.061 C 
HETATM    9  C9  UNL     1       2.367   1.309   0.016  1.00  0.00     0.155 C 
HETATM   10  C10 UNL     1       0.883   1.254  -0.375  1.00  0.00     0.156 C 
HETATM   11  O3  UNL     1       2.453   1.994   1.275  1.00  0.00    -0.302 OA
HETATM   12  C16 UNL     1       3.561   1.889   2.029  1.00  0.00     0.272 C 
HETATM   13  C17 UNL     1       4.492   0.709   1.902  1.00  0.00     0.099 C 
HETATM   14  C18 UNL     1       4.410   0.086   0.514  1.00  0.00     0.052 C 
HETATM   15  C19 UNL     1       4.963  -1.311   0.197  1.00  0.00     0.201 C 
HETATM   16  C20 UNL     1       4.383  -2.437   1.096  1.00  0.00     0.216 C 
HETATM   17  C21 UNL     1       2.828  -2.473   1.127  1.00  0.00     0.185 C 
HETATM   18  O4  UNL     1       2.408  -3.355   0.104  1.00  0.00    -0.221 OA
HETATM   19  O5  UNL     1       4.873  -2.322   2.418  1.00  0.00    -0.218 OA
HETATM   20  O8  UNL     1       4.453  -1.502  -1.109  1.00  0.00    -0.347 OA
HETATM   21  C24 UNL     1       3.287  -0.723  -1.314  1.00  0.00     0.145 C 
HETATM   22  O9  UNL     1       3.832   2.733   2.852  1.00  0.00    -0.264 OA
HETATM   23  C25 UNL     1       0.299  -1.725  -0.682  1.00  0.00     0.001 C 
HETATM   24  C26 UNL     1      -2.078   1.500  -0.406  1.00  0.00     0.029 C 
HETATM   25  O16 UNL     1      -2.361  -2.545   2.164  1.00  0.00    -0.289 OA
ENDROOT
BRANCH   2  26
HETATM   26  O10 UNL     1      -3.539  -0.557   0.707  1.00  0.00    -0.301 OA
BRANCH  26  27
HETATM   27  C27 UNL     1      -4.022  -1.717   0.039  1.00  0.00     0.274 C 
HETATM   28  C28 UNL     1      -4.803  -1.332  -1.236  1.00  0.00     0.241 C 
HETATM   29  C29 UNL     1      -6.111  -0.590  -0.891  1.00  0.00     0.220 C 
HETATM   30  O15 UNL     1      -3.977  -0.527  -2.059  1.00  0.00    -0.215 OA
HETATM   31  C30 UNL     1      -6.906  -1.408   0.150  1.00  0.00     0.215 C 
HETATM   32  O14 UNL     1      -6.889  -0.414  -2.064  1.00  0.00    -0.218 OA
HETATM   33  C31 UNL     1      -6.027  -1.799   1.359  1.00  0.00     0.184 C 
HETATM   34  O13 UNL     1      -8.010  -0.648   0.615  1.00  0.00    -0.218 OA
HETATM   35  O11 UNL     1      -4.859  -2.471   0.906  1.00  0.00    -0.326 OA
BRANCH  33  36
HETATM   36  C32 UNL     1      -6.740  -2.752   2.326  1.00  0.00     0.214 C 
HETATM   37  O12 UNL     1      -5.936  -2.895   3.475  1.00  0.00    -0.218 OA
ENDBRANCH  33  36
ENDBRANCH  26  27
ENDBRANCH   2  26
BRANCH  10  38
HETATM   38  O1  UNL     1       0.396   2.588  -0.389  1.00  0.00    -0.298 OA
BRANCH  38  39
HETATM   39  C11 UNL     1       0.807   3.268  -1.455  1.00  0.00     0.295 C 
HETATM   40  O2  UNL     1       1.436   2.777  -2.363  1.00  0.00    -0.259 OA
BRANCH  39  41
HETATM   41  C12 UNL     1       0.451   4.692  -1.480  1.00  0.00     0.060 C 
HETATM   42  C13 UNL     1      -0.240   5.205  -2.512  1.00  0.00    -0.038 C 
HETATM   43  C14 UNL     1      -0.639   6.651  -2.656  1.00  0.00     0.026 C 
HETATM   44  C15 UNL     1      -0.664   4.283  -3.623  1.00  0.00     0.026 C 
ENDBRANCH  39  41
ENDBRANCH  38  39
ENDBRANCH  10  38
BRANCH  15  45
HETATM   45  C22 UNL     1       6.473  -1.344   0.125  1.00  0.00     0.299 C 
HETATM   46  O6  UNL     1       7.065  -2.387  -0.029  1.00  0.00    -0.262 OA
BRANCH  45  47
HETATM   47  O7  UNL     1       7.070  -0.162   0.244  1.00  0.00    -0.297 OA
HETATM   48  C23 UNL     1       8.485  -0.264   0.170  1.00  0.00     0.185 C 
ENDBRANCH  45  47
ENDBRANCH  15  45
TORSDOF 8
