REMARK  8 active torsions:
REMARK  status: ('A' for Active; 'I' for Inactive)
REMARK    1  A    between atoms: C1_1  and  C17_25 
REMARK    2  A    between atoms: C2_2  and  C15_23 
REMARK    3  A    between atoms: C3_3  and  O3_11 
REMARK    4  A    between atoms: C6_6  and  C7_7 
REMARK    5  A    between atoms: C7_7  and  O2_9 
REMARK    6  A    between atoms: O3_11  and  C9_12 
REMARK    7  A    between atoms: C13_16  and  C14_18 
REMARK    8  A    between atoms: C17_25  and  C18_26 
ROOT
HETATM    1  C1  UNL     1       2.391  -0.676   0.172  1.00  0.00     0.044 C 
HETATM    2  C2  UNL     1       1.432   0.328  -0.510  1.00  0.00     0.054 C 
HETATM    3  C3  UNL     1      -0.064  -0.068  -0.316  1.00  0.00     0.127 C 
HETATM    4  C4  UNL     1      -0.285  -1.522   0.174  1.00  0.00     0.056 C 
HETATM    5  C5  UNL     1       0.785  -2.477  -0.303  1.00  0.00    -0.023 C 
HETATM    6  C6  UNL     1       2.076  -2.088  -0.295  1.00  0.00     0.037 C 
ENDROOT
BRANCH   3   7
HETATM    7  O3  UNL     1      -0.678   0.807   0.613  1.00  0.00    -0.331 OA
BRANCH   7   8
HETATM    8  C9  UNL     1      -2.088   0.719   0.617  1.00  0.00     0.270 C 
HETATM    9  C10 UNL     1      -2.701   1.529   1.785  1.00  0.00     0.241 C 
HETATM   10  C11 UNL     1      -4.244   1.367   1.814  1.00  0.00     0.220 C 
HETATM   11  O8  UNL     1      -2.174   1.092   3.027  1.00  0.00    -0.215 OA
HETATM   12  C12 UNL     1      -4.820   1.150   0.391  1.00  0.00     0.215 C 
HETATM   13  O7  UNL     1      -4.814   2.533   2.379  1.00  0.00    -0.218 OA
HETATM   14  C13 UNL     1      -3.885   1.711  -0.709  1.00  0.00     0.184 C 
HETATM   15  O6  UNL     1      -5.020  -0.234   0.164  1.00  0.00    -0.218 OA
HETATM   16  O4  UNL     1      -2.563   1.170  -0.652  1.00  0.00    -0.326 OA
BRANCH  14  17
HETATM   17  C14 UNL     1      -3.754   3.234  -0.629  1.00  0.00     0.214 C 
HETATM   18  O5  UNL     1      -3.537   3.729  -1.932  1.00  0.00    -0.218 OA
ENDBRANCH  14  17
ENDBRANCH   7   8
ENDBRANCH   3   7
BRANCH   2  19
HETATM   19  C15 UNL     1       1.754   0.455  -1.982  1.00  0.00    -0.024 C 
HETATM   20  C16 UNL     1       2.256   1.617  -2.430  1.00  0.00    -0.005 C 
ENDBRANCH   2  19
BRANCH   1  21
HETATM   21  C17 UNL     1       3.863  -0.283  -0.020  1.00  0.00     0.102 C 
BRANCH  21  22
HETATM   22  C18 UNL     1       4.775  -0.984   0.949  1.00  0.00     0.186 C 
HETATM   23  O9  UNL     1       4.412  -1.236   2.076  1.00  0.00    -0.647 OA
HETATM   24  O10 UNL     1       5.977  -1.295   0.473  1.00  0.00    -0.647 OA
ENDBRANCH  21  22
ENDBRANCH   1  21
BRANCH   6  25
HETATM   25  C7  UNL     1       3.149  -2.998  -0.730  1.00  0.00     0.291 C 
HETATM   26  O1  UNL     1       3.371  -3.160  -1.908  1.00  0.00    -0.260 OA
BRANCH  25  27
HETATM   27  O2  UNL     1       3.824  -3.602   0.242  1.00  0.00    -0.296 OA
HETATM   28  C8  UNL     1       4.836  -4.465  -0.258  1.00  0.00     0.185 C 
ENDBRANCH  25  27
ENDBRANCH   6  25
TORSDOF 8
