REMARK  6 active torsions:
REMARK  status: ('A' for Active; 'I' for Inactive)
REMARK    1  A    between atoms: C5_5  and  C7_7 
REMARK    2  A    between atoms: C7_7  and  C8_8 
REMARK    3  A    between atoms: C8_8  and  N1_9 
REMARK       I    between atoms: N1_9  and  C9_10 
REMARK    4  A    between atoms: C9_10  and  C10_12 
REMARK    5  A    between atoms: C11_13  and  C12_14 
REMARK    6  A    between atoms: C15_17  and  O2_20 
ROOT
HETATM    1  N1  UNL     1      -1.715  -1.721   0.363  1.00  0.00    -0.234 NA
HETATM    2  C9  UNL     1      -1.471  -2.672  -0.588  1.00  0.00     0.275 C 
HETATM    3  O1  UNL     1      -0.416  -3.260  -0.606  1.00  0.00    -0.266 OA
ENDROOT
BRANCH   2   4
HETATM    4  C10 UNL     1      -2.506  -2.971  -1.586  1.00  0.00     0.062 C 
HETATM    5  C11 UNL     1      -2.842  -2.062  -2.516  1.00  0.00     0.005 C 
BRANCH   5   6
HETATM    6  C12 UNL     1      -2.143  -0.744  -2.516  1.00  0.00     0.000 A 
HETATM    7  C13 UNL     1      -2.889   0.449  -2.516  1.00  0.00     0.002 A 
HETATM    8  C14 UNL     1      -2.228   1.690  -2.516  1.00  0.00     0.024 A 
HETATM    9  C15 UNL     1      -0.824   1.746  -2.516  1.00  0.00     0.094 A 
HETATM   10  C16 UNL     1      -0.080   0.551  -2.516  1.00  0.00     0.024 A 
HETATM   11  C17 UNL     1      -0.736  -0.691  -2.516  1.00  0.00     0.002 A 
BRANCH   9  12
HETATM   12  O2  UNL     1      -0.207   2.910  -2.516  1.00  0.00    -0.328 OA
HETATM   13  C18 UNL     1      -1.000   4.086  -2.586  1.00  0.00     0.181 C 
ENDBRANCH   9  12
ENDBRANCH   5   6
ENDBRANCH   2   4
BRANCH   1  14
HETATM   14  C8  UNL     1      -0.682  -1.418   1.363  1.00  0.00     0.134 C 
BRANCH  14  15
HETATM   15  C7  UNL     1       0.440  -0.574   0.756  1.00  0.00     0.053 C 
BRANCH  15  16
HETATM   16  C5  UNL     1       1.481  -0.242   1.761  1.00  0.00    -0.018 A 
HETATM   17  C4  UNL     1       2.363  -1.238   2.217  1.00  0.00     0.025 A 
HETATM   18  C3  UNL     1       3.350  -0.930   3.170  1.00  0.00     0.156 A 
HETATM   19  C2  UNL     1       3.455   0.383   3.668  1.00  0.00     0.156 A 
HETATM   20  O3  UNL     1       4.174  -1.867   3.590  1.00  0.00    -0.188 OA
HETATM   21  C1  UNL     1       2.572   1.379   3.213  1.00  0.00     0.029 A 
HETATM   22  O4  UNL     1       4.379   0.682   4.560  1.00  0.00    -0.188 OA
HETATM   23  C6  UNL     1       1.586   1.068   2.261  1.00  0.00    -0.002 A 
ENDBRANCH  15  16
ENDBRANCH  14  15
ENDBRANCH   1  14
TORSDOF 6
