REMARK  10 active torsions:
REMARK  status: ('A' for Active; 'I' for Inactive)
REMARK    1  A    between atoms: C5_5  and  C7_7 
REMARK    2  A    between atoms: C7_7  and  C8_8 
REMARK    3  A    between atoms: C8_8  and  C9_9 
REMARK    4  A    between atoms: C9_9  and  C10_10 
REMARK    5  A    between atoms: C9_9  and  O1_17 
REMARK    6  A    between atoms: C11_11  and  C12_12 
REMARK    7  A    between atoms: C12_12  and  C13_13 
REMARK    8  A    between atoms: C13_13  and  C14_14 
REMARK    9  A    between atoms: C14_14  and  C15_15 
REMARK   10  A    between atoms: O1_17  and  C17_18 
ROOT
HETATM    1  C9  UNL     1       0.437  -0.080   1.021  1.00  0.00     0.146 C 
ENDROOT
BRANCH   1   2
HETATM    2  C8  UNL     1       1.170   1.264   1.050  1.00  0.00     0.040 C 
BRANCH   2   3
HETATM    3  C7  UNL     1       1.436   1.760   2.472  1.00  0.00     0.029 C 
BRANCH   3   4
HETATM    4  C5  UNL     1       2.131   3.073   2.472  1.00  0.00    -0.022 A 
HETATM    5  C4  UNL     1       3.535   3.125   2.472  1.00  0.00    -0.002 A 
HETATM    6  C3  UNL     1       4.193   4.367   2.472  1.00  0.00     0.027 A 
HETATM    7  C2  UNL     1       3.449   5.561   2.472  1.00  0.00     0.131 A 
HETATM    8  C1  UNL     1       2.045   5.506   2.472  1.00  0.00     0.027 A 
HETATM    9  O3  UNL     1       4.066   6.725   2.472  1.00  0.00    -0.190 OA
HETATM   10  C6  UNL     1       1.385   4.264   2.472  1.00  0.00    -0.002 A 
ENDBRANCH   3   4
ENDBRANCH   2   3
ENDBRANCH   1   2
BRANCH   1  11
HETATM   11  C10 UNL     1       0.121  -0.529  -0.381  1.00  0.00    -0.001 C 
HETATM   12  C11 UNL     1      -1.160  -0.515  -0.784  1.00  0.00    -0.028 C 
BRANCH  12  13
HETATM   13  C12 UNL     1      -1.477  -0.967  -2.186  1.00  0.00     0.026 C 
BRANCH  13  14
HETATM   14  C13 UNL     1      -2.545  -2.056  -2.219  1.00  0.00     0.005 C 
BRANCH  14  15
HETATM   15  C14 UNL     1      -2.879  -2.514  -3.639  1.00  0.00     0.000 C 
BRANCH  15  16
HETATM   16  C15 UNL     1      -3.947  -3.607  -3.672  1.00  0.00     0.000 C 
HETATM   17  C16 UNL     1      -4.281  -4.062  -5.094  1.00  0.00     0.000 C 
ENDBRANCH  15  16
ENDBRANCH  14  15
ENDBRANCH  13  14
ENDBRANCH  12  13
ENDBRANCH   1  11
BRANCH   1  18
HETATM   18  O1  UNL     1       1.230  -1.064   1.668  1.00  0.00    -0.300 OA
BRANCH  18  19
HETATM   19  C17 UNL     1       0.545  -2.176   1.925  1.00  0.00     0.273 C 
HETATM   20  O2  UNL     1      -0.633  -2.310   1.687  1.00  0.00    -0.264 OA
HETATM   21  C18 UNL     1       1.344  -3.289   2.548  1.00  0.00     0.106 C 
ENDBRANCH  18  19
ENDBRANCH   1  18
TORSDOF 10
