REMARK  4 active torsions:
REMARK  status: ('A' for Active; 'I' for Inactive)
REMARK    1  A    between atoms: C14_16  and  C16_18 
REMARK    2  A    between atoms: C16_18  and  C19_22 
REMARK    3  A    between atoms: C17_19  and  O1_20 
REMARK    4  A    between atoms: C19_22  and  O3_24 
ROOT
HETATM    1  C1  UNL     1      -5.207   1.488   0.281  1.00  0.00     0.001 A 
HETATM    2  C2  UNL     1      -6.408   0.900  -0.197  1.00  0.00     0.000 A 
HETATM    3  C3  UNL     1      -6.369  -0.033  -1.270  1.00  0.00     0.002 A 
HETATM    4  C4  UNL     1      -5.131  -0.381  -1.869  1.00  0.00     0.019 A 
HETATM    5  C5  UNL     1      -3.951   0.221  -1.373  1.00  0.00     0.081 A 
HETATM    6  C6  UNL     1      -3.986   1.123  -0.338  1.00  0.00     0.015 A 
HETATM    7  C7  UNL     1      -2.754   1.574  -0.023  1.00  0.00    -0.003 A 
HETATM    8  C8  UNL     1      -1.871   0.932  -0.896  1.00  0.00     0.075 A 
HETATM    9  N1  UNL     1      -2.621   0.084  -1.748  1.00  0.00    -0.248 NA
HETATM   10  C9  UNL     1      -0.359   1.141  -0.895  1.00  0.00     0.118 C 
HETATM   11  N2  UNL     1       0.074   2.014   0.238  1.00  0.00    -0.362 N 
HETATM   12  C10 UNL     1      -0.869   3.096   0.617  1.00  0.00     0.102 C 
HETATM   13  C11 UNL     1      -2.268   2.563   1.021  1.00  0.00     0.051 C 
HETATM   14  C12 UNL     1       0.688   1.317   1.377  1.00  0.00     0.120 C 
HETATM   15  C13 UNL     1       1.922   0.559   0.920  1.00  0.00    -0.023 C 
HETATM   16  C14 UNL     1       1.846  -0.111  -0.443  1.00  0.00     0.051 C 
HETATM   17  C15 UNL     1       0.381  -0.221  -0.898  1.00  0.00     0.037 C 
HETATM   18  C21 UNL     1       3.041   0.488   1.676  1.00  0.00    -0.032 C 
HETATM   19  C22 UNL     1       3.137   1.131   3.037  1.00  0.00     0.030 C 
ENDROOT
BRANCH  16  20
HETATM   20  C16 UNL     1       2.484  -1.480  -0.424  1.00  0.00     0.069 C 
HETATM   21  C17 UNL     1       3.377  -1.785  -1.381  1.00  0.00     0.117 C 
BRANCH  21  22
HETATM   22  O1  UNL     1       3.688  -0.894  -2.318  1.00  0.00    -0.326 OA
HETATM   23  C18 UNL     1       4.649  -1.393  -3.240  1.00  0.00     0.181 C 
ENDBRANCH  21  22
BRANCH  20  24
HETATM   24  C19 UNL     1       2.102  -2.420   0.637  1.00  0.00     0.294 C 
HETATM   25  O2  UNL     1       1.180  -2.162   1.377  1.00  0.00    -0.259 OA
BRANCH  24  26
HETATM   26  O3  UNL     1       2.824  -3.533   0.715  1.00  0.00    -0.296 OA
HETATM   27  C20 UNL     1       2.393  -4.387   1.764  1.00  0.00     0.185 C 
ENDBRANCH  24  26
ENDBRANCH  20  24
ENDBRANCH  16  20
TORSDOF 4
