REMARK  5 active torsions:
REMARK  status: ('A' for Active; 'I' for Inactive)
REMARK    1  A    between atoms: C5_9  and  C6_11 
REMARK    2  A    between atoms: C6_11  and  O6_12 
REMARK    3  A    between atoms: O6_12  and  C7_13 
REMARK    4  A    between atoms: C7_13  and  C8_14 
REMARK    5  A    between atoms: C9_15  and  C10_16 
ROOT
HETATM    1  C6  UNL     1      -0.930   1.432  -0.273  1.00  0.00     0.184 C 
ENDROOT
BRANCH   1   2
HETATM    2  C5  UNL     1       0.121   2.461   0.160  1.00  0.00     0.181 C 
HETATM    3  C4  UNL     1      -0.310   3.916  -0.135  1.00  0.00     0.215 C 
HETATM    4  C3  UNL     1       0.830   4.918   0.150  1.00  0.00     0.220 C 
HETATM    5  O4  UNL     1      -1.435   4.229   0.668  1.00  0.00    -0.218 OA
HETATM    6  C2  UNL     1       2.108   4.451  -0.582  1.00  0.00     0.244 C 
HETATM    7  O3  UNL     1       0.459   6.211  -0.303  1.00  0.00    -0.218 OA
HETATM    8  C1  UNL     1       2.445   2.971  -0.269  1.00  0.00     0.303 C 
HETATM    9  O2  UNL     1       3.209   5.287  -0.258  1.00  0.00    -0.215 OA
HETATM   10  O1  UNL     1       2.873   2.795   1.072  1.00  0.00    -0.187 OA
HETATM   11  O5  UNL     1       1.313   2.154  -0.561  1.00  0.00    -0.324 OA
ENDBRANCH   1   2
BRANCH   1  12
HETATM   12  O6  UNL     1      -0.469   0.127   0.041  1.00  0.00    -0.296 OA
BRANCH  12  13
HETATM   13  C7  UNL     1      -1.340  -0.815  -0.311  1.00  0.00     0.296 C 
HETATM   14  O7  UNL     1      -2.402  -0.586  -0.840  1.00  0.00    -0.259 OA
BRANCH  13  15
HETATM   15  C8  UNL     1      -0.939  -2.197  -0.018  1.00  0.00     0.068 C 
HETATM   16  C9  UNL     1      -1.744  -3.225  -0.332  1.00  0.00     0.005 C 
BRANCH  16  17
HETATM   17  C10 UNL     1      -1.293  -4.611  -0.016  1.00  0.00     0.000 A 
HETATM   18  C11 UNL     1      -2.238  -5.613   0.273  1.00  0.00     0.000 A 
HETATM   19  C12 UNL     1      -1.812  -6.918   0.572  1.00  0.00     0.000 A 
HETATM   20  C13 UNL     1      -0.441  -7.227   0.584  1.00  0.00     0.000 A 
HETATM   21  C14 UNL     1       0.506  -6.227   0.295  1.00  0.00     0.000 A 
HETATM   22  C15 UNL     1       0.080  -4.922  -0.004  1.00  0.00     0.000 A 
ENDBRANCH  16  17
ENDBRANCH  13  15
ENDBRANCH  12  13
ENDBRANCH   1  12
TORSDOF 5
