REMARK  7 active torsions:
REMARK  status: ('A' for Active; 'I' for Inactive)
REMARK    1  A    between atoms: C1_1  and  C21_27 
REMARK    2  A    between atoms: C2_2  and  C14_18 
REMARK    3  A    between atoms: C4_5  and  C5_6 
REMARK    4  A    between atoms: C5_6  and  C6_8 
REMARK    5  A    between atoms: C9_11  and  O4_16 
REMARK    6  A    between atoms: C10_12  and  O3_14 
REMARK    7  A    between atoms: C18_22  and  O5_24 
ROOT
HETATM    1  C1  UNL     1       1.606  -0.828   0.096  1.00  0.00     0.074 C 
HETATM    2  C2  UNL     1       1.987   0.648  -0.150  1.00  0.00     0.141 C 
HETATM    3  O1  UNL     1       0.787   1.242  -0.586  1.00  0.00    -0.352 OA
HETATM    4  C3  UNL     1      -0.301   0.627   0.053  1.00  0.00     0.150 C 
HETATM    5  C4  UNL     1       0.067  -0.852  -0.041  1.00  0.00     0.097 C 
ENDROOT
BRANCH   5   6
HETATM    6  C5  UNL     1      -0.674  -1.721   0.945  1.00  0.00     0.175 C 
HETATM    7  O2  UNL     1      -0.111  -2.615   1.531  1.00  0.00    -0.291 OA
BRANCH   6   8
HETATM    8  C6  UNL     1      -2.125  -1.445   1.174  1.00  0.00     0.037 A 
HETATM    9  C7  UNL     1      -2.932  -0.990   0.117  1.00  0.00     0.005 A 
HETATM   10  C8  UNL     1      -4.295  -0.731   0.338  1.00  0.00     0.026 A 
HETATM   11  C9  UNL     1      -4.857  -0.928   1.611  1.00  0.00     0.116 A 
HETATM   12  C10 UNL     1      -4.049  -1.385   2.670  1.00  0.00     0.116 A 
HETATM   13  C11 UNL     1      -2.685  -1.643   2.449  1.00  0.00     0.029 A 
BRANCH  11  14
HETATM   14  O4  UNL     1      -6.137  -0.684   1.811  1.00  0.00    -0.326 OA
HETATM   15  C13 UNL     1      -6.869  -0.068   0.760  1.00  0.00     0.181 C 
ENDBRANCH  11  14
BRANCH  12  16
HETATM   16  O3  UNL     1      -4.568  -1.570   3.867  1.00  0.00    -0.326 OA
HETATM   17  C12 UNL     1      -5.506  -0.615   4.344  1.00  0.00     0.181 C 
ENDBRANCH  12  16
ENDBRANCH   6   8
ENDBRANCH   5   6
BRANCH   1  18
HETATM   18  C21 UNL     1       2.117  -1.254   1.473  1.00  0.00     0.185 C 
HETATM   19  O7  UNL     1       3.465  -0.861   1.586  1.00  0.00    -0.221 OA
ENDBRANCH   1  18
BRANCH   2  20
HETATM   20  C14 UNL     1       3.057   0.850  -1.166  1.00  0.00     0.009 A 
HETATM   21  C15 UNL     1       4.035  -0.141  -1.359  1.00  0.00     0.026 A 
HETATM   22  C16 UNL     1       5.047   0.047  -2.318  1.00  0.00     0.133 A 
HETATM   23  C17 UNL     1       5.074   1.227  -3.080  1.00  0.00     0.051 A 
HETATM   24  O6  UNL     1       5.965  -0.881  -2.502  1.00  0.00    -0.190 OA
HETATM   25  C18 UNL     1       4.098   2.221  -2.891  1.00  0.00     0.096 A 
HETATM   26  C19 UNL     1       3.088   2.027  -1.930  1.00  0.00     0.022 A 
BRANCH  25  27
HETATM   27  O5  UNL     1       4.127   3.326  -3.607  1.00  0.00    -0.328 OA
HETATM   28  C20 UNL     1       5.010   3.375  -4.719  1.00  0.00     0.181 C 
ENDBRANCH  25  27
ENDBRANCH   2  20
TORSDOF 7
