REMARK  4 active torsions:
REMARK  status: ('A' for Active; 'I' for Inactive)
REMARK    1  A    between atoms: C3_3  and  C20_22 
REMARK    2  A    between atoms: C7_7  and  C12_12 
REMARK    3  A    between atoms: C12_12  and  C13_13 
REMARK    4  A    between atoms: C13_13  and  C14_14 
ROOT
HETATM    1  C1  UNL     1       2.453   0.238   0.816  1.00  0.00     0.000 C 
HETATM    2  C2  UNL     1       2.346  -1.195   1.371  1.00  0.00     0.003 C 
HETATM    3  C3  UNL     1       1.463  -2.111   0.500  1.00  0.00     0.031 C 
HETATM    4  C4  UNL     1       0.023  -1.516   0.332  1.00  0.00     0.003 C 
HETATM    5  C5  UNL     1      -0.092   0.008   0.621  1.00  0.00     0.004 C 
HETATM    6  C6  UNL     1       1.174   0.719   0.104  1.00  0.00     0.000 C 
HETATM    7  C7  UNL     1      -1.363   0.531  -0.100  1.00  0.00     0.019 C 
HETATM    8  C8  UNL     1      -2.563  -0.375   0.123  1.00  0.00    -0.044 C 
HETATM    9  C9  UNL     1      -2.447  -1.514   1.117  1.00  0.00     0.022 C 
HETATM   10  C10 UNL     1      -1.109  -2.285   1.057  1.00  0.00     0.004 C 
HETATM   11  C11 UNL     1      -3.705  -0.178  -0.561  1.00  0.00    -0.009 C 
HETATM   12  C18 UNL     1      -0.215   0.277   2.135  1.00  0.00     0.000 C 
HETATM   13  C19 UNL     1       2.135  -2.244  -0.875  1.00  0.00     0.003 C 
ENDROOT
BRANCH   7  14
HETATM   14  C12 UNL     1      -1.693   1.980   0.279  1.00  0.00     0.009 C 
BRANCH  14  15
HETATM   15  C13 UNL     1      -1.977   2.859  -0.939  1.00  0.00     0.032 C 
BRANCH  15  16
HETATM   16  C14 UNL     1      -0.732   3.152  -1.736  1.00  0.00     0.039 A 
HETATM   17  C15 UNL     1       0.295   4.117  -1.387  1.00  0.00     0.292 A 
HETATM   18  O1  UNL     1       1.258   4.119  -2.316  1.00  0.00    -0.294 OA
HETATM   19  O2  UNL     1       0.264   4.805  -0.393  1.00  0.00    -0.260 OA
HETATM   20  C16 UNL     1       0.922   3.156  -3.332  1.00  0.00     0.178 A 
HETATM   21  C17 UNL     1      -0.393   2.566  -2.885  1.00  0.00     0.007 A 
ENDBRANCH  15  16
ENDBRANCH  14  15
ENDBRANCH   7  14
BRANCH   3  22
HETATM   22  C20 UNL     1       1.437  -3.516   1.119  1.00  0.00     0.182 C 
HETATM   23  O3  UNL     1       2.756  -4.012   1.143  1.00  0.00    -0.221 OA
ENDBRANCH   3  22
TORSDOF 4
