REMARK  8 active torsions:
REMARK  status: ('A' for Active; 'I' for Inactive)
REMARK    1  A    between atoms: C1_1  and  O7_20 
REMARK    2  A    between atoms: C4_4  and  C6_7 
REMARK    3  A    between atoms: C9_12  and  C10_13 
REMARK    4  A    between atoms: C10_13  and  O4_14 
REMARK    5  A    between atoms: O4_14  and  C11_15 
REMARK    6  A    between atoms: C11_15  and  S1_17 
REMARK    7  A    between atoms: O7_20  and  C13_21 
REMARK    8  A    between atoms: C14_23  and  C18_30 
ROOT
HETATM    1  C1  UNL     1       0.742   0.885   0.297  1.00  0.00     0.246 C 
HETATM    2  C2  UNL     1      -0.350   1.865   0.740  1.00  0.00     0.085 C 
HETATM    3  C3  UNL     1      -0.016   3.137  -0.047  1.00  0.00     0.074 C 
HETATM    4  C4  UNL     1       1.350   3.637   0.357  1.00  0.00     0.069 C 
HETATM    5  C5  UNL     1       2.271   2.705   0.691  1.00  0.00     0.121 C 
HETATM    6  O1  UNL     1       2.029   1.373   0.723  1.00  0.00    -0.303 OA
HETATM    7  C7  UNL     1      -1.303   3.951   0.193  1.00  0.00     0.178 C 
HETATM    8  C8  UNL     1      -2.359   2.875   0.135  1.00  0.00     0.001 C 
HETATM    9  C9  UNL     1      -1.809   1.688   0.418  1.00  0.00    -0.011 C 
HETATM   10  O6  UNL     1      -1.490   4.916  -0.820  1.00  0.00    -0.218 OA
ENDROOT
BRANCH   1  11
HETATM   11  O7  UNL     1       0.516  -0.385   0.875  1.00  0.00    -0.304 OA
BRANCH  11  12
HETATM   12  C13 UNL     1       1.434  -1.367   0.437  1.00  0.00     0.272 C 
HETATM   13  O8  UNL     1       1.170  -1.688  -0.922  1.00  0.00    -0.326 OA
HETATM   14  C14 UNL     1       2.141  -2.527  -1.553  1.00  0.00     0.184 C 
HETATM   15  C15 UNL     1       2.676  -3.643  -0.600  1.00  0.00     0.215 C 
HETATM   16  C16 UNL     1       1.660  -3.940   0.523  1.00  0.00     0.220 C 
HETATM   17  O11 UNL     1       3.918  -3.260  -0.029  1.00  0.00    -0.218 OA
HETATM   18  C17 UNL     1       1.299  -2.647   1.316  1.00  0.00     0.241 C 
HETATM   19  O10 UNL     1       2.078  -5.016   1.350  1.00  0.00    -0.218 OA
HETATM   20  O9  UNL     1       2.123  -2.475   2.459  1.00  0.00    -0.215 OA
BRANCH  14  21
HETATM   21  C18 UNL     1       3.215  -1.629  -2.186  1.00  0.00     0.214 C 
HETATM   22  O12 UNL     1       2.607  -0.865  -3.205  1.00  0.00    -0.218 OA
ENDBRANCH  14  21
ENDBRANCH  11  12
ENDBRANCH   1  11
BRANCH   9  23
HETATM   23  C10 UNL     1      -2.526   0.363   0.422  1.00  0.00     0.175 C 
BRANCH  23  24
HETATM   24  O4  UNL     1      -3.879   0.559   0.035  1.00  0.00    -0.289 OA
BRANCH  24  25
HETATM   25  C11 UNL     1      -4.569  -0.578   0.019  1.00  0.00     0.324 C 
HETATM   26  O5  UNL     1      -4.098  -1.656   0.297  1.00  0.00    -0.252 OA
BRANCH  25  27
HETATM   27  S1  UNL     1      -6.180  -0.342  -0.430  1.00  0.00    -0.046 SA
HETATM   28  C12 UNL     1      -6.842  -1.959  -0.334  1.00  0.00     0.080 C 
ENDBRANCH  25  27
ENDBRANCH  24  25
ENDBRANCH  23  24
ENDBRANCH   9  23
BRANCH   4  29
HETATM   29  C6  UNL     1       1.641   5.078   0.375  1.00  0.00     0.209 C 
HETATM   30  O2  UNL     1       2.346   5.570  -0.475  1.00  0.00    -0.644 OA
HETATM   31  O3  UNL     1       1.084   5.768   1.367  1.00  0.00    -0.644 OA
ENDBRANCH   4  29
TORSDOF 8
