REMARK  1 active torsions:
REMARK  status: ('A' for Active; 'I' for Inactive)
REMARK    1  A    between atoms: C9_9  and  C10_10 
ROOT
HETATM    1  C1  UNL     1      -1.895   1.227   1.691  1.00  0.00    -0.001 C 
HETATM    2  C2  UNL     1      -3.193   0.861   1.699  1.00  0.00     0.004 C 
HETATM    3  C3  UNL     1      -3.787   0.107   0.518  1.00  0.00     0.183 C 
HETATM    4  C4  UNL     1      -2.807  -0.014  -0.680  1.00  0.00     0.113 C 
HETATM    5  C5  UNL     1      -1.453  -0.477  -0.102  1.00  0.00     0.051 C 
HETATM    6  C6  UNL     1      -1.049   0.887   0.475  1.00  0.00     0.120 C 
HETATM    7  C7  UNL     1       0.461   0.758   0.709  1.00  0.00     0.033 C 
HETATM    8  C8  UNL     1       0.922  -0.393  -0.238  1.00  0.00     0.019 C 
HETATM    9  C9  UNL     1      -0.307  -0.791  -1.068  1.00  0.00     0.091 C 
HETATM   10  C11 UNL     1       2.146  -0.014  -1.109  1.00  0.00     0.038 C 
HETATM   11  C12 UNL     1       3.160   0.320  -0.004  1.00  0.00     0.170 C 
HETATM   12  C13 UNL     1       2.799   1.723   0.586  1.00  0.00     0.183 C 
HETATM   13  C14 UNL     1       1.277   2.033   0.490  1.00  0.00     0.039 C 
HETATM   14  O3  UNL     1       3.473   2.777  -0.080  1.00  0.00    -0.221 OA
HETATM   15  O4  UNL     1       4.482   0.246  -0.520  1.00  0.00    -0.219 OA
HETATM   16  C15 UNL     1       2.895  -0.813   0.961  1.00  0.00    -0.015 C 
HETATM   17  C16 UNL     1       1.578  -1.465   0.646  1.00  0.00     0.025 C 
HETATM   18  C17 UNL     1       3.703  -1.186   1.971  1.00  0.00    -0.007 C 
HETATM   19  O5  UNL     1      -1.356   1.836  -0.547  1.00  0.00    -0.302 OA
HETATM   20  C18 UNL     1      -2.428   1.359  -1.174  1.00  0.00     0.274 C 
HETATM   21  O6  UNL     1      -3.033   1.936  -2.047  1.00  0.00    -0.264 OA
HETATM   22  C19 UNL     1      -3.299  -0.928  -1.803  1.00  0.00     0.013 C 
HETATM   23  O7  UNL     1      -4.172  -1.180   0.963  1.00  0.00    -0.218 OA
ENDROOT
BRANCH   9  24
HETATM   24  C10 UNL     1      -0.313  -2.207  -1.588  1.00  0.00     0.185 C 
HETATM   25  O1  UNL     1      -0.971  -3.066  -1.049  1.00  0.00    -0.647 OA
HETATM   26  O2  UNL     1       0.447  -2.422  -2.658  1.00  0.00    -0.647 OA
ENDBRANCH   9  24
TORSDOF 1
