REMARK  19 active torsions:
REMARK  status: ('A' for Active; 'I' for Inactive)
REMARK    1  A    between atoms: C2_2  and  C3_3 
REMARK    2  A    between atoms: C3_3  and  C4_4 
REMARK    3  A    between atoms: C4_4  and  C5_5 
REMARK    4  A    between atoms: C6_6  and  C7_7 
REMARK    5  A    between atoms: C7_7  and  C8_8 
REMARK    6  A    between atoms: C8_8  and  C9_9 
REMARK    7  A    between atoms: C10_10  and  C11_11 
REMARK    8  A    between atoms: C12_12  and  C13_13 
REMARK    9  A    between atoms: C14_14  and  C15_15 
REMARK   10  A    between atoms: C16_16  and  C17_17 
REMARK   11  A    between atoms: C18_18  and  C20_20 
REMARK   12  A    between atoms: C20_20  and  C21_21 
REMARK   13  A    between atoms: C21_21  and  C22_22 
REMARK   14  A    between atoms: C23_23  and  C25_25 
REMARK   15  A    between atoms: C25_25  and  C26_26 
REMARK   16  A    between atoms: C26_26  and  C27_27 
REMARK   17  A    between atoms: C28_28  and  C30_30 
REMARK   18  A    between atoms: C30_30  and  C31_31 
REMARK   19  A    between atoms: C31_31  and  C32_32 
ROOT
HETATM    1  C15 UNL     1       0.990   6.856   0.227  1.00  0.00    -0.000 C 
HETATM    2  C16 UNL     1      -0.354   6.856   0.227  1.00  0.00    -0.001 C 
ENDROOT
BRANCH   1   3
HETATM    3  C14 UNL     1       1.738   5.592   0.227  1.00  0.00    -0.004 C 
HETATM    4  C13 UNL     1       2.934   5.506   0.832  1.00  0.00    -0.022 C 
HETATM    5  C36 UNL     1       3.486   6.731   1.510  1.00  0.00     0.031 C 
BRANCH   4   6
HETATM    6  C12 UNL     1       3.725   4.270   0.863  1.00  0.00    -0.004 C 
HETATM    7  C11 UNL     1       3.695   3.410  -0.168  1.00  0.00    -0.001 C 
BRANCH   7   8
HETATM    8  C10 UNL     1       4.488   2.176  -0.137  1.00  0.00    -0.008 C 
HETATM    9  C9  UNL     1       4.838   1.557  -1.275  1.00  0.00    -0.044 C 
HETATM   10  C37 UNL     1       4.399   2.160  -2.584  1.00  0.00     0.026 C 
BRANCH   9  11
HETATM   11  C8  UNL     1       5.645   0.289  -1.365  1.00  0.00     0.026 C 
BRANCH  11  12
HETATM   12  C7  UNL     1       5.826  -0.383  -0.004  1.00  0.00     0.029 C 
BRANCH  12  13
HETATM   13  C6  UNL     1       6.520  -1.715  -0.107  1.00  0.00    -0.034 C 
HETATM   14  C5  UNL     1       7.043  -2.254   1.004  1.00  0.00    -0.048 C 
HETATM   15  C38 UNL     1       6.912  -1.498   2.299  1.00  0.00     0.026 C 
BRANCH  14  16
HETATM   16  C4  UNL     1       7.766  -3.572   1.074  1.00  0.00     0.026 C 
BRANCH  16  17
HETATM   17  C3  UNL     1       8.074  -4.143  -0.313  1.00  0.00     0.029 C 
BRANCH  17  18
HETATM   18  C2  UNL     1       8.910  -5.393  -0.246  1.00  0.00    -0.034 C 
HETATM   19  C1  UNL     1       8.932  -6.205  -1.314  1.00  0.00    -0.048 C 
HETATM   20  C39 UNL     1       9.658  -7.522  -1.389  1.00  0.00     0.026 C 
HETATM   21  C40 UNL     1       8.176  -5.791  -2.549  1.00  0.00     0.026 C 
ENDBRANCH  17  18
ENDBRANCH  16  17
ENDBRANCH  14  16
ENDBRANCH  12  13
ENDBRANCH  11  12
ENDBRANCH   9  11
ENDBRANCH   7   8
ENDBRANCH   4   6
ENDBRANCH   1   3
BRANCH   2  22
HETATM   22  C17 UNL     1      -1.102   5.592   0.227  1.00  0.00    -0.008 C 
HETATM   23  C18 UNL     1      -2.322   5.522  -0.326  1.00  0.00    -0.044 C 
HETATM   24  C19 UNL     1      -2.904   6.764  -0.945  1.00  0.00     0.026 C 
BRANCH  23  25
HETATM   25  C20 UNL     1      -3.047   4.201  -0.299  1.00  0.00     0.026 C 
BRANCH  25  26
HETATM   26  C21 UNL     1      -4.400   4.293   0.406  1.00  0.00     0.029 C 
BRANCH  26  27
HETATM   27  C22 UNL     1      -5.117   2.971   0.449  1.00  0.00    -0.034 C 
HETATM   28  C23 UNL     1      -6.125   2.814   1.322  1.00  0.00    -0.048 C 
HETATM   29  C24 UNL     1      -6.486   3.973   2.215  1.00  0.00     0.026 C 
BRANCH  28  30
HETATM   30  C25 UNL     1      -6.840   1.492   1.365  1.00  0.00     0.026 C 
BRANCH  30  31
HETATM   31  C26 UNL     1      -5.975   0.344   0.848  1.00  0.00     0.029 C 
BRANCH  31  32
HETATM   32  C27 UNL     1      -6.578  -1.006   1.137  1.00  0.00    -0.034 C 
HETATM   33  C28 UNL     1      -6.125  -2.068   0.451  1.00  0.00    -0.048 C 
HETATM   34  C29 UNL     1      -5.041  -1.857  -0.570  1.00  0.00     0.026 C 
BRANCH  33  35
HETATM   35  C30 UNL     1      -6.729  -3.418   0.740  1.00  0.00     0.026 C 
BRANCH  35  36
HETATM   36  C31 UNL     1      -7.334  -4.066  -0.504  1.00  0.00     0.026 C 
BRANCH  36  37
HETATM   37  C32 UNL     1      -7.992  -5.385  -0.203  1.00  0.00    -0.048 C 
HETATM   38  C33 UNL     1      -9.281  -5.678  -0.438  1.00  0.00    -0.034 C 
HETATM   39  C34 UNL     1     -10.160  -4.621  -1.051  1.00  0.00     0.030 C 
HETATM   40  C35 UNL     1      -7.115  -6.443   0.410  1.00  0.00     0.026 C 
ENDBRANCH  36  37
ENDBRANCH  35  36
ENDBRANCH  33  35
ENDBRANCH  31  32
ENDBRANCH  30  31
ENDBRANCH  28  30
ENDBRANCH  26  27
ENDBRANCH  25  26
ENDBRANCH  23  25
ENDBRANCH   2  22
TORSDOF 19
