REMARK  1 active torsions:
REMARK  status: ('A' for Active; 'I' for Inactive)
REMARK    1  A    between atoms: C23_23  and  C25_25 
ROOT
HETATM    1  C1  UNL     1      -3.752   1.996   1.422  1.00  0.00    -0.026 A 
HETATM    2  C2  UNL     1      -3.373   0.742   0.832  1.00  0.00    -0.013 A 
HETATM    3  C3  UNL     1      -4.402  -0.156   0.416  1.00  0.00    -0.023 A 
HETATM    4  C4  UNL     1      -5.764   0.152   0.656  1.00  0.00    -0.005 A 
HETATM    5  C5  UNL     1      -6.121   1.359   1.287  1.00  0.00    -0.005 A 
HETATM    6  C6  UNL     1      -5.121   2.281   1.664  1.00  0.00    -0.026 A 
HETATM    7  C7  UNL     1      -5.529   3.543   2.309  1.00  0.00     0.031 C 
HETATM    8  C8  UNL     1      -4.066  -1.424  -0.270  1.00  0.00     0.027 C 
HETATM    9  C9  UNL     1      -2.822  -1.260  -1.150  1.00  0.00     0.009 C 
HETATM   10  C10 UNL     1      -1.580  -0.818  -0.332  1.00  0.00     0.019 C 
HETATM   11  C11 UNL     1      -1.926   0.326   0.627  1.00  0.00    -0.028 C 
HETATM   12  C12 UNL     1      -0.875   0.881   1.277  1.00  0.00    -0.030 C 
HETATM   13  C13 UNL     1       0.535   0.477   0.924  1.00  0.00     0.026 C 
HETATM   14  C14 UNL     1       0.705   0.465  -0.602  1.00  0.00     0.005 C 
HETATM   15  C15 UNL     1      -0.357  -0.473  -1.283  1.00  0.00     0.004 C 
HETATM   16  C16 UNL     1       0.316  -1.783  -1.772  1.00  0.00     0.000 C 
HETATM   17  C17 UNL     1       1.520  -2.188  -0.912  1.00  0.00     0.001 C 
HETATM   18  C18 UNL     1       2.686  -1.193  -1.084  1.00  0.00     0.012 C 
HETATM   19  C19 UNL     1       2.172   0.293  -1.143  1.00  0.00     0.003 C 
HETATM   20  C20 UNL     1       3.164   1.316  -0.508  1.00  0.00     0.036 C 
HETATM   21  C21 UNL     1       3.912   0.908   0.789  1.00  0.00     0.183 C 
HETATM   22  C22 UNL     1       3.785  -0.590   1.139  1.00  0.00     0.192 C 
HETATM   23  C23 UNL     1       3.891  -1.471  -0.129  1.00  0.00     0.109 C 
HETATM   24  C24 UNL     1       3.971  -2.959   0.246  1.00  0.00     0.013 C 
HETATM   25  O3  UNL     1       4.797  -0.934   2.074  1.00  0.00    -0.220 OA
HETATM   26  O4  UNL     1       3.512   1.715   1.883  1.00  0.00    -0.221 OA
HETATM   27  C26 UNL     1       2.102   0.689  -2.633  1.00  0.00     0.000 C 
HETATM   28  C27 UNL     1      -0.869   0.275  -2.531  1.00  0.00     0.000 C 
HETATM   29  C28 UNL     1      -1.242  -1.996   0.603  1.00  0.00     0.004 C 
HETATM   30  C29 UNL     1      -2.777   3.043   1.781  1.00  0.00     0.031 C 
ENDROOT
BRANCH  23  31
HETATM   31  C25 UNL     1       5.188  -1.174  -0.856  1.00  0.00     0.187 C 
HETATM   32  O1  UNL     1       5.190  -0.563  -1.898  1.00  0.00    -0.647 OA
HETATM   33  O2  UNL     1       6.285  -1.633  -0.262  1.00  0.00    -0.647 OA
ENDBRANCH  23  31
TORSDOF 1
