REMARK  2 active torsions:
REMARK  status: ('A' for Active; 'I' for Inactive)
REMARK    1  A    between atoms: C1_1  and  C10_13 
REMARK    2  A    between atoms: C10_13  and  C11_14 
ROOT
HETATM    1  C1  UNL     1       0.928  -0.129  -0.309  1.00  0.00     0.006 A 
HETATM    2  C2  UNL     1       0.998   1.197   0.188  1.00  0.00     0.129 A 
HETATM    3  C3  UNL     1      -0.186   1.949   0.381  1.00  0.00     0.052 A 
HETATM    4  C4  UNL     1      -1.445   1.381   0.078  1.00  0.00     0.105 A 
HETATM    5  C5  UNL     1      -1.510   0.051  -0.418  1.00  0.00     0.023 A 
HETATM    6  C6  UNL     1      -0.330  -0.705  -0.611  1.00  0.00    -0.000 A 
HETATM    7  C7  UNL     1      -2.844  -0.527  -0.725  1.00  0.00     0.007 A 
HETATM    8  C8  UNL     1      -3.940   0.229  -0.523  1.00  0.00     0.069 A 
HETATM    9  C9  UNL     1      -3.807   1.609  -0.006  1.00  0.00     0.300 A 
HETATM   10  O1  UNL     1      -2.576   2.098   0.262  1.00  0.00    -0.273 OA
HETATM   11  O2  UNL     1      -4.811   2.262   0.162  1.00  0.00    -0.259 OA
HETATM   12  O3  UNL     1       2.186   1.750   0.479  1.00  0.00    -0.190 OA
ENDROOT
BRANCH   1  13
HETATM   13  C10 UNL     1       2.156  -0.914  -0.510  1.00  0.00     0.064 C 
BRANCH  13  14
HETATM   14  C11 UNL     1       2.693  -1.469   0.811  1.00  0.00     0.187 C 
HETATM   15  O4  UNL     1       3.877  -2.184   0.539  1.00  0.00    -0.220 OA
ENDBRANCH  13  14
ENDBRANCH   1  13
TORSDOF 2
