REMARK  5 active torsions:
REMARK  status: ('A' for Active; 'I' for Inactive)
REMARK    1  A    between atoms: C2_3  and  C3_4 
REMARK    2  A    between atoms: C3_4  and  C4_5 
REMARK    3  A    between atoms: C14_15  and  C15_17 
REMARK    4  A    between atoms: C19_21  and  C21_23 
REMARK    5  A    between atoms: C21_23  and  C22_24 
ROOT
HETATM    1  O1  UNL     1      -5.930   1.068  -0.768  1.00  0.00    -0.190 OA
HETATM    2  C1  UNL     1      -4.719   1.598  -1.000  1.00  0.00     0.129 A 
HETATM    3  C2  UNL     1      -3.559   0.998  -0.449  1.00  0.00     0.030 A 
HETATM    4  C8  UNL     1      -2.281   1.561  -0.703  1.00  0.00     0.095 A 
HETATM    5  C9  UNL     1      -2.178   2.748  -1.479  1.00  0.00     0.057 A 
HETATM    6  C10 UNL     1      -3.338   3.330  -2.045  1.00  0.00     0.007 A 
HETATM    7  C11 UNL     1      -4.606   2.754  -1.805  1.00  0.00     0.027 A 
HETATM    8  C12 UNL     1      -0.846   3.379  -1.686  1.00  0.00     0.178 C 
HETATM    9  C13 UNL     1       0.307   2.760  -0.924  1.00  0.00     0.104 C 
HETATM   10  C14 UNL     1       0.113   1.240  -0.746  1.00  0.00     0.151 C 
HETATM   11  O2  UNL     1      -1.182   0.959  -0.201  1.00  0.00    -0.329 OA
HETATM   12  O5  UNL     1      -0.600   4.332  -2.389  1.00  0.00    -0.291 OA
ENDROOT
BRANCH  10  13
HETATM   13  C15 UNL     1       1.150   0.637   0.133  1.00  0.00     0.007 A 
HETATM   14  C16 UNL     1       1.016   0.707   1.531  1.00  0.00     0.028 A 
HETATM   15  C17 UNL     1       1.994   0.137   2.363  1.00  0.00     0.156 A 
HETATM   16  C18 UNL     1       3.111  -0.506   1.799  1.00  0.00     0.152 A 
HETATM   17  O4  UNL     1       1.861   0.205   3.674  1.00  0.00    -0.188 OA
HETATM   18  C19 UNL     1       3.244  -0.574   0.398  1.00  0.00     0.009 A 
HETATM   19  O3  UNL     1       4.029  -1.041   2.580  1.00  0.00    -0.188 OA
HETATM   20  C20 UNL     1       2.266  -0.004  -0.432  1.00  0.00    -0.004 A 
BRANCH  18  21
HETATM   21  C21 UNL     1       4.422  -1.252  -0.211  1.00  0.00     0.054 C 
BRANCH  21  22
HETATM   22  C22 UNL     1       4.092  -1.867  -1.545  1.00  0.00    -0.030 C 
HETATM   23  C23 UNL     1       5.102  -2.152  -2.385  1.00  0.00    -0.048 C 
HETATM   24  C24 UNL     1       4.768  -2.689  -3.752  1.00  0.00     0.026 C 
HETATM   25  C25 UNL     1       6.514  -1.920  -1.918  1.00  0.00     0.026 C 
ENDBRANCH  21  22
ENDBRANCH  18  21
ENDBRANCH  10  13
BRANCH   3  26
HETATM   26  C3  UNL     1      -3.678  -0.211   0.385  1.00  0.00     0.056 C 
BRANCH  26  27
HETATM   27  C4  UNL     1      -3.750   0.117   1.851  1.00  0.00    -0.030 C 
HETATM   28  C5  UNL     1      -4.104  -0.855   2.709  1.00  0.00    -0.048 C 
HETATM   29  C6  UNL     1      -4.281  -0.682   4.193  1.00  0.00     0.026 C 
HETATM   30  C7  UNL     1      -4.346  -2.238   2.166  1.00  0.00     0.026 C 
ENDBRANCH  26  27
ENDBRANCH   3  26
TORSDOF 5
