REMARK  7 active torsions:
REMARK  status: ('A' for Active; 'I' for Inactive)
REMARK    1  A    between atoms: C1_1  and  C18_30 
REMARK    2  A    between atoms: C3_3  and  O2_6 
REMARK    3  A    between atoms: O2_6  and  C5_7 
REMARK    4  A    between atoms: C5_7  and  C6_8 
REMARK    5  A    between atoms: C10_12  and  O4_14 
REMARK    6  A    between atoms: O4_14  and  C11_15 
REMARK    7  A    between atoms: C13_17  and  C17_23 
ROOT
HETATM    1  C6  UNL     1       0.305   2.258  -0.178  1.00  0.00     0.180 C 
HETATM    2  C7  UNL     1       0.572   3.680  -0.723  1.00  0.00     0.215 C 
HETATM    3  C8  UNL     1       1.996   4.162  -0.363  1.00  0.00     0.220 C 
HETATM    4  C9  UNL     1       3.027   3.088  -0.774  1.00  0.00     0.241 C 
HETATM    5  C10 UNL     1       2.633   1.699  -0.227  1.00  0.00     0.274 C 
HETATM    6  O3  UNL     1       1.314   1.373  -0.643  1.00  0.00    -0.326 OA
HETATM    7  O9  UNL     1       4.307   3.426  -0.268  1.00  0.00    -0.215 OA
HETATM    8  O10 UNL     1       2.277   5.379  -1.035  1.00  0.00    -0.218 OA
HETATM    9  O11 UNL     1      -0.387   4.564  -0.174  1.00  0.00    -0.218 OA
ENDROOT
BRANCH   5  10
HETATM   10  O4  UNL     1       3.527   0.709  -0.719  1.00  0.00    -0.301 OA
BRANCH  10  11
HETATM   11  C11 UNL     1       3.246  -0.555  -0.477  1.00  0.00     0.124 A 
HETATM   12  C12 UNL     1       2.539  -0.904   0.687  1.00  0.00     0.033 A 
HETATM   13  C13 UNL     1       2.236  -2.252   0.951  1.00  0.00     0.069 A 
HETATM   14  C14 UNL     1       2.641  -3.250   0.049  1.00  0.00     0.036 A 
HETATM   15  C15 UNL     1       3.348  -2.906  -1.115  1.00  0.00     0.158 A 
HETATM   16  C16 UNL     1       3.650  -1.557  -1.379  1.00  0.00     0.178 A 
HETATM   17  O6  UNL     1       3.727  -3.846  -1.959  1.00  0.00    -0.188 OA
HETATM   18  O5  UNL     1       4.315  -1.231  -2.471  1.00  0.00    -0.186 OA
BRANCH  13  19
HETATM   19  C17 UNL     1       1.484  -2.621   2.187  1.00  0.00     0.211 C 
HETATM   20  O7  UNL     1       1.215  -3.774   2.432  1.00  0.00    -0.644 OA
HETATM   21  O8  UNL     1       1.148  -1.602   2.973  1.00  0.00    -0.644 OA
ENDBRANCH  13  19
ENDBRANCH  10  11
ENDBRANCH   5  10
BRANCH   1  22
HETATM   22  C5  UNL     1      -1.037   1.682  -0.647  1.00  0.00     0.177 C 
BRANCH  22  23
HETATM   23  O2  UNL     1      -1.260   0.471   0.041  1.00  0.00    -0.326 OA
BRANCH  23  24
HETATM   24  C3  UNL     1      -2.455  -0.176  -0.344  1.00  0.00     0.270 C 
HETATM   25  C2  UNL     1      -2.617  -1.531   0.348  1.00  0.00     0.241 C 
HETATM   26  C1  UNL     1      -4.158  -1.744   0.293  1.00  0.00     0.217 C 
HETATM   27  O12 UNL     1      -1.857  -2.535  -0.305  1.00  0.00    -0.215 OA
HETATM   28  C4  UNL     1      -4.717  -0.324   0.053  1.00  0.00     0.181 C 
HETATM   29  O14 UNL     1      -4.574  -2.588  -0.768  1.00  0.00    -0.218 OA
HETATM   30  O1  UNL     1      -3.588   0.516   0.119  1.00  0.00    -0.326 OA
BRANCH  26  31
HETATM   31  C18 UNL     1      -4.678  -2.350   1.594  1.00  0.00     0.218 C 
HETATM   32  O13 UNL     1      -6.086  -2.350   1.551  1.00  0.00    -0.218 OA
ENDBRANCH  26  31
ENDBRANCH  23  24
ENDBRANCH  22  23
ENDBRANCH   1  22
TORSDOF 7
