REMARK  9 active torsions:
REMARK  status: ('A' for Active; 'I' for Inactive)
REMARK    1  A    between atoms: C3_3  and  C7_9 
REMARK    2  A    between atoms: C8_10  and  C9_11 
REMARK    3  A    between atoms: C9_11  and  O3_12 
REMARK    4  A    between atoms: O3_12  and  C10_13 
REMARK    5  A    between atoms: C10_13  and  C11_14 
REMARK    6  A    between atoms: C10_13  and  C18_23 
REMARK    7  A    between atoms: C11_14  and  C12_15 
REMARK    8  A    between atoms: C18_23  and  O7_25 
REMARK    9  A    between atoms: O7_25  and  C19_26 
ROOT
HETATM    1  C10 UNL     1       1.225   1.793   0.683  1.00  0.00     0.214 C 
ENDROOT
BRANCH   1   2
HETATM    2  O3  UNL     1       0.613   0.512   0.652  1.00  0.00    -0.290 OA
BRANCH   2   3
HETATM    3  C9  UNL     1      -0.572   0.533   0.049  1.00  0.00     0.296 C 
HETATM    4  O8  UNL     1      -1.053   1.520  -0.457  1.00  0.00    -0.259 OA
BRANCH   3   5
HETATM    5  C8  UNL     1      -1.297  -0.744   0.023  1.00  0.00     0.068 C 
HETATM    6  C7  UNL     1      -2.502  -0.836  -0.561  1.00  0.00     0.005 C 
BRANCH   6   7
HETATM    7  C3  UNL     1      -3.199  -2.156  -0.561  1.00  0.00     0.002 A 
HETATM    8  C2  UNL     1      -2.455  -3.348  -0.561  1.00  0.00     0.002 A 
HETATM    9  C1  UNL     1      -3.115  -4.588  -0.561  1.00  0.00     0.029 A 
HETATM   10  C6  UNL     1      -4.519  -4.642  -0.561  1.00  0.00     0.156 A 
HETATM   11  C5  UNL     1      -5.267  -3.449  -0.561  1.00  0.00     0.156 A 
HETATM   12  O1  UNL     1      -5.131  -5.810  -0.561  1.00  0.00    -0.188 OA
HETATM   13  C4  UNL     1      -4.605  -2.209  -0.561  1.00  0.00     0.029 A 
HETATM   14  O2  UNL     1      -6.584  -3.492  -0.561  1.00  0.00    -0.188 OA
ENDBRANCH   6   7
ENDBRANCH   3   5
ENDBRANCH   2   3
ENDBRANCH   1   2
BRANCH   1  15
HETATM   15  C11 UNL     1       2.690   1.649   1.099  1.00  0.00     0.067 C 
BRANCH  15  16
HETATM   16  C12 UNL     1       3.451   0.809   0.139  1.00  0.00    -0.017 A 
HETATM   17  C13 UNL     1       4.026   1.391  -1.004  1.00  0.00    -0.002 A 
HETATM   18  C14 UNL     1       4.744   0.594  -1.910  1.00  0.00     0.029 A 
HETATM   19  C15 UNL     1       4.893  -0.785  -1.680  1.00  0.00     0.156 A 
HETATM   20  C16 UNL     1       4.319  -1.369  -0.533  1.00  0.00     0.156 A 
HETATM   21  O5  UNL     1       5.569  -1.525  -2.533  1.00  0.00    -0.188 OA
HETATM   22  C17 UNL     1       3.598  -0.570   0.373  1.00  0.00     0.025 A 
HETATM   23  O4  UNL     1       4.451  -2.660  -0.309  1.00  0.00    -0.188 OA
ENDBRANCH  15  16
ENDBRANCH   1  15
BRANCH   1  24
HETATM   24  C18 UNL     1       0.453   2.696   1.607  1.00  0.00     0.300 C 
HETATM   25  O6  UNL     1       0.123   2.324   2.711  1.00  0.00    -0.262 OA
BRANCH  24  26
HETATM   26  O7  UNL     1       0.172   3.901   1.119  1.00  0.00    -0.300 OA
BRANCH  26  27
HETATM   27  C19 UNL     1      -0.556   4.701   2.037  1.00  0.00     0.152 C 
HETATM   28  C20 UNL     1      -0.844   6.065   1.410  1.00  0.00     0.035 C 
ENDBRANCH  26  27
ENDBRANCH  24  26
ENDBRANCH   1  24
TORSDOF 9
