REMARK  6 active torsions:
REMARK  status: ('A' for Active; 'I' for Inactive)
REMARK    1  A    between atoms: C10_11  and  O1_17 
REMARK    2  A    between atoms: O1_17  and  C15_18 
REMARK    3  A    between atoms: C16_20  and  C20_27 
REMARK    4  A    between atoms: C20_27  and  O6_28 
REMARK    5  A    between atoms: O6_28  and  C21_29 
REMARK    6  A    between atoms: C22_31  and  C26_38 
ROOT
HETATM    1  C15 UNL     1       3.115  -0.625   1.752  1.00  0.00     0.274 C 
HETATM    2  O2  UNL     1       2.197  -1.250   0.867  1.00  0.00    -0.326 OA
HETATM    3  C16 UNL     1       2.732  -1.604  -0.400  1.00  0.00     0.180 C 
HETATM    4  C17 UNL     1       3.881  -2.619  -0.209  1.00  0.00     0.215 C 
HETATM    5  C18 UNL     1       4.957  -2.080   0.760  1.00  0.00     0.220 C 
HETATM    6  C19 UNL     1       4.283  -1.586   2.059  1.00  0.00     0.241 C 
HETATM    7  O3  UNL     1       5.229  -0.906   2.865  1.00  0.00    -0.215 OA
HETATM    8  O4  UNL     1       5.893  -3.102   1.061  1.00  0.00    -0.218 OA
HETATM    9  O5  UNL     1       4.465  -2.889  -1.473  1.00  0.00    -0.218 OA
ENDROOT
BRANCH   1  10
HETATM   10  O1  UNL     1       2.438  -0.285   2.953  1.00  0.00    -0.299 OA
BRANCH  10  11
HETATM   11  C10 UNL     1       1.592   0.731   2.789  1.00  0.00     0.155 A 
HETATM   12  C9  UNL     1       0.115   0.461   2.766  1.00  0.00     0.287 A 
HETATM   13  N1  UNL     1      -0.746   1.590   2.584  1.00  0.00    -0.272 N 
HETATM   14  O12 UNL     1      -0.318  -0.662   2.896  1.00  0.00    -0.264 OA
HETATM   15  C4  UNL     1      -2.141   1.719   2.514  1.00  0.00     0.067 A 
HETATM   16  C8  UNL     1      -0.166   2.828   2.439  1.00  0.00     0.085 A 
HETATM   17  C3  UNL     1      -3.211   0.801   2.602  1.00  0.00     0.018 A 
HETATM   18  C5  UNL     1      -2.371   3.088   2.316  1.00  0.00     0.018 A 
HETATM   19  C2  UNL     1      -4.533   1.303   2.480  1.00  0.00     0.002 A 
HETATM   20  C1  UNL     1      -4.768   2.691   2.275  1.00  0.00     0.000 A 
HETATM   21  C6  UNL     1      -3.682   3.604   2.191  1.00  0.00     0.002 A 
HETATM   22  C7  UNL     1      -1.178   3.752   2.273  1.00  0.00     0.021 A 
HETATM   23  C14 UNL     1      -0.846   5.123   2.102  1.00  0.00     0.022 A 
HETATM   24  C13 UNL     1       0.545   5.465   2.115  1.00  0.00     0.099 A 
HETATM   25  N2  UNL     1       1.551   4.506   2.287  1.00  0.00    -0.242 NA
HETATM   26  C12 UNL     1       1.189   3.178   2.449  1.00  0.00     0.100 A 
HETATM   27  C11 UNL     1       2.090   1.992   2.643  1.00  0.00     0.050 A 
ENDBRANCH  10  11
ENDBRANCH   1  10
BRANCH   3  28
HETATM   28  C20 UNL     1       1.570  -2.162  -1.229  1.00  0.00     0.177 C 
BRANCH  28  29
HETATM   29  O6  UNL     1       0.646  -1.123  -1.451  1.00  0.00    -0.326 OA
BRANCH  29  30
HETATM   30  C21 UNL     1      -0.486  -1.533  -2.190  1.00  0.00     0.270 C 
HETATM   31  O7  UNL     1      -0.637  -0.658  -3.301  1.00  0.00    -0.326 OA
HETATM   32  C22 UNL     1      -1.711  -0.977  -4.176  1.00  0.00     0.184 C 
HETATM   33  C23 UNL     1      -3.045  -0.885  -3.402  1.00  0.00     0.215 C 
HETATM   34  C24 UNL     1      -3.025  -1.777  -2.141  1.00  0.00     0.220 C 
HETATM   35  O10 UNL     1      -4.096  -1.291  -4.260  1.00  0.00    -0.218 OA
HETATM   36  C25 UNL     1      -1.758  -1.482  -1.307  1.00  0.00     0.241 C 
HETATM   37  O9  UNL     1      -4.184  -1.529  -1.359  1.00  0.00    -0.218 OA
HETATM   38  O8  UNL     1      -1.647  -2.443  -0.268  1.00  0.00    -0.215 OA
BRANCH  32  39
HETATM   39  C26 UNL     1      -1.631   0.008  -5.346  1.00  0.00     0.214 C 
HETATM   40  O11 UNL     1      -0.457  -0.270  -6.076  1.00  0.00    -0.218 OA
ENDBRANCH  32  39
ENDBRANCH  29  30
ENDBRANCH  28  29
ENDBRANCH   3  28
TORSDOF 6
