REMARK  20 active torsions:
REMARK  status: ('A' for Active; 'I' for Inactive)
REMARK    1  A    between atoms: C2_2  and  C27_39 
REMARK    2  A    between atoms: C3_3  and  C4_4 
REMARK    3  A    between atoms: C5_5  and  C6_6 
REMARK    4  A    between atoms: C7_7  and  C8_8 
REMARK    5  A    between atoms: C9_9  and  C10_10 
REMARK    6  A    between atoms: C11_11  and  C12_12 
REMARK    7  A    between atoms: C12_12  and  O2_14 
REMARK    8  A    between atoms: O2_14  and  C13_15 
REMARK    9  A    between atoms: C14_17  and  C18_24 
REMARK   10  A    between atoms: C18_24  and  O7_25 
REMARK   11  A    between atoms: O7_25  and  C19_26 
REMARK   12  A    between atoms: C20_28  and  C24_35 
REMARK   13  A    between atoms: C28_40  and  C29_41 
REMARK   14  A    between atoms: C30_42  and  C31_43 
REMARK   15  A    between atoms: C31_43  and  O14_45 
REMARK   16  A    between atoms: O14_45  and  C32_46 
REMARK   17  A    between atoms: C33_48  and  C37_55 
REMARK   18  A    between atoms: C37_55  and  O19_56 
REMARK   19  A    between atoms: O19_56  and  C38_57 
REMARK   20  A    between atoms: C39_59  and  C43_66 
ROOT
HETATM    1  C4  UNL     1       0.844  -0.123   1.338  1.00  0.00    -0.000 C 
HETATM    2  C5  UNL     1      -0.250   0.277   0.670  1.00  0.00    -0.000 C 
ENDROOT
BRANCH   1   3
HETATM    3  C3  UNL     1       1.983  -0.713   0.625  1.00  0.00    -0.004 C 
HETATM    4  C2  UNL     1       3.100  -1.059   1.285  1.00  0.00    -0.022 C 
HETATM    5  C1  UNL     1       3.156  -0.826   2.771  1.00  0.00     0.031 C 
BRANCH   4   6
HETATM    6  C27 UNL     1       4.268  -1.652   0.623  1.00  0.00    -0.004 C 
HETATM    7  C28 UNL     1       4.537  -1.381  -0.664  1.00  0.00    -0.001 C 
BRANCH   7   8
HETATM    8  C29 UNL     1       5.707  -1.975  -1.324  1.00  0.00     0.001 C 
HETATM    9  C30 UNL     1       5.830  -1.934  -2.662  1.00  0.00     0.041 C 
HETATM   10  C44 UNL     1       4.746  -1.266  -3.463  1.00  0.00     0.037 C 
BRANCH   9  11
HETATM   11  C31 UNL     1       6.977  -2.510  -3.375  1.00  0.00     0.294 C 
HETATM   12  O13 UNL     1       6.990  -2.543  -4.584  1.00  0.00    -0.259 OA
BRANCH  11  13
HETATM   13  O14 UNL     1       7.959  -2.977  -2.609  1.00  0.00    -0.270 OA
BRANCH  13  14
HETATM   14  C32 UNL     1       9.035  -3.504  -3.373  1.00  0.00     0.277 C 
HETATM   15  O15 UNL     1       9.711  -2.430  -4.014  1.00  0.00    -0.326 OA
HETATM   16  C33 UNL     1      10.791  -2.818  -4.856  1.00  0.00     0.180 C 
HETATM   17  C34 UNL     1      11.867  -3.539  -4.012  1.00  0.00     0.215 C 
HETATM   18  C35 UNL     1      11.264  -4.731  -3.231  1.00  0.00     0.220 C 
HETATM   19  O18 UNL     1      12.889  -4.002  -4.877  1.00  0.00    -0.218 OA
HETATM   20  C36 UNL     1      10.014  -4.264  -2.453  1.00  0.00     0.241 C 
HETATM   21  O17 UNL     1      12.227  -5.250  -2.326  1.00  0.00    -0.218 OA
HETATM   22  O16 UNL     1       9.342  -5.383  -1.906  1.00  0.00    -0.215 OA
BRANCH  16  23
HETATM   23  C37 UNL     1      11.313  -1.541  -5.522  1.00  0.00     0.177 C 
BRANCH  23  24
HETATM   24  O19 UNL     1      10.358  -1.117  -6.471  1.00  0.00    -0.326 OA
BRANCH  24  25
HETATM   25  C38 UNL     1      10.711   0.090  -7.113  1.00  0.00     0.270 C 
HETATM   26  O20 UNL     1      11.834  -0.156  -7.947  1.00  0.00    -0.326 OA
HETATM   27  C39 UNL     1      12.342   0.984  -8.629  1.00  0.00     0.184 C 
HETATM   28  C40 UNL     1      11.250   1.543  -9.571  1.00  0.00     0.215 C 
HETATM   29  C41 UNL     1       9.946   1.848  -8.799  1.00  0.00     0.220 C 
HETATM   30  O23 UNL     1      11.739   2.727 -10.176  1.00  0.00    -0.218 OA
HETATM   31  C42 UNL     1       9.526   0.615  -7.967  1.00  0.00     0.241 C 
HETATM   32  O22 UNL     1       8.916   2.184  -9.715  1.00  0.00    -0.218 OA
HETATM   33  O21 UNL     1       8.453   0.973  -7.110  1.00  0.00    -0.215 OA
BRANCH  27  34
HETATM   34  C43 UNL     1      13.598   0.529  -9.375  1.00  0.00     0.214 C 
HETATM   35  O24 UNL     1      14.600   0.250  -8.424  1.00  0.00    -0.218 OA
ENDBRANCH  27  34
ENDBRANCH  24  25
ENDBRANCH  23  24
ENDBRANCH  16  23
ENDBRANCH  13  14
ENDBRANCH  11  13
ENDBRANCH   9  11
ENDBRANCH   7   8
ENDBRANCH   4   6
ENDBRANCH   1   3
BRANCH   2  36
HETATM   36  C6  UNL     1      -1.389   0.869   1.383  1.00  0.00    -0.004 C 
HETATM   37  C7  UNL     1      -2.443   1.354   0.707  1.00  0.00    -0.022 C 
HETATM   38  C26 UNL     1      -2.428   1.279  -0.797  1.00  0.00     0.031 C 
BRANCH  37  39
HETATM   39  C8  UNL     1      -3.582   1.945   1.420  1.00  0.00    -0.004 C 
HETATM   40  C9  UNL     1      -3.891   1.547   2.666  1.00  0.00    -0.001 C 
BRANCH  40  41
HETATM   41  C10 UNL     1      -5.029   2.137   3.379  1.00  0.00     0.001 C 
HETATM   42  C11 UNL     1      -5.510   1.564   4.494  1.00  0.00     0.041 C 
HETATM   43  C25 UNL     1      -4.853   0.305   4.994  1.00  0.00     0.037 C 
BRANCH  42  44
HETATM   44  C12 UNL     1      -6.645   2.109   5.248  1.00  0.00     0.294 C 
HETATM   45  O1  UNL     1      -7.107   1.500   6.184  1.00  0.00    -0.259 OA
BRANCH  44  46
HETATM   46  O2  UNL     1      -7.104   3.287   4.830  1.00  0.00    -0.270 OA
BRANCH  46  47
HETATM   47  C13 UNL     1      -8.217   3.734   5.592  1.00  0.00     0.277 C 
HETATM   48  O3  UNL     1      -9.338   2.916   5.291  1.00  0.00    -0.326 OA
HETATM   49  C14 UNL     1     -10.518   3.223   6.025  1.00  0.00     0.180 C 
HETATM   50  C15 UNL     1     -10.961   4.668   5.709  1.00  0.00     0.215 C 
HETATM   51  C16 UNL     1      -9.820   5.678   5.963  1.00  0.00     0.220 C 
HETATM   52  O6  UNL     1     -12.074   4.990   6.525  1.00  0.00    -0.218 OA
HETATM   53  C17 UNL     1      -8.537   5.205   5.246  1.00  0.00     0.241 C 
HETATM   54  O5  UNL     1     -10.193   6.959   5.482  1.00  0.00    -0.218 OA
HETATM   55  O4  UNL     1      -7.439   6.010   5.635  1.00  0.00    -0.215 OA
BRANCH  49  56
HETATM   56  C18 UNL     1     -11.566   2.176   5.631  1.00  0.00     0.177 C 
BRANCH  56  57
HETATM   57  O7  UNL     1     -11.158   0.928   6.147  1.00  0.00    -0.326 OA
BRANCH  57  58
HETATM   58  C19 UNL     1     -12.100  -0.102   5.916  1.00  0.00     0.270 C 
HETATM   59  O8  UNL     1     -12.154  -0.355   4.520  1.00  0.00    -0.326 OA
HETATM   60  C20 UNL     1     -13.100  -1.342   4.125  1.00  0.00     0.184 C 
HETATM   61  C21 UNL     1     -12.729  -2.695   4.770  1.00  0.00     0.215 C 
HETATM   62  C22 UNL     1     -12.613  -2.570   6.307  1.00  0.00     0.220 C 
HETATM   63  O11 UNL     1     -13.725  -3.645   4.438  1.00  0.00    -0.218 OA
HETATM   64  C23 UNL     1     -11.684  -1.391   6.672  1.00  0.00     0.241 C 
HETATM   65  O10 UNL     1     -12.096  -3.775   6.848  1.00  0.00    -0.218 OA
HETATM   66  O9  UNL     1     -11.750  -1.158   8.070  1.00  0.00    -0.215 OA
BRANCH  60  67
HETATM   67  C24 UNL     1     -13.078  -1.385   2.594  1.00  0.00     0.214 C 
HETATM   68  O12 UNL     1     -13.641  -0.186   2.109  1.00  0.00    -0.218 OA
ENDBRANCH  60  67
ENDBRANCH  57  58
ENDBRANCH  56  57
ENDBRANCH  49  56
ENDBRANCH  46  47
ENDBRANCH  44  46
ENDBRANCH  42  44
ENDBRANCH  40  41
ENDBRANCH  37  39
ENDBRANCH   2  36
TORSDOF 20
