REMARK  0 active torsions:
REMARK  status: ('A' for Active; 'I' for Inactive)
ROOT
HETATM    1  C1  UNL     1       4.275   0.479  -1.527  1.00  0.00    -0.024 C 
HETATM    2  C2  UNL     1       5.604   0.623  -1.350  1.00  0.00     0.033 C 
HETATM    3  C3  UNL     1       6.219   0.617   0.002  1.00  0.00     0.172 C 
HETATM    4  C4  UNL     1       5.375   0.219   1.205  1.00  0.00     0.062 C 
HETATM    5  C5  UNL     1       4.104  -0.547   0.754  1.00  0.00     0.011 C 
HETATM    6  C6  UNL     1       3.141  -0.898   1.924  1.00  0.00     0.001 C 
HETATM    7  C7  UNL     1       1.951   0.057   2.111  1.00  0.00     0.000 C 
HETATM    8  C8  UNL     1       1.166   0.387   0.809  1.00  0.00     0.000 C 
HETATM    9  C9  UNL     1      -0.350   0.025   0.815  1.00  0.00     0.000 C 
HETATM   10  C10 UNL     1      -1.045   0.539   2.109  1.00  0.00     0.000 C 
HETATM   11  C11 UNL     1      -2.541   0.881   1.947  1.00  0.00     0.000 C 
HETATM   12  C12 UNL     1      -3.262   0.043   0.875  1.00  0.00     0.000 C 
HETATM   13  C13 UNL     1      -4.740   0.486   0.787  1.00  0.00     0.000 C 
HETATM   14  C14 UNL     1      -5.428  -0.070  -0.465  1.00  0.00     0.000 C 
HETATM   15  C15 UNL     1      -4.791   0.453  -1.775  1.00  0.00     0.000 C 
HETATM   16  C16 UNL     1      -3.379   1.025  -1.514  1.00  0.00     0.000 C 
HETATM   17  C17 UNL     1      -2.543   0.184  -0.516  1.00  0.00     0.000 C 
HETATM   18  C18 UNL     1      -1.055   0.668  -0.426  1.00  0.00     0.000 C 
HETATM   19  C19 UNL     1      -0.291   0.311  -1.730  1.00  0.00     0.000 C 
HETATM   20  C20 UNL     1       1.211   0.654  -1.678  1.00  0.00     0.000 C 
HETATM   21  C21 UNL     1       1.906  -0.051  -0.496  1.00  0.00     0.004 C 
HETATM   22  C22 UNL     1       3.391   0.352  -0.303  1.00  0.00     0.022 C 
HETATM   23  C23 UNL     1       1.832  -1.564  -0.768  1.00  0.00     0.000 C 
HETATM   24  C24 UNL     1      -1.016   2.205  -0.301  1.00  0.00     0.000 C 
HETATM   25  C25 UNL     1      -5.666   1.559  -2.375  1.00  0.00     0.000 C 
HETATM   26  C26 UNL     1      -4.705  -0.686  -2.799  1.00  0.00     0.000 C 
HETATM   27  C27 UNL     1      -3.268  -1.428   1.328  1.00  0.00     0.000 C 
HETATM   28  C28 UNL     1      -0.482  -1.506   0.781  1.00  0.00     0.000 C 
HETATM   29  C29 UNL     1       4.561  -1.883   0.125  1.00  0.00     0.001 C 
HETATM   30  C30 UNL     1       6.211  -0.584   2.215  1.00  0.00     0.008 C 
HETATM   31  O1  UNL     1       7.385   0.918   0.131  1.00  0.00    -0.291 OA
ENDROOT
TORSDOF 0
