REMARK  1 active torsions:
REMARK  status: ('A' for Active; 'I' for Inactive)
REMARK    1  A    between atoms: C9_9  and  C11_11 
ROOT
HETATM    1  C1  UNL     1      -3.262  -0.920   0.104  1.00  0.00     0.156 C 
HETATM    2  C2  UNL     1      -3.196   0.500   0.692  1.00  0.00     0.055 C 
HETATM    3  C3  UNL     1      -1.889   1.172   0.330  1.00  0.00    -0.042 C 
HETATM    4  C4  UNL     1      -0.623   0.373   0.598  1.00  0.00     0.019 C 
HETATM    5  C5  UNL     1      -0.713  -1.033  -0.051  1.00  0.00     0.006 C 
HETATM    6  C6  UNL     1      -2.000  -1.742   0.428  1.00  0.00     0.034 C 
HETATM    7  C7  UNL     1       0.527  -1.858   0.356  1.00  0.00     0.001 C 
HETATM    8  C8  UNL     1       1.844  -1.158  -0.017  1.00  0.00     0.004 C 
HETATM    9  C9  UNL     1       1.930   0.258   0.580  1.00  0.00     0.019 C 
HETATM   10  C10 UNL     1       0.689   1.094   0.215  1.00  0.00     0.008 C 
HETATM   11  C14 UNL     1      -0.750  -0.912  -1.584  1.00  0.00     0.000 C 
HETATM   12  C15 UNL     1      -1.871   2.406  -0.205  1.00  0.00    -0.009 C 
HETATM   13  O1  UNL     1      -4.399  -1.584   0.621  1.00  0.00    -0.223 OA
ENDROOT
BRANCH   9  14
HETATM   14  C11 UNL     1       3.201   0.951   0.160  1.00  0.00    -0.044 C 
HETATM   15  C12 UNL     1       3.484   1.349  -1.264  1.00  0.00     0.026 C 
HETATM   16  C13 UNL     1       4.121   1.226   1.098  1.00  0.00    -0.009 C 
ENDBRANCH   9  14
TORSDOF 1
