REMARK  14 active torsions:
REMARK  status: ('A' for Active; 'I' for Inactive)
REMARK    1  A    between atoms: C1_1  and  C2_2 
REMARK    2  A    between atoms: C3_3  and  C4_4 
REMARK    3  A    between atoms: C5_7  and  C17_19 
REMARK    4  A    between atoms: C6_8  and  C9_11 
REMARK    5  A    between atoms: C9_11  and  C10_12 
REMARK    6  A    between atoms: C10_12  and  C11_13 
REMARK    7  A    between atoms: C10_12  and  C15_17 
REMARK    8  A    between atoms: C11_13  and  C12_14 
REMARK    9  A    between atoms: C12_14  and  C13_15 
REMARK   10  A    between atoms: C17_19  and  C18_20 
REMARK   11  A    between atoms: C18_20  and  C19_21 
REMARK   12  A    between atoms: C18_20  and  C23_25 
REMARK   13  A    between atoms: C19_21  and  C20_22 
REMARK   14  A    between atoms: C20_22  and  C21_23 
ROOT
HETATM    1  C2  UNL     1      -0.740  -3.615   0.561  1.00  0.00     0.070 A 
HETATM    2  C3  UNL     1      -1.492  -2.422   0.561  1.00  0.00     0.066 A 
HETATM    3  C5  UNL     1      -0.830  -1.174   0.561  1.00  0.00    -0.020 A 
HETATM    4  C6  UNL     1       0.578  -1.127   0.561  1.00  0.00    -0.026 A 
HETATM    5  C7  UNL     1       1.322  -2.318   0.561  1.00  0.00    -0.004 A 
HETATM    6  C8  UNL     1       0.664  -3.559   0.561  1.00  0.00     0.006 A 
ENDROOT
BRANCH   3   7
HETATM    7  C17 UNL     1      -1.615   0.092   0.561  1.00  0.00     0.026 C 
BRANCH   7   8
HETATM    8  C18 UNL     1      -1.709   0.697   1.961  1.00  0.00     0.004 C 
BRANCH   8   9
HETATM    9  C19 UNL     1      -2.137   2.164   1.943  1.00  0.00     0.000 C 
BRANCH   9  10
HETATM   10  C20 UNL     1      -1.041   3.092   1.420  1.00  0.00     0.000 C 
BRANCH  10  11
HETATM   11  C21 UNL     1      -1.400   4.572   1.563  1.00  0.00     0.000 C 
HETATM   12  C22 UNL     1      -0.309   5.500   1.033  1.00  0.00     0.000 C 
ENDBRANCH  10  11
ENDBRANCH   9  10
ENDBRANCH   8   9
BRANCH   8  13
HETATM   13  C23 UNL     1      -2.549  -0.152   2.916  1.00  0.00     0.000 C 
HETATM   14  C24 UNL     1      -1.709  -1.147   3.717  1.00  0.00     0.000 C 
ENDBRANCH   8  13
ENDBRANCH   7   8
ENDBRANCH   3   7
BRANCH   2  15
HETATM   15  C4  UNL     1      -2.988  -2.477   0.561  1.00  0.00     0.211 C 
HETATM   16  O1  UNL     1      -3.627  -2.037  -0.369  1.00  0.00    -0.644 OA
HETATM   17  O2  UNL     1      -3.535  -3.031   1.639  1.00  0.00    -0.644 OA
ENDBRANCH   2  15
BRANCH   4  18
HETATM   18  C9  UNL     1       1.295   0.178   0.561  1.00  0.00     0.026 C 
BRANCH  18  19
HETATM   19  C10 UNL     1       2.166   0.344  -0.686  1.00  0.00     0.004 C 
BRANCH  19  20
HETATM   20  C11 UNL     1       1.353   0.320  -1.980  1.00  0.00     0.000 C 
BRANCH  20  21
HETATM   21  C12 UNL     1       1.973  -0.580  -3.051  1.00  0.00     0.000 C 
BRANCH  21  22
HETATM   22  C13 UNL     1       1.240  -0.498  -4.389  1.00  0.00     0.000 C 
HETATM   23  C14 UNL     1       1.857  -1.400  -5.457  1.00  0.00     0.000 C 
ENDBRANCH  21  22
ENDBRANCH  20  21
ENDBRANCH  19  20
BRANCH  19  24
HETATM   24  C15 UNL     1       3.100   1.549  -0.598  1.00  0.00     0.000 C 
HETATM   25  C16 UNL     1       4.100   1.607  -1.752  1.00  0.00     0.000 C 
ENDBRANCH  19  24
ENDBRANCH  18  19
ENDBRANCH   4  18
BRANCH   1  26
HETATM   26  C1  UNL     1      -1.418  -4.949   0.561  1.00  0.00     0.211 C 
HETATM   27  O3  UNL     1      -2.590  -5.051   0.281  1.00  0.00    -0.644 OA
HETATM   28  O4  UNL     1      -0.641  -5.979   0.885  1.00  0.00    -0.644 OA
ENDBRANCH   1  26
TORSDOF 14
