REMARK  9 active torsions:
REMARK  status: ('A' for Active; 'I' for Inactive)
REMARK    1  A    between atoms: C1_1  and  C2_2 
REMARK    2  A    between atoms: C1_1  and  C15_18 
REMARK    3  A    between atoms: C2_2  and  C3_3 
REMARK    4  A    between atoms: C3_3  and  C4_4 
REMARK    5  A    between atoms: C4_4  and  C5_5 
REMARK    6  A    between atoms: C5_5  and  C6_6 
REMARK    7  A    between atoms: C5_5  and  O2_15 
REMARK    8  A    between atoms: C6_6  and  C7_7 
REMARK    9  A    between atoms: C7_7  and  C8_8 
ROOT
HETATM    1  C5  UNL     1       0.830   0.898  -0.258  1.00  0.00     0.123 C 
ENDROOT
BRANCH   1   2
HETATM    2  C4  UNL     1       0.043  -0.406  -0.125  1.00  0.00     0.094 C 
BRANCH   2   3
HETATM    3  C3  UNL     1      -0.369  -0.965  -1.459  1.00  0.00     0.153 C 
HETATM    4  O3  UNL     1      -0.121  -0.377  -2.484  1.00  0.00    -0.296 OA
BRANCH   3   5
HETATM    5  C2  UNL     1      -1.104  -2.279  -1.479  1.00  0.00     0.069 C 
BRANCH   5   6
HETATM    6  C1  UNL     1      -1.453  -2.732  -2.897  1.00  0.00     0.034 C 
BRANCH   6   7
HETATM    7  C15 UNL     1      -2.148  -4.045  -2.897  1.00  0.00    -0.022 A 
HETATM    8  C16 UNL     1      -3.555  -4.098  -2.897  1.00  0.00    -0.004 A 
HETATM    9  C17 UNL     1      -4.213  -5.340  -2.897  1.00  0.00    -0.000 A 
HETATM   10  C18 UNL     1      -3.467  -6.529  -2.897  1.00  0.00    -0.000 A 
HETATM   11  C19 UNL     1      -2.063  -6.479  -2.897  1.00  0.00    -0.000 A 
HETATM   12  C20 UNL     1      -1.402  -5.236  -2.897  1.00  0.00    -0.004 A 
ENDBRANCH   6   7
ENDBRANCH   5   6
ENDBRANCH   3   5
ENDBRANCH   2   3
ENDBRANCH   1   2
BRANCH   1  13
HETATM   13  C6  UNL     1       1.117   1.555   1.094  1.00  0.00     0.035 C 
BRANCH  13  14
HETATM   14  C7  UNL     1       0.861   3.063   1.084  1.00  0.00     0.029 C 
BRANCH  14  15
HETATM   15  C8  UNL     1       1.170   3.678   2.400  1.00  0.00    -0.022 A 
HETATM   16  C9  UNL     1       0.143   3.883   3.338  1.00  0.00    -0.002 A 
HETATM   17  C10 UNL     1       0.434   4.465   4.584  1.00  0.00     0.027 A 
HETATM   18  C11 UNL     1       1.752   4.844   4.896  1.00  0.00     0.131 A 
HETATM   19  C12 UNL     1       2.775   4.639   3.957  1.00  0.00     0.027 A 
HETATM   20  O1  UNL     1       2.023   5.391   6.064  1.00  0.00    -0.190 OA
HETATM   21  C13 UNL     1       2.486   4.057   2.711  1.00  0.00    -0.002 A 
ENDBRANCH  14  15
ENDBRANCH  13  14
ENDBRANCH   1  13
BRANCH   1  22
HETATM   22  O2  UNL     1       2.063   0.609  -0.879  1.00  0.00    -0.354 OA
HETATM   23  C14 UNL     1       2.787   1.764  -1.238  1.00  0.00     0.174 C 
ENDBRANCH   1  22
TORSDOF 9
