REMARK  10 active torsions:
REMARK  status: ('A' for Active; 'I' for Inactive)
REMARK    1  A    between atoms: C1_1  and  C2_2 
REMARK    2  A    between atoms: C1_1  and  O4_16 
REMARK    3  A    between atoms: C3_3  and  C4_4 
REMARK    4  A    between atoms: C4_4  and  O2_6 
REMARK    5  A    between atoms: O2_6  and  C5_7 
REMARK    6  A    between atoms: C5_7  and  C6_8 
REMARK    7  A    between atoms: C6_8  and  C7_9 
REMARK    8  A    between atoms: O4_16  and  C13_17 
REMARK    9  A    between atoms: C13_17  and  C14_18 
REMARK   10  A    between atoms: C14_18  and  C15_19 
ROOT
HETATM    1  C2  UNL     1      -1.723  -2.502   1.019  1.00  0.00     0.068 A 
HETATM    2  C3  UNL     1      -0.313  -2.451   1.019  1.00  0.00     0.068 A 
HETATM    3  C9  UNL     1       0.432  -3.646   1.019  1.00  0.00     0.005 A 
HETATM    4  C10 UNL     1      -0.227  -4.887   1.019  1.00  0.00     0.000 A 
HETATM    5  C11 UNL     1      -1.631  -4.937   1.019  1.00  0.00     0.000 A 
HETATM    6  C12 UNL     1      -2.377  -3.748   1.019  1.00  0.00     0.005 A 
ENDROOT
BRANCH   1   7
HETATM    7  C1  UNL     1      -2.535  -1.248   1.019  1.00  0.00     0.296 C 
HETATM    8  O3  UNL     1      -3.486  -1.123   1.756  1.00  0.00    -0.259 OA
BRANCH   7   9
HETATM    9  O4  UNL     1      -2.133  -0.310   0.166  1.00  0.00    -0.298 OA
BRANCH   9  10
HETATM   10  C13 UNL     1      -2.945   0.852   0.215  1.00  0.00     0.152 C 
BRANCH  10  11
HETATM   11  C14 UNL     1      -2.424   1.881  -0.787  1.00  0.00     0.033 C 
BRANCH  11  12
HETATM   12  C15 UNL     1      -3.248   3.168  -0.795  1.00  0.00     0.003 C 
HETATM   13  C16 UNL     1      -2.727   4.197  -1.799  1.00  0.00     0.000 C 
ENDBRANCH  11  12
ENDBRANCH  10  11
ENDBRANCH   9  10
ENDBRANCH   7   9
ENDBRANCH   1   7
BRANCH   2  14
HETATM   14  C4  UNL     1       0.408  -1.141   1.019  1.00  0.00     0.296 C 
HETATM   15  O1  UNL     1      -0.072  -0.168   1.555  1.00  0.00    -0.259 OA
BRANCH  14  16
HETATM   16  O2  UNL     1       1.584  -1.141   0.398  1.00  0.00    -0.298 OA
BRANCH  16  17
HETATM   17  C5  UNL     1       2.213   0.133   0.435  1.00  0.00     0.152 C 
BRANCH  17  18
HETATM   18  C6  UNL     1       3.555   0.057  -0.295  1.00  0.00     0.033 C 
BRANCH  18  19
HETATM   19  C7  UNL     1       4.295   1.395  -0.307  1.00  0.00     0.003 C 
HETATM   20  C8  UNL     1       5.615   1.332  -1.076  1.00  0.00     0.000 C 
ENDBRANCH  18  19
ENDBRANCH  17  18
ENDBRANCH  16  17
ENDBRANCH  14  16
ENDBRANCH   2  14
TORSDOF 10
