REMARK  0 active torsions:
REMARK  status: ('A' for Active; 'I' for Inactive)
ROOT
HETATM    1  C1  UNL     1       3.475  -1.709   0.459  1.00  0.00     0.027 A 
HETATM    2  C2  UNL     1       4.168  -0.502   0.244  1.00  0.00     0.127 A 
HETATM    3  C3  UNL     1       3.453   0.691  -0.014  1.00  0.00     0.004 A 
HETATM    4  C4  UNL     1       2.027   0.668  -0.061  1.00  0.00    -0.002 A 
HETATM    5  C5  UNL     1       1.307  -0.559   0.162  1.00  0.00     0.003 A 
HETATM    6  C6  UNL     1       2.063  -1.740   0.418  1.00  0.00     0.002 A 
HETATM    7  C7  UNL     1      -0.135  -0.553   0.119  1.00  0.00     0.044 A 
HETATM    8  C8  UNL     1      -0.807   0.681  -0.166  1.00  0.00     0.026 A 
HETATM    9  C9  UNL     1      -0.084   1.875  -0.385  1.00  0.00     0.002 A 
HETATM   10  C10 UNL     1       1.320   1.869  -0.328  1.00  0.00    -0.000 A 
HETATM   11  C11 UNL     1      -2.295   0.717  -0.238  1.00  0.00     0.103 A 
HETATM   12  C12 UNL     1      -3.043  -0.404  -0.025  1.00  0.00     0.063 A 
HETATM   13  C13 UNL     1      -2.447  -1.717   0.289  1.00  0.00     0.236 A 
HETATM   14  C14 UNL     1      -0.963  -1.811   0.367  1.00  0.00     0.234 A 
HETATM   15  O1  UNL     1      -0.564  -2.920   0.633  1.00  0.00    -0.283 OA
HETATM   16  O2  UNL     1      -3.152  -2.684   0.475  1.00  0.00    -0.283 OA
HETATM   17  C15 UNL     1      -4.344  -0.016  -0.168  1.00  0.00     0.008 A 
HETATM   18  C16 UNL     1      -4.371   1.355  -0.471  1.00  0.00     0.118 A 
HETATM   19  O3  UNL     1      -3.053   1.840  -0.518  1.00  0.00    -0.305 OA
HETATM   20  C17 UNL     1      -5.563  -0.904  -0.027  1.00  0.00     0.033 C 
HETATM   21  C18 UNL     1       4.221   1.935  -0.232  1.00  0.00     0.033 C 
HETATM   22  O4  UNL     1       5.508  -0.494   0.289  1.00  0.00    -0.191 OA
ENDROOT
TORSDOF 0
