REMARK  6 active torsions:
REMARK  status: ('A' for Active; 'I' for Inactive)
REMARK    1  A    between atoms: C1_1  and  O6_25 
REMARK    2  A    between atoms: C7_7  and  C19_23 
REMARK    3  A    between atoms: C8_8  and  C9_10 
REMARK    4  A    between atoms: C12_13  and  C16_18 
REMARK    5  A    between atoms: C14_15  and  O2_16 
REMARK    6  A    between atoms: C17_19  and  C18_20 
ROOT
HETATM    1  C1  UNL     1       3.834  -1.410   2.086  1.00  0.00     0.094 A 
HETATM    2  C2  UNL     1       4.109  -0.031   2.000  1.00  0.00     0.026 A 
HETATM    3  C3  UNL     1       3.039   0.883   1.891  1.00  0.00     0.026 A 
HETATM    4  C4  UNL     1       1.686   0.451   1.865  1.00  0.00     0.091 A 
HETATM    5  C5  UNL     1       1.424  -0.924   1.949  1.00  0.00     0.007 A 
HETATM    6  C6  UNL     1       2.494  -1.850   2.062  1.00  0.00     0.022 A 
HETATM    7  C7  UNL     1      -0.068  -1.145   1.896  1.00  0.00     0.089 A 
HETATM    8  C8  UNL     1      -0.594   0.336   1.824  1.00  0.00     0.152 A 
HETATM    9  O1  UNL     1       0.572   1.176   1.768  1.00  0.00    -0.329 OA
ENDROOT
BRANCH   8  10
HETATM   10  C9  UNL     1      -1.484   0.639   0.668  1.00  0.00     0.030 A 
HETATM   11  C10 UNL     1      -2.869   0.760   0.869  1.00  0.00     0.027 A 
HETATM   12  C11 UNL     1      -3.723   1.045  -0.213  1.00  0.00     0.131 A 
HETATM   13  C12 UNL     1      -3.182   1.211  -1.502  1.00  0.00     0.027 A 
HETATM   14  O4  UNL     1      -5.020   1.154  -0.008  1.00  0.00    -0.190 OA
HETATM   15  C13 UNL     1      -1.793   1.090  -1.703  1.00  0.00     0.026 A 
HETATM   16  C14 UNL     1      -0.941   0.805  -0.621  1.00  0.00     0.092 A 
BRANCH  13  17
HETATM   17  C16 UNL     1      -4.072   1.516  -2.662  1.00  0.00     0.005 C 
HETATM   18  C17 UNL     1      -3.520   1.666  -3.877  1.00  0.00     0.045 C 
BRANCH  18  19
HETATM   19  C18 UNL     1      -4.356   1.967  -5.047  1.00  0.00     0.234 C 
HETATM   20  O3  UNL     1      -3.854   2.102  -6.139  1.00  0.00    -0.283 OA
ENDBRANCH  18  19
ENDBRANCH  13  17
BRANCH  16  21
HETATM   21  O2  UNL     1       0.355   0.693  -0.822  1.00  0.00    -0.328 OA
HETATM   22  C15 UNL     1       0.844   0.873  -2.143  1.00  0.00     0.181 C 
ENDBRANCH  16  21
ENDBRANCH   8  10
BRANCH   7  23
HETATM   23  C19 UNL     1      -0.439  -2.063   0.730  1.00  0.00     0.190 C 
HETATM   24  O5  UNL     1      -0.078  -3.381   1.072  1.00  0.00    -0.220 OA
ENDBRANCH   7  23
BRANCH   1  25
HETATM   25  O6  UNL     1       4.836  -2.293   2.193  1.00  0.00    -0.328 OA
HETATM   26  C20 UNL     1       6.166  -1.799   2.174  1.00  0.00     0.181 C 
ENDBRANCH   1  25
TORSDOF 6
