REMARK  12 active torsions:
REMARK  status: ('A' for Active; 'I' for Inactive)
REMARK    1  A    between atoms: C5_5  and  C6_7 
REMARK    2  A    between atoms: C6_7  and  C7_8 
REMARK    3  A    between atoms: C6_7  and  O2_18 
REMARK    4  A    between atoms: C7_8  and  C8_9 
REMARK    5  A    between atoms: C8_9  and  C9_10 
REMARK    6  A    between atoms: C9_10  and  C10_11 
REMARK    7  A    between atoms: C10_11  and  C11_12 
REMARK    8  A    between atoms: C11_12  and  C12_13 
REMARK    9  A    between atoms: C12_13  and  C13_14 
REMARK   10  A    between atoms: C13_14  and  C14_15 
REMARK   11  A    between atoms: C14_15  and  C15_16 
REMARK   12  A    between atoms: O2_18  and  C17_19 
ROOT
HETATM    1  C6  UNL     1       1.100   3.221  -0.763  1.00  0.00     0.152 C 
ENDROOT
BRANCH   1   2
HETATM    2  C5  UNL     1       2.324   3.918  -1.360  1.00  0.00     0.152 C 
HETATM    3  C4  UNL     1       2.353   5.414  -1.026  1.00  0.00     0.033 C 
HETATM    4  C3  UNL     1       3.575   6.044  -1.687  1.00  0.00     0.013 C 
HETATM    5  C2  UNL     1       4.850   5.339  -1.221  1.00  0.00     0.096 C 
HETATM    6  C1  UNL     1       4.702   3.839  -1.050  1.00  0.00     0.272 C 
HETATM    7  O1  UNL     1       3.501   3.250  -0.890  1.00  0.00    -0.302 OA
HETATM    8  O4  UNL     1       5.715   3.180  -1.043  1.00  0.00    -0.264 OA
ENDBRANCH   1   2
BRANCH   1   9
HETATM    9  C7  UNL     1       1.036   1.735  -1.116  1.00  0.00     0.033 C 
BRANCH   9  10
HETATM   10  C8  UNL     1       0.028   0.967  -0.260  1.00  0.00     0.003 C 
BRANCH  10  11
HETATM   11  C9  UNL     1       0.156  -0.549  -0.416  1.00  0.00     0.000 C 
BRANCH  11  12
HETATM   12  C10 UNL     1      -0.857  -1.316   0.434  1.00  0.00     0.000 C 
BRANCH  12  13
HETATM   13  C11 UNL     1      -0.730  -2.832   0.279  1.00  0.00     0.000 C 
BRANCH  13  14
HETATM   14  C12 UNL     1      -1.742  -3.600   1.129  1.00  0.00     0.000 C 
BRANCH  14  15
HETATM   15  C13 UNL     1      -1.615  -5.115   0.974  1.00  0.00     0.000 C 
BRANCH  15  16
HETATM   16  C14 UNL     1      -2.627  -5.883   1.824  1.00  0.00     0.000 C 
BRANCH  16  17
HETATM   17  C15 UNL     1      -2.500  -7.399   1.669  1.00  0.00     0.000 C 
HETATM   18  C16 UNL     1      -3.513  -8.166   2.519  1.00  0.00     0.000 C 
ENDBRANCH  16  17
ENDBRANCH  15  16
ENDBRANCH  14  15
ENDBRANCH  13  14
ENDBRANCH  12  13
ENDBRANCH  11  12
ENDBRANCH  10  11
ENDBRANCH   9  10
ENDBRANCH   1   9
BRANCH   1  19
HETATM   19  O2  UNL     1      -0.081   3.866  -1.217  1.00  0.00    -0.302 OA
BRANCH  19  20
HETATM   20  C17 UNL     1      -1.059   3.825  -0.316  1.00  0.00     0.272 C 
HETATM   21  O3  UNL     1      -0.911   3.443   0.821  1.00  0.00    -0.264 OA
HETATM   22  C18 UNL     1      -2.402   4.295  -0.808  1.00  0.00     0.106 C 
ENDBRANCH  19  20
ENDBRANCH   1  19
TORSDOF 12
