REMARK  0 active torsions:
REMARK  status: ('A' for Active; 'I' for Inactive)
ROOT
HETATM    1  O1  UNL     1      -3.661  -0.769  -0.003  1.00  0.00    -0.259 OA
HETATM    2  C1  UNL     1      -2.456  -0.665  -0.001  1.00  0.00     0.300 A 
HETATM    3  O2  UNL     1      -1.755  -1.823   0.000  1.00  0.00    -0.271 OA
HETATM    4  C2  UNL     1      -0.399  -1.854   0.001  1.00  0.00     0.131 A 
HETATM    5  C3  UNL     1       0.301  -3.086   0.002  1.00  0.00     0.179 A 
HETATM    6  O3  UNL     1      -0.381  -4.240   0.003  1.00  0.00    -0.186 OA
HETATM    7  C4  UNL     1       1.722  -3.100   0.002  1.00  0.00     0.158 A 
HETATM    8  O4  UNL     1       2.378  -4.269   0.002  1.00  0.00    -0.188 OA
HETATM    9  C5  UNL     1       2.455  -1.885   0.002  1.00  0.00     0.035 A 
HETATM   10  C6  UNL     1       1.757  -0.653   0.002  1.00  0.00     0.068 A 
HETATM   11  C7  UNL     1       0.347  -0.644   0.001  1.00  0.00     0.032 A 
HETATM   12  C8  UNL     1      -0.347   0.644   0.000  1.00  0.00     0.032 A 
HETATM   13  C9  UNL     1       0.399   1.854   0.000  1.00  0.00     0.131 A 
HETATM   14  O5  UNL     1       1.755   1.823   0.001  1.00  0.00    -0.271 OA
HETATM   15  C10 UNL     1       2.456   0.665   0.002  1.00  0.00     0.300 A 
HETATM   16  O6  UNL     1       3.661   0.769   0.002  1.00  0.00    -0.259 OA
HETATM   17  C11 UNL     1      -0.301   3.086  -0.001  1.00  0.00     0.179 A 
HETATM   18  O7  UNL     1       0.381   4.240   0.000  1.00  0.00    -0.186 OA
HETATM   19  C12 UNL     1      -1.722   3.100  -0.003  1.00  0.00     0.158 A 
HETATM   20  O8  UNL     1      -2.378   4.269  -0.004  1.00  0.00    -0.188 OA
HETATM   21  C13 UNL     1      -2.455   1.885  -0.004  1.00  0.00     0.035 A 
HETATM   22  C14 UNL     1      -1.757   0.653  -0.002  1.00  0.00     0.068 A 
ENDROOT
TORSDOF 0
