REMARK  1 active torsions:
REMARK  status: ('A' for Active; 'I' for Inactive)
REMARK    1  A    between atoms: C8_9  and  C12_15 
ROOT
HETATM    1  C1  UNL     1       3.608   0.713  -0.186  1.00  0.00     0.027 A 
HETATM    2  C2  UNL     1       3.754  -0.681  -0.045  1.00  0.00     0.002 A 
HETATM    3  C3  UNL     1       2.615  -1.492   0.139  1.00  0.00    -0.002 A 
HETATM    4  C4  UNL     1       1.311  -0.928   0.187  1.00  0.00     0.011 A 
HETATM    5  C5  UNL     1       1.158   0.492   0.035  1.00  0.00     0.035 A 
HETATM    6  C6  UNL     1       2.320   1.295  -0.149  1.00  0.00     0.129 A 
HETATM    7  O1  UNL     1       2.211   2.625  -0.287  1.00  0.00    -0.190 OA
HETATM    8  C7  UNL     1      -0.176   1.166   0.057  1.00  0.00     0.210 C 
HETATM    9  C8  UNL     1      -1.381   0.240  -0.201  1.00  0.00     0.200 A 
HETATM   10  C9  UNL     1      -1.219  -1.310  -0.027  1.00  0.00     0.157 A 
HETATM   11  C10 UNL     1       0.160  -1.857   0.391  1.00  0.00     0.202 C 
HETATM   12  O2  UNL     1       0.139  -2.326   1.730  1.00  0.00    -0.216 OA
HETATM   13  O3  UNL     1      -1.769  -0.467   0.937  1.00  0.00    -0.346 OA
HETATM   14  C11 UNL     1      -2.312  -2.262  -0.494  1.00  0.00     0.036 C 
HETATM   15  O5  UNL     1      -0.338   1.897   1.262  1.00  0.00    -0.215 OA
ENDROOT
BRANCH   9  16
HETATM   16  C12 UNL     1      -2.603   0.867  -0.846  1.00  0.00     0.180 C 
HETATM   17  C13 UNL     1      -3.154   2.121  -0.219  1.00  0.00     0.075 C 
HETATM   18  O4  UNL     1      -3.119   0.385  -1.826  1.00  0.00    -0.293 OA
ENDBRANCH   9  16
TORSDOF 1
