REMARK  2 active torsions:
REMARK  status: ('A' for Active; 'I' for Inactive)
REMARK    1  A    between atoms: C16_16  and  C25_26 
REMARK    2  A    between atoms: C21_22  and  C22_23 
ROOT
HETATM    1  C1  UNL     1      -4.934  -0.006  -1.721  1.00  0.00     0.033 C 
HETATM    2  C2  UNL     1      -5.551  -0.856  -0.602  1.00  0.00     0.152 C 
HETATM    3  C3  UNL     1      -4.936  -0.549   0.785  1.00  0.00     0.028 C 
HETATM    4  C4  UNL     1      -3.389  -0.695   0.699  1.00  0.00     0.002 C 
HETATM    5  C5  UNL     1      -2.723   0.158  -0.422  1.00  0.00     0.000 C 
HETATM    6  C6  UNL     1      -3.410  -0.176  -1.768  1.00  0.00     0.003 C 
HETATM    7  C7  UNL     1      -1.195  -0.178  -0.484  1.00  0.00     0.000 C 
HETATM    8  C8  UNL     1      -0.449  -0.014   0.881  1.00  0.00     0.000 C 
HETATM    9  C9  UNL     1      -1.197  -0.816   1.971  1.00  0.00     0.000 C 
HETATM   10  C10 UNL     1      -2.690  -0.471   2.053  1.00  0.00     0.000 C 
HETATM   11  C11 UNL     1       1.039  -0.492   0.746  1.00  0.00     0.003 C 
HETATM   12  C12 UNL     1       1.748   0.332  -0.369  1.00  0.00     0.001 C 
HETATM   13  C13 UNL     1       1.025   0.184  -1.717  1.00  0.00     0.000 C 
HETATM   14  C14 UNL     1      -0.453   0.574  -1.615  1.00  0.00     0.000 C 
HETATM   15  C15 UNL     1       3.236  -0.068  -0.463  1.00  0.00     0.009 C 
HETATM   16  C16 UNL     1       3.941   0.242   0.867  1.00  0.00     0.059 C 
HETATM   17  C17 UNL     1       3.320  -0.664   1.943  1.00  0.00     0.154 C 
HETATM   18  C18 UNL     1       1.818  -0.342   2.082  1.00  0.00     0.033 C 
HETATM   19  O1  UNL     1       3.965  -0.461   3.186  1.00  0.00    -0.223 OA
HETATM   20  C19 UNL     1       5.379  -0.102   0.484  1.00  0.00     0.005 C 
HETATM   21  C20 UNL     1       5.543   0.518  -0.904  1.00  0.00     0.004 C 
HETATM   22  C21 UNL     1       4.127   0.652  -1.488  1.00  0.00     0.018 C 
HETATM   23  C26 UNL     1       1.062  -1.988   0.369  1.00  0.00     0.000 C 
HETATM   24  C27 UNL     1      -0.459   1.467   1.307  1.00  0.00     0.000 C 
HETATM   25  C28 UNL     1      -2.914   1.660  -0.154  1.00  0.00     0.000 C 
HETATM   26  C29 UNL     1      -5.321   0.859   1.264  1.00  0.00     0.003 C 
HETATM   27  C30 UNL     1      -5.489  -1.555   1.807  1.00  0.00     0.003 C 
HETATM   28  O3  UNL     1      -6.953  -0.647  -0.590  1.00  0.00    -0.224 OA
ENDROOT
BRANCH  22  29
HETATM   29  C22 UNL     1       4.023   0.094  -2.887  1.00  0.00    -0.044 C 
HETATM   30  C23 UNL     1       3.736   0.936  -3.893  1.00  0.00    -0.009 C 
HETATM   31  C24 UNL     1       4.226  -1.363  -3.205  1.00  0.00     0.026 C 
ENDBRANCH  22  29
BRANCH  16  32
HETATM   32  C25 UNL     1       3.885   1.732   1.238  1.00  0.00     0.185 C 
HETATM   33  O2  UNL     1       4.781   1.957   2.303  1.00  0.00    -0.221 OA
ENDBRANCH  16  32
TORSDOF 2
