REMARK  5 active torsions:
REMARK  status: ('A' for Active; 'I' for Inactive)
REMARK    1  A    between atoms: C15_15  and  C18_18 
REMARK    2  A    between atoms: C18_18  and  C19_19 
REMARK    3  A    between atoms: C19_19  and  C20_20 
REMARK    4  A    between atoms: C20_20  and  C21_21 
REMARK    5  A    between atoms: C21_21  and  C22_22 
ROOT
HETATM    1  C1  UNL     1       6.272   1.186  -2.516  1.00  0.00     0.033 C 
HETATM    2  C2  UNL     1       7.080   0.215  -1.641  1.00  0.00     0.155 C 
HETATM    3  C3  UNL     1       6.492   0.049  -0.221  1.00  0.00     0.068 C 
HETATM    4  C4  UNL     1       4.984   0.398  -0.105  1.00  0.00     0.147 C 
HETATM    5  C5  UNL     1       4.166   0.094  -1.404  1.00  0.00     0.032 C 
HETATM    6  C6  UNL     1       4.775   0.832  -2.637  1.00  0.00     0.005 C 
HETATM    7  C7  UNL     1       2.676   0.549  -1.158  1.00  0.00     0.035 C 
HETATM    8  C8  UNL     1       2.525   1.100   0.291  1.00  0.00     0.145 C 
HETATM    9  C9  UNL     1       3.035   0.051   1.268  1.00  0.00     0.001 C 
HETATM   10  C10 UNL     1       4.314  -0.311   1.064  1.00  0.00     0.001 C 
HETATM   11  C11 UNL     1       1.086   1.570   0.598  1.00  0.00     0.032 C 
HETATM   12  C12 UNL     1       0.004   0.545   0.205  1.00  0.00     0.003 C 
HETATM   13  C13 UNL     1       0.185   0.041  -1.242  1.00  0.00     0.000 C 
HETATM   14  C14 UNL     1       1.600  -0.518  -1.453  1.00  0.00     0.003 C 
HETATM   15  C15 UNL     1      -1.256   1.404   0.395  1.00  0.00     0.000 C 
HETATM   16  C16 UNL     1      -0.893   2.744  -0.240  1.00  0.00     0.000 C 
HETATM   17  C17 UNL     1       0.629   2.838  -0.137  1.00  0.00     0.003 C 
HETATM   18  C27 UNL     1      -0.059  -0.617   1.195  1.00  0.00     0.000 C 
HETATM   19  O1  UNL     1       3.434   2.207   0.385  1.00  0.00    -0.222 OA
HETATM   20  O2  UNL     1       4.836   1.807   0.148  1.00  0.00    -0.221 OA
HETATM   21  C28 UNL     1       4.240  -1.424  -1.670  1.00  0.00     0.003 C 
HETATM   22  O3  UNL     1       7.145  -1.039  -2.295  1.00  0.00    -0.223 OA
ENDROOT
BRANCH  15  23
HETATM   23  C18 UNL     1      -2.518   0.801  -0.217  1.00  0.00     0.000 C 
HETATM   24  C26 UNL     1      -3.563   1.898  -0.414  1.00  0.00     0.000 C 
BRANCH  23  25
HETATM   25  C19 UNL     1      -3.020  -0.338   0.672  1.00  0.00     0.000 C 
BRANCH  25  26
HETATM   26  C20 UNL     1      -4.545  -0.373   0.781  1.00  0.00     0.000 C 
BRANCH  26  27
HETATM   27  C21 UNL     1      -5.047  -1.522   1.656  1.00  0.00     0.000 C 
HETATM   28  C25 UNL     1      -4.887  -2.887   0.988  1.00  0.00     0.000 C 
BRANCH  27  29
HETATM   29  C22 UNL     1      -6.463  -1.285   2.184  1.00  0.00     0.000 C 
HETATM   30  C23 UNL     1      -7.516  -1.305   1.076  1.00  0.00     0.000 C 
HETATM   31  C24 UNL     1      -6.819  -2.207   3.352  1.00  0.00     0.000 C 
ENDBRANCH  27  29
ENDBRANCH  26  27
ENDBRANCH  25  26
ENDBRANCH  23  25
ENDBRANCH  15  23
TORSDOF 5
