REMARK  8 active torsions:
REMARK  status: ('A' for Active; 'I' for Inactive)
REMARK    1  A    between atoms: C3_3  and  C7_8 
REMARK    2  A    between atoms: C7_8  and  C8_9 
REMARK    3  A    between atoms: C8_9  and  C9_10 
REMARK    4  A    between atoms: C12_13  and  C23_26 
REMARK    5  A    between atoms: C13_14  and  O3_24 
REMARK    6  A    between atoms: C14_15  and  C15_16 
REMARK    7  A    between atoms: C15_16  and  C16_17 
REMARK    8  A    between atoms: C23_26  and  C24_27 
ROOT
HETATM    1  C9  UNL     1      -0.289   0.789  -1.010  1.00  0.00    -0.022 A 
HETATM    2  C10 UNL     1      -1.670   0.855  -1.264  1.00  0.00     0.023 A 
HETATM    3  C11 UNL     1      -2.590   0.810  -0.203  1.00  0.00     0.129 A 
HETATM    4  C12 UNL     1      -2.125   0.701   1.121  1.00  0.00     0.029 A 
HETATM    5  C13 UNL     1      -0.742   0.635   1.383  1.00  0.00     0.088 A 
HETATM    6  C14 UNL     1       0.176   0.678   0.314  1.00  0.00     0.000 A 
HETATM    7  O5  UNL     1      -3.883   0.873  -0.455  1.00  0.00    -0.190 OA
ENDROOT
BRANCH   1   8
HETATM    8  C8  UNL     1       0.666   0.838  -2.150  1.00  0.00     0.031 C 
BRANCH   8   9
HETATM    9  C7  UNL     1       1.238   2.242  -2.346  1.00  0.00     0.031 C 
BRANCH   9  10
HETATM   10  C3  UNL     1       2.209   2.285  -3.471  1.00  0.00    -0.020 A 
HETATM   11  C2  UNL     1       1.764   2.098  -4.791  1.00  0.00    -0.004 A 
HETATM   12  C1  UNL     1       2.682   2.141  -5.854  1.00  0.00     0.002 A 
HETATM   13  C6  UNL     1       4.043   2.369  -5.598  1.00  0.00     0.027 A 
HETATM   14  C5  UNL     1       4.492   2.559  -4.279  1.00  0.00     0.131 A 
HETATM   15  C4  UNL     1       3.572   2.516  -3.217  1.00  0.00     0.023 A 
HETATM   16  O1  UNL     1       5.772   2.773  -4.041  1.00  0.00    -0.190 OA
ENDBRANCH   9  10
ENDBRANCH   8   9
ENDBRANCH   1   8
BRANCH   6  17
HETATM   17  C15 UNL     1       1.637   0.609   0.592  1.00  0.00     0.054 C 
BRANCH  17  18
HETATM   18  C16 UNL     1       1.986  -0.756   1.064  1.00  0.00    -0.018 A 
HETATM   19  C17 UNL     1       1.766  -1.867   0.232  1.00  0.00    -0.002 A 
HETATM   20  C18 UNL     1       2.098  -3.158   0.680  1.00  0.00     0.027 A 
HETATM   21  C19 UNL     1       2.649  -3.344   1.961  1.00  0.00     0.131 A 
HETATM   22  C20 UNL     1       2.867  -2.231   2.791  1.00  0.00     0.027 A 
HETATM   23  O2  UNL     1       2.959  -4.553   2.379  1.00  0.00    -0.190 OA
HETATM   24  C21 UNL     1       2.537  -0.938   2.346  1.00  0.00    -0.002 A 
ENDBRANCH  17  18
ENDBRANCH   6  17
BRANCH   5  25
HETATM   25  O3  UNL     1      -0.307   0.531   2.623  1.00  0.00    -0.329 OA
HETATM   26  C22 UNL     1      -0.080   1.728   3.352  1.00  0.00     0.181 C 
ENDBRANCH   5  25
BRANCH   4  27
HETATM   27  C23 UNL     1      -3.096   0.654   2.248  1.00  0.00     0.057 C 
BRANCH  27  28
HETATM   28  C24 UNL     1      -3.791  -0.660   2.248  1.00  0.00    -0.018 A 
HETATM   29  C25 UNL     1      -5.195  -0.711   2.248  1.00  0.00    -0.002 A 
HETATM   30  C26 UNL     1      -5.854  -1.955   2.248  1.00  0.00     0.027 A 
HETATM   31  C27 UNL     1      -5.109  -3.149   2.248  1.00  0.00     0.131 A 
HETATM   32  C28 UNL     1      -3.705  -3.092   2.248  1.00  0.00     0.027 A 
HETATM   33  O4  UNL     1      -5.727  -4.313   2.248  1.00  0.00    -0.190 OA
HETATM   34  C29 UNL     1      -3.045  -1.852   2.248  1.00  0.00    -0.002 A 
ENDBRANCH  27  28
ENDBRANCH   4  27
TORSDOF 8
