REMARK  0 active torsions:
REMARK  status: ('A' for Active; 'I' for Inactive)
ROOT
HETATM    1  C1  UNL     1      -3.928   0.488  -1.096  1.00  0.00     0.203 C 
HETATM    2  C2  UNL     1      -4.230  -0.871  -0.608  1.00  0.00     0.032 C 
HETATM    3  C3  UNL     1      -3.268  -1.734  -0.227  1.00  0.00    -0.041 C 
HETATM    4  C4  UNL     1      -1.797  -1.342  -0.268  1.00  0.00     0.024 C 
HETATM    5  C5  UNL     1      -1.594   0.191  -0.127  1.00  0.00     0.042 C 
HETATM    6  C6  UNL     1      -2.482   0.922  -1.178  1.00  0.00     0.213 C 
HETATM    7  O1  UNL     1      -2.023   0.678  -2.496  1.00  0.00    -0.215 OA
HETATM    8  C7  UNL     1      -0.068   0.537  -0.293  1.00  0.00     0.043 C 
HETATM    9  C8  UNL     1       0.883  -0.305   0.629  1.00  0.00     0.087 C 
HETATM   10  C9  UNL     1       0.567  -1.818   0.535  1.00  0.00     0.129 C 
HETATM   11  C10 UNL     1      -0.926  -2.094   0.758  1.00  0.00     0.035 C 
HETATM   12  O2  UNL     1       0.916  -2.389  -0.740  1.00  0.00    -0.302 OA
HETATM   13  C11 UNL     1       2.016  -1.990  -1.404  1.00  0.00     0.305 C 
HETATM   14  C12 UNL     1       2.621  -0.619  -1.168  1.00  0.00     0.267 C 
HETATM   15  C13 UNL     1       2.393  -0.148   0.283  1.00  0.00     0.193 C 
HETATM   16  O3  UNL     1       3.215  -0.981   1.119  1.00  0.00    -0.220 OA
HETATM   17  C14 UNL     1       2.551   1.328   0.732  1.00  0.00     0.152 C 
HETATM   18  C15 UNL     1       1.799   2.355  -0.158  1.00  0.00     0.209 C 
HETATM   19  C16 UNL     1       0.281   2.059  -0.313  1.00  0.00     0.185 C 
HETATM   20  O4  UNL     1      -0.398   2.760   0.713  1.00  0.00    -0.221 OA
HETATM   21  O5  UNL     1       2.399   2.430  -1.440  1.00  0.00    -0.218 OA
HETATM   22  C17 UNL     1       4.004   1.756   0.967  1.00  0.00     0.035 C 
HETATM   23  O6  UNL     1       1.897   1.326   1.994  1.00  0.00    -0.354 OA
HETATM   24  C18 UNL     1       0.930   0.291   2.059  1.00  0.00     0.147 C 
HETATM   25  O7  UNL     1       3.998  -0.572  -1.510  1.00  0.00    -0.210 OA
HETATM   26  O8  UNL     1       2.527  -2.723  -2.221  1.00  0.00    -0.261 OA
HETATM   27  C19 UNL     1      -2.117   0.600   1.264  1.00  0.00     0.003 C 
HETATM   28  C20 UNL     1      -3.652  -3.113   0.246  1.00  0.00     0.026 C 
HETATM   29  O9  UNL     1      -4.824   1.236  -1.412  1.00  0.00    -0.289 OA
ENDROOT
TORSDOF 0
