REMARK  8 active torsions:
REMARK  status: ('A' for Active; 'I' for Inactive)
REMARK    1  A    between atoms: C3_3  and  C7_8 
REMARK    2  A    between atoms: C7_8  and  O2_9 
REMARK    3  A    between atoms: O2_9  and  C8_10 
REMARK    4  A    between atoms: C8_10  and  C9_11 
REMARK    5  A    between atoms: C13_15  and  O4_17 
REMARK    6  A    between atoms: O4_17  and  C14_18 
REMARK    7  A    between atoms: C16_20  and  C20_25 
REMARK    8  A    between atoms: C20_25  and  O7_27 
ROOT
HETATM    1  C9  UNL     1      -1.094   0.928   1.389  1.00  0.00     0.181 C 
HETATM    2  C10 UNL     1      -0.902   2.262   0.633  1.00  0.00     0.215 C 
HETATM    3  C11 UNL     1       0.562   2.760   0.744  1.00  0.00     0.220 C 
HETATM    4  C12 UNL     1       1.557   1.572   0.826  1.00  0.00     0.241 C 
HETATM    5  C13 UNL     1       0.953   0.281   0.223  1.00  0.00     0.274 C 
HETATM    6  O3  UNL     1      -0.279  -0.107   0.838  1.00  0.00    -0.326 OA
HETATM    7  O8  UNL     1       1.908   1.332   2.178  1.00  0.00    -0.215 OA
HETATM    8  O9  UNL     1       0.863   3.541  -0.396  1.00  0.00    -0.218 OA
HETATM    9  O10 UNL     1      -1.772   3.242   1.172  1.00  0.00    -0.218 OA
ENDROOT
BRANCH   5  10
HETATM   10  O4  UNL     1       0.723   0.488  -1.164  1.00  0.00    -0.301 OA
BRANCH  10  11
HETATM   11  C14 UNL     1       1.742   0.353  -1.986  1.00  0.00     0.122 A 
HETATM   12  C15 UNL     1       2.211   1.465  -2.711  1.00  0.00     0.032 A 
HETATM   13  C16 UNL     1       3.299   1.330  -3.592  1.00  0.00     0.065 A 
HETATM   14  C17 UNL     1       3.922   0.078  -3.748  1.00  0.00     0.008 A 
HETATM   15  C18 UNL     1       3.455  -1.031  -3.025  1.00  0.00     0.030 A 
HETATM   16  C19 UNL     1       2.367  -0.899  -2.145  1.00  0.00     0.153 A 
HETATM   17  O5  UNL     1       1.936  -1.945  -1.469  1.00  0.00    -0.188 OA
BRANCH  13  18
HETATM   18  C20 UNL     1       3.791   2.512  -4.359  1.00  0.00     0.296 C 
HETATM   19  O6  UNL     1       3.266   3.594  -4.238  1.00  0.00    -0.259 OA
BRANCH  18  20
HETATM   20  O7  UNL     1       4.826   2.275  -5.162  1.00  0.00    -0.296 OA
HETATM   21  C21 UNL     1       5.240   3.437  -5.865  1.00  0.00     0.185 C 
ENDBRANCH  18  20
ENDBRANCH  13  18
ENDBRANCH  10  11
ENDBRANCH   5  10
BRANCH   1  22
HETATM   22  C8  UNL     1      -2.533   0.406   1.373  1.00  0.00     0.184 C 
BRANCH  22  23
HETATM   23  O2  UNL     1      -2.606  -0.811   2.100  1.00  0.00    -0.296 OA
BRANCH  23  24
HETATM   24  C7  UNL     1      -3.832  -1.320   2.115  1.00  0.00     0.296 C 
HETATM   25  O11 UNL     1      -4.783  -0.803   1.578  1.00  0.00    -0.259 OA
BRANCH  24  26
HETATM   26  C3  UNL     1      -3.977  -2.609   2.856  1.00  0.00     0.063 A 
HETATM   27  C2  UNL     1      -5.231  -3.240   2.932  1.00  0.00     0.007 A 
HETATM   28  C1  UNL     1      -5.365  -4.455   3.629  1.00  0.00     0.028 A 
HETATM   29  C6  UNL     1      -4.248  -5.041   4.250  1.00  0.00     0.131 A 
HETATM   30  C5  UNL     1      -2.996  -4.408   4.172  1.00  0.00     0.028 A 
HETATM   31  O1  UNL     1      -4.375  -6.180   4.904  1.00  0.00    -0.190 OA
HETATM   32  C4  UNL     1      -2.858  -3.195   3.475  1.00  0.00     0.007 A 
ENDBRANCH  24  26
ENDBRANCH  23  24
ENDBRANCH  22  23
ENDBRANCH   1  22
TORSDOF 8
