REMARK  0 active torsions:
REMARK  status: ('A' for Active; 'I' for Inactive)
ROOT
HETATM    1  C1  UNL     1       3.391  -1.847   0.110  1.00  0.00     0.009 C 
HETATM    2  C2  UNL     1       4.249  -0.590   0.022  1.00  0.00     0.027 C 
HETATM    3  C3  UNL     1       3.531   0.595   0.632  1.00  0.00    -0.022 C 
HETATM    4  C4  UNL     1       2.027   0.661   0.546  1.00  0.00    -0.008 A 
HETATM    5  C5  UNL     1       1.296  -0.410  -0.067  1.00  0.00    -0.019 A 
HETATM    6  C6  UNL     1       2.015  -1.633  -0.535  1.00  0.00     0.027 C 
HETATM    7  C7  UNL     1      -0.125  -0.294  -0.228  1.00  0.00     0.040 A 
HETATM    8  C8  UNL     1      -0.797   0.847   0.315  1.00  0.00     0.026 A 
HETATM    9  C9  UNL     1      -0.075   1.872   0.962  1.00  0.00     0.002 A 
HETATM   10  C10 UNL     1       1.326   1.783   1.065  1.00  0.00    -0.001 A 
HETATM   11  C11 UNL     1      -2.278   0.956   0.193  1.00  0.00     0.103 A 
HETATM   12  C12 UNL     1      -3.010  -0.007  -0.444  1.00  0.00     0.063 A 
HETATM   13  C13 UNL     1      -2.402  -1.206  -1.054  1.00  0.00     0.236 A 
HETATM   14  C14 UNL     1      -0.921  -1.354  -0.970  1.00  0.00     0.234 A 
HETATM   15  O1  UNL     1      -0.487  -2.337  -1.526  1.00  0.00    -0.283 OA
HETATM   16  O2  UNL     1      -3.090  -2.035  -1.605  1.00  0.00    -0.283 OA
HETATM   17  C15 UNL     1      -4.311   0.405  -0.366  1.00  0.00     0.008 A 
HETATM   18  C16 UNL     1      -4.353   1.628   0.324  1.00  0.00     0.118 A 
HETATM   19  O3  UNL     1      -3.044   1.994   0.690  1.00  0.00    -0.305 OA
HETATM   20  C17 UNL     1      -5.513  -0.327  -0.926  1.00  0.00     0.033 C 
HETATM   21  C18 UNL     1       4.293   1.541   1.227  1.00  0.00    -0.005 C 
ENDROOT
TORSDOF 0
