REMARK  2 active torsions:
REMARK  status: ('A' for Active; 'I' for Inactive)
REMARK    1  A    between atoms: C8_9  and  C9_10 
REMARK    2  A    between atoms: C11_12  and  O3_18 
ROOT
HETATM    1  C1  UNL     1      -5.244  -0.639   0.141  1.00  0.00     0.028 A 
HETATM    2  C2  UNL     1      -5.244   0.781   0.021  1.00  0.00     0.004 A 
HETATM    3  C3  UNL     1      -4.020   1.492  -0.053  1.00  0.00     0.025 A 
HETATM    4  C4  UNL     1      -2.836   0.729  -0.004  1.00  0.00     0.102 A 
HETATM    5  C5  UNL     1      -2.830  -0.629   0.109  1.00  0.00     0.050 A 
HETATM    6  C6  UNL     1      -4.027  -1.383   0.187  1.00  0.00     0.133 A 
HETATM    7  O1  UNL     1      -4.172  -2.711   0.299  1.00  0.00    -0.190 OA
HETATM    8  C7  UNL     1      -1.561  -1.098   0.135  1.00  0.00     0.029 A 
HETATM    9  C8  UNL     1      -0.725   0.039   0.029  1.00  0.00     0.100 A 
HETATM   10  O4  UNL     1      -1.541   1.209  -0.059  1.00  0.00    -0.307 OA
ENDROOT
BRANCH   9  11
HETATM   11  C9  UNL     1       0.754   0.108   0.008  1.00  0.00     0.023 A 
HETATM   12  C10 UNL     1       1.496  -0.793   0.795  1.00  0.00     0.026 A 
HETATM   13  C11 UNL     1       2.900  -0.750   0.793  1.00  0.00     0.096 A 
HETATM   14  C12 UNL     1       3.567   0.199  -0.002  1.00  0.00     0.051 A 
HETATM   15  C13 UNL     1       2.836   1.102  -0.793  1.00  0.00     0.129 A 
HETATM   16  C14 UNL     1       1.428   1.059  -0.791  1.00  0.00     0.006 A 
HETATM   17  O2  UNL     1       3.479   1.985  -1.533  1.00  0.00    -0.190 OA
HETATM   18  C15 UNL     1       0.668   2.024  -1.635  1.00  0.00     0.033 C 
BRANCH  13  19
HETATM   19  O3  UNL     1       3.590  -1.594   1.533  1.00  0.00    -0.328 OA
HETATM   20  C16 UNL     1       5.006  -1.533   1.469  1.00  0.00     0.181 C 
ENDBRANCH  13  19
ENDBRANCH   9  11
TORSDOF 2
