REMARK  6 active torsions:
REMARK  status: ('A' for Active; 'I' for Inactive)
REMARK    1  A    between atoms: C3_3  and  C20_21 
REMARK    2  A    between atoms: C20_21  and  O2_22 
REMARK    3  A    between atoms: O2_22  and  C21_23 
REMARK    4  A    between atoms: C22_25  and  C26_32 
REMARK    5  A    between atoms: C26_32  and  O7_33 
REMARK    6  A    between atoms: O7_33  and  C27_34 
ROOT
HETATM    1  C20 UNL     1      -2.412  -1.129   0.535  1.00  0.00     0.273 C 
HETATM    2  O12 UNL     1      -1.680  -1.646  -0.275  1.00  0.00    -0.264 OA
ENDROOT
BRANCH   1   3
HETATM    3  C3  UNL     1      -2.385  -1.551   1.986  1.00  0.00     0.078 C 
HETATM    4  C2  UNL     1      -3.338  -0.660   2.811  1.00  0.00     0.009 C 
HETATM    5  C1  UNL     1      -2.809   0.766   3.000  1.00  0.00     0.001 C 
HETATM    6  C6  UNL     1      -1.395   0.768   3.598  1.00  0.00     0.000 C 
HETATM    7  C5  UNL     1      -0.385  -0.043   2.748  1.00  0.00     0.001 C 
HETATM    8  C4  UNL     1      -0.949  -1.486   2.584  1.00  0.00     0.009 C 
HETATM    9  C7  UNL     1       1.008  -0.107   3.461  1.00  0.00     0.003 C 
HETATM   10  C18 UNL     1      -0.254   0.652   1.385  1.00  0.00     0.000 C 
HETATM   11  C10 UNL     1       0.051  -2.410   1.861  1.00  0.00     0.001 C 
HETATM   12  C9  UNL     1       1.363  -2.523   2.647  1.00  0.00     0.000 C 
HETATM   13  C8  UNL     1       2.000  -1.143   2.842  1.00  0.00     0.004 C 
HETATM   14  C11 UNL     1       2.625  -0.623   1.527  1.00  0.00     0.007 C 
HETATM   15  C16 UNL     1       3.275  -1.283   3.707  1.00  0.00     0.022 C 
HETATM   16  C12 UNL     1       3.535   0.496   2.035  1.00  0.00     0.049 C 
HETATM   17  C13 UNL     1       2.621   1.666   2.441  1.00  0.00     0.156 C 
HETATM   18  C15 UNL     1       4.174  -0.187   3.211  1.00  0.00    -0.042 C 
HETATM   19  C14 UNL     1       1.713   1.268   3.631  1.00  0.00     0.033 C 
HETATM   20  O1  UNL     1       3.414   2.777   2.816  1.00  0.00    -0.223 OA
HETATM   21  C17 UNL     1       5.371   0.129   3.734  1.00  0.00    -0.009 C 
HETATM   22  C19 UNL     1      -2.916  -2.988   2.029  1.00  0.00     0.010 C 
ENDBRANCH   1   3
BRANCH   1  23
HETATM   23  O2  UNL     1      -3.285  -0.170   0.240  1.00  0.00    -0.273 OA
BRANCH  23  24
HETATM   24  C21 UNL     1      -3.400   0.045  -1.158  1.00  0.00     0.276 C 
HETATM   25  O3  UNL     1      -2.225   0.703  -1.617  1.00  0.00    -0.326 OA
HETATM   26  C22 UNL     1      -2.186   0.979  -3.014  1.00  0.00     0.180 C 
HETATM   27  C23 UNL     1      -3.377   1.897  -3.387  1.00  0.00     0.215 C 
HETATM   28  C24 UNL     1      -4.731   1.287  -2.957  1.00  0.00     0.220 C 
HETATM   29  O6  UNL     1      -3.361   2.174  -4.777  1.00  0.00    -0.218 OA
HETATM   30  C25 UNL     1      -4.639   0.922  -1.459  1.00  0.00     0.241 C 
HETATM   31  O5  UNL     1      -5.016   0.127  -3.731  1.00  0.00    -0.218 OA
HETATM   32  O4  UNL     1      -5.815   0.266  -1.018  1.00  0.00    -0.215 OA
BRANCH  26  33
HETATM   33  C26 UNL     1      -0.826   1.623  -3.301  1.00  0.00     0.177 C 
BRANCH  33  34
HETATM   34  O7  UNL     1       0.180   0.682  -3.002  1.00  0.00    -0.326 OA
BRANCH  34  35
HETATM   35  C27 UNL     1       1.490   1.191  -3.176  1.00  0.00     0.270 C 
HETATM   36  O8  UNL     1       1.734   1.561  -4.535  1.00  0.00    -0.326 OA
HETATM   37  C28 UNL     1       1.730   0.492  -5.482  1.00  0.00     0.181 C 
HETATM   38  C29 UNL     1       2.791  -0.576  -5.135  1.00  0.00     0.215 C 
HETATM   39  C30 UNL     1       2.635  -1.043  -3.668  1.00  0.00     0.220 C 
HETATM   40  O11 UNL     1       4.082  -0.043  -5.383  1.00  0.00    -0.218 OA
HETATM   41  C31 UNL     1       2.527   0.148  -2.684  1.00  0.00     0.241 C 
HETATM   42  O10 UNL     1       3.652  -1.955  -3.291  1.00  0.00    -0.218 OA
HETATM   43  O9  UNL     1       3.779   0.797  -2.522  1.00  0.00    -0.215 OA
ENDBRANCH  34  35
ENDBRANCH  33  34
ENDBRANCH  26  33
ENDBRANCH  23  24
ENDBRANCH   1  23
TORSDOF 6
