REMARK  6 active torsions:
REMARK  status: ('A' for Active; 'I' for Inactive)
REMARK    1  A    between atoms: C7_8  and  C10_12 
REMARK    2  A    between atoms: C12_14  and  C16_19 
REMARK    3  A    between atoms: C16_19  and  C17_20 
REMARK    4  A    between atoms: C18_21  and  C19_22 
REMARK    5  A    between atoms: C19_22  and  C20_23 
REMARK    6  A    between atoms: C20_23  and  C21_24 
ROOT
HETATM    1  C10 UNL     1       1.859   1.721  -0.662  1.00  0.00     0.031 A 
HETATM    2  C11 UNL     1       1.840   0.344  -0.375  1.00  0.00     0.128 A 
HETATM    3  C12 UNL     1       2.834  -0.213   0.455  1.00  0.00     0.033 A 
HETATM    4  C13 UNL     1       3.844   0.608   0.996  1.00  0.00     0.129 A 
HETATM    5  C14 UNL     1       3.855   1.983   0.705  1.00  0.00     0.027 A 
HETATM    6  C15 UNL     1       2.865   2.539  -0.121  1.00  0.00     0.002 A 
HETATM    7  O3  UNL     1       4.777   0.096   1.773  1.00  0.00    -0.190 OA
HETATM    8  O4  UNL     1       0.895  -0.426  -0.883  1.00  0.00    -0.191 OA
ENDROOT
BRANCH   1   9
HETATM    9  C7  UNL     1       0.816   2.322  -1.537  1.00  0.00     0.153 C 
HETATM   10  O1  UNL     1      -0.477   2.035  -0.990  1.00  0.00    -0.328 OA
HETATM   11  C5  UNL     1      -1.578   2.637  -1.490  1.00  0.00     0.101 A 
HETATM   12  C4  UNL     1      -1.484   3.824  -2.268  1.00  0.00     0.083 A 
HETATM   13  C6  UNL     1      -2.848   2.067  -1.231  1.00  0.00     0.052 A 
HETATM   14  C3  UNL     1      -2.654   4.399  -2.830  1.00  0.00     0.138 A 
HETATM   15  C9  UNL     1      -0.150   4.459  -2.477  1.00  0.00     0.180 C 
HETATM   16  C2  UNL     1      -3.916   3.811  -2.578  1.00  0.00     0.055 A 
HETATM   17  O5  UNL     1      -2.586   5.500  -3.592  1.00  0.00    -0.190 OA
HETATM   18  C1  UNL     1      -4.014   2.652  -1.774  1.00  0.00     0.135 A 
HETATM   19  O6  UNL     1      -5.213   2.108  -1.525  1.00  0.00    -0.190 OA
HETATM   20  C8  UNL     1       1.004   3.840  -1.715  1.00  0.00     0.104 C 
HETATM   21  O2  UNL     1       0.098   5.412  -3.178  1.00  0.00    -0.291 OA
ENDBRANCH   1   9
BRANCH   3  22
HETATM   22  C16 UNL     1       2.818  -1.670   0.760  1.00  0.00     0.056 C 
BRANCH  22  23
HETATM   23  C17 UNL     1       1.484  -2.121   1.293  1.00  0.00    -0.030 C 
HETATM   24  C18 UNL     1       1.215  -1.924   2.594  1.00  0.00    -0.048 C 
HETATM   25  C25 UNL     1       2.260  -1.260   3.451  1.00  0.00     0.026 C 
BRANCH  24  26
HETATM   26  C19 UNL     1      -0.117  -2.377   3.127  1.00  0.00     0.026 C 
BRANCH  26  27
HETATM   27  C20 UNL     1      -0.688  -3.561   2.346  1.00  0.00     0.030 C 
BRANCH  27  28
HETATM   28  C21 UNL     1      -1.529  -3.123   1.176  1.00  0.00    -0.034 C 
HETATM   29  C22 UNL     1      -1.770  -4.008   0.193  1.00  0.00    -0.048 C 
HETATM   30  C23 UNL     1      -1.275  -5.420   0.361  1.00  0.00     0.026 C 
HETATM   31  C24 UNL     1      -2.520  -3.541  -1.025  1.00  0.00     0.026 C 
ENDBRANCH  27  28
ENDBRANCH  26  27
ENDBRANCH  24  26
ENDBRANCH  22  23
ENDBRANCH   3  22
TORSDOF 6
