REMARK  1 active torsions:
REMARK  status: ('A' for Active; 'I' for Inactive)
REMARK    1  A    between atoms: C11_12  and  O3_16 
ROOT
HETATM    1  C1  UNL     1       3.440  -1.404   0.697  1.00  0.00     0.052 A 
HETATM    2  C2  UNL     1       4.188  -0.230   0.496  1.00  0.00     0.133 A 
HETATM    3  C3  UNL     1       3.529   0.965   0.150  1.00  0.00     0.023 A 
HETATM    4  C4  UNL     1       2.121   1.004   0.000  1.00  0.00    -0.018 A 
HETATM    5  C5  UNL     1       1.334  -0.188   0.195  1.00  0.00     0.019 A 
HETATM    6  C6  UNL     1       2.035  -1.393   0.555  1.00  0.00     0.105 A 
HETATM    7  O1  UNL     1       1.397  -2.561   0.770  1.00  0.00    -0.273 OA
HETATM    8  C7  UNL     1       0.072  -2.693   0.664  1.00  0.00     0.302 A 
HETATM    9  C8  UNL     1      -0.787  -1.539   0.295  1.00  0.00     0.089 A 
HETATM   10  C9  UNL     1      -0.158  -0.275   0.057  1.00  0.00     0.011 A 
HETATM   11  C10 UNL     1      -1.004   0.820  -0.301  1.00  0.00     0.025 A 
HETATM   12  C11 UNL     1      -2.404   0.660  -0.412  1.00  0.00     0.096 A 
HETATM   13  C12 UNL     1      -2.998  -0.594  -0.172  1.00  0.00     0.052 A 
HETATM   14  C13 UNL     1      -2.195  -1.697   0.182  1.00  0.00     0.138 A 
HETATM   15  O2  UNL     1      -2.781  -2.881   0.404  1.00  0.00    -0.190 OA
HETATM   16  O4  UNL     1      -0.361  -3.799   0.891  1.00  0.00    -0.259 OA
HETATM   17  C15 UNL     1       1.572   2.320  -0.357  1.00  0.00     0.031 C 
HETATM   18  O5  UNL     1       5.520  -0.248   0.631  1.00  0.00    -0.190 OA
ENDROOT
BRANCH  12  19
HETATM   19  O3  UNL     1      -3.172   1.707  -0.748  1.00  0.00    -0.328 OA
HETATM   20  C14 UNL     1      -4.566   1.488  -0.898  1.00  0.00     0.181 C 
ENDBRANCH  12  19
TORSDOF 1
