REMARK  3 active torsions:
REMARK  status: ('A' for Active; 'I' for Inactive)
REMARK    1  A    between atoms: C8_10  and  C10_13 
REMARK    2  A    between atoms: C12_15  and  C16_21 
REMARK    3  A    between atoms: C16_21  and  C17_22 
ROOT
HETATM    1  C1  UNL     1       3.324   1.648   2.213  1.00  0.00     0.055 A 
HETATM    2  C2  UNL     1       2.045   2.240   2.086  1.00  0.00     0.138 A 
HETATM    3  C3  UNL     1       0.883   1.478   2.383  1.00  0.00     0.083 A 
HETATM    4  C4  UNL     1       1.010   0.140   2.846  1.00  0.00     0.101 A 
HETATM    5  C5  UNL     1       2.293  -0.447   2.949  1.00  0.00     0.052 A 
HETATM    6  C6  UNL     1       3.447   0.305   2.635  1.00  0.00     0.135 A 
HETATM    7  O1  UNL     1       4.660  -0.256   2.738  1.00  0.00    -0.190 OA
HETATM    8  O2  UNL     1      -0.072  -0.588   3.191  1.00  0.00    -0.330 OA
HETATM    9  C7  UNL     1      -1.316   0.064   3.476  1.00  0.00     0.161 C 
HETATM   10  C8  UNL     1      -1.648   1.125   2.408  1.00  0.00     0.115 C 
HETATM   11  C9  UNL     1      -0.479   2.066   2.203  1.00  0.00     0.183 C 
HETATM   12  O3  UNL     1      -0.736   3.213   1.908  1.00  0.00    -0.291 OA
HETATM   13  O6  UNL     1       1.951   3.512   1.676  1.00  0.00    -0.190 OA
ENDROOT
BRANCH  10  14
HETATM   14  C10 UNL     1      -2.063   0.496   1.123  1.00  0.00    -0.011 A 
HETATM   15  C11 UNL     1      -1.111  -0.160   0.322  1.00  0.00    -0.005 A 
HETATM   16  C12 UNL     1      -1.502  -0.754  -0.891  1.00  0.00     0.009 A 
HETATM   17  C13 UNL     1      -2.846  -0.693  -1.307  1.00  0.00     0.152 A 
HETATM   18  C14 UNL     1      -3.797  -0.037  -0.504  1.00  0.00     0.156 A 
HETATM   19  O5  UNL     1      -3.215  -1.248  -2.444  1.00  0.00    -0.188 OA
HETATM   20  C15 UNL     1      -3.404   0.557   0.709  1.00  0.00     0.026 A 
HETATM   21  O4  UNL     1      -5.059   0.023  -0.887  1.00  0.00    -0.188 OA
BRANCH  16  22
HETATM   22  C16 UNL     1      -0.486  -1.444  -1.731  1.00  0.00     0.054 C 
BRANCH  22  23
HETATM   23  C17 UNL     1      -0.121  -0.643  -2.951  1.00  0.00    -0.030 C 
HETATM   24  C18 UNL     1       0.924  -1.047  -3.694  1.00  0.00    -0.048 C 
HETATM   25  C19 UNL     1       1.648  -2.303  -3.291  1.00  0.00     0.026 C 
HETATM   26  C20 UNL     1       1.316  -0.223  -4.891  1.00  0.00     0.026 C 
ENDBRANCH  22  23
ENDBRANCH  16  22
ENDBRANCH  10  14
TORSDOF 3
