REMARK  4 active torsions:
REMARK  status: ('A' for Active; 'I' for Inactive)
REMARK    1  A    between atoms: C3_3  and  C12_18 
REMARK    2  A    between atoms: C5_5  and  C7_8 
REMARK    3  A    between atoms: C13_20  and  C17_27 
REMARK    4  A    between atoms: C18_30  and  C21_34 
ROOT
HETATM    1  C1  UNL     1       0.916  -1.965   0.836  1.00  0.00     0.087 A 
HETATM    2  C2  UNL     1       0.762  -0.650   0.316  1.00  0.00     0.105 A 
HETATM    3  C3  UNL     1      -0.537  -0.123   0.113  1.00  0.00     0.055 A 
HETATM    4  C4  UNL     1      -1.676  -0.904   0.426  1.00  0.00     0.132 A 
HETATM    5  C5  UNL     1      -1.522  -2.215   0.943  1.00  0.00     0.058 A 
HETATM    6  C6  UNL     1      -0.225  -2.748   1.150  1.00  0.00     0.136 A 
HETATM    7  O1  UNL     1      -0.084  -3.988   1.641  1.00  0.00    -0.190 OA
HETATM    8  O6  UNL     1      -2.906  -0.402   0.231  1.00  0.00    -0.191 OA
HETATM    9  O12 UNL     1       1.850   0.096   0.020  1.00  0.00    -0.307 OA
HETATM   10  C18 UNL     1       3.117  -0.330   0.186  1.00  0.00     0.103 A 
HETATM   11  C19 UNL     1       3.387  -1.564   0.670  1.00  0.00     0.067 A 
HETATM   12  C20 UNL     1       2.295  -2.492   1.037  1.00  0.00     0.202 A 
HETATM   13  O13 UNL     1       2.613  -3.578   1.463  1.00  0.00    -0.286 OA
ENDROOT
BRANCH   3  14
HETATM   14  C12 UNL     1      -0.699   1.238  -0.426  1.00  0.00     0.174 C 
HETATM   15  O7  UNL     1       0.107   2.115   0.350  1.00  0.00    -0.347 OA
HETATM   16  C13 UNL     1      -0.008   3.496   0.025  1.00  0.00     0.181 C 
HETATM   17  C14 UNL     1       0.441   3.719  -1.436  1.00  0.00     0.214 C 
HETATM   18  C15 UNL     1      -0.350   2.816  -2.408  1.00  0.00     0.218 C 
HETATM   19  O10 UNL     1       0.240   5.080  -1.771  1.00  0.00    -0.218 OA
HETATM   20  C16 UNL     1      -0.299   1.350  -1.922  1.00  0.00     0.216 C 
HETATM   21  O9  UNL     1       0.205   2.914  -3.711  1.00  0.00    -0.218 OA
HETATM   22  O8  UNL     1      -1.182   0.566  -2.709  1.00  0.00    -0.218 OA
BRANCH  16  23
HETATM   23  C17 UNL     1       0.852   4.264   1.033  1.00  0.00     0.214 C 
HETATM   24  O11 UNL     1       0.254   4.145   2.305  1.00  0.00    -0.218 OA
ENDBRANCH  16  23
ENDBRANCH   3  14
BRANCH   5  25
HETATM   25  C7  UNL     1      -2.709  -3.022   1.270  1.00  0.00     0.174 C 
HETATM   26  O2  UNL     1      -3.598  -2.211   2.027  1.00  0.00    -0.347 OA
HETATM   27  C8  UNL     1      -4.770  -2.869   2.498  1.00  0.00     0.178 C 
HETATM   28  C9  UNL     1      -5.611  -3.400   1.318  1.00  0.00     0.214 C 
HETATM   29  C10 UNL     1      -4.748  -4.291   0.397  1.00  0.00     0.218 C 
HETATM   30  O5  UNL     1      -6.154  -2.297   0.611  1.00  0.00    -0.218 OA
HETATM   31  C11 UNL     1      -3.438  -3.565   0.008  1.00  0.00     0.216 C 
HETATM   32  O4  UNL     1      -5.477  -4.688  -0.754  1.00  0.00    -0.218 OA
HETATM   33  O3  UNL     1      -2.586  -4.473  -0.674  1.00  0.00    -0.218 OA
ENDBRANCH   5  25
BRANCH  10  34
HETATM   34  C21 UNL     1       4.258   0.568  -0.172  1.00  0.00     0.025 A 
HETATM   35  C22 UNL     1       5.518   0.023  -0.469  1.00  0.00     0.004 A 
HETATM   36  C23 UNL     1       6.588   0.871  -0.803  1.00  0.00     0.030 A 
HETATM   37  C24 UNL     1       6.402   2.264  -0.842  1.00  0.00     0.156 A 
HETATM   38  C25 UNL     1       5.141   2.811  -0.543  1.00  0.00     0.156 A 
HETATM   39  O15 UNL     1       7.410   3.053  -1.156  1.00  0.00    -0.188 OA
HETATM   40  C26 UNL     1       4.070   1.961  -0.209  1.00  0.00     0.032 A 
HETATM   41  O14 UNL     1       4.957   4.115  -0.576  1.00  0.00    -0.188 OA
ENDBRANCH  10  34
TORSDOF 4
