REMARK  7 active torsions:
REMARK  status: ('A' for Active; 'I' for Inactive)
REMARK    1  A    between atoms: C3_3  and  C7_7 
REMARK    2  A    between atoms: C7_7  and  C8_8 
REMARK    3  A    between atoms: C12_14  and  C30_43 
REMARK    4  A    between atoms: C18_23  and  C23_33 
REMARK    5  A    between atoms: C20_26  and  C22_30 
REMARK    6  A    between atoms: C23_33  and  C24_34 
REMARK    7  A    between atoms: C30_43  and  C31_44 
ROOT
HETATM    1  C8  UNL     1       3.856  -0.867   0.270  1.00  0.00     0.191 C 
HETATM    2  C9  UNL     1       2.756  -1.916   0.254  1.00  0.00     0.275 C 
HETATM    3  N1  UNL     1       2.014  -2.090  -0.896  1.00  0.00    -0.229 NA
HETATM    4  C10 UNL     1       0.883  -3.053  -1.031  1.00  0.00     0.186 C 
HETATM    5  C11 UNL     1      -0.451  -2.442  -0.631  1.00  0.00     0.274 C 
HETATM    6  N2  UNL     1      -0.672  -2.043   0.670  1.00  0.00    -0.228 NA
HETATM    7  C12 UNL     1      -1.947  -1.424   1.121  1.00  0.00     0.189 C 
HETATM    8  C13 UNL     1      -2.279  -0.121   0.399  1.00  0.00     0.257 C 
HETATM    9  N3  UNL     1      -3.531   0.478   0.703  1.00  0.00    -0.312 N 
HETATM   10  C14 UNL     1      -3.992   1.730   0.102  1.00  0.00     0.165 C 
HETATM   11  C15 UNL     1      -3.000   2.883   0.045  1.00  0.00     0.272 C 
HETATM   12  N4  UNL     1      -2.225   3.195   1.145  1.00  0.00    -0.226 NA
HETATM   13  C16 UNL     1      -1.229   4.303   1.234  1.00  0.00     0.218 C 
HETATM   14  C17 UNL     1      -0.852   5.025  -0.049  1.00  0.00     0.277 C 
HETATM   15  N5  UNL     1      -0.043   4.459  -1.014  1.00  0.00    -0.229 NA
HETATM   16  C18 UNL     1       0.508   3.084  -0.936  1.00  0.00     0.186 C 
HETATM   17  C19 UNL     1       2.027   3.074  -0.926  1.00  0.00     0.274 C 
HETATM   18  N6  UNL     1       2.760   2.369   0.008  1.00  0.00    -0.226 NA
HETATM   19  C20 UNL     1       2.174   1.562   1.111  1.00  0.00     0.219 C 
HETATM   20  C21 UNL     1       3.236   0.912   1.984  1.00  0.00     0.277 C 
HETATM   21  N7  UNL     1       3.979  -0.186   1.590  1.00  0.00    -0.228 NA
HETATM   22  O1  UNL     1       3.439   1.377   3.084  1.00  0.00    -0.268 OA
HETATM   23  O3  UNL     1       2.625   3.703  -1.770  1.00  0.00    -0.268 OA
HETATM   24  O4  UNL     1      -1.270   6.146  -0.227  1.00  0.00    -0.268 OA
HETATM   25  O5  UNL     1      -2.912   3.519  -0.978  1.00  0.00    -0.269 OA
HETATM   26  C27 UNL     1      -5.246   2.084   0.912  1.00  0.00     0.034 C 
HETATM   27  C28 UNL     1      -5.781   0.717   1.365  1.00  0.00     0.027 C 
HETATM   28  C29 UNL     1      -4.504  -0.076   1.633  1.00  0.00     0.105 C 
HETATM   29  O6  UNL     1      -1.531   0.396  -0.400  1.00  0.00    -0.270 OA
HETATM   30  O7  UNL     1      -1.320  -2.307  -1.463  1.00  0.00    -0.268 OA
HETATM   31  C37 UNL     1       1.152  -4.387  -0.322  1.00  0.00     0.037 C 
HETATM   32  O8  UNL     1       2.531  -2.582   1.240  1.00  0.00    -0.268 OA
ENDROOT
BRANCH   1  33
HETATM   33  C7  UNL     1       5.191  -1.516  -0.103  1.00  0.00     0.060 C 
BRANCH  33  34
HETATM   34  C3  UNL     1       5.176  -2.035  -1.498  1.00  0.00    -0.020 A 
HETATM   35  C2  UNL     1       5.016  -3.412  -1.734  1.00  0.00    -0.004 A 
HETATM   36  C1  UNL     1       5.002  -3.903  -3.051  1.00  0.00    -0.000 A 
HETATM   37  C6  UNL     1       5.148  -3.016  -4.133  1.00  0.00    -0.000 A 
HETATM   38  C5  UNL     1       5.309  -1.641  -3.896  1.00  0.00    -0.000 A 
HETATM   39  C4  UNL     1       5.322  -1.149  -2.580  1.00  0.00    -0.004 A 
ENDBRANCH  33  34
ENDBRANCH   1  33
BRANCH  19  40
HETATM   40  C22 UNL     1       1.164   0.531   0.606  1.00  0.00     0.216 C 
HETATM   41  O2  UNL     1       0.971  -0.432   1.615  1.00  0.00    -0.218 OA
ENDBRANCH  19  40
BRANCH   7  42
HETATM   42  C30 UNL     1      -1.875  -1.219   2.643  1.00  0.00     0.060 C 
BRANCH  42  43
HETATM   43  C31 UNL     1      -2.746  -2.184   3.365  1.00  0.00    -0.020 A 
HETATM   44  C32 UNL     1      -2.695  -3.553   3.049  1.00  0.00    -0.004 A 
HETATM   45  C33 UNL     1      -3.520  -4.463   3.734  1.00  0.00    -0.000 A 
HETATM   46  C34 UNL     1      -4.395  -4.006   4.735  1.00  0.00    -0.000 A 
HETATM   47  C35 UNL     1      -4.445  -2.637   5.049  1.00  0.00    -0.000 A 
HETATM   48  C36 UNL     1      -3.623  -1.725   4.365  1.00  0.00    -0.004 A 
ENDBRANCH  42  43
ENDBRANCH   7  42
BRANCH  16  49
HETATM   49  C23 UNL     1      -0.004   2.269  -2.129  1.00  0.00     0.034 C 
BRANCH  49  50
HETATM   50  C24 UNL     1      -0.148   3.107  -3.398  1.00  0.00     0.002 C 
HETATM   51  C25 UNL     1       1.199   3.529  -3.984  1.00  0.00     0.000 C 
HETATM   52  C26 UNL     1      -1.066   2.457  -4.434  1.00  0.00     0.000 C 
ENDBRANCH  49  50
ENDBRANCH  16  49
TORSDOF 7
