REMARK  14 active torsions:
REMARK  status: ('A' for Active; 'I' for Inactive)
REMARK    1  A    between atoms: C5_5  and  C7_7 
REMARK    2  A    between atoms: C7_7  and  C8_8 
REMARK    3  A    between atoms: C8_8  and  C9_9 
REMARK    4  A    between atoms: C9_9  and  C10_10 
REMARK    5  A    between atoms: C11_11  and  C32_34 
REMARK    6  A    between atoms: C12_13  and  C24_26 
REMARK    7  A    between atoms: C13_14  and  C15_16 
REMARK    8  A    between atoms: C15_16  and  C16_17 
REMARK    9  A    between atoms: C16_17  and  C17_18 
REMARK   10  A    between atoms: C17_18  and  C18_19 
REMARK   11  A    between atoms: C24_26  and  C25_27 
REMARK   12  A    between atoms: C25_27  and  C26_28 
REMARK   13  A    between atoms: C32_34  and  C33_35 
REMARK   14  A    between atoms: C33_35  and  C34_36 
ROOT
HETATM    1  C10 UNL     1      -0.852   1.389   0.176  1.00  0.00     0.048 A 
HETATM    2  C11 UNL     1       0.041   2.481   0.258  1.00  0.00     0.062 A 
HETATM    3  N1  UNL     1       0.982   2.697  -0.707  1.00  0.00    -0.254 NA
HETATM    4  C12 UNL     1       1.074   1.854  -1.776  1.00  0.00     0.062 A 
HETATM    5  C13 UNL     1       0.209   0.746  -1.910  1.00  0.00     0.048 A 
HETATM    6  C14 UNL     1      -0.766   0.512  -0.922  1.00  0.00     0.008 A 
ENDROOT
BRANCH   1   7
HETATM    7  C9  UNL     1      -1.879   1.154   1.234  1.00  0.00     0.174 C 
HETATM    8  O2  UNL     1      -2.150   2.014   2.037  1.00  0.00    -0.291 OA
BRANCH   7   9
HETATM    9  C8  UNL     1      -2.568  -0.186   1.267  1.00  0.00     0.074 C 
BRANCH   9  10
HETATM   10  C7  UNL     1      -3.436  -0.361   2.515  1.00  0.00     0.035 C 
BRANCH  10  11
HETATM   11  C5  UNL     1      -4.131  -1.676   2.515  1.00  0.00    -0.022 A 
HETATM   12  C4  UNL     1      -3.385  -2.867   2.515  1.00  0.00    -0.004 A 
HETATM   13  C3  UNL     1      -4.043  -4.109   2.515  1.00  0.00    -0.000 A 
HETATM   14  C2  UNL     1      -5.449  -4.160   2.515  1.00  0.00    -0.000 A 
HETATM   15  C1  UNL     1      -6.195  -2.971   2.515  1.00  0.00    -0.000 A 
HETATM   16  C6  UNL     1      -5.537  -1.727   2.515  1.00  0.00    -0.004 A 
ENDBRANCH  10  11
ENDBRANCH   9  10
ENDBRANCH   7   9
ENDBRANCH   1   7
BRANCH   2  17
HETATM   17  C32 UNL     1      -0.024   3.424   1.406  1.00  0.00     0.051 C 
BRANCH  17  18
HETATM   18  C33 UNL     1       0.412   2.756   2.711  1.00  0.00     0.033 C 
BRANCH  18  19
HETATM   19  C34 UNL     1       1.811   3.111   3.066  1.00  0.00    -0.022 A 
HETATM   20  C35 UNL     1       2.135   4.436   3.418  1.00  0.00    -0.004 A 
HETATM   21  C36 UNL     1       3.457   4.770   3.754  1.00  0.00    -0.000 A 
HETATM   22  C37 UNL     1       4.457   3.783   3.740  1.00  0.00    -0.000 A 
HETATM   23  C38 UNL     1       4.137   2.461   3.389  1.00  0.00    -0.000 A 
HETATM   24  C39 UNL     1       2.814   2.125   3.051  1.00  0.00    -0.004 A 
ENDBRANCH  18  19
ENDBRANCH  17  18
ENDBRANCH   2  17
BRANCH   5  25
HETATM   25  C15 UNL     1       0.312  -0.174  -3.082  1.00  0.00     0.174 C 
HETATM   26  O1  UNL     1       0.818   0.201  -4.114  1.00  0.00    -0.291 OA
BRANCH  25  27
HETATM   27  C16 UNL     1      -0.225  -1.574  -2.947  1.00  0.00     0.074 C 
BRANCH  27  28
HETATM   28  C17 UNL     1      -1.617  -1.725  -3.557  1.00  0.00     0.035 C 
BRANCH  28  29
HETATM   29  C18 UNL     1      -2.057  -3.145  -3.572  1.00  0.00    -0.022 A 
HETATM   30  C19 UNL     1      -2.174  -3.832  -4.795  1.00  0.00    -0.004 A 
HETATM   31  C20 UNL     1      -2.590  -5.176  -4.809  1.00  0.00    -0.000 A 
HETATM   32  C21 UNL     1      -2.889  -5.832  -3.602  1.00  0.00    -0.000 A 
HETATM   33  C22 UNL     1      -2.774  -5.145  -2.381  1.00  0.00    -0.000 A 
HETATM   34  C23 UNL     1      -2.358  -3.803  -2.367  1.00  0.00    -0.004 A 
ENDBRANCH  28  29
ENDBRANCH  27  28
ENDBRANCH  25  27
ENDBRANCH   5  25
BRANCH   4  35
HETATM   35  C24 UNL     1       2.115   2.129  -2.803  1.00  0.00     0.051 C 
BRANCH  35  36
HETATM   36  C25 UNL     1       3.256   1.113  -2.737  1.00  0.00     0.033 C 
BRANCH  36  37
HETATM   37  C26 UNL     1       4.133   1.354  -1.561  1.00  0.00    -0.022 A 
HETATM   38  C27 UNL     1       4.037   0.523  -0.428  1.00  0.00    -0.004 A 
HETATM   39  C28 UNL     1       4.867   0.750   0.683  1.00  0.00    -0.000 A 
HETATM   40  C29 UNL     1       5.795   1.807   0.664  1.00  0.00    -0.000 A 
HETATM   41  C30 UNL     1       5.893   2.635  -0.467  1.00  0.00    -0.000 A 
HETATM   42  C31 UNL     1       5.063   2.408  -1.578  1.00  0.00    -0.004 A 
ENDBRANCH  36  37
ENDBRANCH  35  36
ENDBRANCH   4  35
TORSDOF 14
