REMARK  9 active torsions:
REMARK  status: ('A' for Active; 'I' for Inactive)
REMARK    1  A    between atoms: C1_1  and  O11_26 
REMARK    2  A    between atoms: C3_3  and  O2_7 
REMARK    3  A    between atoms: O2_7  and  O3_8 
REMARK    4  A    between atoms: O3_8  and  C6_9 
REMARK    5  A    between atoms: C10_13  and  C11_15 
REMARK    6  A    between atoms: C12_20  and  C15_24 
REMARK    7  A    between atoms: O11_26  and  O12_27 
REMARK    8  A    between atoms: O12_27  and  C16_28 
REMARK    9  A    between atoms: C20_32  and  C21_34 
ROOT
HETATM    1  C1  UNL     1       2.098   0.564   2.006  1.00  0.00     0.187 C 
HETATM    2  C2  UNL     1       2.371  -0.963   2.004  1.00  0.00     0.115 C 
HETATM    3  C3  UNL     1       1.090  -1.772   2.274  1.00  0.00     0.280 C 
HETATM    4  O1  UNL     1       0.416  -1.320   3.453  1.00  0.00    -0.301 OA
HETATM    5  C4  UNL     1       0.275   0.006   3.631  1.00  0.00     0.117 C 
HETATM    6  C5  UNL     1       0.998   0.939   2.982  1.00  0.00     0.033 C 
HETATM    7  C12 UNL     1       3.430  -1.109   3.068  1.00  0.00    -0.006 C 
HETATM    8  C13 UNL     1       4.035   0.053   3.332  1.00  0.00     0.003 C 
HETATM    9  C14 UNL     1       3.465   1.148   2.475  1.00  0.00     0.206 C 
HETATM   10  O9  UNL     1       4.367   1.387   1.408  1.00  0.00    -0.216 OA
ENDROOT
BRANCH   1  11
HETATM   11  O11 UNL     1       1.711   1.014   0.717  1.00  0.00    -0.216 OA
BRANCH  11  12
HETATM   12  O12 UNL     1       1.641   2.455   0.748  1.00  0.00    -0.189 OA
BRANCH  12  13
HETATM   13  C16 UNL     1       1.285   2.904  -0.545  1.00  0.00     0.303 C 
HETATM   14  C17 UNL     1       1.396   4.457  -0.699  1.00  0.00     0.244 C 
HETATM   15  C18 UNL     1       0.518   4.998  -1.859  1.00  0.00     0.220 C 
HETATM   16  O17 UNL     1       1.021   5.141   0.488  1.00  0.00    -0.215 OA
HETATM   17  C19 UNL     1       0.267   3.881  -2.895  1.00  0.00     0.215 C 
HETATM   18  O16 UNL     1       1.162   6.111  -2.455  1.00  0.00    -0.218 OA
HETATM   19  C20 UNL     1      -0.387   2.621  -2.248  1.00  0.00     0.184 C 
HETATM   20  O15 UNL     1      -0.524   4.356  -3.973  1.00  0.00    -0.218 OA
HETATM   21  O13 UNL     1      -0.033   2.488  -0.873  1.00  0.00    -0.324 OA
BRANCH  19  22
HETATM   22  C21 UNL     1      -1.922   2.592  -2.287  1.00  0.00     0.214 C 
HETATM   23  O14 UNL     1      -2.350   1.326  -1.838  1.00  0.00    -0.218 OA
ENDBRANCH  19  22
ENDBRANCH  12  13
ENDBRANCH  11  12
ENDBRANCH   1  11
BRANCH   3  24
HETATM   24  O2  UNL     1       0.226  -1.695   1.154  1.00  0.00    -0.189 OA
BRANCH  24  25
HETATM   25  O3  UNL     1      -0.920  -2.527   1.418  1.00  0.00    -0.187 OA
BRANCH  25  26
HETATM   26  C6  UNL     1      -1.805  -2.414   0.318  1.00  0.00     0.303 C 
HETATM   27  C7  UNL     1      -3.190  -3.092   0.584  1.00  0.00     0.244 C 
HETATM   28  C8  UNL     1      -3.928  -3.457  -0.734  1.00  0.00     0.220 C 
HETATM   29  O8  UNL     1      -3.065  -4.277   1.357  1.00  0.00    -0.215 OA
HETATM   30  C9  UNL     1      -3.434  -2.553  -1.883  1.00  0.00     0.215 C 
HETATM   31  O7  UNL     1      -5.324  -3.320  -0.541  1.00  0.00    -0.218 OA
HETATM   32  C10 UNL     1      -1.887  -2.645  -2.072  1.00  0.00     0.184 C 
HETATM   33  O6  UNL     1      -4.102  -2.859  -3.094  1.00  0.00    -0.218 OA
HETATM   34  O4  UNL     1      -1.221  -2.967  -0.852  1.00  0.00    -0.324 OA
BRANCH  32  35
HETATM   35  C11 UNL     1      -1.416  -3.690  -3.092  1.00  0.00     0.214 C 
HETATM   36  O5  UNL     1      -0.029  -3.523  -3.283  1.00  0.00    -0.218 OA
ENDBRANCH  32  35
ENDBRANCH  25  26
ENDBRANCH  24  25
ENDBRANCH   3  24
BRANCH   7  37
HETATM   37  C15 UNL     1       3.750  -2.416   3.746  1.00  0.00     0.205 C 
HETATM   38  O10 UNL     1       3.164  -2.436   5.027  1.00  0.00    -0.216 OA
ENDBRANCH   7  37
TORSDOF 9
