REMARK  11 active torsions:
REMARK  status: ('A' for Active; 'I' for Inactive)
REMARK    1  A    between atoms: C9_9  and  C11_12 
REMARK    2  A    between atoms: C11_12  and  O2_13 
REMARK    3  A    between atoms: O2_13  and  C12_14 
REMARK    4  A    between atoms: C12_14  and  C13_16 
REMARK    5  A    between atoms: C13_16  and  C14_17 
REMARK    6  A    between atoms: C14_17  and  C15_18 
REMARK    7  A    between atoms: C15_18  and  C16_19 
REMARK    8  A    between atoms: C16_19  and  C17_20 
REMARK    9  A    between atoms: C17_20  and  C18_21 
REMARK   10  A    between atoms: C18_21  and  C19_22 
REMARK   11  A    between atoms: C19_22  and  C20_23 
ROOT
HETATM    1  C1  UNL     1      -4.365   3.764  -4.016  1.00  0.00    -0.015 C 
HETATM    2  C2  UNL     1      -4.865   2.492  -3.402  1.00  0.00     0.202 C 
HETATM    3  C3  UNL     1      -3.635   1.920  -2.619  1.00  0.00     0.199 C 
HETATM    4  C4  UNL     1      -2.412   2.594  -3.361  1.00  0.00     0.101 C 
HETATM    5  C5  UNL     1      -3.031   3.818  -4.006  1.00  0.00    -0.023 C 
HETATM    6  C6  UNL     1      -1.945   1.648  -4.461  1.00  0.00     0.160 C 
HETATM    7  C7  UNL     1      -0.955   0.543  -4.127  1.00  0.00     0.079 C 
HETATM    8  C8  UNL     1      -1.189  -0.182  -2.811  1.00  0.00    -0.023 C 
HETATM    9  C9  UNL     1      -2.359  -0.254  -2.137  1.00  0.00     0.014 C 
HETATM   10  C10 UNL     1      -3.641   0.365  -2.670  1.00  0.00     0.204 C 
HETATM   11  O1  UNL     1      -4.783  -0.162  -2.014  1.00  0.00    -0.216 OA
HETATM   12  C22 UNL     1       0.486   1.014  -4.367  1.00  0.00     0.011 A 
HETATM   13  C23 UNL     1       0.910   2.438  -4.049  1.00  0.00     0.001 A 
HETATM   14  C24 UNL     1       0.053   3.471  -3.297  1.00  0.00     0.001 C 
HETATM   15  C25 UNL     1      -1.197   3.041  -2.486  1.00  0.00     0.013 C 
HETATM   16  C26 UNL     1      -1.582   4.207  -1.557  1.00  0.00     0.001 C 
HETATM   17  C27 UNL     1       1.561   1.279  -3.311  1.00  0.00     0.001 A 
HETATM   18  C28 UNL     1       1.307   1.143  -1.812  1.00  0.00     0.000 C 
HETATM   19  C29 UNL     1       2.988   0.926  -3.701  1.00  0.00     0.000 C 
HETATM   20  O4  UNL     1      -2.350   1.752  -5.598  1.00  0.00    -0.295 OA
HETATM   21  O5  UNL     1      -3.662   2.336  -1.256  1.00  0.00    -0.219 OA
HETATM   22  O6  UNL     1      -6.020   2.707  -2.605  1.00  0.00    -0.216 OA
HETATM   23  C30 UNL     1      -5.260   4.838  -4.574  1.00  0.00     0.029 C 
ENDROOT
BRANCH   9  24
HETATM   24  C11 UNL     1      -2.381  -0.979  -0.811  1.00  0.00     0.176 C 
BRANCH  24  25
HETATM   25  O2  UNL     1      -1.160  -0.744  -0.123  1.00  0.00    -0.297 OA
BRANCH  25  26
HETATM   26  C12 UNL     1      -1.117  -1.359   1.055  1.00  0.00     0.272 C 
HETATM   27  O3  UNL     1      -2.016  -2.041   1.492  1.00  0.00    -0.264 OA
BRANCH  26  28
HETATM   28  C13 UNL     1       0.150  -1.152   1.840  1.00  0.00     0.096 C 
BRANCH  28  29
HETATM   29  C14 UNL     1       0.449  -2.316   2.785  1.00  0.00     0.010 C 
BRANCH  29  30
HETATM   30  C15 UNL     1       1.762  -2.135   3.547  1.00  0.00     0.001 C 
BRANCH  30  31
HETATM   31  C16 UNL     1       2.057  -3.299   4.496  1.00  0.00     0.000 C 
BRANCH  31  32
HETATM   32  C17 UNL     1       3.371  -3.117   5.258  1.00  0.00     0.000 C 
BRANCH  32  33
HETATM   33  C18 UNL     1       3.666  -4.279   6.205  1.00  0.00     0.000 C 
BRANCH  33  34
HETATM   34  C19 UNL     1       4.981  -4.100   6.969  1.00  0.00     0.000 C 
BRANCH  34  35
HETATM   35  C20 UNL     1       5.275  -5.262   7.916  1.00  0.00     0.000 C 
HETATM   36  C21 UNL     1       6.590  -5.082   8.678  1.00  0.00     0.000 C 
ENDBRANCH  34  35
ENDBRANCH  33  34
ENDBRANCH  32  33
ENDBRANCH  31  32
ENDBRANCH  30  31
ENDBRANCH  29  30
ENDBRANCH  28  29
ENDBRANCH  26  28
ENDBRANCH  25  26
ENDBRANCH  24  25
ENDBRANCH   9  24
TORSDOF 11
