REMARK  2 active torsions:
REMARK  status: ('A' for Active; 'I' for Inactive)
REMARK    1  A    between atoms: C2_2  and  O1_9 
REMARK    2  A    between atoms: C4_4  and  C7_7 
ROOT
HETATM    1  C1  UNL     1      -1.819  -1.044  -0.023  1.00  0.00     0.153 A 
HETATM    2  C2  UNL     1      -1.186   0.213  -0.023  1.00  0.00     0.119 A 
HETATM    3  C3  UNL     1       0.218   0.290  -0.023  1.00  0.00     0.026 A 
HETATM    4  C4  UNL     1       0.992  -0.884  -0.023  1.00  0.00     0.002 A 
HETATM    5  C5  UNL     1       0.359  -2.139  -0.023  1.00  0.00     0.002 A 
HETATM    6  C6  UNL     1      -1.044  -2.217  -0.023  1.00  0.00     0.029 A 
HETATM    7  O2  UNL     1      -3.134  -1.126  -0.023  1.00  0.00    -0.188 OA
ENDROOT
BRANCH   2   8
HETATM    8  O1  UNL     1      -1.904   1.318  -0.023  1.00  0.00    -0.326 OA
HETATM    9  C9  UNL     1      -1.222   2.557   0.101  1.00  0.00     0.181 C 
ENDBRANCH   2   8
BRANCH   4  10
HETATM   10  C7  UNL     1       2.483  -0.798  -0.023  1.00  0.00     0.000 C 
HETATM   11  C8  UNL     1       3.058   0.416  -0.023  1.00  0.00     0.000 C 
ENDBRANCH   4  10
TORSDOF 2
