REMARK  6 active torsions:
REMARK  status: ('A' for Active; 'I' for Inactive)
REMARK    1  A    between atoms: C2_2  and  O2_32 
REMARK    2  A    between atoms: C21_22  and  C22_23 
REMARK    3  A    between atoms: O2_32  and  C31_33 
REMARK    4  A    between atoms: C31_33  and  C32_34 
REMARK    5  A    between atoms: C33_35  and  C34_36 
REMARK    6  A    between atoms: C38_40  and  O3_42 
ROOT
HETATM    1  C1  UNL     1      -2.891   1.189  -0.719  1.00  0.00     0.030 C 
HETATM    2  C2  UNL     1      -2.467  -0.209  -0.289  1.00  0.00     0.124 C 
HETATM    3  C3  UNL     1      -2.184  -0.305   1.230  1.00  0.00     0.026 C 
HETATM    4  C4  UNL     1      -1.828   1.100   1.838  1.00  0.00     0.002 C 
HETATM    5  C5  UNL     1      -1.055   2.072   0.904  1.00  0.00     0.000 C 
HETATM    6  C6  UNL     1      -1.725   2.160  -0.504  1.00  0.00     0.003 C 
HETATM    7  C7  UNL     1       0.447   1.645   0.820  1.00  0.00     0.000 C 
HETATM    8  C8  UNL     1       1.166   1.479   2.201  1.00  0.00     0.000 C 
HETATM    9  C9  UNL     1       0.311   0.664   3.213  1.00  0.00     0.000 C 
HETATM   10  C10 UNL     1      -1.176   1.045   3.236  1.00  0.00     0.000 C 
HETATM   11  C11 UNL     1       2.602   0.816   2.006  1.00  0.00     0.003 C 
HETATM   12  C12 UNL     1       3.193   1.133   0.594  1.00  0.00     0.001 C 
HETATM   13  C13 UNL     1       2.787   2.535   0.129  1.00  0.00     0.000 C 
HETATM   14  C14 UNL     1       1.268   2.588  -0.107  1.00  0.00     0.000 C 
HETATM   15  C15 UNL     1       4.692   0.771   0.514  1.00  0.00     0.006 C 
HETATM   16  C16 UNL     1       5.557   1.373   1.623  1.00  0.00     0.029 C 
HETATM   17  C17 UNL     1       5.029   0.807   2.951  1.00  0.00     0.152 C 
HETATM   18  C18 UNL     1       3.570   1.270   3.137  1.00  0.00     0.033 C 
HETATM   19  O1  UNL     1       5.815   1.279   4.027  1.00  0.00    -0.224 OA
HETATM   20  C19 UNL     1       6.926   0.844   1.195  1.00  0.00     0.003 C 
HETATM   21  C20 UNL     1       6.930   0.943  -0.332  1.00  0.00     0.004 C 
HETATM   22  C21 UNL     1       5.469   1.135  -0.758  1.00  0.00     0.018 C 
HETATM   23  C25 UNL     1       5.596   2.908   1.582  1.00  0.00     0.003 C 
HETATM   24  C26 UNL     1       2.520  -0.723   2.072  1.00  0.00     0.000 C 
HETATM   25  C27 UNL     1       1.291   2.889   2.813  1.00  0.00     0.000 C 
HETATM   26  C28 UNL     1      -1.154   3.484   1.518  1.00  0.00     0.000 C 
HETATM   27  C29 UNL     1      -1.082  -1.354   1.416  1.00  0.00     0.002 C 
HETATM   28  C30 UNL     1      -3.422  -0.828   1.977  1.00  0.00     0.002 C 
ENDROOT
BRANCH   2  29
HETATM   29  O2  UNL     1      -3.461  -1.148  -0.682  1.00  0.00    -0.301 OA
BRANCH  29  30
HETATM   30  C31 UNL     1      -3.469  -1.359  -1.994  1.00  0.00     0.296 C 
HETATM   31  O5  UNL     1      -2.650  -0.898  -2.756  1.00  0.00    -0.259 OA
BRANCH  30  32
HETATM   32  C32 UNL     1      -4.555  -2.209  -2.498  1.00  0.00     0.068 C 
HETATM   33  C33 UNL     1      -4.656  -2.486  -3.809  1.00  0.00     0.005 C 
BRANCH  33  34
HETATM   34  C34 UNL     1      -5.777  -3.357  -4.272  1.00  0.00     0.002 A 
HETATM   35  C35 UNL     1      -5.912  -3.666  -5.637  1.00  0.00     0.002 A 
HETATM   36  C36 UNL     1      -6.969  -4.484  -6.070  1.00  0.00     0.029 A 
HETATM   37  C37 UNL     1      -7.895  -4.996  -5.145  1.00  0.00     0.153 A 
HETATM   38  C38 UNL     1      -7.760  -4.688  -3.777  1.00  0.00     0.119 A 
HETATM   39  O4  UNL     1      -8.883  -5.764  -5.559  1.00  0.00    -0.188 OA
HETATM   40  C39 UNL     1      -6.703  -3.867  -3.344  1.00  0.00     0.026 A 
BRANCH  38  41
HETATM   41  O3  UNL     1      -8.623  -5.162  -2.902  1.00  0.00    -0.326 OA
HETATM   42  C40 UNL     1      -8.406  -4.875  -1.527  1.00  0.00     0.181 C 
ENDBRANCH  38  41
ENDBRANCH  33  34
ENDBRANCH  30  32
ENDBRANCH  29  30
ENDBRANCH   2  29
BRANCH  22  43
HETATM   43  C22 UNL     1       5.072   0.322  -1.965  1.00  0.00    -0.044 C 
HETATM   44  C23 UNL     1       6.039  -0.107  -2.793  1.00  0.00    -0.009 C 
HETATM   45  C24 UNL     1       3.645  -0.033  -2.283  1.00  0.00     0.026 C 
ENDBRANCH  22  43
TORSDOF 6
