REMARK  1 active torsions:
REMARK  status: ('A' for Active; 'I' for Inactive)
REMARK    1  A    between atoms: C15_15  and  C18_18 
ROOT
HETATM    1  C1  UNL     1       4.389  -1.061  -0.676  1.00  0.00     0.033 C 
HETATM    2  C2  UNL     1       4.869   0.396  -0.734  1.00  0.00     0.152 C 
HETATM    3  C3  UNL     1       4.068   1.293   0.225  1.00  0.00     0.033 C 
HETATM    4  C4  UNL     1       2.533   1.154   0.107  1.00  0.00     0.003 C 
HETATM    5  C5  UNL     1       2.041  -0.324   0.111  1.00  0.00     0.000 C 
HETATM    6  C6  UNL     1       2.871  -1.180  -0.879  1.00  0.00     0.003 C 
HETATM    7  C7  UNL     1       0.529  -0.418  -0.301  1.00  0.00     0.000 C 
HETATM    8  C8  UNL     1      -0.225   0.918  -0.096  1.00  0.00     0.000 C 
HETATM    9  C9  UNL     1       0.398   2.055  -0.938  1.00  0.00     0.000 C 
HETATM   10  C10 UNL     1       1.930   1.945  -1.063  1.00  0.00     0.000 C 
HETATM   11  C11 UNL     1      -1.697   0.738  -0.496  1.00  0.00     0.000 C 
HETATM   12  C12 UNL     1      -2.381  -0.371   0.310  1.00  0.00     0.006 C 
HETATM   13  C13 UNL     1      -1.701  -1.695  -0.057  1.00  0.00     0.000 C 
HETATM   14  C14 UNL     1      -0.213  -1.621   0.334  1.00  0.00     0.000 C 
HETATM   15  C15 UNL     1      -3.816  -0.215  -0.211  1.00  0.00     0.058 C 
HETATM   16  C16 UNL     1      -4.022   1.309  -0.205  1.00  0.00     0.007 C 
HETATM   17  C17 UNL     1      -2.623   1.932  -0.274  1.00  0.00     0.000 C 
HETATM   18  C20 UNL     1      -2.340  -0.102   1.824  1.00  0.00     0.000 C 
HETATM   19  C21 UNL     1       2.262  -0.871   1.531  1.00  0.00     0.000 C 
HETATM   20  O2  UNL     1       4.758   0.887  -2.057  1.00  0.00    -0.224 OA
ENDROOT
BRANCH  15  21
HETATM   21  C18 UNL     1      -4.863  -0.977   0.564  1.00  0.00     0.151 C 
HETATM   22  O1  UNL     1      -5.723  -0.395   1.185  1.00  0.00    -0.296 OA
HETATM   23  C19 UNL     1      -4.805  -2.481   0.543  1.00  0.00     0.072 C 
ENDBRANCH  15  21
TORSDOF 1
