REMARK  1 active torsions:
REMARK  status: ('A' for Active; 'I' for Inactive)
REMARK    1  A    between atoms: C3_3  and  C18_21 
ROOT
HETATM    1  C1  UNL     1       3.801  -1.691   0.465  1.00  0.00     0.000 A 
HETATM    2  C2  UNL     1       4.496  -0.484   0.252  1.00  0.00     0.003 A 
HETATM    3  C3  UNL     1       3.783   0.705  -0.006  1.00  0.00     0.042 A 
HETATM    4  C4  UNL     1       2.356   0.692  -0.055  1.00  0.00     0.003 A 
HETATM    5  C5  UNL     1       1.635  -0.535   0.168  1.00  0.00     0.003 A 
HETATM    6  C6  UNL     1       2.391  -1.719   0.424  1.00  0.00     0.000 A 
HETATM    7  C7  UNL     1       0.193  -0.531   0.127  1.00  0.00     0.044 A 
HETATM    8  C8  UNL     1      -0.480   0.703  -0.160  1.00  0.00     0.026 A 
HETATM    9  C9  UNL     1       0.242   1.897  -0.377  1.00  0.00     0.002 A 
HETATM   10  C10 UNL     1       1.647   1.893  -0.322  1.00  0.00     0.000 A 
HETATM   11  C11 UNL     1      -1.969   0.736  -0.230  1.00  0.00     0.103 A 
HETATM   12  C12 UNL     1      -2.717  -0.387  -0.017  1.00  0.00     0.063 A 
HETATM   13  C13 UNL     1      -2.119  -1.697   0.295  1.00  0.00     0.236 A 
HETATM   14  C14 UNL     1      -0.635  -1.789   0.375  1.00  0.00     0.234 A 
HETATM   15  O1  UNL     1      -0.236  -2.898   0.639  1.00  0.00    -0.283 OA
HETATM   16  O2  UNL     1      -2.822  -2.664   0.481  1.00  0.00    -0.283 OA
HETATM   17  C15 UNL     1      -4.018   0.002  -0.162  1.00  0.00     0.008 A 
HETATM   18  C16 UNL     1      -4.047   1.373  -0.465  1.00  0.00     0.118 A 
HETATM   19  O3  UNL     1      -2.727   1.860  -0.512  1.00  0.00    -0.305 OA
HETATM   20  C17 UNL     1      -5.236  -0.887  -0.021  1.00  0.00     0.033 C 
ENDROOT
BRANCH   3  21
HETATM   21  C18 UNL     1       4.551   1.957  -0.226  1.00  0.00     0.234 C 
HETATM   22  O4  UNL     1       5.668   2.092  -0.664  1.00  0.00    -0.283 OA
ENDBRANCH   3  21
TORSDOF 1
