REMARK  5 active torsions:
REMARK  status: ('A' for Active; 'I' for Inactive)
REMARK    1  A    between atoms: C3_3  and  C9_11 
REMARK    2  A    between atoms: C9_11  and  C10_12 
REMARK    3  A    between atoms: C11_13  and  C12_14 
REMARK    4  A    between atoms: C12_14  and  C13_15 
REMARK    5  A    between atoms: C13_15  and  C14_16 
ROOT
HETATM    1  C1  UNL     1      -0.041  -3.209  -2.520  1.00  0.00     0.131 A 
HETATM    2  C2  UNL     1       0.265  -1.840  -2.649  1.00  0.00     0.025 A 
HETATM    3  C3  UNL     1      -0.766  -0.881  -2.535  1.00  0.00     0.007 A 
HETATM    4  C4  UNL     1      -2.115  -1.260  -2.295  1.00  0.00     0.096 A 
HETATM    5  C5  UNL     1      -2.406  -2.631  -2.170  1.00  0.00     0.012 A 
HETATM    6  C6  UNL     1      -1.375  -3.598  -2.281  1.00  0.00     0.026 A 
HETATM    7  C7  UNL     1      -3.879  -2.779  -1.920  1.00  0.00     0.124 A 
HETATM    8  C8  UNL     1      -4.244  -1.299  -1.947  1.00  0.00     0.281 A 
HETATM    9  O1  UNL     1      -3.194  -0.480  -2.164  1.00  0.00    -0.277 OA
HETATM   10  O2  UNL     1      -5.381  -0.920  -1.785  1.00  0.00    -0.263 OA
HETATM   11  O3  UNL     1       0.924  -4.131  -2.625  1.00  0.00    -0.190 OA
ENDROOT
BRANCH   3  12
HETATM   12  C9  UNL     1      -0.438   0.547  -2.672  1.00  0.00     0.054 C 
BRANCH  12  13
HETATM   13  C10 UNL     1       0.670   0.965  -1.740  1.00  0.00    -0.030 C 
HETATM   14  C11 UNL     1       0.349   1.320  -0.485  1.00  0.00    -0.048 C 
HETATM   15  C18 UNL     1      -1.098   1.285  -0.074  1.00  0.00     0.026 C 
BRANCH  14  16
HETATM   16  C12 UNL     1       1.455   1.738   0.447  1.00  0.00     0.026 C 
BRANCH  16  17
HETATM   17  C13 UNL     1       1.658   0.746   1.594  1.00  0.00     0.030 C 
BRANCH  17  18
HETATM   18  C14 UNL     1       2.721   1.195   2.560  1.00  0.00    -0.034 C 
HETATM   19  C15 UNL     1       2.346   1.897   3.644  1.00  0.00    -0.048 C 
HETATM   20  C16 UNL     1       0.883   2.205   3.830  1.00  0.00     0.026 C 
HETATM   21  C17 UNL     1       3.406   2.338   4.617  1.00  0.00     0.026 C 
ENDBRANCH  17  18
ENDBRANCH  16  17
ENDBRANCH  14  16
ENDBRANCH  12  13
ENDBRANCH   3  12
TORSDOF 5
