REMARK  3 active torsions:
REMARK  status: ('A' for Active; 'I' for Inactive)
REMARK    1  A    between atoms: C3_3  and  O4_10 
REMARK    2  A    between atoms: C5_6  and  C6_7 
REMARK    3  A    between atoms: O4_10  and  C7_11 
ROOT
HETATM    1  C1  UNL     1       0.984  -2.399   0.066  1.00  0.00     0.035 C 
HETATM    2  C2  UNL     1       1.621  -1.010  -0.049  1.00  0.00     0.061 C 
HETATM    3  C3  UNL     1       0.547   0.039  -0.373  1.00  0.00     0.242 C 
HETATM    4  O1  UNL     1      -0.197  -0.320  -1.543  1.00  0.00    -0.304 OA
HETATM    5  C4  UNL     1      -0.590  -1.602  -1.686  1.00  0.00     0.121 C 
HETATM    6  C5  UNL     1      -0.107  -2.635  -0.963  1.00  0.00     0.066 C 
HETATM    7  C13 UNL     1       2.676  -1.139  -1.162  1.00  0.00     0.005 C 
HETATM    8  C14 UNL     1       2.922  -2.641  -1.316  1.00  0.00     0.001 C 
HETATM    9  C15 UNL     1       2.227  -3.270  -0.115  1.00  0.00     0.005 C 
HETATM   10  C16 UNL     1       3.953  -0.395  -0.781  1.00  0.00     0.000 C 
ENDROOT
BRANCH   3  11
HETATM   11  O4  UNL     1      -0.322   0.197   0.734  1.00  0.00    -0.304 OA
BRANCH  11  12
HETATM   12  C7  UNL     1      -1.305   1.193   0.533  1.00  0.00     0.269 C 
HETATM   13  O5  UNL     1      -0.664   2.463   0.516  1.00  0.00    -0.332 OA
HETATM   14  C8  UNL     1      -1.529   3.570   0.293  1.00  0.00     0.118 C 
HETATM   15  C9  UNL     1      -2.578   3.641   1.420  1.00  0.00     0.033 C 
HETATM   16  C12 UNL     1      -0.658   4.826   0.230  1.00  0.00     0.032 C 
HETATM   17  C10 UNL     1      -3.346   2.322   1.551  1.00  0.00     0.041 C 
HETATM   18  C11 UNL     1      -2.353   1.154   1.672  1.00  0.00     0.208 C 
HETATM   19  O6  UNL     1      -3.082  -0.059   1.625  1.00  0.00    -0.218 OA
ENDBRANCH  11  12
ENDBRANCH   3  11
BRANCH   6  20
HETATM   20  C6  UNL     1      -0.619  -4.002  -1.158  1.00  0.00     0.209 C 
HETATM   21  O2  UNL     1      -1.105  -4.326  -2.217  1.00  0.00    -0.644 OA
HETATM   22  O3  UNL     1      -0.504  -4.817  -0.113  1.00  0.00    -0.644 OA
ENDBRANCH   6  20
TORSDOF 3
