REMARK  3 active torsions:
REMARK  status: ('A' for Active; 'I' for Inactive)
REMARK    1  A    between atoms: C14_17  and  O6_24 
REMARK    2  A    between atoms: C15_18  and  C16_20 
REMARK    3  A    between atoms: O6_24  and  C19_25 
ROOT
HETATM    1  C1  UNL     1      -1.521  -1.340  -3.518  1.00  0.00     0.158 A 
HETATM    2  C2  UNL     1      -1.820  -0.631  -4.705  1.00  0.00     0.030 A 
HETATM    3  C3  UNL     1      -1.031   0.481  -5.084  1.00  0.00     0.007 A 
HETATM    4  C4  UNL     1       0.059   0.889  -4.273  1.00  0.00     0.064 A 
HETATM    5  C5  UNL     1       0.354   0.180  -3.082  1.00  0.00     0.130 A 
HETATM    6  C6  UNL     1      -0.436  -0.934  -2.705  1.00  0.00     0.179 A 
HETATM    7  O1  UNL     1      -0.152  -1.603  -1.578  1.00  0.00    -0.186 OA
HETATM    8  O2  UNL     1       1.383   0.565  -2.303  1.00  0.00    -0.305 OA
HETATM    9  C7  UNL     1       2.219   1.604  -2.529  1.00  0.00     0.105 A 
HETATM   10  C8  UNL     1       2.014   2.389  -3.709  1.00  0.00     0.087 A 
HETATM   11  C9  UNL     1       0.898   2.063  -4.668  1.00  0.00     0.201 A 
HETATM   12  O3  UNL     1       0.689   2.693  -5.682  1.00  0.00    -0.286 OA
HETATM   13  C10 UNL     1       2.869   3.486  -3.980  1.00  0.00     0.138 A 
HETATM   14  C11 UNL     1       3.910   3.795  -3.086  1.00  0.00     0.052 A 
HETATM   15  C12 UNL     1       4.135   3.037  -1.914  1.00  0.00     0.097 A 
HETATM   16  C13 UNL     1       3.283   1.955  -1.654  1.00  0.00     0.053 A 
HETATM   17  C14 UNL     1       3.715   1.317  -0.359  1.00  0.00     0.177 A 
HETATM   18  C15 UNL     1       4.963   2.172   0.029  1.00  0.00     0.181 A 
HETATM   19  O4  UNL     1       5.068   3.193  -0.977  1.00  0.00    -0.328 OA
HETATM   20  O12 UNL     1       2.711   4.242  -5.076  1.00  0.00    -0.190 OA
HETATM   21  O13 UNL     1      -2.270  -2.394  -3.164  1.00  0.00    -0.188 OA
ENDROOT
BRANCH  17  22
HETATM   22  O6  UNL     1       2.676   1.428   0.606  1.00  0.00    -0.324 OA
BRANCH  22  23
HETATM   23  C19 UNL     1       2.031   0.311   0.971  1.00  0.00     0.122 A 
HETATM   24  C20 UNL     1       0.623   0.313   1.102  1.00  0.00     0.176 A 
HETATM   25  C21 UNL     1      -0.057  -0.869   1.484  1.00  0.00     0.130 A 
HETATM   26  O11 UNL     1      -0.070   1.434   0.859  1.00  0.00    -0.186 OA
HETATM   27  O7  UNL     1      -1.400  -0.855   1.602  1.00  0.00    -0.305 OA
HETATM   28  C29 UNL     1       0.682  -2.059   1.744  1.00  0.00     0.064 A 
HETATM   29  C22 UNL     1      -2.146  -1.924   1.957  1.00  0.00     0.107 A 
HETATM   30  C23 UNL     1      -3.555  -1.805   2.041  1.00  0.00     0.045 A 
HETATM   31  C27 UNL     1      -1.527  -3.176   2.246  1.00  0.00     0.087 A 
HETATM   32  C24 UNL     1      -4.354  -2.916   2.408  1.00  0.00     0.098 A 
HETATM   33  C34 UNL     1      -4.229  -0.512   1.764  1.00  0.00     0.002 C 
HETATM   34  C25 UNL     1      -3.738  -4.152   2.705  1.00  0.00     0.052 A 
HETATM   35  O10 UNL     1      -5.697  -2.799   2.490  1.00  0.00    -0.331 OA
HETATM   36  C26 UNL     1      -2.332  -4.287   2.623  1.00  0.00     0.138 A 
HETATM   37  O9  UNL     1      -1.781  -5.477   2.904  1.00  0.00    -0.190 OA
HETATM   38  C32 UNL     1      -6.404  -1.721   1.848  1.00  0.00     0.117 C 
HETATM   39  C33 UNL     1      -5.572  -0.457   1.715  1.00  0.00     0.001 C 
HETATM   40  C35 UNL     1      -6.799  -2.193   0.445  1.00  0.00     0.035 C 
HETATM   41  C36 UNL     1      -7.662  -1.439   2.672  1.00  0.00     0.035 C 
HETATM   42  C28 UNL     1      -0.033  -3.312   2.152  1.00  0.00     0.201 A 
HETATM   43  O8  UNL     1       0.553  -4.348   2.387  1.00  0.00    -0.286 OA
HETATM   44  C30 UNL     1       2.094  -2.055   1.611  1.00  0.00     0.007 A 
HETATM   45  C31 UNL     1       2.766  -0.871   1.227  1.00  0.00     0.027 A 
ENDBRANCH  22  23
ENDBRANCH  17  22
BRANCH  18  46
HETATM   46  C16 UNL     1       4.889   2.822   1.408  1.00  0.00     0.155 C 
HETATM   47  C17 UNL     1       6.088   3.752   1.598  1.00  0.00     0.036 C 
HETATM   48  C18 UNL     1       4.811   1.734   2.481  1.00  0.00     0.036 C 
HETATM   49  O5  UNL     1       3.709   3.592   1.471  1.00  0.00    -0.223 OA
ENDBRANCH  18  46
TORSDOF 3
