REMARK  15 active torsions:
REMARK  status: ('A' for Active; 'I' for Inactive)
REMARK    1  A    between atoms: C4_4  and  O22_60 
REMARK    2  A    between atoms: C5_5  and  O2_7 
REMARK    3  A    between atoms: O2_7  and  C6_8 
REMARK    4  A    between atoms: C12_15  and  C33_52 
REMARK    5  A    between atoms: C13_16  and  O5_19 
REMARK    6  A    between atoms: O5_19  and  C15_20 
REMARK    7  A    between atoms: C16_21  and  O14_40 
REMARK    8  A    between atoms: C19_24  and  C20_26 
REMARK    9  A    between atoms: C20_26  and  O7_27 
REMARK   10  A    between atoms: O7_27  and  C21_28 
REMARK   11  A    between atoms: O14_40  and  C27_41 
REMARK   12  A    between atoms: C31_45  and  C32_47 
REMARK   13  A    between atoms: O22_60  and  C39_61 
REMARK   14  A    between atoms: C39_61  and  C40_62 
REMARK   15  A    between atoms: C45_67  and  O23_68 
ROOT
HETATM    1  C6  UNL     1      -3.051   0.053  -1.041  1.00  0.00     0.101 A 
HETATM    2  C7  UNL     1      -2.895  -1.250  -0.512  1.00  0.00     0.052 A 
HETATM    3  C8  UNL     1      -1.602  -1.789  -0.318  1.00  0.00     0.138 A 
HETATM    4  C9  UNL     1      -0.461  -1.016  -0.656  1.00  0.00     0.089 A 
HETATM    5  C10 UNL     1      -0.615   0.291  -1.187  1.00  0.00     0.107 A 
HETATM    6  C11 UNL     1      -1.912   0.822  -1.379  1.00  0.00     0.049 A 
HETATM    7  O3  UNL     1       0.471   1.027  -1.508  1.00  0.00    -0.305 OA
HETATM    8  C12 UNL     1       1.740   0.594  -1.354  1.00  0.00     0.125 A 
HETATM    9  C13 UNL     1       2.020  -0.637  -0.859  1.00  0.00     0.158 A 
HETATM   10  C14 UNL     1       0.916  -1.547  -0.469  1.00  0.00     0.224 A 
HETATM   11  O4  UNL     1       1.225  -2.635  -0.035  1.00  0.00    -0.284 OA
HETATM   12  O21 UNL     1      -1.473  -3.025   0.186  1.00  0.00    -0.190 OA
ENDROOT
BRANCH   9  13
HETATM   13  O5  UNL     1       3.277  -1.055  -0.713  1.00  0.00    -0.298 OA
BRANCH  13  14
HETATM   14  C15 UNL     1       3.957  -0.367   0.330  1.00  0.00     0.271 C 
HETATM   15  C16 UNL     1       5.416  -0.861   0.426  1.00  0.00     0.207 C 
HETATM   16  C17 UNL     1       6.139  -0.234   1.639  1.00  0.00     0.217 C 
HETATM   17  C18 UNL     1       5.283  -0.424   2.910  1.00  0.00     0.214 C 
HETATM   18  O13 UNL     1       7.406  -0.852   1.813  1.00  0.00    -0.218 OA
HETATM   19  C19 UNL     1       3.830   0.053   2.686  1.00  0.00     0.180 C 
HETATM   20  O12 UNL     1       5.844   0.318   3.981  1.00  0.00    -0.218 OA
HETATM   21  O6  UNL     1       3.283  -0.615   1.557  1.00  0.00    -0.326 OA
BRANCH  15  22
HETATM   22  O14 UNL     1       6.090  -0.514  -0.770  1.00  0.00    -0.324 OA
BRANCH  22  23
HETATM   23  C27 UNL     1       6.084  -1.551  -1.734  1.00  0.00     0.270 C 
HETATM   24  C28 UNL     1       7.291  -2.498  -1.518  1.00  0.00     0.241 C 
HETATM   25  C29 UNL     1       7.389  -3.539  -2.654  1.00  0.00     0.220 C 
HETATM   26  O19 UNL     1       7.145  -3.170  -0.275  1.00  0.00    -0.215 OA
HETATM   27  C30 UNL     1       7.322  -2.830  -4.025  1.00  0.00     0.215 C 
HETATM   28  O18 UNL     1       8.606  -4.262  -2.543  1.00  0.00    -0.218 OA
HETATM   29  C31 UNL     1       6.108  -1.881  -4.109  1.00  0.00     0.184 C 
HETATM   30  O17 UNL     1       7.217  -3.795  -5.059  1.00  0.00    -0.218 OA
HETATM   31  O15 UNL     1       6.154  -0.961  -3.025  1.00  0.00    -0.326 OA
BRANCH  29  32
HETATM   32  C32 UNL     1       6.090  -1.047  -5.395  1.00  0.00     0.214 C 
HETATM   33  O16 UNL     1       4.830  -0.422  -5.496  1.00  0.00    -0.218 OA
ENDBRANCH  29  32
ENDBRANCH  22  23
ENDBRANCH  15  22
BRANCH  19  34
HETATM   34  C20 UNL     1       2.910  -0.258   3.871  1.00  0.00     0.177 C 
BRANCH  34  35
HETATM   35  O7  UNL     1       1.695   0.430   3.678  1.00  0.00    -0.326 OA
BRANCH  35  36
HETATM   36  C21 UNL     1       0.768   0.231   4.729  1.00  0.00     0.270 C 
HETATM   37  C22 UNL     1      -0.584   0.908   4.393  1.00  0.00     0.241 C 
HETATM   38  C23 UNL     1      -1.555   0.834   5.594  1.00  0.00     0.220 C 
HETATM   39  O11 UNL     1      -1.172   0.258   3.275  1.00  0.00    -0.215 OA
HETATM   40  C24 UNL     1      -0.848   1.334   6.873  1.00  0.00     0.212 C 
HETATM   41  O10 UNL     1      -2.701   1.629   5.336  1.00  0.00    -0.218 OA
HETATM   42  C25 UNL     1       0.510   0.623   7.080  1.00  0.00     0.151 C 
HETATM   43  O9  UNL     1      -1.666   1.086   8.004  1.00  0.00    -0.218 OA
HETATM   44  O8  UNL     1       1.311   0.791   5.916  1.00  0.00    -0.329 OA
HETATM   45  C26 UNL     1       1.311   1.195   8.252  1.00  0.00     0.035 C 
ENDBRANCH  35  36
ENDBRANCH  34  35
ENDBRANCH  19  34
ENDBRANCH  13  14
ENDBRANCH   9  13
BRANCH   8  46
HETATM   46  C33 UNL     1       2.861   1.500  -1.742  1.00  0.00     0.025 A 
HETATM   47  C34 UNL     1       3.760   1.115  -2.754  1.00  0.00     0.004 A 
HETATM   48  C35 UNL     1       4.817   1.969  -3.117  1.00  0.00     0.028 A 
HETATM   49  C36 UNL     1       4.979   3.209  -2.473  1.00  0.00     0.131 A 
HETATM   50  C37 UNL     1       4.078   3.590  -1.463  1.00  0.00     0.028 A 
HETATM   51  O20 UNL     1       5.969   4.008  -2.816  1.00  0.00    -0.190 OA
HETATM   52  C38 UNL     1       3.022   2.740  -1.096  1.00  0.00     0.004 A 
ENDBRANCH   8  46
BRANCH   1  53
HETATM   53  O2  UNL     1      -4.277   0.561  -1.225  1.00  0.00    -0.304 OA
BRANCH  53  54
HETATM   54  C5  UNL     1      -5.348   0.008  -0.469  1.00  0.00     0.271 C 
HETATM   55  C4  UNL     1      -6.615   0.856  -0.672  1.00  0.00     0.214 C 
HETATM   56  C3  UNL     1      -7.762   0.357   0.225  1.00  0.00     0.217 C 
HETATM   57  C2  UNL     1      -7.274   0.246   1.686  1.00  0.00     0.212 C 
HETATM   58  O25 UNL     1      -8.850   1.260   0.133  1.00  0.00    -0.218 OA
HETATM   59  C1  UNL     1      -5.965  -0.574   1.773  1.00  0.00     0.151 C 
HETATM   60  O26 UNL     1      -8.264  -0.387   2.475  1.00  0.00    -0.218 OA
HETATM   61  O1  UNL     1      -4.990  -0.006   0.908  1.00  0.00    -0.329 OA
HETATM   62  C47 UNL     1      -5.359  -0.582   3.182  1.00  0.00     0.035 C 
BRANCH  55  63
HETATM   63  O22 UNL     1      -7.008   0.787  -2.037  1.00  0.00    -0.293 OA
BRANCH  63  64
HETATM   64  C39 UNL     1      -7.633   1.891  -2.441  1.00  0.00     0.298 C 
HETATM   65  O24 UNL     1      -7.793   2.865  -1.746  1.00  0.00    -0.259 OA
BRANCH  64  66
HETATM   66  C40 UNL     1      -8.139   1.856  -3.846  1.00  0.00     0.085 A 
HETATM   67  C41 UNL     1      -8.813   2.975  -4.369  1.00  0.00     0.007 A 
HETATM   68  C42 UNL     1      -9.293   2.953  -5.690  1.00  0.00     0.000 A 
HETATM   69  C43 UNL     1      -9.100   1.815  -6.488  1.00  0.00     0.002 A 
HETATM   70  C44 UNL     1      -8.428   0.697  -5.969  1.00  0.00     0.024 A 
HETATM   71  C45 UNL     1      -7.943   0.713  -4.647  1.00  0.00     0.099 A 
BRANCH  71  72
HETATM   72  O23 UNL     1      -7.315  -0.344  -4.172  1.00  0.00    -0.328 OA
HETATM   73  C46 UNL     1      -7.258  -1.508  -4.984  1.00  0.00     0.181 C 
ENDBRANCH  71  72
ENDBRANCH  64  66
ENDBRANCH  63  64
ENDBRANCH  55  63
ENDBRANCH  53  54
ENDBRANCH   1  53
TORSDOF 15
