REMARK  0 active torsions:
REMARK  status: ('A' for Active; 'I' for Inactive)
ROOT
HETATM    1  C1  UNL     1       1.916  -1.527   0.115  1.00  0.00     0.298 C 
HETATM    2  C2  UNL     1       0.607  -0.916  -0.078  1.00  0.00     0.046 C 
HETATM    3  C3  UNL     1       0.820   0.531  -0.344  1.00  0.00     0.114 C 
HETATM    4  C4  UNL     1       2.268   0.602   0.074  1.00  0.00     0.282 C 
HETATM    5  O1  UNL     1       2.820   1.664   0.236  1.00  0.00    -0.263 OA
HETATM    6  O2  UNL     1       2.869  -0.594   0.242  1.00  0.00    -0.240 OA
HETATM    7  C5  UNL     1      -0.227   1.377   0.381  1.00  0.00     0.015 C 
HETATM    8  C6  UNL     1      -1.582   0.912  -0.199  1.00  0.00     0.005 C 
HETATM    9  C7  UNL     1      -1.852  -0.603  -0.029  1.00  0.00     0.026 C 
HETATM   10  C8  UNL     1      -0.611  -1.478   0.004  1.00  0.00    -0.025 C 
HETATM   11  O3  UNL     1       2.092  -2.722   0.162  1.00  0.00    -0.259 OA
ENDROOT
TORSDOF 0
