REMARK  11 active torsions:
REMARK  status: ('A' for Active; 'I' for Inactive)
REMARK    1  A    between atoms: C1_1  and  O15_56 
REMARK    2  A    between atoms: C3_4  and  O3_9 
REMARK    3  A    between atoms: C5_6  and  O2_7 
REMARK    4  A    between atoms: O3_9  and  C7_10 
REMARK    5  A    between atoms: C10_13  and  O5_17 
REMARK    6  A    between atoms: O5_17  and  C13_18 
REMARK    7  A    between atoms: C15_21  and  O8_26 
REMARK    8  A    between atoms: C17_23  and  O7_24 
REMARK    9  A    between atoms: O8_26  and  C19_27 
REMARK   10  A    between atoms: O15_56  and  C42_57 
REMARK   11  A    between atoms: C46_61  and  C47_63 
ROOT
HETATM    1  C13 UNL     1       2.674   2.227   2.053  1.00  0.00     0.172 C 
HETATM    2  C14 UNL     1       1.969   2.287   0.674  1.00  0.00     0.147 C 
HETATM    3  O6  UNL     1       0.869   1.373   0.613  1.00  0.00    -0.331 OA
HETATM    4  C15 UNL     1      -0.137   1.498   1.621  1.00  0.00     0.238 C 
HETATM    5  C16 UNL     1       0.482   1.404   3.035  1.00  0.00     0.094 C 
HETATM    6  C17 UNL     1       1.695   2.332   3.242  1.00  0.00     0.150 C 
HETATM    7  C40 UNL     1       1.502   3.699   0.293  1.00  0.00     0.035 C 
ENDROOT
BRANCH   1   8
HETATM    8  O5  UNL     1       3.375   1.000   2.160  1.00  0.00    -0.328 OA
BRANCH   8   9
HETATM    9  C10 UNL     1       4.449   1.051   3.072  1.00  0.00     0.238 C 
HETATM   10  C9  UNL     1       4.930  -0.383   3.432  1.00  0.00     0.097 C 
HETATM   11  C8  UNL     1       6.418  -0.643   3.129  1.00  0.00     0.187 C 
HETATM   12  C7  UNL     1       6.807  -0.064   1.750  1.00  0.00     0.175 C 
HETATM   13  O14 UNL     1       7.207  -0.022   4.129  1.00  0.00    -0.221 OA
HETATM   14  C11 UNL     1       6.219   1.350   1.455  1.00  0.00     0.148 C 
HETATM   15  O4  UNL     1       5.512   1.863   2.580  1.00  0.00    -0.331 OA
HETATM   16  C12 UNL     1       7.315   2.369   1.131  1.00  0.00     0.035 C 
BRANCH  12  17
HETATM   17  O3  UNL     1       6.344  -0.961   0.756  1.00  0.00    -0.328 OA
BRANCH  17  18
HETATM   18  C3  UNL     1       7.002  -2.209   0.783  1.00  0.00     0.238 C 
HETATM   19  O1  UNL     1       6.188  -3.242   1.334  1.00  0.00    -0.331 OA
HETATM   20  C2  UNL     1       5.016  -3.576   0.592  1.00  0.00     0.147 C 
HETATM   21  C1  UNL     1       5.408  -4.035  -0.834  1.00  0.00     0.172 C 
HETATM   22  C41 UNL     1       4.289  -4.666   1.387  1.00  0.00     0.035 C 
HETATM   23  C5  UNL     1       6.283  -2.977  -1.539  1.00  0.00     0.150 C 
HETATM   24  C4  UNL     1       7.467  -2.600  -0.635  1.00  0.00     0.094 C 
BRANCH  21  25
HETATM   25  O15 UNL     1       4.227  -4.256  -1.582  1.00  0.00    -0.327 OA
BRANCH  25  26
HETATM   26  C42 UNL     1       4.311  -5.375  -2.440  1.00  0.00     0.270 C 
HETATM   27  C43 UNL     1       3.148  -5.358  -3.469  1.00  0.00     0.241 C 
HETATM   28  C44 UNL     1       3.119  -6.645  -4.324  1.00  0.00     0.220 C 
HETATM   29  O20 UNL     1       3.227  -4.207  -4.297  1.00  0.00    -0.215 OA
HETATM   30  C45 UNL     1       3.158  -7.863  -3.373  1.00  0.00     0.215 C 
HETATM   31  O19 UNL     1       4.223  -6.674  -5.221  1.00  0.00    -0.218 OA
HETATM   32  C46 UNL     1       4.315  -7.789  -2.346  1.00  0.00     0.184 C 
HETATM   33  O18 UNL     1       3.219  -9.084  -4.092  1.00  0.00    -0.218 OA
HETATM   34  O16 UNL     1       4.236  -6.555  -1.641  1.00  0.00    -0.326 OA
BRANCH  32  35
HETATM   35  C47 UNL     1       5.723  -7.940  -2.942  1.00  0.00     0.214 C 
HETATM   36  O17 UNL     1       6.647  -8.002  -1.881  1.00  0.00    -0.218 OA
ENDBRANCH  32  35
ENDBRANCH  25  26
ENDBRANCH  21  25
BRANCH  23  37
HETATM   37  O2  UNL     1       6.783  -3.477  -2.766  1.00  0.00    -0.351 OA
HETATM   38  C6  UNL     1       7.451  -2.500  -3.531  1.00  0.00     0.174 C 
ENDBRANCH  23  37
ENDBRANCH  17  18
ENDBRANCH  12  17
ENDBRANCH   8   9
ENDBRANCH   1   8
BRANCH   6  39
HETATM   39  O7  UNL     1       1.254   3.670   3.373  1.00  0.00    -0.351 OA
HETATM   40  C18 UNL     1       0.477   3.887   4.529  1.00  0.00     0.174 C 
ENDBRANCH   6  39
BRANCH   4  41
HETATM   41  O8  UNL     1      -0.916   2.668   1.492  1.00  0.00    -0.331 OA
BRANCH  41  42
HETATM   42  C19 UNL     1      -1.990   2.525   0.580  1.00  0.00     0.152 C 
HETATM   43  C20 UNL     1      -2.490   3.910   0.119  1.00  0.00     0.180 C 
HETATM   44  C21 UNL     1      -3.727   3.770  -0.791  1.00  0.00     0.039 C 
HETATM   45  O13 UNL     1      -1.475   4.582  -0.606  1.00  0.00    -0.221 OA
HETATM   46  C22 UNL     1      -4.899   2.998  -0.135  1.00  0.00     0.018 C 
HETATM   47  C23 UNL     1      -4.373   1.678   0.428  1.00  0.00    -0.046 C 
HETATM   48  C28 UNL     1      -6.049   2.801  -1.180  1.00  0.00     0.014 C 
HETATM   49  C39 UNL     1      -5.381   3.773   1.096  1.00  0.00     0.004 C 
HETATM   50  C24 UNL     1      -3.111   1.732   1.269  1.00  0.00     0.054 C 
HETATM   51  C25 UNL     1      -4.981   0.490   0.217  1.00  0.00    -0.034 C 
HETATM   52  C26 UNL     1      -6.229   0.348  -0.615  1.00  0.00     0.035 C 
HETATM   53  C27 UNL     1      -7.008   1.660  -0.793  1.00  0.00     0.091 C 
HETATM   54  C37 UNL     1      -8.080   1.465  -1.854  1.00  0.00     0.272 C 
HETATM   55  O11 UNL     1      -9.395   1.477  -1.596  1.00  0.00    -0.301 OA
HETATM   56  O12 UNL     1      -7.699   1.295  -2.988  1.00  0.00    -0.264 OA
HETATM   57  C36 UNL     1      -9.879   1.621  -0.260  1.00  0.00     0.162 C 
HETATM   58  C32 UNL     1      -9.811   3.086   0.258  1.00  0.00     0.102 C 
HETATM   59  C35 UNL     1     -11.369   1.260  -0.291  1.00  0.00     0.175 C 
HETATM   60  C31 UNL     1      -9.262   4.150  -0.652  1.00  0.00    -0.013 C 
HETATM   61  C33 UNL     1     -11.276   3.506   0.170  1.00  0.00     0.198 C 
HETATM   62  C30 UNL     1      -7.842   4.676  -0.609  1.00  0.00     0.024 C 
HETATM   63  C34 UNL     1     -10.229   4.582  -1.473  1.00  0.00     0.111 C 
HETATM   64  C29 UNL     1      -6.807   4.096  -1.600  1.00  0.00     0.005 C 
HETATM   65  O9  UNL     1     -11.420   4.072  -1.141  1.00  0.00    -0.309 OA
HETATM   66  O10 UNL     1     -12.008   2.322   0.359  1.00  0.00    -0.331 OA
HETATM   67  C38 UNL     1     -11.696   4.523   1.228  1.00  0.00     0.062 C 
ENDBRANCH  41  42
ENDBRANCH   4  41
TORSDOF 11
