REMARK  1 active torsions:
REMARK  status: ('A' for Active; 'I' for Inactive)
REMARK    1  A    between atoms: C5_5  and  O1_7 
ROOT
HETATM    1  C1  UNL     1       0.624   0.879   0.524  1.00  0.00    -0.018 A 
HETATM    2  C2  UNL     1       0.980   1.368  -0.745  1.00  0.00     0.023 A 
HETATM    3  C3  UNL     1       0.513   0.728  -1.906  1.00  0.00     0.133 A 
HETATM    4  C4  UNL     1      -0.313  -0.405  -1.792  1.00  0.00     0.051 A 
HETATM    5  C5  UNL     1      -0.672  -0.898  -0.525  1.00  0.00     0.096 A 
HETATM    6  C6  UNL     1      -0.202  -0.253   0.632  1.00  0.00     0.020 A 
HETATM    7  O2  UNL     1       0.848   1.186  -3.095  1.00  0.00    -0.190 OA
HETATM    8  C8  UNL     1       1.119   1.558   1.750  1.00  0.00     0.031 C 
ENDROOT
BRANCH   5   9
HETATM    9  O1  UNL     1      -1.446  -1.960  -0.424  1.00  0.00    -0.328 OA
HETATM   10  C7  UNL     1      -1.717  -2.466   0.875  1.00  0.00     0.181 C 
ENDBRANCH   5   9
TORSDOF 1
