REMARK  9 active torsions:
REMARK  status: ('A' for Active; 'I' for Inactive)
REMARK    1  A    between atoms: C1_1  and  C8_10 
REMARK    2  A    between atoms: C5_5  and  O1_7 
REMARK    3  A    between atoms: C8_10  and  C9_12 
REMARK    4  A    between atoms: C9_12  and  O4_13 
REMARK    5  A    between atoms: C9_12  and  C20_26 
REMARK    6  A    between atoms: O4_13  and  C10_14 
REMARK    7  A    between atoms: C11_15  and  O6_24 
REMARK    8  A    between atoms: C13_17  and  C16_20 
REMARK    9  A    between atoms: C17_21  and  C18_22 
ROOT
HETATM    1  C9  UNL     1       0.998   1.010  -1.367  1.00  0.00     0.189 C 
ENDROOT
BRANCH   1   2
HETATM    2  C8  UNL     1       1.529   2.438  -1.258  1.00  0.00     0.205 C 
HETATM    3  O3  UNL     1       2.850   2.457  -1.752  1.00  0.00    -0.216 OA
BRANCH   2   4
HETATM    4  C1  UNL     1       1.520   2.920   0.148  1.00  0.00     0.012 A 
HETATM    5  C2  UNL     1       0.789   4.071   0.494  1.00  0.00     0.001 A 
HETATM    6  C3  UNL     1       0.781   4.522   1.824  1.00  0.00     0.029 A 
HETATM    7  C4  UNL     1       1.502   3.828   2.812  1.00  0.00     0.153 A 
HETATM    8  C5  UNL     1       2.234   2.676   2.465  1.00  0.00     0.119 A 
HETATM    9  O2  UNL     1       1.490   4.260   4.057  1.00  0.00    -0.188 OA
HETATM   10  C6  UNL     1       2.240   2.225   1.135  1.00  0.00     0.025 A 
BRANCH   8  11
HETATM   11  O1  UNL     1       2.914   2.020   3.385  1.00  0.00    -0.326 OA
HETATM   12  C7  UNL     1       3.553   0.811   3.006  1.00  0.00     0.181 C 
ENDBRANCH   8  11
ENDBRANCH   2   4
ENDBRANCH   1   2
BRANCH   1  13
HETATM   13  O4  UNL     1      -0.139   0.862  -0.529  1.00  0.00    -0.326 OA
BRANCH  13  14
HETATM   14  C10 UNL     1      -0.762  -0.301  -0.529  1.00  0.00     0.116 A 
HETATM   15  C11 UNL     1      -2.168  -0.351  -0.529  1.00  0.00     0.116 A 
HETATM   16  C12 UNL     1      -2.824  -1.595  -0.529  1.00  0.00     0.026 A 
HETATM   17  C13 UNL     1      -2.078  -2.789  -0.529  1.00  0.00     0.002 A 
HETATM   18  C14 UNL     1      -0.674  -2.736  -0.529  1.00  0.00     0.002 A 
HETATM   19  C15 UNL     1      -0.018  -1.494  -0.529  1.00  0.00     0.026 A 
BRANCH  15  20
HETATM   20  O6  UNL     1      -2.873   0.762  -0.529  1.00  0.00    -0.326 OA
HETATM   21  C19 UNL     1      -2.389   1.858   0.232  1.00  0.00     0.181 C 
ENDBRANCH  15  20
BRANCH  17  22
HETATM   22  C16 UNL     1      -2.779  -4.107  -0.529  1.00  0.00    -0.002 C 
HETATM   23  C17 UNL     1      -2.105  -5.195  -0.936  1.00  0.00     0.009 C 
BRANCH  23  24
HETATM   24  C18 UNL     1      -2.814  -6.523  -0.934  1.00  0.00     0.209 C 
HETATM   25  O5  UNL     1      -2.770  -7.078   0.359  1.00  0.00    -0.215 OA
ENDBRANCH  23  24
ENDBRANCH  17  22
ENDBRANCH  13  14
ENDBRANCH   1  13
BRANCH   1  26
HETATM   26  C20 UNL     1       0.627   0.625  -2.801  1.00  0.00     0.215 C 
HETATM   27  O7  UNL     1       1.818   0.449  -3.533  1.00  0.00    -0.218 OA
ENDBRANCH   1  26
TORSDOF 9
