REMARK  7 active torsions:
REMARK  status: ('A' for Active; 'I' for Inactive)
REMARK    1  A    between atoms: C4_4  and  O2_8 
REMARK    2  A    between atoms: O2_8  and  C7_9 
REMARK    3  A    between atoms: C8_10  and  O7_19 
REMARK    4  A    between atoms: C11_13  and  C12_15 
REMARK    5  A    between atoms: O7_19  and  C13_20 
REMARK    6  A    between atoms: C13_20  and  C14_22 
REMARK    7  A    between atoms: C15_23  and  C16_24 
ROOT
HETATM    1  C7  UNL     1       0.508   0.381  -1.818  1.00  0.00     0.267 C 
HETATM    2  C8  UNL     1       1.176   1.635  -1.215  1.00  0.00     0.213 C 
HETATM    3  C9  UNL     1       1.104   2.818  -2.195  1.00  0.00     0.217 C 
HETATM    4  C10 UNL     1       1.637   2.389  -3.578  1.00  0.00     0.215 C 
HETATM    5  C11 UNL     1       0.949   1.092  -4.065  1.00  0.00     0.184 C 
HETATM    6  O3  UNL     1       1.094   0.078  -3.076  1.00  0.00    -0.326 OA
HETATM    7  O5  UNL     1       1.397   3.414  -4.525  1.00  0.00    -0.218 OA
HETATM    8  O6  UNL     1       1.867   3.895  -1.682  1.00  0.00    -0.218 OA
ENDROOT
BRANCH   2   9
HETATM    9  O7  UNL     1       0.518   1.984  -0.002  1.00  0.00    -0.293 OA
BRANCH   9  10
HETATM   10  C13 UNL     1       1.002   1.324   1.045  1.00  0.00     0.296 C 
HETATM   11  O8  UNL     1       2.016   0.664   1.016  1.00  0.00    -0.259 OA
BRANCH  10  12
HETATM   12  C14 UNL     1       0.225   1.438   2.285  1.00  0.00     0.068 C 
HETATM   13  C15 UNL     1       0.625   0.811   3.404  1.00  0.00     0.005 C 
BRANCH  13  14
HETATM   14  C16 UNL     1      -0.197   0.955   4.641  1.00  0.00     0.000 A 
HETATM   15  C17 UNL     1      -0.232  -0.082   5.590  1.00  0.00     0.002 A 
HETATM   16  C18 UNL     1      -1.008   0.057   6.754  1.00  0.00     0.027 A 
HETATM   17  C19 UNL     1      -1.752   1.231   6.975  1.00  0.00     0.131 A 
HETATM   18  C20 UNL     1      -1.717   2.266   6.024  1.00  0.00     0.027 A 
HETATM   19  O9  UNL     1      -2.478   1.358   8.067  1.00  0.00    -0.190 OA
HETATM   20  C21 UNL     1      -0.941   2.131   4.859  1.00  0.00     0.002 A 
ENDBRANCH  13  14
ENDBRANCH  10  12
ENDBRANCH   9  10
ENDBRANCH   2   9
BRANCH   1  21
HETATM   21  O2  UNL     1       0.680  -0.717  -0.947  1.00  0.00    -0.329 OA
BRANCH  21  22
HETATM   22  C4  UNL     1      -0.119  -1.834  -1.291  1.00  0.00     0.148 C 
HETATM   23  C3  UNL     1      -1.557  -1.574  -0.801  1.00  0.00     0.032 C 
HETATM   24  C2  UNL     1      -2.467  -2.785  -1.051  1.00  0.00     0.003 C 
HETATM   25  C1  UNL     1      -1.889  -4.064  -0.432  1.00  0.00     0.003 C 
HETATM   26  C6  UNL     1      -0.459  -4.334  -0.918  1.00  0.00     0.035 C 
HETATM   27  C5  UNL     1       0.463  -3.125  -0.670  1.00  0.00     0.179 C 
HETATM   28  O1  UNL     1       1.735  -3.410  -1.225  1.00  0.00    -0.221 OA
ENDBRANCH  21  22
ENDBRANCH   1  21
BRANCH   5  29
HETATM   29  C12 UNL     1       1.559   0.539  -5.358  1.00  0.00     0.214 C 
HETATM   30  O4  UNL     1       0.758  -0.533  -5.801  1.00  0.00    -0.218 OA
ENDBRANCH   5  29
TORSDOF 7
