REMARK  1 active torsions:
REMARK  status: ('A' for Active; 'I' for Inactive)
REMARK    1  A    between atoms: C1_1  and  C8_9 
ROOT
HETATM    1  C1  UNL     1       0.639   0.521   0.576  1.00  0.00     0.131 C 
HETATM    2  C2  UNL     1       0.932  -0.973   0.248  1.00  0.00     0.056 C 
HETATM    3  C3  UNL     1      -0.183  -1.942   0.578  1.00  0.00    -0.032 C 
HETATM    4  C4  UNL     1      -1.469  -1.559   0.463  1.00  0.00    -0.048 C 
HETATM    5  C5  UNL     1      -1.789  -0.141   0.055  1.00  0.00     0.024 C 
HETATM    6  C6  UNL     1      -0.867   0.826   0.809  1.00  0.00     0.035 C 
HETATM    7  C7  UNL     1      -2.598  -2.514   0.752  1.00  0.00     0.026 C 
HETATM    8  O1  UNL     1       1.332   0.863   1.762  1.00  0.00    -0.226 OA
ENDROOT
BRANCH   1   9
HETATM    9  C8  UNL     1       1.221   1.432  -0.512  1.00  0.00     0.028 C 
HETATM   10  C9  UNL     1       2.713   1.199  -0.738  1.00  0.00     0.003 C 
HETATM   11  C10 UNL     1       0.412   1.393  -1.809  1.00  0.00     0.003 C 
ENDBRANCH   1   9
TORSDOF 1
