REMARK  1 active torsions:
REMARK  status: ('A' for Active; 'I' for Inactive)
REMARK    1  A    between atoms: C5_5  and  C8_8 
ROOT
HETATM    1  C1  UNL     1       0.242  -1.961  -0.402  1.00  0.00     0.131 C 
HETATM    2  C2  UNL     1       0.965  -0.836   0.395  1.00  0.00     0.031 C 
HETATM    3  C3  UNL     1       0.967   0.603  -0.150  1.00  0.00     0.037 C 
HETATM    4  C4  UNL     1      -0.363   1.135  -0.705  1.00  0.00     0.024 C 
HETATM    5  C5  UNL     1      -1.561   0.643   0.078  1.00  0.00    -0.049 C 
HETATM    6  C6  UNL     1      -1.945  -0.648   0.004  1.00  0.00    -0.032 C 
HETATM    7  C7  UNL     1      -1.197  -1.625  -0.877  1.00  0.00     0.056 C 
HETATM    8  C11 UNL     1       2.094   0.568  -1.182  1.00  0.00     0.152 C 
HETATM    9  C12 UNL     1       3.178  -0.301  -0.539  1.00  0.00     0.033 C 
HETATM   10  C13 UNL     1       2.473  -1.051   0.594  1.00  0.00     0.005 C 
HETATM   11  O1  UNL     1       2.576   1.871  -1.451  1.00  0.00    -0.224 OA
HETATM   12  C14 UNL     1       0.236  -3.192   0.516  1.00  0.00     0.033 C 
HETATM   13  O2  UNL     1       0.994  -2.336  -1.543  1.00  0.00    -0.226 OA
ENDROOT
BRANCH   5  14
HETATM   14  C8  UNL     1      -2.315   1.619   0.943  1.00  0.00     0.018 C 
HETATM   15  C9  UNL     1      -3.049   2.680   0.121  1.00  0.00     0.004 C 
HETATM   16  C10 UNL     1      -1.438   2.227   2.039  1.00  0.00     0.004 C 
ENDBRANCH   5  14
TORSDOF 1
