REMARK  6 active torsions:
REMARK  status: ('A' for Active; 'I' for Inactive)
REMARK    1  A    between atoms: C2_3  and  C26_31 
REMARK    2  A    between atoms: C9_10  and  C10_12 
REMARK    3  A    between atoms: C12_14  and  C21_24 
REMARK    4  A    between atoms: C21_24  and  C22_25 
REMARK    5  A    between atoms: C22_25  and  C23_26 
REMARK    6  A    between atoms: C26_31  and  C27_32 
ROOT
HETATM    1  C10 UNL     1       0.707   1.238  -0.781  1.00  0.00     0.005 A 
HETATM    2  C11 UNL     1       1.711   0.408  -1.336  1.00  0.00    -0.004 A 
HETATM    3  C12 UNL     1       2.699  -0.170  -0.504  1.00  0.00     0.003 A 
HETATM    4  C13 UNL     1       2.684   0.078   0.893  1.00  0.00     0.090 A 
HETATM    5  C14 UNL     1       1.678   0.914   1.441  1.00  0.00     0.021 A 
HETATM    6  C15 UNL     1       0.689   1.494   0.611  1.00  0.00     0.000 A 
HETATM    7  C16 UNL     1       1.690   1.178   2.898  1.00  0.00    -0.000 C 
HETATM    8  C17 UNL     1       2.555   0.514   3.688  1.00  0.00     0.001 C 
HETATM    9  C18 UNL     1       3.455  -0.566   3.113  1.00  0.00     0.117 C 
HETATM   10  O3  UNL     1       3.631  -0.467   1.688  1.00  0.00    -0.332 OA
HETATM   11  C19 UNL     1       2.820  -1.930   3.406  1.00  0.00     0.035 C 
HETATM   12  C20 UNL     1       4.842  -0.490   3.756  1.00  0.00     0.035 C 
ENDROOT
BRANCH   1  13
HETATM   13  C9  UNL     1      -0.316   1.836  -1.650  1.00  0.00     0.151 C 
HETATM   14  C8  UNL     1      -0.123   3.356  -1.830  1.00  0.00     0.104 C 
HETATM   15  C7  UNL     1      -1.275   3.975  -2.592  1.00  0.00     0.178 C 
HETATM   16  C4  UNL     1      -2.609   3.344  -2.385  1.00  0.00     0.057 A 
HETATM   17  O5  UNL     1      -1.031   4.928  -3.295  1.00  0.00    -0.291 OA
HETATM   18  C3  UNL     1      -2.713   2.156  -1.607  1.00  0.00     0.095 A 
HETATM   19  C5  UNL     1      -3.770   3.928  -2.951  1.00  0.00     0.007 A 
HETATM   20  C2  UNL     1      -3.988   1.596  -1.354  1.00  0.00     0.030 A 
HETATM   21  O2  UNL     1      -1.611   1.555  -1.105  1.00  0.00    -0.329 OA
HETATM   22  C1  UNL     1      -5.150   2.193  -1.906  1.00  0.00     0.129 A 
HETATM   23  O1  UNL     1      -6.359   1.664  -1.672  1.00  0.00    -0.190 OA
HETATM   24  C6  UNL     1      -5.037   3.350  -2.711  1.00  0.00     0.027 A 
BRANCH  20  25
HETATM   25  C26 UNL     1      -4.109   0.385  -0.521  1.00  0.00     0.056 C 
BRANCH  25  26
HETATM   26  C27 UNL     1      -4.643   0.695   0.852  1.00  0.00    -0.030 C 
HETATM   27  C28 UNL     1      -5.016  -0.328   1.639  1.00  0.00    -0.048 C 
HETATM   28  C29 UNL     1      -5.578  -0.018   3.000  1.00  0.00     0.026 C 
HETATM   29  C30 UNL     1      -4.852  -1.730   1.121  1.00  0.00     0.026 C 
ENDBRANCH  25  26
ENDBRANCH  20  25
ENDBRANCH   1  13
BRANCH   3  30
HETATM   30  C21 UNL     1       3.740  -1.027  -1.094  1.00  0.00     0.066 C 
BRANCH  30  31
HETATM   31  C22 UNL     1       3.250  -2.465  -1.275  1.00  0.00     0.175 C 
HETATM   32  O4  UNL     1       3.145  -3.061  -0.004  1.00  0.00    -0.219 OA
BRANCH  31  33
HETATM   33  C23 UNL     1       4.176  -3.281  -2.137  1.00  0.00    -0.014 C 
HETATM   34  C24 UNL     1       3.734  -4.524  -2.863  1.00  0.00     0.029 C 
HETATM   35  C25 UNL     1       5.451  -2.885  -2.264  1.00  0.00    -0.007 C 
ENDBRANCH  31  33
ENDBRANCH  30  31
ENDBRANCH   3  30
TORSDOF 6
