REMARK  8 active torsions:
REMARK  status: ('A' for Active; 'I' for Inactive)
REMARK    1  A    between atoms: C1_1  and  O11_36 
REMARK    2  A    between atoms: C2_2  and  O5_24 
REMARK    3  A    between atoms: C8_8  and  C19_22 
REMARK    4  A    between atoms: C9_9  and  C18_20 
REMARK    5  A    between atoms: C10_10  and  C11_11 
REMARK    6  A    between atoms: C15_15  and  O1_17 
REMARK    7  A    between atoms: O5_24  and  C20_25 
REMARK    8  A    between atoms: C24_32  and  C25_34 
ROOT
HETATM    1  C1  UNL     1       0.535  -2.336  -1.080  1.00  0.00     0.116 A 
HETATM    2  C2  UNL     1       1.041  -1.031  -1.260  1.00  0.00     0.119 A 
HETATM    3  C3  UNL     1       0.152   0.057  -1.408  1.00  0.00     0.022 A 
HETATM    4  C4  UNL     1      -1.256  -0.139  -1.369  1.00  0.00    -0.020 A 
HETATM    5  C5  UNL     1      -1.760  -1.467  -1.207  1.00  0.00    -0.024 A 
HETATM    6  C6  UNL     1      -0.859  -2.553  -1.057  1.00  0.00     0.022 A 
HETATM    7  C7  UNL     1      -3.217  -1.752  -1.188  1.00  0.00     0.029 C 
HETATM    8  C8  UNL     1      -4.072  -0.643  -1.818  1.00  0.00     0.041 C 
HETATM    9  C9  UNL     1      -3.670   0.717  -1.229  1.00  0.00     0.044 C 
HETATM   10  C10 UNL     1      -2.180   1.035  -1.518  1.00  0.00     0.047 C 
ENDROOT
BRANCH   2  11
HETATM   11  O5  UNL     1       2.363  -0.818  -1.291  1.00  0.00    -0.302 OA
BRANCH  11  12
HETATM   12  C20 UNL     1       3.115  -1.113  -0.117  1.00  0.00     0.274 C 
HETATM   13  C21 UNL     1       2.705  -0.176   1.043  1.00  0.00     0.241 C 
HETATM   14  O6  UNL     1       2.961   1.170   0.682  1.00  0.00    -0.215 OA
HETATM   15  C22 UNL     1       3.482  -0.529   2.338  1.00  0.00     0.220 C 
HETATM   16  O7  UNL     1       2.672  -1.357   3.152  1.00  0.00    -0.218 OA
HETATM   17  C23 UNL     1       4.797  -1.287   2.018  1.00  0.00     0.215 C 
HETATM   18  O8  UNL     1       5.729  -1.072   3.061  1.00  0.00    -0.218 OA
HETATM   19  C24 UNL     1       5.398  -0.809   0.676  1.00  0.00     0.184 C 
HETATM   20  O9  UNL     1       4.512  -1.055  -0.416  1.00  0.00    -0.326 OA
BRANCH  19  21
HETATM   21  C25 UNL     1       6.732  -1.475   0.320  1.00  0.00     0.214 C 
HETATM   22  O10 UNL     1       7.266  -0.814  -0.807  1.00  0.00    -0.218 OA
ENDBRANCH  19  21
ENDBRANCH  11  12
ENDBRANCH   2  11
BRANCH   1  23
HETATM   23  O11 UNL     1       1.375  -3.371  -0.934  1.00  0.00    -0.326 OA
HETATM   24  C26 UNL     1       0.812  -4.656  -0.707  1.00  0.00     0.181 C 
ENDBRANCH   1  23
BRANCH  10  25
HETATM   25  C11 UNL     1      -1.736   2.193  -0.680  1.00  0.00    -0.016 A 
HETATM   26  C12 UNL     1      -1.379   3.408  -1.291  1.00  0.00    -0.002 A 
HETATM   27  C13 UNL     1      -0.963   4.494  -0.502  1.00  0.00     0.029 A 
HETATM   28  C14 UNL     1      -0.902   4.371   0.896  1.00  0.00     0.153 A 
HETATM   29  C15 UNL     1      -1.262   3.154   1.510  1.00  0.00     0.119 A 
HETATM   30  O2  UNL     1      -0.512   5.395   1.631  1.00  0.00    -0.188 OA
HETATM   31  C16 UNL     1      -1.678   2.068   0.719  1.00  0.00     0.022 A 
BRANCH  29  32
HETATM   32  O1  UNL     1      -1.207   3.031   2.820  1.00  0.00    -0.326 OA
HETATM   33  C17 UNL     1      -1.633   1.801   3.393  1.00  0.00     0.181 C 
ENDBRANCH  29  32
ENDBRANCH  10  25
BRANCH   9  34
HETATM   34  C18 UNL     1      -4.588   1.840  -1.740  1.00  0.00     0.183 C 
HETATM   35  O3  UNL     1      -4.340   2.996  -0.973  1.00  0.00    -0.221 OA
ENDBRANCH   9  34
BRANCH   8  36
HETATM   36  C19 UNL     1      -5.567  -0.941  -1.621  1.00  0.00     0.183 C 
HETATM   37  O4  UNL     1      -6.250  -0.553  -2.791  1.00  0.00    -0.221 OA
ENDBRANCH   8  36
TORSDOF 8
