REMARK  1 active torsions:
REMARK  status: ('A' for Active; 'I' for Inactive)
REMARK    1  A    between atoms: C3_3  and  C8_10 
ROOT
HETATM    1  C1  UNL     1       1.336   1.664   0.074  1.00  0.00     0.172 A 
HETATM    2  C2  UNL     1       1.461   0.107   0.244  1.00  0.00     0.145 A 
HETATM    3  C3  UNL     1       0.213  -0.760   0.469  1.00  0.00     0.032 C 
HETATM    4  C4  UNL     1      -1.064  -0.049  -0.031  1.00  0.00     0.038 C 
HETATM    5  C5  UNL     1      -1.225   1.391   0.502  1.00  0.00     0.182 C 
HETATM    6  C6  UNL     1      -0.061   2.311   0.029  1.00  0.00     0.182 C 
HETATM    7  O1  UNL     1      -0.041   3.537   0.738  1.00  0.00    -0.221 OA
HETATM    8  C7  UNL     1      -0.225   2.680  -1.447  1.00  0.00     0.038 C 
HETATM    9  O2  UNL     1      -1.324   1.336   1.918  1.00  0.00    -0.221 OA
HETATM   10  O3  UNL     1       1.594   1.027   1.285  1.00  0.00    -0.352 OA
ENDROOT
BRANCH   3  11
HETATM   11  C8  UNL     1       0.441  -2.082  -0.269  1.00  0.00     0.003 C 
HETATM   12  C9  UNL     1       1.522  -2.943   0.385  1.00  0.00     0.000 C 
HETATM   13  C10 UNL     1      -0.857  -2.852  -0.516  1.00  0.00     0.000 C 
ENDBRANCH   3  11
TORSDOF 1
