REMARK  4 active torsions:
REMARK  status: ('A' for Active; 'I' for Inactive)
REMARK    1  A    between atoms: C5_5  and  C9_9 
REMARK    2  A    between atoms: C9_9  and  C10_10 
REMARK    3  A    between atoms: C10_10  and  C11_11 
REMARK    4  A    between atoms: C11_11  and  C12_13 
ROOT
HETATM    1  C1  UNL     1      -1.133  -2.682  -1.103  1.00  0.00     0.065 C 
HETATM    2  C2  UNL     1       0.113  -3.352  -0.566  1.00  0.00     0.151 C 
HETATM    3  C3  UNL     1       1.162  -2.447   0.037  1.00  0.00     0.065 C 
HETATM    4  C4  UNL     1       1.133  -1.047  -0.600  1.00  0.00     0.007 C 
HETATM    5  C5  UNL     1      -0.262  -0.365  -0.488  1.00  0.00     0.001 C 
HETATM    6  C6  UNL     1      -1.446  -1.369  -0.357  1.00  0.00     0.007 C 
HETATM    7  C7  UNL     1      -1.725  -1.703   1.117  1.00  0.00     0.000 C 
HETATM    8  C8  UNL     1      -2.717  -0.742  -0.941  1.00  0.00     0.000 C 
HETATM    9  C13 UNL     1       1.596  -1.127  -2.060  1.00  0.00     0.000 C 
HETATM   10  O3  UNL     1       0.262  -4.551  -0.617  1.00  0.00    -0.296 OA
ENDROOT
BRANCH   5  11
HETATM   11  C9  UNL     1      -0.279   0.693   0.627  1.00  0.00     0.003 C 
BRANCH  11  12
HETATM   12  C10 UNL     1       0.513   1.949   0.262  1.00  0.00     0.036 C 
BRANCH  12  13
HETATM   13  C11 UNL     1       0.572   2.963   1.404  1.00  0.00     0.185 C 
HETATM   14  O1  UNL     1      -0.719   3.494   1.590  1.00  0.00    -0.221 OA
BRANCH  13  15
HETATM   15  C12 UNL     1       1.529   4.121   1.115  1.00  0.00     0.215 C 
HETATM   16  O2  UNL     1       2.848   3.621   1.145  1.00  0.00    -0.218 OA
ENDBRANCH  13  15
ENDBRANCH  12  13
ENDBRANCH  11  12
ENDBRANCH   5  11
TORSDOF 4
