REMARK  4 active torsions:
REMARK  status: ('A' for Active; 'I' for Inactive)
REMARK    1  A    between atoms: C3_3  and  O6_23 
REMARK    2  A    between atoms: C8_9  and  C10_12 
REMARK    3  A    between atoms: C12_14  and  O5_21 
REMARK    4  A    between atoms: C13_15  and  O4_19 
ROOT
HETATM    1  C1  UNL     1      -4.828   2.352  -0.133  1.00  0.00     0.135 A 
HETATM    2  C2  UNL     1      -4.918   0.941  -0.186  1.00  0.00     0.052 A 
HETATM    3  C3  UNL     1      -3.748   0.150  -0.104  1.00  0.00     0.101 A 
HETATM    4  C4  UNL     1      -2.481   0.775   0.033  1.00  0.00     0.080 A 
HETATM    5  C5  UNL     1      -2.389   2.195   0.049  1.00  0.00     0.101 A 
HETATM    6  C6  UNL     1      -3.567   2.977  -0.014  1.00  0.00     0.052 A 
HETATM    7  O1  UNL     1      -1.195   2.818   0.123  1.00  0.00    -0.330 OA
HETATM    8  C7  UNL     1       0.000   2.125  -0.240  1.00  0.00     0.161 C 
HETATM    9  C8  UNL     1       0.051   0.731   0.416  1.00  0.00     0.115 C 
HETATM   10  C9  UNL     1      -1.240  -0.045   0.174  1.00  0.00     0.183 C 
HETATM   11  O2  UNL     1      -1.180  -1.254   0.123  1.00  0.00    -0.291 OA
HETATM   12  O7  UNL     1      -5.942   3.098  -0.199  1.00  0.00    -0.190 OA
ENDROOT
BRANCH   9  13
HETATM   13  C10 UNL     1       1.271  -0.006  -0.027  1.00  0.00    -0.009 A 
HETATM   14  C11 UNL     1       2.287  -0.305   0.896  1.00  0.00     0.023 A 
HETATM   15  C12 UNL     1       3.437  -0.998   0.482  1.00  0.00     0.118 A 
HETATM   16  C13 UNL     1       3.574  -1.391  -0.863  1.00  0.00     0.141 A 
HETATM   17  C14 UNL     1       2.559  -1.092  -1.789  1.00  0.00     0.155 A 
HETATM   18  C15 UNL     1       1.408  -0.398  -1.369  1.00  0.00     0.026 A 
HETATM   19  O3  UNL     1       2.680  -1.457  -3.051  1.00  0.00    -0.188 OA
BRANCH  15  20
HETATM   20  O5  UNL     1       4.387  -1.275   1.354  1.00  0.00    -0.326 OA
HETATM   21  C17 UNL     1       4.252  -0.768   2.672  1.00  0.00     0.181 C 
ENDBRANCH  15  20
BRANCH  16  22
HETATM   22  O4  UNL     1       4.652  -2.041  -1.254  1.00  0.00    -0.324 OA
HETATM   23  C16 UNL     1       5.650  -2.320  -0.283  1.00  0.00     0.182 C 
ENDBRANCH  16  22
ENDBRANCH   9  13
BRANCH   3  24
HETATM   24  O6  UNL     1      -3.860  -1.186  -0.146  1.00  0.00    -0.328 OA
HETATM   25  C18 UNL     1      -5.147  -1.740  -0.365  1.00  0.00     0.181 C 
ENDBRANCH   3  24
TORSDOF 4
