REMARK  9 active torsions:
REMARK  status: ('A' for Active; 'I' for Inactive)
REMARK    1  A    between atoms: C3_3  and  O6_22 
REMARK    2  A    between atoms: C4_4  and  C7_8 
REMARK    3  A    between atoms: C7_8  and  O2_9 
REMARK    4  A    between atoms: O2_9  and  C8_10 
REMARK    5  A    between atoms: C8_10  and  C9_11 
REMARK    6  A    between atoms: C10_12  and  O4_19 
REMARK    7  A    between atoms: C14_16  and  O3_17 
REMARK    8  A    between atoms: O6_22  and  C17_23 
REMARK    9  A    between atoms: C21_30  and  C22_32 
ROOT
HETATM    1  C1  UNL     1      -2.859  -0.789  -3.454  1.00  0.00     0.004 A 
HETATM    2  C2  UNL     1      -2.053  -1.611  -2.649  1.00  0.00     0.024 A 
HETATM    3  C3  UNL     1      -1.717  -1.213  -1.344  1.00  0.00     0.097 A 
HETATM    4  C4  UNL     1      -2.192   0.015  -0.844  1.00  0.00     0.056 A 
HETATM    5  C5  UNL     1      -3.001   0.841  -1.649  1.00  0.00     0.131 A 
HETATM    6  C6  UNL     1      -3.332   0.435  -2.953  1.00  0.00     0.027 A 
HETATM    7  O1  UNL     1      -3.450   1.993  -1.190  1.00  0.00    -0.190 OA
ENDROOT
BRANCH   4   8
HETATM    8  C7  UNL     1      -1.840   0.441   0.538  1.00  0.00     0.183 C 
BRANCH   8   9
HETATM    9  O2  UNL     1      -1.006   1.589   0.482  1.00  0.00    -0.293 OA
BRANCH   9  10
HETATM   10  C8  UNL     1      -0.655   2.020   1.690  1.00  0.00     0.300 C 
HETATM   11  O5  UNL     1      -1.007   1.495   2.720  1.00  0.00    -0.259 OA
BRANCH  10  12
HETATM   12  C9  UNL     1       0.226   3.229   1.704  1.00  0.00     0.108 A 
HETATM   13  C10 UNL     1       0.648   3.807   0.489  1.00  0.00     0.101 A 
HETATM   14  C11 UNL     1       1.476   4.943   0.508  1.00  0.00     0.025 A 
HETATM   15  C12 UNL     1       1.883   5.501   1.731  1.00  0.00     0.004 A 
HETATM   16  C13 UNL     1       1.462   4.924   2.940  1.00  0.00     0.025 A 
HETATM   17  C14 UNL     1       0.634   3.788   2.932  1.00  0.00     0.101 A 
BRANCH  13  18
HETATM   18  O4  UNL     1       0.274   3.294  -0.666  1.00  0.00    -0.328 OA
HETATM   19  C16 UNL     1       0.621   3.995  -1.851  1.00  0.00     0.181 C 
ENDBRANCH  13  18
BRANCH  17  20
HETATM   20  O3  UNL     1       0.247   3.257   4.075  1.00  0.00    -0.328 OA
HETATM   21  C15 UNL     1       0.692   3.867   5.278  1.00  0.00     0.181 C 
ENDBRANCH  17  20
ENDBRANCH  10  12
ENDBRANCH   9  10
ENDBRANCH   8   9
ENDBRANCH   4   8
BRANCH   3  22
HETATM   22  O6  UNL     1      -0.960  -1.993  -0.597  1.00  0.00    -0.304 OA
BRANCH  22  23
HETATM   23  C17 UNL     1      -0.954  -3.388  -0.881  1.00  0.00     0.274 C 
HETATM   24  C18 UNL     1      -0.687  -4.208   0.400  1.00  0.00     0.241 C 
HETATM   25  O7  UNL     1      -1.643  -3.851   1.383  1.00  0.00    -0.215 OA
HETATM   26  C19 UNL     1       0.744  -3.976   0.929  1.00  0.00     0.220 C 
HETATM   27  O8  UNL     1       1.016  -4.877   1.991  1.00  0.00    -0.218 OA
HETATM   28  C20 UNL     1       1.757  -4.195  -0.217  1.00  0.00     0.215 C 
HETATM   29  O9  UNL     1       3.051  -3.800   0.203  1.00  0.00    -0.218 OA
HETATM   30  C21 UNL     1       1.376  -3.382  -1.476  1.00  0.00     0.184 C 
HETATM   31  O10 UNL     1       0.038  -3.686  -1.856  1.00  0.00    -0.326 OA
BRANCH  30  32
HETATM   32  C22 UNL     1       2.262  -3.708  -2.683  1.00  0.00     0.214 C 
HETATM   33  O11 UNL     1       1.949  -2.803  -3.717  1.00  0.00    -0.218 OA
ENDBRANCH  30  32
ENDBRANCH  22  23
ENDBRANCH   3  22
TORSDOF 9
