REMARK  4 active torsions:
REMARK  status: ('A' for Active; 'I' for Inactive)
REMARK    1  A    between atoms: C1_1  and  C2_2 
REMARK    2  A    between atoms: C1_1  and  C9_10 
REMARK    3  A    between atoms: C2_2  and  C3_4 
REMARK    4  A    between atoms: C9_10  and  C10_11 
ROOT
HETATM    1  C1  UNL     1      -0.201   0.326  -0.035  1.00  0.00     0.074 C 
ENDROOT
BRANCH   1   2
HETATM    2  C2  UNL     1      -1.705   0.313  -0.029  1.00  0.00     0.173 C 
HETATM    3  O1  UNL     1      -2.338   1.342  -0.023  1.00  0.00    -0.291 OA
BRANCH   2   4
HETATM    4  C3  UNL     1      -2.404  -1.008  -0.029  1.00  0.00     0.035 A 
HETATM    5  C4  UNL     1      -3.811  -1.061  -0.029  1.00  0.00     0.003 A 
HETATM    6  C5  UNL     1      -4.469  -2.303  -0.029  1.00  0.00     0.000 A 
HETATM    7  C6  UNL     1      -3.723  -3.494  -0.029  1.00  0.00     0.000 A 
HETATM    8  C7  UNL     1      -2.318  -3.443  -0.029  1.00  0.00     0.000 A 
HETATM    9  C8  UNL     1      -1.658  -2.201  -0.029  1.00  0.00     0.003 A 
ENDBRANCH   2   4
ENDBRANCH   1   2
BRANCH   1  10
HETATM   10  C9  UNL     1       0.369   1.744   0.024  1.00  0.00     0.035 C 
BRANCH  10  11
HETATM   11  C10 UNL     1       1.855   1.738   0.028  1.00  0.00    -0.022 A 
HETATM   12  C11 UNL     1       2.557   1.709   1.246  1.00  0.00    -0.004 A 
HETATM   13  C12 UNL     1       3.961   1.703   1.250  1.00  0.00    -0.000 A 
HETATM   14  C13 UNL     1       4.668   1.725   0.035  1.00  0.00    -0.000 A 
HETATM   15  C14 UNL     1       3.969   1.754  -1.183  1.00  0.00    -0.000 A 
HETATM   16  C15 UNL     1       2.562   1.760  -1.187  1.00  0.00    -0.004 A 
ENDBRANCH  10  11
ENDBRANCH   1  10
TORSDOF 4
