REMARK  7 active torsions:
REMARK  status: ('A' for Active; 'I' for Inactive)
REMARK    1  A    between atoms: C2_2  and  C3_3 
REMARK    2  A    between atoms: C3_3  and  C4_4 
REMARK    3  A    between atoms: C4_4  and  C5_5 
REMARK    4  A    between atoms: C5_5  and  C6_6 
REMARK    5  A    between atoms: C7_7  and  C8_8 
REMARK    6  A    between atoms: C8_8  and  C9_9 
REMARK    7  A    between atoms: C9_9  and  C10_10 
ROOT
HETATM    1  C6  UNL     1      -0.553   0.185  -1.143  1.00  0.00    -0.034 C 
HETATM    2  C7  UNL     1      -0.385  -1.147  -1.201  1.00  0.00    -0.048 C 
HETATM    3  C14 UNL     1      -1.397  -2.029  -0.518  1.00  0.00     0.026 C 
ENDROOT
BRANCH   2   4
HETATM    4  C8  UNL     1       0.805  -1.688  -1.947  1.00  0.00     0.026 C 
BRANCH   4   5
HETATM    5  C9  UNL     1       1.697  -2.563  -1.066  1.00  0.00     0.029 C 
BRANCH   5   6
HETATM    6  C10 UNL     1       2.193  -1.834   0.152  1.00  0.00    -0.034 C 
HETATM    7  C11 UNL     1       3.389  -1.227   0.094  1.00  0.00    -0.048 C 
HETATM    8  C12 UNL     1       3.900  -0.525   1.322  1.00  0.00     0.026 C 
HETATM    9  C13 UNL     1       4.158  -1.277  -1.199  1.00  0.00     0.026 C 
ENDBRANCH   5   6
ENDBRANCH   4   5
ENDBRANCH   2   4
BRANCH   1  10
HETATM   10  C5  UNL     1      -1.744   0.726  -0.396  1.00  0.00     0.030 C 
BRANCH  10  11
HETATM   11  C4  UNL     1      -1.576   2.199  -0.020  1.00  0.00     0.031 C 
BRANCH  11  12
HETATM   12  C3  UNL     1      -2.713   2.709   0.824  1.00  0.00    -0.022 C 
HETATM   13  C15 UNL     1      -3.850   3.080   0.211  1.00  0.00    -0.004 C 
BRANCH  12  14
HETATM   14  C2  UNL     1      -2.586   2.801   2.283  1.00  0.00    -0.004 C 
HETATM   15  C1  UNL     1      -3.623   2.502   3.080  1.00  0.00    -0.000 C 
ENDBRANCH  12  14
ENDBRANCH  11  12
ENDBRANCH  10  11
ENDBRANCH   1  10
TORSDOF 7
