REMARK  4 active torsions:
REMARK  status: ('A' for Active; 'I' for Inactive)
REMARK    1  A    between atoms: C2_2  and  O5_19 
REMARK    2  A    between atoms: C5_5  and  C7_7 
REMARK    3  A    between atoms: C8_8  and  C9_9 
REMARK    4  A    between atoms: C12_13  and  O2_15 
ROOT
HETATM    1  C7  UNL     1      -0.852   0.783  -0.386  1.00  0.00     0.002 C 
HETATM    2  C8  UNL     1       0.383   0.858   0.137  1.00  0.00     0.025 C 
ENDROOT
BRANCH   1   3
HETATM    3  C5  UNL     1      -1.551  -0.537  -0.386  1.00  0.00     0.002 A 
HETATM    4  C4  UNL     1      -2.955  -0.592  -0.386  1.00  0.00     0.029 A 
HETATM    5  C3  UNL     1      -3.617  -1.832  -0.386  1.00  0.00     0.153 A 
HETATM    6  C2  UNL     1      -2.869  -3.025  -0.386  1.00  0.00     0.119 A 
HETATM    7  O4  UNL     1      -4.934  -1.875  -0.386  1.00  0.00    -0.188 OA
HETATM    8  C1  UNL     1      -1.465  -2.971  -0.386  1.00  0.00     0.026 A 
HETATM    9  C6  UNL     1      -0.805  -1.730  -0.386  1.00  0.00     0.002 A 
BRANCH   6  10
HETATM   10  O5  UNL     1      -3.480  -4.193  -0.386  1.00  0.00    -0.326 OA
HETATM   11  C15 UNL     1      -2.680  -5.365  -0.386  1.00  0.00     0.181 C 
ENDBRANCH   6  10
ENDBRANCH   1   3
BRANCH   2  12
HETATM   12  C9  UNL     1       1.109   2.135   0.159  1.00  0.00     0.105 A 
HETATM   13  O1  UNL     1       0.484   3.219  -0.365  1.00  0.00    -0.273 OA
HETATM   14  C10 UNL     1       1.145   4.401  -0.353  1.00  0.00     0.302 A 
HETATM   15  C11 UNL     1       2.504   4.522   0.215  1.00  0.00     0.093 A 
HETATM   16  O3  UNL     1       0.645   5.405  -0.806  1.00  0.00    -0.259 OA
HETATM   17  C12 UNL     1       3.100   3.436   0.729  1.00  0.00     0.101 A 
HETATM   18  C13 UNL     1       2.352   2.176   0.694  1.00  0.00     0.049 A 
BRANCH  17  19
HETATM   19  O2  UNL     1       4.322   3.498   1.252  1.00  0.00    -0.328 OA
HETATM   20  C14 UNL     1       5.070   2.311   1.034  1.00  0.00     0.181 C 
ENDBRANCH  17  19
ENDBRANCH   2  12
TORSDOF 4
