REMARK  13 active torsions:
REMARK  status: ('A' for Active; 'I' for Inactive)
REMARK    1  A    between atoms: C2_2  and  O9_43 
REMARK    2  A    between atoms: C18_20  and  C21_23 
REMARK    3  A    between atoms: C21_23  and  C22_24 
REMARK    4  A    between atoms: C22_24  and  C23_25 
REMARK    5  A    between atoms: C23_25  and  C24_26 
REMARK    6  A    between atoms: C24_26  and  O3_27 
REMARK    7  A    between atoms: O3_27  and  C25_28 
REMARK    8  A    between atoms: C25_28  and  C26_29 
REMARK    9  A    between atoms: C30_36  and  C31_38 
REMARK   10  A    between atoms: O9_43  and  C35_44 
REMARK   11  A    between atoms: C39_51  and  C40_53 
REMARK   12  A    between atoms: C40_53  and  O14_54 
REMARK   13  A    between atoms: O14_54  and  C41_55 
ROOT
HETATM    1  C1  UNL     1       5.111  -0.678  -3.510  1.00  0.00     0.030 C 
HETATM    2  C2  UNL     1       5.541  -0.004  -2.197  1.00  0.00     0.118 C 
HETATM    3  C3  UNL     1       4.727  -0.527  -1.004  1.00  0.00     0.037 C 
HETATM    4  C4  UNL     1       3.217  -0.355  -1.258  1.00  0.00     0.060 C 
HETATM    5  C5  UNL     1       2.752  -1.068  -2.559  1.00  0.00     0.007 C 
HETATM    6  C6  UNL     1       3.598  -0.541  -3.744  1.00  0.00     0.003 C 
HETATM    7  C7  UNL     1       1.234  -0.785  -2.777  1.00  0.00     0.001 C 
HETATM    8  C8  UNL     1       0.400  -1.240  -1.553  1.00  0.00     0.007 C 
HETATM    9  C9  UNL     1       0.885  -0.586  -0.248  1.00  0.00     0.065 C 
HETATM   10  C10 UNL     1       2.369  -0.773  -0.074  1.00  0.00     0.150 C 
HETATM   11  O1  UNL     1       2.840  -1.230   0.941  1.00  0.00    -0.296 OA
HETATM   12  C11 UNL     1      -1.111  -1.008  -1.734  1.00  0.00     0.003 C 
HETATM   13  C12 UNL     1      -1.656  -1.586  -3.053  1.00  0.00     0.006 C 
HETATM   14  C13 UNL     1      -0.822  -1.107  -4.256  1.00  0.00     0.000 C 
HETATM   15  C14 UNL     1       0.670  -1.412  -4.068  1.00  0.00     0.000 C 
HETATM   16  C15 UNL     1      -3.066  -0.965  -3.143  1.00  0.00     0.048 A 
HETATM   17  C16 UNL     1      -2.984   0.354  -2.350  1.00  0.00     0.125 A 
HETATM   18  C17 UNL     1      -1.566   0.449  -1.791  1.00  0.00     0.030 C 
HETATM   19  O2  UNL     1      -3.928   0.264  -1.272  1.00  0.00    -0.338 OA
HETATM   20  C18 UNL     1      -4.570  -0.900  -1.350  1.00  0.00     0.064 A 
HETATM   21  C19 UNL     1      -4.158  -1.652  -2.375  1.00  0.00    -0.024 A 
HETATM   22  C20 UNL     1      -4.707  -3.008  -2.744  1.00  0.00     0.028 C 
HETATM   23  C33 UNL     1      -1.682  -3.113  -2.981  1.00  0.00     0.000 C 
HETATM   24  C34 UNL     1       2.981  -2.584  -2.430  1.00  0.00     0.000 C 
ENDROOT
BRANCH   2  25
HETATM   25  O9  UNL     1       6.916  -0.248  -1.973  1.00  0.00    -0.332 OA
BRANCH  25  26
HETATM   26  C35 UNL     1       7.502   0.660  -1.065  1.00  0.00     0.270 C 
HETATM   27  C36 UNL     1       8.906   0.170  -0.633  1.00  0.00     0.241 C 
HETATM   28  O10 UNL     1       8.777  -1.037   0.103  1.00  0.00    -0.215 OA
HETATM   29  C37 UNL     1       9.623   1.227   0.236  1.00  0.00     0.220 C 
HETATM   30  O11 UNL     1      10.973   0.842   0.447  1.00  0.00    -0.218 OA
HETATM   31  C38 UNL     1       9.574   2.604  -0.461  1.00  0.00     0.215 C 
HETATM   32  O12 UNL     1      10.053   3.606   0.418  1.00  0.00    -0.218 OA
HETATM   33  C39 UNL     1       8.133   2.967  -0.889  1.00  0.00     0.180 C 
HETATM   34  O13 UNL     1       7.608   1.926  -1.701  1.00  0.00    -0.326 OA
BRANCH  33  35
HETATM   35  C40 UNL     1       8.063   4.252  -1.721  1.00  0.00     0.177 C 
BRANCH  35  36
HETATM   36  O14 UNL     1       6.705   4.578  -1.914  1.00  0.00    -0.326 OA
BRANCH  36  37
HETATM   37  C41 UNL     1       6.520   5.787  -2.625  1.00  0.00     0.270 C 
HETATM   38  C42 UNL     1       5.025   6.209  -2.594  1.00  0.00     0.241 C 
HETATM   39  O15 UNL     1       4.654   6.522  -1.260  1.00  0.00    -0.215 OA
HETATM   40  C43 UNL     1       4.787   7.443  -3.494  1.00  0.00     0.220 C 
HETATM   41  O16 UNL     1       3.408   7.766  -3.572  1.00  0.00    -0.218 OA
HETATM   42  C44 UNL     1       5.381   7.217  -4.904  1.00  0.00     0.215 C 
HETATM   43  O17 UNL     1       4.635   6.250  -5.629  1.00  0.00    -0.218 OA
HETATM   44  C45 UNL     1       6.846   6.738  -4.803  1.00  0.00     0.181 C 
HETATM   45  O18 UNL     1       6.947   5.592  -3.967  1.00  0.00    -0.326 OA
ENDBRANCH  36  37
ENDBRANCH  35  36
ENDBRANCH  33  35
ENDBRANCH  25  26
ENDBRANCH   2  25
BRANCH  20  46
HETATM   46  C21 UNL     1      -5.649  -1.338  -0.393  1.00  0.00     0.050 C 
BRANCH  46  47
HETATM   47  C22 UNL     1      -5.340  -0.945   1.053  1.00  0.00     0.009 C 
BRANCH  47  48
HETATM   48  C23 UNL     1      -6.356  -1.508   2.047  1.00  0.00     0.030 C 
HETATM   49  C32 UNL     1      -7.756  -0.928   1.852  1.00  0.00     0.003 C 
BRANCH  48  50
HETATM   50  C24 UNL     1      -5.875  -1.420   3.494  1.00  0.00     0.142 C 
BRANCH  50  51
HETATM   51  O3  UNL     1      -6.693  -2.254   4.283  1.00  0.00    -0.352 OA
BRANCH  51  52
HETATM   52  C25 UNL     1      -6.338  -2.250   5.647  1.00  0.00     0.174 C 
BRANCH  52  53
HETATM   53  C26 UNL     1      -7.293  -3.189   6.393  1.00  0.00     0.178 C 
HETATM   54  C27 UNL     1      -6.891  -3.406   7.869  1.00  0.00     0.214 C 
HETATM   55  O4  UNL     1      -5.649  -4.086   7.904  1.00  0.00    -0.218 OA
HETATM   56  C28 UNL     1      -7.957  -4.223   8.629  1.00  0.00     0.217 C 
HETATM   57  O5  UNL     1      -7.654  -4.238  10.016  1.00  0.00    -0.218 OA
HETATM   58  C29 UNL     1      -9.350  -3.594   8.406  1.00  0.00     0.214 C 
HETATM   59  O6  UNL     1     -10.352  -4.445   8.932  1.00  0.00    -0.218 OA
HETATM   60  C30 UNL     1      -9.631  -3.369   6.902  1.00  0.00     0.181 C 
HETATM   61  O7  UNL     1      -8.584  -2.594   6.336  1.00  0.00    -0.348 OA
BRANCH  60  62
HETATM   62  C31 UNL     1     -10.936  -2.605   6.648  1.00  0.00     0.214 C 
HETATM   63  O8  UNL     1     -11.180  -2.602   5.260  1.00  0.00    -0.218 OA
ENDBRANCH  60  62
ENDBRANCH  52  53
ENDBRANCH  51  52
ENDBRANCH  50  51
ENDBRANCH  48  50
ENDBRANCH  47  48
ENDBRANCH  46  47
ENDBRANCH  20  46
TORSDOF 13
