REMARK  0 active torsions:
REMARK  status: ('A' for Active; 'I' for Inactive)
ROOT
HETATM    1  C1  UNL     1       3.369   0.578   0.324  1.00  0.00    -0.020 A 
HETATM    2  C2  UNL     1       2.178   1.309   0.125  1.00  0.00    -0.001 A 
HETATM    3  C3  UNL     1       0.922   0.649   0.051  1.00  0.00     0.044 A 
HETATM    4  C4  UNL     1       0.865  -0.771   0.182  1.00  0.00     0.067 A 
HETATM    5  C5  UNL     1       2.076  -1.498   0.385  1.00  0.00     0.134 A 
HETATM    6  C6  UNL     1       3.316  -0.824   0.453  1.00  0.00     0.023 A 
HETATM    7  O1  UNL     1       2.070  -2.834   0.514  1.00  0.00    -0.190 OA
HETATM    8  C7  UNL     1      -0.438  -1.516   0.109  1.00  0.00     0.200 A 
HETATM    9  C8  UNL     1      -1.670  -0.691  -0.117  1.00  0.00     0.068 A 
HETATM   10  C9  UNL     1      -1.605   0.729  -0.246  1.00  0.00     0.046 A 
HETATM   11  C10 UNL     1      -0.309   1.471  -0.162  1.00  0.00     0.196 A 
HETATM   12  O2  UNL     1      -0.258   2.678  -0.264  1.00  0.00    -0.287 OA
HETATM   13  C11 UNL     1      -2.799   1.469  -0.459  1.00  0.00     0.031 A 
HETATM   14  C12 UNL     1      -4.047   0.815  -0.549  1.00  0.00     0.133 A 
HETATM   15  C13 UNL     1      -4.113  -0.588  -0.424  1.00  0.00     0.055 A 
HETATM   16  C14 UNL     1      -2.938  -1.338  -0.209  1.00  0.00     0.136 A 
HETATM   17  O3  UNL     1      -3.047  -2.670  -0.096  1.00  0.00    -0.190 OA
HETATM   18  O4  UNL     1      -5.164   1.525  -0.754  1.00  0.00    -0.190 OA
HETATM   19  O5  UNL     1      -0.490  -2.719   0.229  1.00  0.00    -0.286 OA
HETATM   20  C15 UNL     1       4.660   1.277   0.395  1.00  0.00     0.031 C 
ENDROOT
TORSDOF 0
