REMARK  6 active torsions:
REMARK  status: ('A' for Active; 'I' for Inactive)
REMARK    1  A    between atoms: C15_15  and  C18_18 
REMARK    2  A    between atoms: C18_18  and  C20_20 
REMARK    3  A    between atoms: C20_20  and  C21_21 
REMARK    4  A    between atoms: C21_21  and  C22_22 
REMARK    5  A    between atoms: C22_22  and  C23_23 
REMARK    6  A    between atoms: C23_23  and  C25_26 
ROOT
HETATM    1  C1  UNL     1       6.588  -1.094  -0.061  1.00  0.00     0.065 C 
HETATM    2  C2  UNL     1       6.889  -0.270  -1.285  1.00  0.00     0.150 C 
HETATM    3  C3  UNL     1       6.027  -0.539  -2.502  1.00  0.00     0.052 C 
HETATM    4  C4  UNL     1       4.526  -0.486  -2.106  1.00  0.00     0.015 C 
HETATM    5  C5  UNL     1       4.182  -1.398  -0.897  1.00  0.00     0.023 C 
HETATM    6  C6  UNL     1       5.098  -1.047   0.301  1.00  0.00     0.012 C 
HETATM    7  C7  UNL     1       2.686  -1.348  -0.582  1.00  0.00    -0.031 C 
HETATM    8  C8  UNL     1       1.729  -1.049  -1.688  1.00  0.00    -0.031 C 
HETATM    9  C9  UNL     1       2.143  -0.779  -2.941  1.00  0.00    -0.031 C 
HETATM   10  C10 UNL     1       3.606  -0.795  -3.307  1.00  0.00     0.026 C 
HETATM   11  C11 UNL     1       0.246  -1.068  -1.361  1.00  0.00     0.019 C 
HETATM   12  C12 UNL     1       0.006  -0.537   0.062  1.00  0.00     0.007 C 
HETATM   13  C13 UNL     1       0.750  -1.469   1.025  1.00  0.00     0.026 C 
HETATM   14  C14 UNL     1       2.225  -1.566   0.676  1.00  0.00    -0.031 C 
HETATM   15  C15 UNL     1      -1.525  -0.537   0.141  1.00  0.00     0.001 C 
HETATM   16  C16 UNL     1      -1.934  -0.006  -1.242  1.00  0.00     0.000 C 
HETATM   17  C17 UNL     1      -0.707  -0.160  -2.152  1.00  0.00     0.004 C 
HETATM   18  C26 UNL     1       0.516   0.906   0.219  1.00  0.00     0.001 C 
HETATM   19  C27 UNL     1      -0.258  -2.504  -1.563  1.00  0.00     0.004 C 
HETATM   20  C28 UNL     1       6.406  -1.922  -3.045  1.00  0.00     0.007 C 
HETATM   21  C29 UNL     1       6.324   0.506  -3.586  1.00  0.00     0.007 C 
HETATM   22  O4  UNL     1       7.772   0.561  -1.279  1.00  0.00    -0.296 OA
ENDROOT
BRANCH  15  23
HETATM   23  C18 UNL     1      -2.102   0.287   1.289  1.00  0.00     0.000 C 
HETATM   24  C19 UNL     1      -1.600  -0.273   2.619  1.00  0.00     0.000 C 
BRANCH  23  25
HETATM   25  C20 UNL     1      -3.627   0.301   1.193  1.00  0.00     0.003 C 
BRANCH  25  26
HETATM   26  C21 UNL     1      -4.262   1.416   2.023  1.00  0.00     0.036 C 
BRANCH  26  27
HETATM   27  C22 UNL     1      -5.789   1.354   2.027  1.00  0.00     0.182 C 
HETATM   28  O3  UNL     1      -6.240   1.498   0.701  1.00  0.00    -0.221 OA
BRANCH  27  29
HETATM   29  C23 UNL     1      -6.422   2.461   2.871  1.00  0.00     0.185 C 
HETATM   30  O1  UNL     1      -6.315   3.672   2.160  1.00  0.00    -0.221 OA
HETATM   31  C24 UNL     1      -5.617   2.775   4.133  1.00  0.00     0.038 C 
BRANCH  29  32
HETATM   32  C25 UNL     1      -7.902   2.207   3.164  1.00  0.00     0.215 C 
HETATM   33  O2  UNL     1      -8.602   2.219   1.939  1.00  0.00    -0.218 OA
ENDBRANCH  29  32
ENDBRANCH  27  29
ENDBRANCH  26  27
ENDBRANCH  25  26
ENDBRANCH  23  25
ENDBRANCH  15  23
TORSDOF 6
