REMARK  0 active torsions:
REMARK  status: ('A' for Active; 'I' for Inactive)
ROOT
HETATM    1  C1  UNL     1      -2.373  -0.095  -0.147  1.00  0.00     0.031 A 
HETATM    2  C2  UNL     1      -1.906   1.420  -0.088  1.00  0.00     0.031 A 
HETATM    3  C3  UNL     1      -0.383   1.352   0.002  1.00  0.00    -0.022 A 
HETATM    4  C4  UNL     1       0.647   2.325   0.080  1.00  0.00    -0.004 A 
HETATM    5  C5  UNL     1       2.008   1.936   0.148  1.00  0.00    -0.000 A 
HETATM    6  C6  UNL     1       2.354   0.563   0.142  1.00  0.00    -0.000 A 
HETATM    7  C7  UNL     1       1.328  -0.410   0.068  1.00  0.00    -0.001 A 
HETATM    8  C8  UNL     1       1.629  -1.795   0.066  1.00  0.00    -0.000 A 
HETATM    9  C9  UNL     1       0.572  -2.734  -0.006  1.00  0.00    -0.000 A 
HETATM   10  C10 UNL     1      -0.771  -2.287  -0.078  1.00  0.00    -0.004 A 
HETATM   11  C11 UNL     1      -1.074  -0.902  -0.078  1.00  0.00    -0.022 A 
HETATM   12  C12 UNL     1      -0.035   0.010  -0.002  1.00  0.00    -0.008 A 
ENDROOT
TORSDOF 0
