REMARK  4 active torsions:
REMARK  status: ('A' for Active; 'I' for Inactive)
REMARK    1  A    between atoms: C1_1  and  C2_2 
REMARK    2  A    between atoms: C1_1  and  C11_15 
REMARK    3  A    between atoms: C3_3  and  C4_4 
REMARK    4  A    between atoms: C5_5  and  O3_12 
ROOT
HETATM    1  C2  UNL     1       0.840  -0.697  -1.586  1.00  0.00     0.042 C 
HETATM    2  C3  UNL     1       0.717  -1.629  -0.627  1.00  0.00     0.005 C 
ENDROOT
BRANCH   2   3
HETATM    3  C4  UNL     1      -0.256  -1.394   0.482  1.00  0.00     0.025 A 
HETATM    4  C5  UNL     1      -1.228  -2.367   0.795  1.00  0.00     0.121 A 
HETATM    5  C6  UNL     1      -2.139  -2.133   1.843  1.00  0.00     0.178 A 
HETATM    6  C7  UNL     1      -2.082  -0.933   2.574  1.00  0.00     0.158 A 
HETATM    7  O2  UNL     1      -3.049  -3.041   2.138  1.00  0.00    -0.186 OA
HETATM    8  C8  UNL     1      -1.111   0.033   2.258  1.00  0.00     0.030 A 
HETATM    9  O1  UNL     1      -2.934  -0.711   3.556  1.00  0.00    -0.188 OA
HETATM   10  C9  UNL     1      -0.201  -0.197   1.215  1.00  0.00     0.004 A 
BRANCH   4  11
HETATM   11  O3  UNL     1      -1.287  -3.494   0.113  1.00  0.00    -0.326 OA
HETATM   12  C10 UNL     1      -0.607  -4.627   0.634  1.00  0.00     0.181 C 
ENDBRANCH   4  11
ENDBRANCH   2   3
BRANCH   1  13
HETATM   13  C1  UNL     1       0.031   0.530  -1.545  1.00  0.00     0.196 C 
HETATM   14  O4  UNL     1      -1.176   0.465  -1.512  1.00  0.00    -0.287 OA
BRANCH  13  15
HETATM   15  C11 UNL     1       0.731   1.848  -1.545  1.00  0.00     0.039 A 
HETATM   16  C12 UNL     1      -0.016   3.039  -1.545  1.00  0.00     0.005 A 
HETATM   17  C13 UNL     1       0.645   4.282  -1.545  1.00  0.00     0.028 A 
HETATM   18  C14 UNL     1       2.049   4.336  -1.545  1.00  0.00     0.131 A 
HETATM   19  C15 UNL     1       2.793   3.143  -1.545  1.00  0.00     0.028 A 
HETATM   20  O5  UNL     1       2.666   5.500  -1.545  1.00  0.00    -0.190 OA
HETATM   21  C16 UNL     1       2.135   1.901  -1.545  1.00  0.00     0.005 A 
ENDBRANCH  13  15
ENDBRANCH   1  13
TORSDOF 4
