REMARK  1 active torsions:
REMARK  status: ('A' for Active; 'I' for Inactive)
REMARK    1  A    between atoms: C6_6  and  C7_7 
ROOT
HETATM    1  C1  UNL     1      -0.820   0.779  -0.088  1.00  0.00    -0.002 A 
HETATM    2  C2  UNL     1      -0.162   2.022  -0.088  1.00  0.00    -0.004 A 
HETATM    3  C3  UNL     1       1.242   2.074  -0.088  1.00  0.00    -0.022 A 
HETATM    4  C4  UNL     1       1.988   0.883  -0.088  1.00  0.00    -0.004 A 
HETATM    5  C5  UNL     1       1.330  -0.359  -0.088  1.00  0.00    -0.002 A 
HETATM    6  C6  UNL     1      -0.076  -0.412  -0.088  1.00  0.00     0.005 A 
HETATM    7  C10 UNL     1       1.938   3.389  -0.088  1.00  0.00     0.031 C 
ENDROOT
BRANCH   6   8
HETATM    8  C7  UNL     1      -0.771  -1.727  -0.088  1.00  0.00     0.146 C 
HETATM    9  C8  UNL     1      -0.668  -2.418   1.272  1.00  0.00     0.038 C 
HETATM   10  C9  UNL     1      -2.258  -1.576  -0.416  1.00  0.00     0.038 C 
HETATM   11  O1  UNL     1      -0.188  -2.566  -1.056  1.00  0.00    -0.222 OA
ENDBRANCH   6   8
TORSDOF 1
