REMARK  4 active torsions:
REMARK  status: ('A' for Active; 'I' for Inactive)
REMARK    1  A    between atoms: C1_1  and  C2_2 
REMARK    2  A    between atoms: C1_1  and  O2_7 
REMARK    3  A    between atoms: O2_7  and  C6_8 
REMARK    4  A    between atoms: C6_8  and  C7_9 
ROOT
HETATM    1  O2  UNL     1       0.127   0.330   0.284  1.00  0.00    -0.294 OA
ENDROOT
BRANCH   1   2
HETATM    2  C1  UNL     1       0.762   1.498   0.219  1.00  0.00     0.292 C 
HETATM    3  O1  UNL     1       0.932   2.225   1.168  1.00  0.00    -0.260 OA
BRANCH   2   4
HETATM    4  C2  UNL     1       1.262   1.877  -1.109  1.00  0.00     0.037 C 
HETATM    5  C3  UNL     1       1.615   0.783  -2.082  1.00  0.00     0.036 C 
HETATM    6  C4  UNL     1       1.422   3.152  -1.492  1.00  0.00    -0.025 C 
HETATM    7  C5  UNL     1       1.943   3.426  -2.877  1.00  0.00     0.030 C 
ENDBRANCH   2   4
ENDBRANCH   1   2
BRANCH   1   8
HETATM    8  C6  UNL     1      -0.326   0.035   1.596  1.00  0.00     0.179 C 
BRANCH   8   9
HETATM    9  C7  UNL     1      -1.024  -1.279   1.596  1.00  0.00     0.008 A 
HETATM   10  C8  UNL     1      -2.428  -1.330   1.596  1.00  0.00    -0.002 A 
HETATM   11  C9  UNL     1      -3.086  -2.572   1.596  1.00  0.00    -0.000 A 
HETATM   12  C10 UNL     1      -2.340  -3.764   1.596  1.00  0.00    -0.000 A 
HETATM   13  C11 UNL     1      -0.936  -3.713   1.596  1.00  0.00    -0.000 A 
HETATM   14  C12 UNL     1      -0.277  -2.471   1.596  1.00  0.00    -0.002 A 
ENDBRANCH   8   9
ENDBRANCH   1   8
TORSDOF 4
