REMARK  11 active torsions:
REMARK  status: ('A' for Active; 'I' for Inactive)
REMARK    1  A    between atoms: C5_5  and  C7_7 
REMARK    2  A    between atoms: C8_8  and  C9_9 
REMARK    3  A    between atoms: C9_9  and  O1_10 
REMARK    4  A    between atoms: O1_10  and  C10_11 
REMARK    5  A    between atoms: C10_11  and  C11_12 
REMARK    6  A    between atoms: C15_16  and  O3_18 
REMARK    7  A    between atoms: O3_18  and  C16_19 
REMARK    8  A    between atoms: C16_19  and  C17_20 
REMARK    9  A    between atoms: C16_19  and  C19_24 
REMARK   10  A    between atoms: C17_20  and  C18_21 
REMARK   11  A    between atoms: C19_24  and  C20_25 
ROOT
HETATM    1  C11 UNL     1      -1.412   1.441   0.600  1.00  0.00     0.181 C 
HETATM    2  C12 UNL     1      -1.793   2.836   0.049  1.00  0.00     0.215 C 
HETATM    3  C13 UNL     1      -0.754   3.904   0.455  1.00  0.00     0.220 C 
HETATM    4  C14 UNL     1       0.670   3.418   0.098  1.00  0.00     0.241 C 
HETATM    5  C15 UNL     1       0.922   1.988   0.639  1.00  0.00     0.270 C 
HETATM    6  O2  UNL     1      -0.096   1.111   0.178  1.00  0.00    -0.326 OA
HETATM    7  O8  UNL     1       1.623   4.307   0.656  1.00  0.00    -0.215 OA
HETATM    8  O9  UNL     1      -1.029   5.123  -0.219  1.00  0.00    -0.218 OA
HETATM    9  O10 UNL     1      -3.068   3.189   0.553  1.00  0.00    -0.218 OA
ENDROOT
BRANCH   1  10
HETATM   10  C10 UNL     1      -2.332   0.328   0.088  1.00  0.00     0.184 C 
BRANCH  10  11
HETATM   11  O1  UNL     1      -1.883  -0.922   0.590  1.00  0.00    -0.296 OA
BRANCH  11  12
HETATM   12  C9  UNL     1      -2.643  -1.936   0.180  1.00  0.00     0.296 C 
HETATM   13  O11 UNL     1      -3.605  -1.805  -0.539  1.00  0.00    -0.259 OA
BRANCH  12  14
HETATM   14  C8  UNL     1      -2.244  -3.266   0.656  1.00  0.00     0.068 C 
HETATM   15  C7  UNL     1      -2.072  -4.277  -0.209  1.00  0.00     0.005 C 
BRANCH  15  16
HETATM   16  C5  UNL     1      -2.293  -4.025  -1.664  1.00  0.00     0.000 A 
HETATM   17  C4  UNL     1      -1.678  -2.926  -2.289  1.00  0.00     0.002 A 
HETATM   18  C3  UNL     1      -1.887  -2.690  -3.658  1.00  0.00     0.027 A 
HETATM   19  C2  UNL     1      -2.713  -3.547  -4.408  1.00  0.00     0.131 A 
HETATM   20  C1  UNL     1      -3.326  -4.645  -3.779  1.00  0.00     0.027 A 
HETATM   21  O12 UNL     1      -2.908  -3.324  -5.691  1.00  0.00    -0.190 OA
HETATM   22  C6  UNL     1      -3.119  -4.885  -2.410  1.00  0.00     0.002 A 
ENDBRANCH  15  16
ENDBRANCH  12  14
ENDBRANCH  11  12
ENDBRANCH  10  11
ENDBRANCH   1  10
BRANCH   5  23
HETATM   23  O3  UNL     1       2.168   1.500   0.188  1.00  0.00    -0.333 OA
BRANCH  23  24
HETATM   24  C16 UNL     1       2.994   1.035   1.232  1.00  0.00     0.116 C 
HETATM   25  C21 UNL     1       4.293   0.738   0.484  1.00  0.00     0.031 C 
BRANCH  24  26
HETATM   26  C17 UNL     1       2.354  -0.223   1.822  1.00  0.00     0.125 C 
BRANCH  26  27
HETATM   27  C18 UNL     1       2.150  -1.301   0.795  1.00  0.00     0.188 C 
HETATM   28  O4  UNL     1       1.902  -2.512   1.285  1.00  0.00    -0.647 OA
HETATM   29  O5  UNL     1       2.217  -1.055  -0.387  1.00  0.00    -0.647 OA
ENDBRANCH  26  27
ENDBRANCH  24  26
BRANCH  24  30
HETATM   30  C19 UNL     1       3.147   2.158   2.258  1.00  0.00     0.125 C 
BRANCH  30  31
HETATM   31  C20 UNL     1       4.311   1.934   3.186  1.00  0.00     0.188 C 
HETATM   32  O6  UNL     1       4.074   1.111   4.203  1.00  0.00    -0.647 OA
HETATM   33  O7  UNL     1       5.373   2.477   2.992  1.00  0.00    -0.647 OA
ENDBRANCH  30  31
ENDBRANCH  24  30
ENDBRANCH  23  24
ENDBRANCH   5  23
TORSDOF 11
