REMARK  2 active torsions:
REMARK  status: ('A' for Active; 'I' for Inactive)
REMARK    1  A    between atoms: C1_2  and  C15_17 
REMARK    2  A    between atoms: C4_5  and  C5_6 
ROOT
HETATM    1  O1  UNL     1       0.066  -0.668   0.336  1.00  0.00    -0.350 OA
HETATM    2  C1  UNL     1       1.414  -0.836  -0.066  1.00  0.00     0.138 C 
HETATM    3  C2  UNL     1       1.510  -0.156  -1.438  1.00  0.00     0.034 C 
HETATM    4  C3  UNL     1       0.086  -0.363  -1.963  1.00  0.00     0.034 C 
HETATM    5  C4  UNL     1      -0.684  -0.041  -0.680  1.00  0.00     0.138 C 
HETATM    6  C13 UNL     1      -0.242   0.572  -3.121  1.00  0.00     0.003 C 
HETATM    7  C14 UNL     1       2.570  -0.795  -2.330  1.00  0.00     0.003 C 
ENDROOT
BRANCH   2   8
HETATM    8  C15 UNL     1       2.330  -0.268   0.945  1.00  0.00     0.004 A 
HETATM    9  C16 UNL     1       3.330  -1.074   1.529  1.00  0.00    -0.002 A 
HETATM   10  C17 UNL     1       4.195  -0.516   2.494  1.00  0.00    -0.002 A 
HETATM   11  C18 UNL     1       4.074   0.844   2.885  1.00  0.00     0.006 A 
HETATM   12  C19 UNL     1       3.084   1.643   2.303  1.00  0.00     0.005 A 
HETATM   13  C22 UNL     1       4.856   1.666   3.869  1.00  0.00     0.169 C 
HETATM   14  C20 UNL     1       2.213   1.084   1.334  1.00  0.00    -0.004 A 
HETATM   15  C21 UNL     1       3.166   3.027   2.879  1.00  0.00     0.169 C 
HETATM   16  O3  UNL     1       4.053   2.850   3.992  1.00  0.00    -0.345 OA
ENDBRANCH   2   8
BRANCH   5  17
HETATM   17  C5  UNL     1      -2.070  -0.533  -0.668  1.00  0.00     0.004 A 
HETATM   18  C6  UNL     1      -3.146   0.371  -0.520  1.00  0.00    -0.004 A 
HETATM   19  C7  UNL     1      -4.488  -0.088  -0.504  1.00  0.00     0.005 A 
HETATM   20  C8  UNL     1      -4.752  -1.455  -0.641  1.00  0.00     0.006 A 
HETATM   21  C12 UNL     1      -5.785   0.654  -0.361  1.00  0.00     0.169 C 
HETATM   22  C9  UNL     1      -3.676  -2.365  -0.793  1.00  0.00    -0.002 A 
HETATM   23  C11 UNL     1      -6.238  -1.676  -0.596  1.00  0.00     0.169 C 
HETATM   24  C10 UNL     1      -2.338  -1.912  -0.807  1.00  0.00    -0.002 A 
HETATM   25  O2  UNL     1      -6.729  -0.406  -0.145  1.00  0.00    -0.345 OA
ENDBRANCH   5  17
TORSDOF 2
