REMARK  5 active torsions:
REMARK  status: ('A' for Active; 'I' for Inactive)
REMARK    1  A    between atoms: C1_1  and  C4_7 
REMARK    2  A    between atoms: C4_7  and  C5_8 
REMARK    3  A    between atoms: C4_7  and  C11_14 
REMARK    4  A    between atoms: C5_8  and  C6_9 
REMARK    5  A    between atoms: C6_9  and  C7_10 
ROOT
HETATM    1  C4  UNL     1      -0.152   1.291   0.125  1.00  0.00     0.112 C 
ENDROOT
BRANCH   1   2
HETATM    2  C1  UNL     1       0.873   2.070  -0.693  1.00  0.00     0.141 A 
HETATM    3  N1  UNL     1       2.227   1.537  -0.525  1.00  0.00    -0.235 NA
HETATM    4  C2  UNL     1       3.006   2.443  -0.068  1.00  0.00     0.262 A 
HETATM    5  N2  UNL     1       2.379   3.672   0.148  1.00  0.00    -0.233 NA
HETATM    6  N3  UNL     1       4.330   2.223   0.186  1.00  0.00    -0.106 N 
HETATM    7  C3  UNL     1       0.978   3.531  -0.229  1.00  0.00     0.154 A 
ENDBRANCH   1   2
BRANCH   1   8
HETATM    8  C5  UNL     1      -0.231  -0.002  -0.688  1.00  0.00     0.017 C 
BRANCH   8   9
HETATM    9  C6  UNL     1      -1.309  -0.955  -0.176  1.00  0.00     0.026 C 
BRANCH   9  10
HETATM   10  C7  UNL     1      -1.404  -2.211  -1.000  1.00  0.00    -0.035 C 
HETATM   11  C8  UNL     1      -2.004  -3.287  -0.465  1.00  0.00    -0.048 C 
HETATM   12  C9  UNL     1      -2.033  -4.565  -1.260  1.00  0.00     0.026 C 
HETATM   13  C10 UNL     1      -2.615  -3.160   0.906  1.00  0.00     0.026 C 
ENDBRANCH   9  10
ENDBRANCH   8   9
ENDBRANCH   1   8
BRANCH   1  14
HETATM   14  C11 UNL     1       0.303   1.055   1.539  1.00  0.00     0.187 C 
HETATM   15  O1  UNL     1       1.004   0.109   1.816  1.00  0.00    -0.647 OA
HETATM   16  O2  UNL     1      -0.123   1.947   2.428  1.00  0.00    -0.647 OA
ENDBRANCH   1  14
TORSDOF 5
