REMARK  13 active torsions:
REMARK  status: ('A' for Active; 'I' for Inactive)
REMARK    1  A    between atoms: C1_1  and  O9_39 
REMARK    2  A    between atoms: C2_2  and  O8_37 
REMARK    3  A    between atoms: C4_4  and  C7_7 
REMARK    4  A    between atoms: C11_12  and  C13_15 
REMARK    5  A    between atoms: C16_18  and  O4_23 
REMARK    6  A    between atoms: C17_19  and  O3_21 
REMARK    7  A    between atoms: O4_23  and  C20_24 
REMARK    8  A    between atoms: C20_24  and  C21_25 
REMARK    9  A    between atoms: C22_26  and  C23_27 
REMARK   10  A    between atoms: C25_29  and  O5_30 
REMARK   11  A    between atoms: O9_39  and  C31_40 
REMARK   12  A    between atoms: C31_40  and  C32_41 
REMARK   13  A    between atoms: C33_42  and  C34_43 
ROOT
HETATM    1  C7  UNL     1       2.117   4.588   2.904  1.00  0.00     0.140 C 
HETATM    2  C8  UNL     1       0.670   4.783   3.410  1.00  0.00     0.066 C 
HETATM    3  C9  UNL     1       0.266   3.412   4.008  1.00  0.00     0.066 C 
HETATM    4  C10 UNL     1       1.441   2.506   3.627  1.00  0.00     0.145 C 
HETATM    5  O1  UNL     1       2.522   3.404   3.549  1.00  0.00    -0.352 OA
HETATM    6  C11 UNL     1      -1.102   3.119   3.375  1.00  0.00     0.140 C 
HETATM    7  O2  UNL     1      -1.045   3.840   2.172  1.00  0.00    -0.352 OA
HETATM    8  C12 UNL     1      -0.457   5.096   2.412  1.00  0.00     0.145 C 
ENDROOT
BRANCH   6   9
HETATM    9  C13 UNL     1      -1.402   1.685   3.129  1.00  0.00     0.007 A 
HETATM   10  C14 UNL     1      -1.260   0.746   4.164  1.00  0.00     0.000 A 
HETATM   11  C15 UNL     1      -1.543  -0.609   3.926  1.00  0.00     0.027 A 
HETATM   12  C16 UNL     1      -1.971  -1.031   2.654  1.00  0.00     0.125 A 
HETATM   13  C17 UNL     1      -2.113  -0.092   1.617  1.00  0.00     0.117 A 
HETATM   14  C18 UNL     1      -1.828   1.266   1.856  1.00  0.00     0.024 A 
BRANCH  12  15
HETATM   15  O4  UNL     1      -2.234  -2.305   2.440  1.00  0.00    -0.271 OA
BRANCH  15  16
HETATM   16  C20 UNL     1      -2.836  -3.008   3.395  1.00  0.00     0.300 C 
HETATM   17  O7  UNL     1      -3.436  -2.512   4.320  1.00  0.00    -0.259 OA
BRANCH  16  18
HETATM   18  C21 UNL     1      -2.738  -4.467   3.270  1.00  0.00     0.069 C 
HETATM   19  C22 UNL     1      -3.309  -5.274   4.180  1.00  0.00     0.005 C 
BRANCH  19  20
HETATM   20  C23 UNL     1      -3.182  -6.750   4.010  1.00  0.00     0.002 A 
HETATM   21  C24 UNL     1      -2.473  -7.276   2.914  1.00  0.00     0.026 A 
HETATM   22  C25 UNL     1      -2.350  -8.666   2.750  1.00  0.00     0.119 A 
HETATM   23  C27 UNL     1      -2.938  -9.537   3.686  1.00  0.00     0.153 A 
HETATM   24  O6  UNL     1      -2.826 -10.842   3.541  1.00  0.00    -0.188 OA
HETATM   25  C28 UNL     1      -3.645  -9.012   4.781  1.00  0.00     0.029 A 
HETATM   26  C29 UNL     1      -3.768  -7.621   4.945  1.00  0.00     0.002 A 
BRANCH  22  27
HETATM   27  O5  UNL     1      -1.684  -9.151   1.721  1.00  0.00    -0.326 OA
HETATM   28  C26 UNL     1      -1.187  -8.233   0.756  1.00  0.00     0.181 C 
ENDBRANCH  22  27
ENDBRANCH  19  20
ENDBRANCH  16  18
ENDBRANCH  15  16
ENDBRANCH  12  15
BRANCH  13  29
HETATM   29  O3  UNL     1      -2.512  -0.479   0.422  1.00  0.00    -0.326 OA
HETATM   30  C19 UNL     1      -2.053  -1.733  -0.062  1.00  0.00     0.181 C 
ENDBRANCH  13  29
ENDBRANCH   6   9
BRANCH   1  31
HETATM   31  C4  UNL     1       2.264   4.428   1.434  1.00  0.00     0.007 A 
HETATM   32  C3  UNL     1       3.219   5.186   0.736  1.00  0.00     0.024 A 
HETATM   33  C2  UNL     1       3.361   5.037  -0.656  1.00  0.00     0.117 A 
HETATM   34  C1  UNL     1       2.543   4.127  -1.352  1.00  0.00     0.125 A 
HETATM   35  C6  UNL     1       1.586   3.371  -0.650  1.00  0.00     0.027 A 
HETATM   36  C5  UNL     1       1.445   3.519   0.740  1.00  0.00     0.000 A 
BRANCH  33  37
HETATM   37  O8  UNL     1       4.260   5.750  -1.305  1.00  0.00    -0.326 OA
HETATM   38  C30 UNL     1       3.897   6.299  -2.562  1.00  0.00     0.181 C 
ENDBRANCH  33  37
BRANCH  34  39
HETATM   39  O9  UNL     1       2.670   3.982  -2.654  1.00  0.00    -0.271 OA
BRANCH  39  40
HETATM   40  C31 UNL     1       2.549   2.768  -3.182  1.00  0.00     0.300 C 
HETATM   41  O12 UNL     1       2.631   1.744  -2.543  1.00  0.00    -0.259 OA
BRANCH  40  42
HETATM   42  C32 UNL     1       2.307   2.723  -4.629  1.00  0.00     0.069 C 
HETATM   43  C33 UNL     1       2.170   1.547  -5.264  1.00  0.00     0.006 C 
BRANCH  43  44
HETATM   44  C34 UNL     1       1.924   1.551  -6.736  1.00  0.00     0.002 A 
HETATM   45  C35 UNL     1       2.354   0.471  -7.527  1.00  0.00     0.029 A 
HETATM   46  C36 UNL     1       2.123   0.471  -8.914  1.00  0.00     0.156 A 
HETATM   47  O10 UNL     1       2.529  -0.547  -9.649  1.00  0.00    -0.188 OA
HETATM   48  C37 UNL     1       1.459   1.557  -9.514  1.00  0.00     0.156 A 
HETATM   49  O11 UNL     1       1.238   1.566 -10.815  1.00  0.00    -0.188 OA
HETATM   50  C38 UNL     1       1.029   2.639  -8.723  1.00  0.00     0.029 A 
HETATM   51  C39 UNL     1       1.260   2.637  -7.338  1.00  0.00     0.002 A 
ENDBRANCH  43  44
ENDBRANCH  40  42
ENDBRANCH  39  40
ENDBRANCH  34  39
ENDBRANCH   1  31
TORSDOF 13
