REMARK  7 active torsions:
REMARK  status: ('A' for Active; 'I' for Inactive)
REMARK    1  A    between atoms: C6_6  and  C7_7 
REMARK    2  A    between atoms: C7_7  and  C8_8 
REMARK    3  A    between atoms: C12_13  and  C27_38 
REMARK    4  A    between atoms: C13_14  and  O3_17 
REMARK    5  A    between atoms: O3_17  and  C15_18 
REMARK    6  A    between atoms: C16_19  and  O4_20 
REMARK    7  A    between atoms: O4_20  and  C17_21 
ROOT
HETATM    1  C1  UNL     1       5.662  -0.836  -1.283  1.00  0.00     0.131 A 
HETATM    2  C2  UNL     1       5.479   0.338  -2.051  1.00  0.00     0.055 A 
HETATM    3  C3  UNL     1       4.176   0.822  -2.311  1.00  0.00     0.138 A 
HETATM    4  C4  UNL     1       3.049   0.131  -1.797  1.00  0.00     0.085 A 
HETATM    5  C5  UNL     1       3.229  -1.070  -1.057  1.00  0.00     0.098 A 
HETATM    6  C6  UNL     1       4.539  -1.541  -0.787  1.00  0.00     0.030 A 
HETATM    7  O1  UNL     1       2.172  -1.777  -0.603  1.00  0.00    -0.326 OA
HETATM    8  C12 UNL     1       0.877  -1.607  -1.189  1.00  0.00     0.178 C 
HETATM    9  C13 UNL     1       0.543  -0.101  -1.338  1.00  0.00     0.211 C 
HETATM   10  C14 UNL     1       1.670   0.662  -2.016  1.00  0.00     0.207 C 
HETATM   11  O2  UNL     1       1.383   1.641  -2.670  1.00  0.00    -0.288 OA
HETATM   12  O13 UNL     1       4.031   1.942  -3.035  1.00  0.00    -0.190 OA
HETATM   13  O14 UNL     1       6.904  -1.275  -1.033  1.00  0.00    -0.190 OA
ENDROOT
BRANCH   9  14
HETATM   14  O3  UNL     1      -0.666   0.035  -2.068  1.00  0.00    -0.321 OA
BRANCH  14  15
HETATM   15  C15 UNL     1      -1.381   1.213  -1.746  1.00  0.00     0.267 C 
HETATM   16  C16 UNL     1      -2.246   0.975  -0.482  1.00  0.00     0.207 C 
HETATM   17  C23 UNL     1      -3.459   0.066  -0.797  1.00  0.00     0.217 C 
HETATM   18  O9  UNL     1      -4.322  -0.037   0.326  1.00  0.00    -0.218 OA
HETATM   19  C24 UNL     1      -4.217   0.588  -2.037  1.00  0.00     0.212 C 
HETATM   20  O10 UNL     1      -5.213  -0.344  -2.422  1.00  0.00    -0.218 OA
HETATM   21  C25 UNL     1      -3.252   0.801  -3.228  1.00  0.00     0.151 C 
HETATM   22  O11 UNL     1      -2.182   1.660  -2.842  1.00  0.00    -0.329 OA
HETATM   23  C26 UNL     1      -3.932   1.461  -4.432  1.00  0.00     0.035 C 
BRANCH  16  24
HETATM   24  O4  UNL     1      -2.676   2.236   0.006  1.00  0.00    -0.324 OA
BRANCH  24  25
HETATM   25  C17 UNL     1      -2.611   2.340   1.416  1.00  0.00     0.270 C 
HETATM   26  C18 UNL     1      -3.393   3.594   1.887  1.00  0.00     0.241 C 
HETATM   27  O5  UNL     1      -3.598   3.486   3.289  1.00  0.00    -0.215 OA
HETATM   28  C19 UNL     1      -2.627   4.895   1.543  1.00  0.00     0.220 C 
HETATM   29  O6  UNL     1      -3.275   6.028   2.098  1.00  0.00    -0.218 OA
HETATM   30  C20 UNL     1      -1.162   4.799   2.022  1.00  0.00     0.212 C 
HETATM   31  O7  UNL     1      -0.426   5.914   1.545  1.00  0.00    -0.218 OA
HETATM   32  C21 UNL     1      -0.490   3.506   1.502  1.00  0.00     0.151 C 
HETATM   33  O8  UNL     1      -1.262   2.369   1.883  1.00  0.00    -0.329 OA
HETATM   34  C22 UNL     1       0.914   3.295   2.074  1.00  0.00     0.035 C 
ENDBRANCH  24  25
ENDBRANCH  16  24
ENDBRANCH  14  15
ENDBRANCH   9  14
BRANCH   8  35
HETATM   35  C27 UNL     1      -0.107  -2.350  -0.359  1.00  0.00     0.008 A 
HETATM   36  C28 UNL     1      -1.016  -3.234  -0.969  1.00  0.00     0.000 A 
HETATM   37  C29 UNL     1      -1.947  -3.936  -0.182  1.00  0.00     0.027 A 
HETATM   38  C30 UNL     1      -1.975  -3.756   1.213  1.00  0.00     0.131 A 
HETATM   39  C31 UNL     1      -1.064  -2.871   1.818  1.00  0.00     0.027 A 
HETATM   40  O12 UNL     1      -2.848  -4.414   1.947  1.00  0.00    -0.190 OA
HETATM   41  C32 UNL     1      -0.133  -2.168   1.033  1.00  0.00     0.000 A 
ENDBRANCH   8  35
BRANCH   6  42
HETATM   42  C7  UNL     1       4.732  -2.768   0.008  1.00  0.00     0.056 C 
BRANCH  42  43
HETATM   43  C8  UNL     1       3.869  -2.787   1.240  1.00  0.00    -0.030 C 
HETATM   44  C9  UNL     1       3.731  -3.943   1.908  1.00  0.00    -0.048 C 
HETATM   45  C10 UNL     1       2.873  -4.146   3.129  1.00  0.00     0.026 C 
HETATM   46  C11 UNL     1       4.484  -5.150   1.416  1.00  0.00     0.026 C 
ENDBRANCH  42  43
ENDBRANCH   6  42
TORSDOF 7
