REMARK  15 active torsions:
REMARK  status: ('A' for Active; 'I' for Inactive)
REMARK    1  A    between atoms: C3_3  and  C7_8 
REMARK    2  A    between atoms: C8_9  and  C9_10 
REMARK    3  A    between atoms: C8_9  and  C19_26 
REMARK    4  A    between atoms: C9_10  and  O2_11 
REMARK    5  A    between atoms: O2_11  and  C10_12 
REMARK    6  A    between atoms: C10_12  and  C11_13 
REMARK    7  A    between atoms: C10_12  and  C18_22 
REMARK    8  A    between atoms: C11_13  and  C12_14 
REMARK    9  A    between atoms: C24_31  and  C25_32 
REMARK   10  A    between atoms: C26_33  and  C27_34 
REMARK   11  A    between atoms: C27_34  and  O8_35 
REMARK   12  A    between atoms: O8_35  and  C28_36 
REMARK   13  A    between atoms: C28_36  and  C29_37 
REMARK   14  A    between atoms: C28_36  and  C36_46 
REMARK   15  A    between atoms: C29_37  and  C30_38 
ROOT
HETATM    1  C19 UNL     1      -1.109   1.902  -0.883  1.00  0.00     0.033 A 
HETATM    2  C20 UNL     1      -1.520   3.176  -1.336  1.00  0.00     0.156 A 
HETATM    3  C21 UNL     1      -2.801   3.344  -1.891  1.00  0.00     0.156 A 
HETATM    4  C22 UNL     1      -3.670   2.246  -1.992  1.00  0.00     0.029 A 
HETATM    5  C23 UNL     1      -3.266   0.978  -1.543  1.00  0.00     0.002 A 
HETATM    6  C24 UNL     1      -1.986   0.803  -0.988  1.00  0.00     0.003 A 
HETATM    7  O14 UNL     1      -3.190   4.529  -2.314  1.00  0.00    -0.188 OA
HETATM    8  O15 UNL     1      -0.707   4.211  -1.242  1.00  0.00    -0.188 OA
ENDROOT
BRANCH   1   9
HETATM    9  C8  UNL     1       0.256   1.728  -0.293  1.00  0.00     0.065 C 
HETATM   10  C7  UNL     1       0.564   2.400   0.830  1.00  0.00     0.005 C 
BRANCH  10  11
HETATM   11  C3  UNL     1       1.926   2.227   1.418  1.00  0.00     0.002 A 
HETATM   12  C2  UNL     1       2.068   1.908   2.779  1.00  0.00     0.029 A 
HETATM   13  C1  UNL     1       3.348   1.744   3.338  1.00  0.00     0.156 A 
HETATM   14  C6  UNL     1       4.490   1.898   2.529  1.00  0.00     0.156 A 
HETATM   15  O16 UNL     1       3.475   1.445   4.615  1.00  0.00    -0.188 OA
HETATM   16  C5  UNL     1       4.346   2.215   1.168  1.00  0.00     0.029 A 
HETATM   17  O1  UNL     1       5.695   1.746   3.045  1.00  0.00    -0.188 OA
HETATM   18  C4  UNL     1       3.066   2.379   0.611  1.00  0.00     0.002 A 
ENDBRANCH  10  11
BRANCH   9  19
HETATM   19  C9  UNL     1       1.238   0.844  -0.928  1.00  0.00     0.296 C 
HETATM   20  O7  UNL     1       1.826   0.014  -0.275  1.00  0.00    -0.259 OA
BRANCH  19  21
HETATM   21  O2  UNL     1       1.420   1.023  -2.232  1.00  0.00    -0.290 OA
BRANCH  21  22
HETATM   22  C10 UNL     1       2.354   0.105  -2.781  1.00  0.00     0.215 C 
BRANCH  22  23
HETATM   23  C11 UNL     1       2.729   0.543  -4.197  1.00  0.00     0.068 C 
BRANCH  23  24
HETATM   24  C12 UNL     1       3.426   1.855  -4.197  1.00  0.00    -0.017 A 
HETATM   25  C13 UNL     1       4.830   1.908  -4.197  1.00  0.00    -0.002 A 
HETATM   26  C14 UNL     1       5.486   3.150  -4.197  1.00  0.00     0.029 A 
HETATM   27  C15 UNL     1       4.742   4.344  -4.197  1.00  0.00     0.156 A 
HETATM   28  C16 UNL     1       3.336   4.293  -4.197  1.00  0.00     0.156 A 
HETATM   29  O4  UNL     1       5.365   5.506  -4.197  1.00  0.00    -0.188 OA
HETATM   30  C17 UNL     1       2.682   3.047  -4.197  1.00  0.00     0.025 A 
HETATM   31  O3  UNL     1       2.631   5.406  -4.197  1.00  0.00    -0.188 OA
ENDBRANCH  23  24
ENDBRANCH  22  23
BRANCH  22  32
HETATM   32  C18 UNL     1       1.772  -1.283  -2.744  1.00  0.00     0.215 C 
HETATM   33  O5  UNL     1       0.664  -1.506  -3.176  1.00  0.00    -0.646 OA
HETATM   34  O6  UNL     1       2.561  -2.213  -2.213  1.00  0.00    -0.646 OA
ENDBRANCH  22  32
ENDBRANCH  21  22
ENDBRANCH  19  21
ENDBRANCH   9  19
ENDBRANCH   1   9
BRANCH   6  35
HETATM   35  C25 UNL     1      -1.574  -0.555  -0.514  1.00  0.00     0.005 C 
HETATM   36  C26 UNL     1      -2.510  -1.373  -0.008  1.00  0.00     0.068 C 
BRANCH  36  37
HETATM   37  C27 UNL     1      -2.154  -2.713   0.471  1.00  0.00     0.296 C 
HETATM   38  O13 UNL     1      -1.010  -3.102   0.406  1.00  0.00    -0.259 OA
BRANCH  37  39
HETATM   39  O8  UNL     1      -3.156  -3.438   0.959  1.00  0.00    -0.290 OA
BRANCH  39  40
HETATM   40  C28 UNL     1      -2.744  -4.744   1.340  1.00  0.00     0.215 C 
BRANCH  40  41
HETATM   41  C29 UNL     1      -3.846  -5.404   2.168  1.00  0.00     0.068 C 
BRANCH  41  42
HETATM   42  C30 UNL     1      -4.111  -4.653   3.422  1.00  0.00    -0.017 A 
HETATM   43  C31 UNL     1      -4.994  -3.559   3.414  1.00  0.00     0.025 A 
HETATM   44  C32 UNL     1      -5.250  -2.846   4.598  1.00  0.00     0.156 A 
HETATM   45  C33 UNL     1      -4.619  -3.227   5.797  1.00  0.00     0.156 A 
HETATM   46  O10 UNL     1      -6.080  -1.820   4.582  1.00  0.00    -0.188 OA
HETATM   47  C34 UNL     1      -3.734  -4.322   5.805  1.00  0.00     0.029 A 
HETATM   48  O9  UNL     1      -4.852  -2.565   6.912  1.00  0.00    -0.188 OA
HETATM   49  C35 UNL     1      -3.481  -5.033   4.619  1.00  0.00    -0.002 A 
ENDBRANCH  41  42
ENDBRANCH  40  41
BRANCH  40  50
HETATM   50  C36 UNL     1      -2.397  -5.537   0.109  1.00  0.00     0.215 C 
HETATM   51  O11 UNL     1      -3.193  -5.674  -0.789  1.00  0.00    -0.646 OA
HETATM   52  O12 UNL     1      -1.174  -6.059   0.098  1.00  0.00    -0.646 OA
ENDBRANCH  40  50
ENDBRANCH  39  40
ENDBRANCH  37  39
ENDBRANCH  36  37
ENDBRANCH   6  35
TORSDOF 15
