REMARK  20 active torsions:
REMARK  status: ('A' for Active; 'I' for Inactive)
REMARK    1  A    between atoms: C2_3  and  O9_19 
REMARK    2  A    between atoms: C3_4  and  O4_9 
REMARK    3  A    between atoms: O4_9  and  C6_10 
REMARK    4  A    between atoms: O9_19  and  C11_20 
REMARK    5  A    between atoms: C11_20  and  C12_21 
REMARK    6  A    between atoms: C13_23  and  O14_30 
REMARK    7  A    between atoms: O14_30  and  C17_31 
REMARK    8  A    between atoms: C32_46  and  C41_56 
REMARK    9  A    between atoms: C41_56  and  O17_58 
REMARK   10  A    between atoms: O17_58  and  C42_59 
REMARK   11  A    between atoms: C43_61  and  C69_107 
REMARK   12  A    between atoms: C46_64  and  O19_65 
REMARK   13  A    between atoms: O19_65  and  C47_66 
REMARK   14  A    between atoms: C49_69  and  O28_85 
REMARK   15  A    between atoms: C51_71  and  O21_72 
REMARK   16  A    between atoms: O21_72  and  C52_73 
REMARK   17  A    between atoms: C56_77  and  C57_79 
REMARK   18  A    between atoms: O28_85  and  C58_86 
REMARK   19  A    between atoms: C61_90  and  O31_93 
REMARK   20  A    between atoms: O31_93  and  C63_94 
ROOT
HETATM    1  C17 UNL     1      -7.447   1.238   1.182  1.00  0.00     0.118 C 
HETATM    2  C18 UNL     1      -6.356   0.691   2.145  1.00  0.00     0.025 C 
HETATM    3  C19 UNL     1      -5.352  -0.182   1.344  1.00  0.00     0.002 C 
HETATM    4  C20 UNL     1      -4.662   0.563   0.141  1.00  0.00     0.001 C 
HETATM    5  C21 UNL     1      -5.367   1.908  -0.166  1.00  0.00     0.003 C 
HETATM    6  C22 UNL     1      -6.897   1.789  -0.152  1.00  0.00     0.030 C 
HETATM    7  C23 UNL     1      -3.152   0.795   0.447  1.00  0.00     0.005 C 
HETATM    8  C24 UNL     1      -2.357  -0.521   0.666  1.00  0.00     0.004 C 
HETATM    9  C25 UNL     1      -3.178  -1.529   1.518  1.00  0.00     0.000 C 
HETATM   10  C26 UNL     1      -4.338  -0.885   2.283  1.00  0.00     0.000 C 
HETATM   11  C27 UNL     1      -0.953  -0.201   1.295  1.00  0.00     0.017 C 
HETATM   12  C28 UNL     1      -0.307   1.037   0.676  1.00  0.00    -0.049 C 
HETATM   13  C29 UNL     1      -0.945   1.834  -0.213  1.00  0.00    -0.035 C 
HETATM   14  C30 UNL     1      -2.400   1.658  -0.586  1.00  0.00     0.025 C 
HETATM   15  C31 UNL     1       1.082   1.436   1.150  1.00  0.00     0.029 C 
HETATM   16  C32 UNL     1       1.477   0.863   2.539  1.00  0.00     0.110 C 
HETATM   17  C33 UNL     1       0.219   0.844   3.451  1.00  0.00     0.162 C 
HETATM   18  C34 UNL     1      -0.990   0.057   2.838  1.00  0.00     0.037 C 
HETATM   19  O15 UNL     1      -0.193   2.172   3.725  1.00  0.00    -0.223 OA
HETATM   20  C35 UNL     1       2.658   1.719   3.057  1.00  0.00     0.012 C 
HETATM   21  C36 UNL     1       3.856   1.686   2.076  1.00  0.00     0.001 C 
HETATM   22  C37 UNL     1       3.486   2.057   0.615  1.00  0.00     0.000 C 
HETATM   23  C38 UNL     1       2.229   1.293   0.137  1.00  0.00     0.005 C 
HETATM   24  C39 UNL     1       3.234   3.567   0.529  1.00  0.00     0.000 C 
HETATM   25  C40 UNL     1       4.660   1.721  -0.309  1.00  0.00     0.000 C 
HETATM   26  C70 UNL     1      -0.060  -1.424   1.012  1.00  0.00     0.004 C 
HETATM   27  C71 UNL     1      -2.135  -1.186  -0.715  1.00  0.00     0.000 C 
HETATM   28  C72 UNL     1      -4.809  -0.301  -1.127  1.00  0.00     0.000 C 
HETATM   29  C73 UNL     1      -5.604   1.828   2.859  1.00  0.00     0.002 C 
HETATM   30  C74 UNL     1      -7.039  -0.158   3.229  1.00  0.00     0.002 C 
ENDROOT
BRANCH  16  31
HETATM   31  C41 UNL     1       2.025  -0.547   2.502  1.00  0.00     0.276 C 
HETATM   32  O16 UNL     1       1.650  -1.381   3.293  1.00  0.00    -0.264 OA
BRANCH  31  33
HETATM   33  O17 UNL     1       2.924  -0.781   1.551  1.00  0.00    -0.273 OA
BRANCH  33  34
HETATM   34  C42 UNL     1       3.422  -2.111   1.590  1.00  0.00     0.273 C 
HETATM   35  O18 UNL     1       2.443  -2.980   1.037  1.00  0.00    -0.326 OA
HETATM   36  C43 UNL     1       2.789  -4.359   1.055  1.00  0.00     0.184 C 
HETATM   37  C44 UNL     1       4.065  -4.582   0.211  1.00  0.00     0.215 C 
HETATM   38  C45 UNL     1       5.219  -3.674   0.688  1.00  0.00     0.217 C 
HETATM   39  O38 UNL     1       4.449  -5.941   0.316  1.00  0.00    -0.218 OA
HETATM   40  C46 UNL     1       4.731  -2.213   0.779  1.00  0.00     0.207 C 
HETATM   41  O37 UNL     1       6.307  -3.762  -0.219  1.00  0.00    -0.218 OA
BRANCH  36  42
HETATM   42  C69 UNL     1       1.576  -5.127   0.520  1.00  0.00     0.214 C 
HETATM   43  O39 UNL     1       0.541  -5.039   1.473  1.00  0.00    -0.218 OA
ENDBRANCH  36  42
BRANCH  40  44
HETATM   44  O19 UNL     1       5.715  -1.412   1.408  1.00  0.00    -0.324 OA
BRANCH  44  45
HETATM   45  C47 UNL     1       6.887  -1.256   0.633  1.00  0.00     0.267 C 
HETATM   46  O20 UNL     1       6.504  -1.006  -0.713  1.00  0.00    -0.329 OA
HETATM   47  C48 UNL     1       7.580  -0.875  -1.631  1.00  0.00     0.148 C 
HETATM   48  C49 UNL     1       8.455   0.332  -1.223  1.00  0.00     0.178 C 
HETATM   49  C68 UNL     1       6.959  -0.719  -3.022  1.00  0.00     0.035 C 
HETATM   50  C50 UNL     1       8.940   0.207   0.238  1.00  0.00     0.214 C 
HETATM   51  C51 UNL     1       7.738  -0.078   1.168  1.00  0.00     0.207 C 
HETATM   52  O27 UNL     1       9.582   1.406   0.637  1.00  0.00    -0.218 OA
BRANCH  48  53
HETATM   53  O28 UNL     1       9.572   0.397  -2.094  1.00  0.00    -0.326 OA
BRANCH  53  54
HETATM   54  C58 UNL     1       9.428   1.367  -3.111  1.00  0.00     0.270 C 
HETATM   55  O29 UNL     1       9.582   2.656  -2.531  1.00  0.00    -0.326 OA
HETATM   56  C59 UNL     1       9.418   3.740  -3.436  1.00  0.00     0.180 C 
HETATM   57  C60 UNL     1      10.490   3.662  -4.539  1.00  0.00     0.211 C 
HETATM   58  C61 UNL     1      10.451   2.297  -5.260  1.00  0.00     0.186 C 
HETATM   59  O36 UNL     1      10.256   4.711  -5.461  1.00  0.00    -0.218 OA
HETATM   60  C62 UNL     1      10.494   1.156  -4.219  1.00  0.00     0.238 C 
HETATM   61  O30 UNL     1      10.260  -0.084  -4.869  1.00  0.00    -0.215 OA
BRANCH  58  62
HETATM   62  O31 UNL     1      11.557   2.190  -6.143  1.00  0.00    -0.326 OA
BRANCH  62  63
HETATM   63  C63 UNL     1      11.369   2.879  -7.361  1.00  0.00     0.270 C 
HETATM   64  O32 UNL     1      12.209   4.025  -7.365  1.00  0.00    -0.326 OA
HETATM   65  C64 UNL     1      12.092   4.848  -8.518  1.00  0.00     0.181 C 
HETATM   66  C65 UNL     1      12.494   4.045  -9.770  1.00  0.00     0.215 C 
HETATM   67  C66 UNL     1      11.664   2.750  -9.895  1.00  0.00     0.220 C 
HETATM   68  O35 UNL     1      12.299   4.865 -10.906  1.00  0.00    -0.218 OA
HETATM   69  C67 UNL     1      11.717   1.965  -8.565  1.00  0.00     0.241 C 
HETATM   70  O34 UNL     1      12.178   1.949 -10.947  1.00  0.00    -0.218 OA
HETATM   71  O33 UNL     1      10.799   0.885  -8.617  1.00  0.00    -0.215 OA
ENDBRANCH  62  63
ENDBRANCH  58  62
ENDBRANCH  53  54
ENDBRANCH  48  53
BRANCH  51  72
HETATM   72  O21 UNL     1       8.213  -0.394   2.467  1.00  0.00    -0.324 OA
BRANCH  72  73
HETATM   73  C52 UNL     1       7.272  -0.123   3.486  1.00  0.00     0.270 C 
HETATM   74  C53 UNL     1       7.834   0.926   4.479  1.00  0.00     0.241 C 
HETATM   75  C54 UNL     1       6.885   1.113   5.684  1.00  0.00     0.220 C 
HETATM   76  O26 UNL     1       7.994   2.166   3.811  1.00  0.00    -0.215 OA
HETATM   77  C55 UNL     1       6.522  -0.262   6.289  1.00  0.00     0.215 C 
HETATM   78  O25 UNL     1       7.510   1.922   6.668  1.00  0.00    -0.218 OA
HETATM   79  C56 UNL     1       6.018  -1.236   5.201  1.00  0.00     0.184 C 
HETATM   80  O24 UNL     1       5.506  -0.103   7.264  1.00  0.00    -0.218 OA
HETATM   81  O22 UNL     1       6.992  -1.338   4.172  1.00  0.00    -0.326 OA
BRANCH  79  82
HETATM   82  C57 UNL     1       5.789  -2.656   5.733  1.00  0.00     0.214 C 
HETATM   83  O23 UNL     1       5.164  -3.410   4.719  1.00  0.00    -0.218 OA
ENDBRANCH  79  82
ENDBRANCH  72  73
ENDBRANCH  51  72
ENDBRANCH  44  45
ENDBRANCH  40  44
ENDBRANCH  33  34
ENDBRANCH  31  33
ENDBRANCH  16  31
BRANCH   1  84
HETATM   84  O14 UNL     1      -8.221   2.236   1.830  1.00  0.00    -0.332 OA
BRANCH  84  85
HETATM   85  C13 UNL     1      -9.481   2.445   1.223  1.00  0.00     0.270 C 
HETATM   86  O10 UNL     1     -10.317   1.338   1.529  1.00  0.00    -0.326 OA
HETATM   87  C12 UNL     1     -11.609   1.381   0.943  1.00  0.00     0.180 C 
HETATM   88  C16 UNL     1     -12.367   2.621   1.465  1.00  0.00     0.215 C 
HETATM   89  C15 UNL     1     -11.565   3.916   1.215  1.00  0.00     0.220 C 
HETATM   90  O11 UNL     1     -13.621   2.697   0.809  1.00  0.00    -0.218 OA
HETATM   91  C14 UNL     1     -10.123   3.754   1.746  1.00  0.00     0.241 C 
HETATM   92  O12 UNL     1     -12.197   5.008   1.863  1.00  0.00    -0.218 OA
HETATM   93  O13 UNL     1      -9.342   4.863   1.328  1.00  0.00    -0.215 OA
BRANCH  87  94
HETATM   94  C11 UNL     1     -12.301   0.063   1.305  1.00  0.00     0.177 C 
BRANCH  94  95
HETATM   95  O9  UNL     1     -11.672  -0.977   0.590  1.00  0.00    -0.326 OA
BRANCH  95  96
HETATM   96  C2  UNL     1     -12.459  -1.480  -0.471  1.00  0.00     0.267 C 
HETATM   97  O1  UNL     1     -12.654  -0.439  -1.420  1.00  0.00    -0.326 OA
HETATM   98  C1  UNL     1     -13.473  -0.789  -2.527  1.00  0.00     0.181 C 
HETATM   99  C5  UNL     1     -12.813  -1.937  -3.316  1.00  0.00     0.214 C 
HETATM  100  C4  UNL     1     -12.524  -3.148  -2.404  1.00  0.00     0.217 C 
HETATM  101  O2  UNL     1     -13.682  -2.311  -4.371  1.00  0.00    -0.218 OA
HETATM  102  C3  UNL     1     -11.752  -2.684  -1.148  1.00  0.00     0.207 C 
HETATM  103  O3  UNL     1     -11.758  -4.111  -3.113  1.00  0.00    -0.218 OA
BRANCH 102 104
HETATM  104  O4  UNL     1     -11.664  -3.760  -0.227  1.00  0.00    -0.324 OA
BRANCH 104 105
HETATM  105  C6  UNL     1     -10.596  -3.619   0.691  1.00  0.00     0.270 C 
HETATM  106  C7  UNL     1      -9.715  -4.895   0.695  1.00  0.00     0.241 C 
HETATM  107  C8  UNL     1      -8.635  -4.822   1.801  1.00  0.00     0.220 C 
HETATM  108  O8  UNL     1      -9.084  -5.037  -0.568  1.00  0.00    -0.215 OA
HETATM  109  C9  UNL     1      -9.291  -4.455   3.148  1.00  0.00     0.215 C 
HETATM  110  O7  UNL     1      -7.977  -6.074   1.914  1.00  0.00    -0.218 OA
HETATM  111  C10 UNL     1     -10.178  -3.201   3.012  1.00  0.00     0.181 C 
HETATM  112  O6  UNL     1      -8.299  -4.195   4.123  1.00  0.00    -0.218 OA
HETATM  113  O5  UNL     1     -11.141  -3.404   1.986  1.00  0.00    -0.326 OA
ENDBRANCH 104 105
ENDBRANCH 102 104
ENDBRANCH  95  96
ENDBRANCH  94  95
ENDBRANCH  87  94
ENDBRANCH  84  85
ENDBRANCH   1  84
TORSDOF 20
