REMARK  2 active torsions:
REMARK  status: ('A' for Active; 'I' for Inactive)
REMARK    1  A    between atoms: C5_5  and  C7_7 
REMARK    2  A    between atoms: C7_7  and  C8_8 
ROOT
HETATM    1  C1  UNL     1      -2.057  -1.734   0.604  1.00  0.00    -0.000 A 
HETATM    2  C2  UNL     1      -1.311  -2.926   0.604  1.00  0.00    -0.000 A 
HETATM    3  C3  UNL     1       0.094  -2.873   0.604  1.00  0.00    -0.000 A 
HETATM    4  C4  UNL     1       0.754  -1.633   0.604  1.00  0.00    -0.002 A 
HETATM    5  C5  UNL     1       0.006  -0.440   0.604  1.00  0.00     0.010 A 
HETATM    6  C6  UNL     1      -1.398  -0.492   0.604  1.00  0.00    -0.002 A 
ENDROOT
BRANCH   5   7
HETATM    7  C7  UNL     1       0.703   0.873   0.604  1.00  0.00     0.211 C 
HETATM    8  O1  UNL     1       0.307   1.615   1.734  1.00  0.00    -0.216 OA
BRANCH   7   9
HETATM    9  C8  UNL     1       0.367   1.689  -0.646  1.00  0.00     0.336 C 
HETATM   10  C9  UNL     1       0.537   0.889  -1.938  1.00  0.00     0.044 C 
HETATM   11  N1  UNL     1       1.164   2.902  -0.691  1.00  0.00     0.619 N 
ENDBRANCH   7   9
ENDBRANCH   5   7
TORSDOF 2
