REMARK  1 active torsions:
REMARK  status: ('A' for Active; 'I' for Inactive)
REMARK    1  A    between atoms: C16_16  and  C25_25 
ROOT
HETATM    1  C1  UNL     1      -3.826  -1.889  -0.955  1.00  0.00     0.182 C 
HETATM    2  C2  UNL     1      -4.108  -1.742   0.560  1.00  0.00     0.182 C 
HETATM    3  C3  UNL     1      -4.740  -0.379   0.894  1.00  0.00     0.033 C 
HETATM    4  C4  UNL     1      -3.748   0.766   0.560  1.00  0.00     0.003 C 
HETATM    5  C5  UNL     1      -2.982   0.588  -0.803  1.00  0.00     0.003 C 
HETATM    6  C6  UNL     1      -3.637  -0.527  -1.662  1.00  0.00     0.036 C 
HETATM    7  C7  UNL     1      -1.471   0.297  -0.541  1.00  0.00     0.005 C 
HETATM    8  C8  UNL     1      -0.742   1.422   0.250  1.00  0.00     0.004 C 
HETATM    9  C9  UNL     1      -1.648   1.947   1.400  1.00  0.00     0.000 C 
HETATM   10  C10 UNL     1      -2.793   0.996   1.754  1.00  0.00     0.000 C 
HETATM   11  C11 UNL     1       0.623   0.846   0.769  1.00  0.00     0.018 C 
HETATM   12  C12 UNL     1       1.418   0.106  -0.309  1.00  0.00    -0.031 C 
HETATM   13  C13 UNL     1       0.828  -0.225  -1.486  1.00  0.00    -0.031 C 
HETATM   14  C14 UNL     1      -0.641  -0.031  -1.793  1.00  0.00     0.026 C 
HETATM   15  C15 UNL     1       2.859  -0.225  -0.049  1.00  0.00    -0.025 C 
HETATM   16  C16 UNL     1       3.693   0.699   0.840  1.00  0.00     0.096 C 
HETATM   17  C17 UNL     1       2.840   1.469   1.873  1.00  0.00     0.015 C 
HETATM   18  C18 UNL     1       1.520   1.988   1.308  1.00  0.00     0.005 C 
HETATM   19  C19 UNL     1       4.731  -0.119   1.648  1.00  0.00     0.015 C 
HETATM   20  C20 UNL     1       5.609  -1.061   0.814  1.00  0.00     0.005 C 
HETATM   21  C21 UNL     1       4.990  -1.447  -0.537  1.00  0.00     0.018 C 
HETATM   22  C22 UNL     1       3.477  -1.318  -0.576  1.00  0.00    -0.048 C 
HETATM   23  C23 UNL     1       2.707  -2.445  -1.227  1.00  0.00     0.026 C 
HETATM   24  C24 UNL     1       5.504  -2.816  -1.002  1.00  0.00     0.004 C 
HETATM   25  C26 UNL     1       0.355  -0.174   1.891  1.00  0.00     0.004 C 
HETATM   26  C27 UNL     1      -0.457   2.613  -0.690  1.00  0.00     0.000 C 
HETATM   27  C28 UNL     1      -3.106   1.889  -1.615  1.00  0.00     0.000 C 
HETATM   28  C29 UNL     1      -6.098  -0.176   0.201  1.00  0.00     0.003 C 
HETATM   29  O3  UNL     1      -4.955  -2.789   0.998  1.00  0.00    -0.221 OA
HETATM   30  O4  UNL     1      -2.684  -2.699  -1.147  1.00  0.00    -0.221 OA
ENDROOT
BRANCH  16  31
HETATM   31  C25 UNL     1       4.397   1.691  -0.059  1.00  0.00     0.188 C 
HETATM   32  O1  UNL     1       5.543   2.014   0.148  1.00  0.00    -0.647 OA
HETATM   33  O2  UNL     1       3.664   2.162  -1.065  1.00  0.00    -0.647 OA
ENDBRANCH  16  31
TORSDOF 1
