REMARK  7 active torsions:
REMARK  status: ('A' for Active; 'I' for Inactive)
REMARK    1  A    between atoms: C5_5  and  C9_9 
REMARK    2  A    between atoms: C9_9  and  C10_10 
REMARK    3  A    between atoms: C10_10  and  C11_11 
REMARK    4  A    between atoms: C11_11  and  C12_13 
REMARK    5  A    between atoms: C12_13  and  O2_14 
REMARK    6  A    between atoms: O2_14  and  C13_15 
REMARK    7  A    between atoms: C17_22  and  C18_24 
ROOT
HETATM    1  C11 UNL     1       0.082   0.506   0.014  1.00  0.00     0.182 C 
HETATM    2  O1  UNL     1      -1.039   0.629   0.861  1.00  0.00    -0.221 OA
ENDROOT
BRANCH   1   3
HETATM    3  C10 UNL     1       0.797  -0.803   0.354  1.00  0.00     0.036 C 
BRANCH   3   4
HETATM    4  C9  UNL     1       1.545  -0.736   1.686  1.00  0.00     0.007 C 
BRANCH   4   5
HETATM    5  C5  UNL     1       1.996  -2.117   2.180  1.00  0.00     0.019 C 
HETATM    6  C4  UNL     1       3.010  -2.680   1.201  1.00  0.00    -0.041 C 
HETATM    7  C3  UNL     1       4.336  -2.555   1.420  1.00  0.00     0.029 C 
HETATM    8  C19 UNL     1       2.502  -3.393  -0.025  1.00  0.00     0.026 C 
HETATM    9  C2  UNL     1       4.875  -1.883   2.615  1.00  0.00     0.172 C 
HETATM   10  C1  UNL     1       3.906  -1.328   3.637  1.00  0.00     0.069 C 
HETATM   11  O8  UNL     1       6.070  -1.785   2.775  1.00  0.00    -0.291 OA
HETATM   12  C6  UNL     1       2.553  -2.070   3.625  1.00  0.00     0.011 C 
HETATM   13  C7  UNL     1       2.750  -3.500   4.150  1.00  0.00     0.001 C 
HETATM   14  C8  UNL     1       1.565  -1.361   4.559  1.00  0.00     0.001 C 
ENDBRANCH   4   5
ENDBRANCH   3   4
ENDBRANCH   1   3
BRANCH   1  15
HETATM   15  C12 UNL     1      -0.408   0.553  -1.434  1.00  0.00     0.178 C 
BRANCH  15  16
HETATM   16  O2  UNL     1      -0.861   1.859  -1.705  1.00  0.00    -0.326 OA
BRANCH  16  17
HETATM   17  C13 UNL     1      -1.291   2.035  -3.047  1.00  0.00     0.270 C 
HETATM   18  C14 UNL     1      -1.627   3.516  -3.359  1.00  0.00     0.241 C 
HETATM   19  O3  UNL     1      -0.527   4.352  -3.035  1.00  0.00    -0.215 OA
HETATM   20  C15 UNL     1      -2.904   3.982  -2.627  1.00  0.00     0.220 C 
HETATM   21  O4  UNL     1      -3.275   5.275  -3.080  1.00  0.00    -0.218 OA
HETATM   22  C16 UNL     1      -4.047   2.980  -2.912  1.00  0.00     0.215 C 
HETATM   23  O5  UNL     1      -5.170   3.293  -2.109  1.00  0.00    -0.218 OA
HETATM   24  C17 UNL     1      -3.615   1.525  -2.617  1.00  0.00     0.184 C 
HETATM   25  O6  UNL     1      -2.422   1.219  -3.338  1.00  0.00    -0.326 OA
BRANCH  24  26
HETATM   26  C18 UNL     1      -4.664   0.496  -3.051  1.00  0.00     0.214 C 
HETATM   27  O7  UNL     1      -4.266  -0.768  -2.572  1.00  0.00    -0.218 OA
ENDBRANCH  24  26
ENDBRANCH  16  17
ENDBRANCH  15  16
ENDBRANCH   1  15
TORSDOF 7
