REMARK  0 active torsions:
REMARK  status: ('A' for Active; 'I' for Inactive)
ROOT
HETATM    1  N1  UNL     1       1.901   1.195  -0.064  1.00  0.00    -0.244 NA
HETATM    2  C1  UNL     1       2.703   0.028   0.011  1.00  0.00     0.099 A 
HETATM    3  C2  UNL     1       1.848  -1.088   0.075  1.00  0.00     0.022 A 
HETATM    4  C3  UNL     1       0.594  -0.588   0.039  1.00  0.00     0.021 A 
HETATM    5  C4  UNL     1      -0.606  -1.338   0.079  1.00  0.00     0.029 A 
HETATM    6  C5  UNL     1      -1.840  -0.639   0.031  1.00  0.00     0.131 A 
HETATM    7  C6  UNL     1      -1.855   0.780  -0.056  1.00  0.00     0.029 A 
HETATM    8  C7  UNL     1      -0.635   1.506  -0.096  1.00  0.00     0.021 A 
HETATM    9  C8  UNL     1       0.578   0.781  -0.045  1.00  0.00     0.082 A 
HETATM   10  O1  UNL     1      -2.995  -1.318   0.068  1.00  0.00    -0.190 OA
ENDROOT
TORSDOF 0
