REMARK  2 active torsions:
REMARK  status: ('A' for Active; 'I' for Inactive)
REMARK    1  A    between atoms: C1_1  and  C8_10 
REMARK    2  A    between atoms: C3_3  and  O2_8 
ROOT
HETATM    1  C1  UNL     1       0.142  -1.303   0.025  1.00  0.00     0.067 A 
HETATM    2  C2  UNL     1      -0.604  -0.111   0.025  1.00  0.00     0.032 A 
HETATM    3  C3  UNL     1       0.053   1.133   0.025  1.00  0.00     0.120 A 
HETATM    4  C4  UNL     1       1.459   1.186   0.025  1.00  0.00     0.153 A 
HETATM    5  C5  UNL     1       2.203  -0.008   0.025  1.00  0.00     0.030 A 
HETATM    6  C6  UNL     1       1.547  -1.252   0.025  1.00  0.00     0.008 A 
HETATM    7  O1  UNL     1       2.082   2.346   0.025  1.00  0.00    -0.188 OA
ENDROOT
BRANCH   1   8
HETATM    8  C8  UNL     1      -0.559  -2.623   0.025  1.00  0.00     0.211 C 
HETATM    9  O3  UNL     1      -1.766  -2.686   0.025  1.00  0.00    -0.644 OA
HETATM   10  O4  UNL     1       0.238  -3.688   0.025  1.00  0.00    -0.644 OA
ENDBRANCH   1   8
BRANCH   3  11
HETATM   11  O2  UNL     1      -0.653   2.248   0.025  1.00  0.00    -0.326 OA
HETATM   12  C7  UNL     1      -2.063   2.145  -0.100  1.00  0.00     0.181 C 
ENDBRANCH   3  11
TORSDOF 2
