REMARK  3 active torsions:
REMARK  status: ('A' for Active; 'I' for Inactive)
REMARK    1  A    between atoms: C4_4  and  O3_12 
REMARK    2  A    between atoms: O3_12  and  C10_13 
REMARK    3  A    between atoms: C14_20  and  C15_22 
ROOT
HETATM    1  C1  UNL     1       1.051   0.506   1.083  1.00  0.00     0.182 C 
HETATM    2  C2  UNL     1       1.152   1.029  -0.417  1.00  0.00     0.068 C 
HETATM    3  C3  UNL     1      -0.070   0.576  -1.260  1.00  0.00     0.147 C 
HETATM    4  C4  UNL     1      -1.317   0.957  -0.278  1.00  0.00     0.263 C 
HETATM    5  O1  UNL     1      -1.354   0.221   1.039  1.00  0.00    -0.329 OA
HETATM    6  C5  UNL     1      -0.172  -0.513   1.318  1.00  0.00     0.151 C 
HETATM    7  C6  UNL     1       0.209  -1.944   0.880  1.00  0.00     0.060 C 
HETATM    8  C7  UNL     1       0.744  -1.989  -0.642  1.00  0.00     0.095 C 
HETATM    9  C8  UNL     1       0.480  -3.412  -1.154  1.00  0.00     0.030 C 
HETATM   10  C9  UNL     1       2.337  -1.940  -0.703  1.00  0.00     0.030 C 
HETATM   11  O2  UNL     1       0.030  -0.955  -1.621  1.00  0.00    -0.359 OA
HETATM   12  C16 UNL     1      -0.128   1.410  -2.554  1.00  0.00     0.035 C 
HETATM   13  O9  UNL     1       0.861   1.669   1.909  1.00  0.00    -0.221 OA
ENDROOT
BRANCH   4  14
HETATM   14  O3  UNL     1      -2.685   0.973  -0.792  1.00  0.00    -0.302 OA
BRANCH  14  15
HETATM   15  C10 UNL     1      -3.772   0.908   0.301  1.00  0.00     0.272 C 
HETATM   16  C11 UNL     1      -5.167   1.322  -0.329  1.00  0.00     0.241 C 
HETATM   17  O4  UNL     1      -6.340   0.917   0.388  1.00  0.00    -0.215 OA
HETATM   18  C12 UNL     1      -5.321   2.892  -0.394  1.00  0.00     0.220 C 
HETATM   19  O5  UNL     1      -6.294   3.221  -1.380  1.00  0.00    -0.218 OA
HETATM   20  C13 UNL     1      -4.008   3.562  -0.494  1.00  0.00     0.215 C 
HETATM   21  O6  UNL     1      -4.129   4.963  -0.636  1.00  0.00    -0.218 OA
HETATM   22  C14 UNL     1      -3.469   3.220   1.043  1.00  0.00     0.184 C 
HETATM   23  O7  UNL     1      -3.525   1.765   1.420  1.00  0.00    -0.326 OA
BRANCH  22  24
HETATM   24  C15 UNL     1      -2.066   3.790   1.439  1.00  0.00     0.214 C 
HETATM   25  O8  UNL     1      -1.862   5.154   1.169  1.00  0.00    -0.218 OA
ENDBRANCH  22  24
ENDBRANCH  14  15
ENDBRANCH   4  14
TORSDOF 3
