REMARK  4 active torsions:
REMARK  status: ('A' for Active; 'I' for Inactive)
REMARK    1  A    between atoms: C1_1  and  C2_2 
REMARK    2  A    between atoms: C1_1  and  O2_9 
REMARK    3  A    between atoms: O2_9  and  C8_10 
REMARK    4  A    between atoms: C9_11  and  C15_17 
ROOT
HETATM    1  C8  UNL     1       0.193   0.660  -0.332  1.00  0.00     0.124 C 
HETATM    2  C9  UNL     1       1.502   0.476   0.457  1.00  0.00     0.028 C 
HETATM    3  C10 UNL     1       2.473   1.654   0.213  1.00  0.00     0.002 C 
HETATM    4  C11 UNL     1       1.762   2.973  -0.149  1.00  0.00     0.000 C 
HETATM    5  C12 UNL     1       0.381   3.098   0.512  1.00  0.00     0.002 C 
HETATM    6  C13 UNL     1      -0.555   1.951   0.060  1.00  0.00     0.030 C 
HETATM    7  C14 UNL     1       0.510   3.152   2.039  1.00  0.00     0.000 C 
ENDROOT
BRANCH   1   8
HETATM    8  O2  UNL     1      -0.660  -0.455  -0.121  1.00  0.00    -0.301 OA
BRANCH   8   9
HETATM    9  C1  UNL     1      -1.658  -0.502  -1.000  1.00  0.00     0.296 C 
HETATM   10  O1  UNL     1      -1.770   0.258  -1.934  1.00  0.00    -0.259 OA
BRANCH   9  11
HETATM   11  C2  UNL     1      -2.664  -1.580  -0.764  1.00  0.00     0.063 A 
HETATM   12  C3  UNL     1      -2.516  -2.455   0.328  1.00  0.00     0.005 A 
HETATM   13  C4  UNL     1      -3.463  -3.471   0.551  1.00  0.00     0.000 A 
HETATM   14  C5  UNL     1      -4.559  -3.612  -0.318  1.00  0.00     0.000 A 
HETATM   15  C6  UNL     1      -4.709  -2.738  -1.408  1.00  0.00     0.000 A 
HETATM   16  C7  UNL     1      -3.762  -1.723  -1.633  1.00  0.00     0.005 A 
ENDBRANCH   9  11
ENDBRANCH   8   9
ENDBRANCH   1   8
BRANCH   2  17
HETATM   17  C15 UNL     1       2.172  -0.869   0.158  1.00  0.00     0.002 C 
HETATM   18  C16 UNL     1       2.369  -1.111  -1.340  1.00  0.00     0.000 C 
HETATM   19  C17 UNL     1       3.453  -1.082   0.963  1.00  0.00     0.000 C 
ENDBRANCH   2  17
TORSDOF 4
