REMARK  1 active torsions:
REMARK  status: ('A' for Active; 'I' for Inactive)
REMARK    1  A    between atoms: C7_8  and  C10_11 
ROOT
HETATM    1  C1  UNL     1       3.930  -0.877   0.266  1.00  0.00     0.158 A 
HETATM    2  C2  UNL     1       4.277   0.486   0.420  1.00  0.00     0.156 A 
HETATM    3  C3  UNL     1       3.262   1.467   0.504  1.00  0.00     0.027 A 
HETATM    4  C4  UNL     1       1.899   1.090   0.438  1.00  0.00     0.002 A 
HETATM    5  C5  UNL     1       1.551  -0.283   0.293  1.00  0.00     0.092 A 
HETATM    6  C6  UNL     1       2.570  -1.260   0.203  1.00  0.00     0.053 A 
HETATM    7  O1  UNL     1       0.262  -0.686   0.229  1.00  0.00    -0.329 OA
HETATM    8  C7  UNL     1      -0.807   0.213   0.555  1.00  0.00     0.144 C 
HETATM    9  C8  UNL     1      -0.512   1.609  -0.023  1.00  0.00     0.040 C 
HETATM   10  C9  UNL     1       0.834   2.121   0.514  1.00  0.00     0.031 C 
HETATM   11  O3  UNL     1       5.565   0.852   0.482  1.00  0.00    -0.188 OA
HETATM   12  O4  UNL     1       4.889  -1.811   0.182  1.00  0.00    -0.188 OA
ENDROOT
BRANCH   8  13
HETATM   13  C10 UNL     1      -2.090  -0.350   0.051  1.00  0.00     0.005 A 
HETATM   14  C11 UNL     1      -3.195  -0.461   0.912  1.00  0.00     0.000 A 
HETATM   15  C12 UNL     1      -4.406  -0.994   0.436  1.00  0.00     0.027 A 
HETATM   16  C13 UNL     1      -4.516  -1.418  -0.900  1.00  0.00     0.131 A 
HETATM   17  C14 UNL     1      -3.406  -1.307  -1.760  1.00  0.00     0.027 A 
HETATM   18  O2  UNL     1      -5.650  -1.918  -1.346  1.00  0.00    -0.190 OA
HETATM   19  C15 UNL     1      -2.195  -0.774  -1.285  1.00  0.00     0.000 A 
ENDBRANCH   8  13
TORSDOF 1
