REMARK  2 active torsions:
REMARK  status: ('A' for Active; 'I' for Inactive)
REMARK    1  A    between atoms: C15_15  and  C18_18 
REMARK    2  A    between atoms: C19_20  and  C22_23 
ROOT
HETATM    1  C1  UNL     1      -5.889  -0.852   0.357  1.00  0.00     0.065 C 
HETATM    2  C2  UNL     1      -6.399   0.457   0.910  1.00  0.00     0.150 C 
HETATM    3  C3  UNL     1      -5.606   1.705   0.570  1.00  0.00     0.051 C 
HETATM    4  C4  UNL     1      -4.084   1.457   0.766  1.00  0.00     0.006 C 
HETATM    5  C5  UNL     1      -3.547   0.164   0.080  1.00  0.00     0.001 C 
HETATM    6  C6  UNL     1      -4.383  -1.031   0.590  1.00  0.00     0.008 C 
HETATM    7  C7  UNL     1      -2.039  -0.026   0.445  1.00  0.00     0.000 C 
HETATM    8  C8  UNL     1      -1.174   1.228   0.105  1.00  0.00     0.000 C 
HETATM    9  C9  UNL     1      -1.760   2.484   0.777  1.00  0.00     0.000 C 
HETATM   10  C10 UNL     1      -3.231   2.691   0.404  1.00  0.00     0.000 C 
HETATM   11  C11 UNL     1       0.266   0.969   0.627  1.00  0.00     0.000 C 
HETATM   12  C12 UNL     1       0.857  -0.274  -0.057  1.00  0.00     0.002 C 
HETATM   13  C13 UNL     1       0.053  -1.524   0.307  1.00  0.00     0.000 C 
HETATM   14  C14 UNL     1      -1.408  -1.319  -0.133  1.00  0.00     0.000 C 
HETATM   15  C15 UNL     1       2.322  -0.266   0.381  1.00  0.00     0.025 C 
HETATM   16  C16 UNL     1       2.676   1.228   0.355  1.00  0.00     0.002 C 
HETATM   17  C17 UNL     1       1.348   1.990   0.256  1.00  0.00     0.000 C 
HETATM   18  C26 UNL     1       0.314   0.824   2.158  1.00  0.00     0.000 C 
HETATM   19  C27 UNL     1      -1.098   1.465  -1.416  1.00  0.00     0.000 C 
HETATM   20  C28 UNL     1      -3.709   0.248  -1.447  1.00  0.00     0.000 C 
HETATM   21  C29 UNL     1      -5.936   2.094  -0.875  1.00  0.00     0.007 C 
HETATM   22  C30 UNL     1      -6.063   2.849   1.484  1.00  0.00     0.007 C 
HETATM   23  O3  UNL     1      -7.397   0.490   1.596  1.00  0.00    -0.296 OA
ENDROOT
BRANCH  15  24
HETATM   24  C18 UNL     1       3.199  -1.098  -0.549  1.00  0.00     0.093 C 
HETATM   25  O1  UNL     1       4.555  -0.862  -0.252  1.00  0.00    -0.359 OA
HETATM   26  C19 UNL     1       5.354  -1.881  -0.807  1.00  0.00     0.143 C 
HETATM   27  C20 UNL     1       4.473  -3.133  -0.709  1.00  0.00     0.035 C 
HETATM   28  C21 UNL     1       3.080  -2.606  -0.338  1.00  0.00     0.030 C 
HETATM   29  C25 UNL     1       2.928  -0.697  -1.998  1.00  0.00     0.030 C 
BRANCH  26  30
HETATM   30  C22 UNL     1       6.664  -1.963  -0.033  1.00  0.00     0.152 C 
HETATM   31  C23 UNL     1       7.391  -0.619  -0.100  1.00  0.00     0.035 C 
HETATM   32  C24 UNL     1       7.504  -3.117  -0.580  1.00  0.00     0.035 C 
HETATM   33  O2  UNL     1       6.357  -2.242   1.314  1.00  0.00    -0.224 OA
ENDBRANCH  26  30
ENDBRANCH  15  24
TORSDOF 2
