REMARK  1 active torsions:
REMARK  status: ('A' for Active; 'I' for Inactive)
REMARK    1  A    between atoms: C9_10  and  C11_13 
ROOT
HETATM    1  C1  UNL     1       2.014   2.647   0.430  1.00  0.00     0.035 C 
HETATM    2  C2  UNL     1       2.162   1.305   1.176  1.00  0.00     0.033 C 
HETATM    3  C3  UNL     1       2.174   0.057   0.273  1.00  0.00     0.129 C 
HETATM    4  C4  UNL     1       0.990   0.004  -0.779  1.00  0.00     0.061 C 
HETATM    5  C5  UNL     1       0.230   1.365  -0.943  1.00  0.00     0.033 C 
HETATM    6  C6  UNL     1       1.221   2.557  -0.895  1.00  0.00     0.152 C 
HETATM    7  O1  UNL     1       2.139   2.473  -1.973  1.00  0.00    -0.224 OA
HETATM    8  C7  UNL     1      -0.863   1.565   0.144  1.00  0.00     0.003 C 
HETATM    9  C8  UNL     1      -1.781   0.352   0.346  1.00  0.00     0.003 C 
HETATM   10  C9  UNL     1      -0.992  -0.949   0.560  1.00  0.00     0.031 C 
HETATM   11  C10 UNL     1      -0.041  -1.152  -0.633  1.00  0.00     0.154 C 
HETATM   12  O2  UNL     1       0.588  -2.420  -0.590  1.00  0.00    -0.223 OA
HETATM   13  C14 UNL     1      -0.496   1.373  -2.305  1.00  0.00     0.003 C 
HETATM   14  O3  UNL     1       3.400   0.094  -0.436  1.00  0.00    -0.226 OA
HETATM   15  C15 UNL     1       2.309  -1.178   1.174  1.00  0.00     0.033 C 
ENDROOT
BRANCH  10  16
HETATM   16  C11 UNL     1      -1.957  -2.127   0.760  1.00  0.00     0.002 C 
HETATM   17  C12 UNL     1      -2.760  -2.018   2.057  1.00  0.00     0.000 C 
HETATM   18  C13 UNL     1      -2.838  -2.381  -0.463  1.00  0.00     0.000 C 
ENDBRANCH  10  16
TORSDOF 1
