REMARK  8 active torsions:
REMARK  status: ('A' for Active; 'I' for Inactive)
REMARK    1  A    between atoms: C2_2  and  O2_32 
REMARK    2  A    between atoms: C16_16  and  C25_25 
REMARK    3  A    between atoms: O2_32  and  C31_33 
REMARK    4  A    between atoms: C33_35  and  O5_41 
REMARK    5  A    between atoms: O5_41  and  C37_42 
REMARK    6  A    between atoms: C38_43  and  O6_44 
REMARK    7  A    between atoms: O6_44  and  C39_45 
REMARK    8  A    between atoms: C43_52  and  C44_54 
ROOT
HETATM    1  O2  UNL     1       1.481  -1.447   0.119  1.00  0.00    -0.332 OA
ENDROOT
BRANCH   1   2
HETATM    2  C2  UNL     1       0.424  -1.994   0.891  1.00  0.00     0.118 C 
HETATM    3  C1  UNL     1      -0.396  -0.832   1.475  1.00  0.00     0.030 C 
HETATM    4  C6  UNL     1      -1.191  -0.074   0.396  1.00  0.00     0.003 C 
HETATM    5  C5  UNL     1      -2.121  -0.998  -0.434  1.00  0.00     0.001 C 
HETATM    6  C4  UNL     1      -1.250  -2.148  -1.027  1.00  0.00     0.002 C 
HETATM    7  C7  UNL     1      -2.775  -0.203  -1.611  1.00  0.00     0.005 C 
HETATM    8  C28 UNL     1      -3.199  -1.521   0.521  1.00  0.00     0.000 C 
HETATM    9  C3  UNL     1      -0.441  -2.953   0.033  1.00  0.00     0.025 C 
HETATM   10  C10 UNL     1      -2.061  -3.055  -1.973  1.00  0.00     0.000 C 
HETATM   11  C29 UNL     1      -1.385  -3.736   0.955  1.00  0.00     0.002 C 
HETATM   12  C30 UNL     1       0.463  -3.990  -0.652  1.00  0.00     0.002 C 
HETATM   13  C9  UNL     1      -2.721  -2.258  -3.111  1.00  0.00     0.000 C 
HETATM   14  C8  UNL     1      -3.564  -1.035  -2.668  1.00  0.00     0.004 C 
HETATM   15  C11 UNL     1      -5.053  -1.406  -2.238  1.00  0.00     0.015 C 
HETATM   16  C27 UNL     1      -3.633  -0.123  -3.916  1.00  0.00     0.000 C 
HETATM   17  C12 UNL     1      -5.690  -0.428  -1.244  1.00  0.00    -0.049 C 
HETATM   18  C18 UNL     1      -5.215  -2.830  -1.641  1.00  0.00     0.004 C 
HETATM   19  C26 UNL     1      -5.953  -1.387  -3.492  1.00  0.00     0.004 C 
HETATM   20  C13 UNL     1      -5.027   0.656  -0.775  1.00  0.00    -0.035 C 
HETATM   21  C15 UNL     1      -7.125  -0.736  -0.799  1.00  0.00     0.020 C 
HETATM   22  C14 UNL     1      -3.625   1.010  -1.191  1.00  0.00     0.025 C 
HETATM   23  C16 UNL     1      -7.291  -2.189  -0.283  1.00  0.00     0.034 C 
HETATM   24  C22 UNL     1      -7.754   0.274   0.203  1.00  0.00     0.004 C 
HETATM   25  C17 UNL     1      -6.666  -3.184  -1.283  1.00  0.00     0.003 C 
HETATM   26  C19 UNL     1      -8.797  -2.535  -0.102  1.00  0.00     0.003 C 
HETATM   27  C20 UNL     1      -9.723  -1.309  -0.020  1.00  0.00     0.000 C 
HETATM   28  C21 UNL     1      -9.117  -0.162   0.803  1.00  0.00     0.000 C 
HETATM   29  C23 UNL     1      -8.938  -0.629   2.254  1.00  0.00     0.000 C 
HETATM   30  C24 UNL     1     -10.088   1.025   0.814  1.00  0.00     0.000 C 
BRANCH  23  31
HETATM   31  C25 UNL     1      -6.566  -2.332   1.066  1.00  0.00     0.182 C 
HETATM   32  O1  UNL     1      -5.899  -1.121   1.338  1.00  0.00    -0.221 OA
ENDBRANCH  23  31
ENDBRANCH   1   2
BRANCH   1  33
HETATM   33  C31 UNL     1       2.365  -0.643   0.873  1.00  0.00     0.270 C 
HETATM   34  C32 UNL     1       3.619  -0.281   0.023  1.00  0.00     0.238 C 
HETATM   35  C33 UNL     1       4.871  -0.051   0.894  1.00  0.00     0.186 C 
HETATM   36  O15 UNL     1       3.352   0.850  -0.791  1.00  0.00    -0.215 OA
HETATM   37  C34 UNL     1       5.131  -1.330   1.744  1.00  0.00     0.209 C 
HETATM   38  C35 UNL     1       3.844  -2.137   2.092  1.00  0.00     0.151 C 
HETATM   39  O4  UNL     1       5.867  -1.047   2.926  1.00  0.00    -0.218 OA
HETATM   40  O3  UNL     1       2.707  -1.275   2.113  1.00  0.00    -0.329 OA
HETATM   41  C36 UNL     1       3.590  -3.303   1.127  1.00  0.00     0.035 C 
BRANCH  35  42
HETATM   42  O5  UNL     1       4.668   1.100   1.711  1.00  0.00    -0.326 OA
BRANCH  42  43
HETATM   43  C37 UNL     1       5.873   1.660   2.191  1.00  0.00     0.267 C 
HETATM   44  C38 UNL     1       6.158   3.088   1.609  1.00  0.00     0.207 C 
HETATM   45  C45 UNL     1       5.727   4.227   2.557  1.00  0.00     0.217 C 
HETATM   46  O12 UNL     1       4.307   4.225   2.668  1.00  0.00    -0.218 OA
HETATM   47  C46 UNL     1       6.426   4.018   3.936  1.00  0.00     0.212 C 
HETATM   48  O13 UNL     1       5.699   4.639   4.990  1.00  0.00    -0.218 OA
HETATM   49  C47 UNL     1       6.744   2.526   4.260  1.00  0.00     0.151 C 
HETATM   50  O14 UNL     1       5.799   1.682   3.619  1.00  0.00    -0.329 OA
HETATM   51  C48 UNL     1       6.754   2.168   5.752  1.00  0.00     0.035 C 
BRANCH  44  52
HETATM   52  O6  UNL     1       5.635   3.285   0.303  1.00  0.00    -0.324 OA
BRANCH  52  53
HETATM   53  C39 UNL     1       6.567   2.994  -0.719  1.00  0.00     0.270 C 
HETATM   54  C40 UNL     1       5.830   2.955  -2.098  1.00  0.00     0.241 C 
HETATM   55  O7  UNL     1       6.309   1.852  -2.846  1.00  0.00    -0.215 OA
HETATM   56  C41 UNL     1       6.043   4.229  -2.942  1.00  0.00     0.220 C 
HETATM   57  O8  UNL     1       5.317   5.278  -2.324  1.00  0.00    -0.218 OA
HETATM   58  C42 UNL     1       7.543   4.633  -3.010  1.00  0.00     0.215 C 
HETATM   59  O9  UNL     1       8.090   4.194  -4.240  1.00  0.00    -0.218 OA
HETATM   60  C43 UNL     1       8.406   4.096  -1.828  1.00  0.00     0.184 C 
HETATM   61  O10 UNL     1       7.590   3.990  -0.670  1.00  0.00    -0.326 OA
BRANCH  60  62
HETATM   62  C44 UNL     1       9.119   2.750  -2.059  1.00  0.00     0.214 C 
HETATM   63  O11 UNL     1      10.088   2.586  -1.049  1.00  0.00    -0.218 OA
ENDBRANCH  60  62
ENDBRANCH  52  53
ENDBRANCH  44  52
ENDBRANCH  42  43
ENDBRANCH  35  42
ENDBRANCH   1  33
TORSDOF 8
