REMARK  2 active torsions:
REMARK  status: ('A' for Active; 'I' for Inactive)
REMARK    1  A    between atoms: C1_1  and  C2_2 
REMARK    2  A    between atoms: C2_2  and  C3_3 
ROOT
HETATM    1  C2  UNL     1       0.065  -0.546  -0.001  1.00  0.00     0.036 C 
ENDROOT
BRANCH   1   2
HETATM    2  C1  UNL     1       1.594  -0.575  -0.001  1.00  0.00     0.182 C 
HETATM    3  O1  UNL     1       2.010  -1.922  -0.001  1.00  0.00    -0.221 OA
ENDBRANCH   1   2
BRANCH   1   4
HETATM    4  C3  UNL     1      -0.498   0.875  -0.001  1.00  0.00     0.003 C 
HETATM    5  C4  UNL     1      -2.027   0.904  -0.001  1.00  0.00     0.000 C 
ENDBRANCH   1   4
TORSDOF 2
