REMARK  4 active torsions:
REMARK  status: ('A' for Active; 'I' for Inactive)
REMARK    1  A    between atoms: C3_3  and  C12_13 
REMARK    2  A    between atoms: C5_5  and  C7_8 
REMARK    3  A    between atoms: C7_8  and  C8_9 
REMARK    4  A    between atoms: C12_13  and  C13_14 
ROOT
HETATM    1  C1  UNL     1       2.299  -2.363   0.129  1.00  0.00     0.027 A 
HETATM    2  C2  UNL     1       2.957  -1.123   0.129  1.00  0.00    -0.002 A 
HETATM    3  C3  UNL     1       2.211   0.069   0.129  1.00  0.00    -0.018 A 
HETATM    4  C4  UNL     1       0.807   0.016   0.129  1.00  0.00    -0.006 A 
HETATM    5  C5  UNL     1       0.146  -1.226   0.129  1.00  0.00     0.007 A 
HETATM    6  C6  UNL     1       0.893  -2.420   0.129  1.00  0.00     0.127 A 
HETATM    7  O1  UNL     1       0.285  -3.590   0.129  1.00  0.00    -0.191 OA
ENDROOT
BRANCH   5   8
HETATM    8  C7  UNL     1      -1.340  -1.269   0.129  1.00  0.00     0.054 C 
BRANCH   8   9
HETATM    9  C8  UNL     1      -1.941  -0.074   0.820  1.00  0.00    -0.030 C 
HETATM   10  C9  UNL     1      -3.205   0.268   0.523  1.00  0.00    -0.048 C 
HETATM   11  C10 UNL     1      -3.781   1.508   1.154  1.00  0.00     0.026 C 
HETATM   12  C11 UNL     1      -3.982  -0.605  -0.426  1.00  0.00     0.026 C 
ENDBRANCH   8   9
ENDBRANCH   5   8
BRANCH   3  13
HETATM   13  C12 UNL     1       2.906   1.383   0.129  1.00  0.00     0.052 C 
BRANCH  13  14
HETATM   14  C13 UNL     1       3.402   1.762  -1.242  1.00  0.00    -0.021 C 
HETATM   15  C14 UNL     1       3.713   3.047  -1.479  1.00  0.00    -0.005 C 
ENDBRANCH  13  14
ENDBRANCH   3  13
TORSDOF 4
