REMARK  10 active torsions:
REMARK  status: ('A' for Active; 'I' for Inactive)
REMARK    1  A    between atoms: C1_1  and  O13_47 
REMARK    2  A    between atoms: C2_2  and  O11_43 
REMARK    3  A    between atoms: C13_15  and  O4_18 
REMARK    4  A    between atoms: O4_18  and  C15_19 
REMARK    5  A    between atoms: C17_22  and  C20_26 
REMARK    6  A    between atoms: C27_35  and  O9_36 
REMARK    7  A    between atoms: O9_36  and  C28_37 
REMARK    8  A    between atoms: C28_37  and  C29_39 
REMARK    9  A    between atoms: O11_43  and  C33_44 
REMARK   10  A    between atoms: O13_47  and  C35_48 
ROOT
HETATM    1  C1  UNL     1      -2.229  -1.227   1.164  1.00  0.00     0.182 C 
HETATM    2  C2  UNL     1      -3.201  -0.051   0.973  1.00  0.00     0.159 C 
HETATM    3  C3  UNL     1      -2.527   1.271   0.471  1.00  0.00     0.081 C 
HETATM    4  C4  UNL     1      -0.975   1.141   0.502  1.00  0.00     0.015 C 
HETATM    5  C5  UNL     1      -0.533   0.000  -0.467  1.00  0.00     0.065 C 
HETATM    6  C6  UNL     1      -1.207  -1.359   0.008  1.00  0.00     0.185 C 
HETATM    7  O1  UNL     1      -0.281  -2.361   0.397  1.00  0.00    -0.221 OA
HETATM    8  C7  UNL     1       1.045  -0.076  -0.486  1.00  0.00     0.070 C 
HETATM    9  C8  UNL     1       1.803   1.279  -0.676  1.00  0.00     0.060 C 
HETATM   10  C9  UNL     1       1.293   2.346   0.316  1.00  0.00     0.155 C 
HETATM   11  C10 UNL     1      -0.238   2.482   0.248  1.00  0.00     0.034 C 
HETATM   12  O2  UNL     1       1.664   2.021   1.645  1.00  0.00    -0.223 OA
HETATM   13  C11 UNL     1       3.322   0.977  -0.451  1.00  0.00     0.123 A 
HETATM   14  C12 UNL     1       3.869  -0.451  -0.305  1.00  0.00     0.061 C 
HETATM   15  C13 UNL     1       3.178  -1.297  -1.381  1.00  0.00     0.183 C 
HETATM   16  C14 UNL     1       1.666  -1.131  -1.406  1.00  0.00     0.178 C 
HETATM   17  O3  UNL     1       0.994  -1.818  -2.141  1.00  0.00    -0.293 OA
HETATM   18  C17 UNL     1       5.414  -0.309  -0.365  1.00  0.00     0.032 C 
HETATM   19  C18 UNL     1       5.707   1.039   0.346  1.00  0.00     0.037 C 
HETATM   20  C19 UNL     1       4.459   1.893   0.096  1.00  0.00     0.140 A 
HETATM   21  O6  UNL     1       4.115   1.832  -1.244  1.00  0.00    -0.356 OA
HETATM   22  C24 UNL     1       3.545  -0.924   1.119  1.00  0.00     0.006 C 
HETATM   23  C25 UNL     1       1.602   1.785  -2.121  1.00  0.00     0.005 C 
HETATM   24  C26 UNL     1      -1.106   0.350  -1.881  1.00  0.00     0.148 C 
HETATM   25  O8  UNL     1      -2.516   0.519  -1.846  1.00  0.00    -0.331 OA
HETATM   26  C27 UNL     1      -2.965   1.557  -0.990  1.00  0.00     0.245 C 
HETATM   27  C32 UNL     1      -2.971   2.459   1.342  1.00  0.00     0.008 C 
ENDROOT
BRANCH  26  28
HETATM   28  O9  UNL     1      -4.381   1.648  -1.070  1.00  0.00    -0.276 OA
BRANCH  28  29
HETATM   29  C28 UNL     1      -4.793   2.127  -2.242  1.00  0.00     0.273 C 
HETATM   30  O10 UNL     1      -4.047   2.467  -3.129  1.00  0.00    -0.264 OA
BRANCH  29  31
HETATM   31  C29 UNL     1      -6.285   2.221  -2.406  1.00  0.00     0.087 C 
HETATM   32  C30 UNL     1      -6.692   2.676  -3.809  1.00  0.00     0.010 C 
HETATM   33  C31 UNL     1      -6.942   3.053  -1.303  1.00  0.00     0.010 C 
ENDBRANCH  29  31
ENDBRANCH  28  29
ENDBRANCH  26  28
BRANCH   2  34
HETATM   34  O11 UNL     1      -3.897   0.158   2.197  1.00  0.00    -0.301 OA
BRANCH  34  35
HETATM   35  C33 UNL     1      -4.764  -0.815   2.459  1.00  0.00     0.272 C 
HETATM   36  O12 UNL     1      -5.055  -1.688   1.674  1.00  0.00    -0.264 OA
HETATM   37  C34 UNL     1      -5.385  -0.768   3.830  1.00  0.00     0.106 C 
ENDBRANCH  34  35
ENDBRANCH   2  34
BRANCH   1  38
HETATM   38  O13 UNL     1      -1.555  -1.076   2.410  1.00  0.00    -0.299 OA
BRANCH  38  39
HETATM   39  C35 UNL     1      -1.303  -2.246   2.992  1.00  0.00     0.273 C 
HETATM   40  O14 UNL     1      -1.682  -3.309   2.561  1.00  0.00    -0.264 OA
HETATM   41  C36 UNL     1      -0.496  -2.168   4.262  1.00  0.00     0.106 C 
ENDBRANCH  38  39
ENDBRANCH   1  38
BRANCH  15  42
HETATM   42  O4  UNL     1       3.494  -2.666  -1.182  1.00  0.00    -0.297 OA
BRANCH  42  43
HETATM   43  C15 UNL     1       3.297  -3.397  -2.275  1.00  0.00     0.273 C 
HETATM   44  O5  UNL     1       3.019  -2.930  -3.355  1.00  0.00    -0.264 OA
HETATM   45  C16 UNL     1       3.441  -4.883  -2.088  1.00  0.00     0.106 C 
ENDBRANCH  42  43
ENDBRANCH  15  42
BRANCH  18  46
HETATM   46  C20 UNL     1       6.176  -1.471   0.236  1.00  0.00     0.004 A 
HETATM   47  C21 UNL     1       6.354  -2.742  -0.316  1.00  0.00     0.118 A 
HETATM   48  O7  UNL     1       7.094  -3.557   0.488  1.00  0.00    -0.303 OA
HETATM   49  C22 UNL     1       7.387  -2.779   1.572  1.00  0.00     0.122 A 
HETATM   50  C23 UNL     1       6.846  -1.494   1.459  1.00  0.00     0.025 A 
ENDBRANCH  18  46
TORSDOF 10
