REMARK  4 active torsions:
REMARK  status: ('A' for Active; 'I' for Inactive)
REMARK    1  A    between atoms: C4_4  and  C8_8 
REMARK    2  A    between atoms: C8_8  and  C9_9 
REMARK    3  A    between atoms: C9_9  and  C10_10 
REMARK    4  A    between atoms: C11_11  and  C13_13 
ROOT
HETATM    1  C1  UNL     1       3.514  -1.109   0.469  1.00  0.00     0.002 C 
HETATM    2  C2  UNL     1       2.432  -0.992  -0.615  1.00  0.00     0.028 C 
HETATM    3  C3  UNL     1       0.998  -0.949  -0.053  1.00  0.00     0.152 C 
HETATM    4  C4  UNL     1       0.936   0.408   0.686  1.00  0.00     0.029 C 
HETATM    5  C5  UNL     1       2.336   0.971   0.367  1.00  0.00     0.003 C 
HETATM    6  C6  UNL     1       3.451   0.258   1.145  1.00  0.00     0.000 C 
HETATM    7  C7  UNL     1       2.608   0.459  -1.045  1.00  0.00     0.003 C 
HETATM    8  C14 UNL     1       0.682   0.377   2.193  1.00  0.00     0.003 C 
HETATM    9  O2  UNL     1       0.746  -2.055   0.795  1.00  0.00    -0.224 OA
HETATM   10  C15 UNL     1       2.611  -1.998  -1.750  1.00  0.00     0.003 C 
ENDROOT
BRANCH   4  11
HETATM   11  C8  UNL     1      -0.103   1.303   0.008  1.00  0.00     0.007 C 
BRANCH  11  12
HETATM   12  C9  UNL     1      -1.506   0.775   0.316  1.00  0.00     0.025 C 
BRANCH  12  13
HETATM   13  C10 UNL     1      -2.549   1.342  -0.609  1.00  0.00    -0.032 C 
HETATM   14  C11 UNL     1      -3.779   0.805  -0.594  1.00  0.00    -0.015 C 
HETATM   15  C12 UNL     1      -4.822   1.371  -1.521  1.00  0.00     0.029 C 
BRANCH  14  16
HETATM   16  C13 UNL     1      -4.053  -0.336   0.348  1.00  0.00     0.204 C 
HETATM   17  O1  UNL     1      -3.654  -1.549  -0.252  1.00  0.00    -0.216 OA
ENDBRANCH  14  16
ENDBRANCH  12  13
ENDBRANCH  11  12
ENDBRANCH   4  11
TORSDOF 4
