REMARK  13 active torsions:
REMARK  status: ('A' for Active; 'I' for Inactive)
REMARK    1  A    between atoms: C3_3  and  O8_25 
REMARK    2  A    between atoms: C4_4  and  O3_9 
REMARK    3  A    between atoms: C5_6  and  C6_7 
REMARK    4  A    between atoms: O3_9  and  C7_10 
REMARK    5  A    between atoms: C7_10  and  C8_11 
REMARK    6  A    between atoms: C9_12  and  C10_13 
REMARK    7  A    between atoms: C12_15  and  O6_22 
REMARK    8  A    between atoms: C14_17  and  O4_19 
REMARK    9  A    between atoms: O8_25  and  C18_26 
REMARK   10  A    between atoms: C18_26  and  C19_27 
REMARK   11  A    between atoms: C20_28  and  C21_29 
REMARK   12  A    between atoms: C23_31  and  O11_38 
REMARK   13  A    between atoms: C25_33  and  O9_35 
ROOT
HETATM    1  C1  UNL     1      -4.289  -1.539   1.475  1.00  0.00     0.215 C 
HETATM    2  C2  UNL     1      -3.443  -0.270   1.225  1.00  0.00     0.217 C 
HETATM    3  C3  UNL     1      -2.086  -0.344   1.949  1.00  0.00     0.214 C 
HETATM    4  C4  UNL     1      -1.379  -1.705   1.762  1.00  0.00     0.274 C 
HETATM    5  O1  UNL     1      -2.258  -2.783   2.074  1.00  0.00    -0.326 OA
HETATM    6  C5  UNL     1      -3.475  -2.850   1.328  1.00  0.00     0.184 C 
HETATM    7  O13 UNL     1      -3.217  -0.133  -0.166  1.00  0.00    -0.218 OA
HETATM    8  O14 UNL     1      -4.832  -1.473   2.781  1.00  0.00    -0.218 OA
ENDROOT
BRANCH   3   9
HETATM    9  O8  UNL     1      -2.295  -0.129   3.340  1.00  0.00    -0.293 OA
BRANCH   9  10
HETATM   10  C18 UNL     1      -2.701   1.109   3.604  1.00  0.00     0.296 C 
HETATM   11  O12 UNL     1      -3.785   1.379   4.067  1.00  0.00    -0.259 OA
BRANCH  10  12
HETATM   12  C19 UNL     1      -1.738   2.176   3.299  1.00  0.00     0.068 C 
HETATM   13  C20 UNL     1      -0.428   2.004   3.539  1.00  0.00     0.006 C 
BRANCH  13  14
HETATM   14  C21 UNL     1       0.512   3.117   3.211  1.00  0.00     0.004 A 
HETATM   15  C22 UNL     1       0.213   4.008   2.166  1.00  0.00     0.026 A 
HETATM   16  C23 UNL     1       1.098   5.057   1.856  1.00  0.00     0.121 A 
HETATM   17  C24 UNL     1       2.285   5.213   2.594  1.00  0.00     0.175 A 
HETATM   18  C25 UNL     1       2.586   4.322   3.641  1.00  0.00     0.121 A 
HETATM   19  O10 UNL     1       3.115   6.195   2.307  1.00  0.00    -0.186 OA
HETATM   20  C26 UNL     1       1.699   3.275   3.947  1.00  0.00     0.026 A 
BRANCH  16  21
HETATM   21  O11 UNL     1       0.811   5.889   0.875  1.00  0.00    -0.326 OA
HETATM   22  C28 UNL     1      -0.393   5.678   0.152  1.00  0.00     0.181 C 
ENDBRANCH  16  21
BRANCH  18  23
HETATM   23  O9  UNL     1       3.697   4.465   4.336  1.00  0.00    -0.326 OA
HETATM   24  C27 UNL     1       3.842   3.707   5.527  1.00  0.00     0.181 C 
ENDBRANCH  18  23
ENDBRANCH  13  14
ENDBRANCH  10  12
ENDBRANCH   9  10
ENDBRANCH   3   9
BRANCH   4  25
HETATM   25  O3  UNL     1      -0.867  -1.814   0.440  1.00  0.00    -0.270 OA
BRANCH  25  26
HETATM   26  C7  UNL     1       0.066  -2.756   0.336  1.00  0.00     0.298 C 
HETATM   27  O7  UNL     1       0.383  -3.494   1.240  1.00  0.00    -0.259 OA
BRANCH  26  28
HETATM   28  C8  UNL     1       0.723  -2.861  -0.973  1.00  0.00     0.068 C 
HETATM   29  C9  UNL     1       0.471  -1.963  -1.939  1.00  0.00     0.006 C 
BRANCH  29  30
HETATM   30  C10 UNL     1       1.162  -2.113  -3.254  1.00  0.00     0.004 A 
HETATM   31  C11 UNL     1       1.314  -1.000  -4.102  1.00  0.00     0.026 A 
HETATM   32  C12 UNL     1       1.965  -1.139  -5.340  1.00  0.00     0.121 A 
HETATM   33  C13 UNL     1       2.465  -2.395  -5.732  1.00  0.00     0.175 A 
HETATM   34  C14 UNL     1       2.314  -3.508  -4.887  1.00  0.00     0.121 A 
HETATM   35  O5  UNL     1       3.076  -2.525  -6.895  1.00  0.00    -0.186 OA
HETATM   36  C15 UNL     1       1.662  -3.365  -3.650  1.00  0.00     0.026 A 
BRANCH  32  37
HETATM   37  O6  UNL     1       2.106  -0.092  -6.127  1.00  0.00    -0.326 OA
HETATM   38  C17 UNL     1       1.490   1.127  -5.734  1.00  0.00     0.181 C 
ENDBRANCH  32  37
BRANCH  34  39
HETATM   39  O4  UNL     1       2.781  -4.686  -5.252  1.00  0.00    -0.326 OA
HETATM   40  C16 UNL     1       2.703  -5.752  -4.318  1.00  0.00     0.181 C 
ENDBRANCH  34  39
ENDBRANCH  29  30
ENDBRANCH  26  28
ENDBRANCH  25  26
ENDBRANCH   4  25
BRANCH   6  41
HETATM   41  C6  UNL     1      -3.172  -3.211  -0.131  1.00  0.00     0.214 C 
HETATM   42  O2  UNL     1      -2.416  -4.402  -0.143  1.00  0.00    -0.218 OA
ENDBRANCH   6  41
TORSDOF 13
