REMARK  5 active torsions:
REMARK  status: ('A' for Active; 'I' for Inactive)
REMARK    1  A    between atoms: C3_3  and  C7_8 
REMARK    2  A    between atoms: C8_9  and  C9_10 
REMARK    3  A    between atoms: C9_10  and  O3_12 
REMARK    4  A    between atoms: O3_12  and  C10_13 
REMARK    5  A    between atoms: C13_16  and  C16_21 
ROOT
HETATM    1  O3  UNL     1      -0.314   1.396   0.709  1.00  0.00    -0.296 OA
ENDROOT
BRANCH   1   2
HETATM    2  C9  UNL     1      -1.295   1.299  -0.184  1.00  0.00     0.296 C 
HETATM    3  O2  UNL     1      -1.180   0.742  -1.252  1.00  0.00    -0.259 OA
BRANCH   2   4
HETATM    4  C8  UNL     1      -2.568   1.920   0.197  1.00  0.00     0.068 C 
HETATM    5  C7  UNL     1      -3.721   1.236   0.096  1.00  0.00     0.005 C 
BRANCH   5   6
HETATM    6  C3  UNL     1      -3.680  -0.168  -0.412  1.00  0.00     0.002 A 
HETATM    7  C2  UNL     1      -4.539  -0.565  -1.453  1.00  0.00     0.029 A 
HETATM    8  C1  UNL     1      -4.502  -1.885  -1.934  1.00  0.00     0.156 A 
HETATM    9  C6  UNL     1      -3.604  -2.813  -1.373  1.00  0.00     0.156 A 
HETATM   10  O9  UNL     1      -5.311  -2.252  -2.910  1.00  0.00    -0.188 OA
HETATM   11  C5  UNL     1      -2.746  -2.414  -0.334  1.00  0.00     0.029 A 
HETATM   12  O1  UNL     1      -3.564  -4.053  -1.820  1.00  0.00    -0.188 OA
HETATM   13  C4  UNL     1      -2.781  -1.094   0.146  1.00  0.00     0.002 A 
ENDBRANCH   5   6
ENDBRANCH   2   4
ENDBRANCH   1   2
BRANCH   1  14
HETATM   14  C10 UNL     1       0.965   1.144   0.139  1.00  0.00     0.185 C 
HETATM   15  C11 UNL     1       2.000   2.107   0.754  1.00  0.00     0.185 C 
HETATM   16  C12 UNL     1       3.426   1.806   0.250  1.00  0.00     0.077 C 
HETATM   17  O8  UNL     1       1.664   3.439   0.418  1.00  0.00    -0.221 OA
HETATM   18  C13 UNL     1       3.826   0.338   0.510  1.00  0.00     0.209 C 
HETATM   19  C14 UNL     1       2.787  -0.625  -0.107  1.00  0.00     0.077 C 
HETATM   20  O5  UNL     1       5.070   0.103  -0.121  1.00  0.00    -0.215 OA
HETATM   21  C15 UNL     1       1.361  -0.324   0.395  1.00  0.00     0.185 C 
HETATM   22  O4  UNL     1       0.449  -1.182  -0.262  1.00  0.00    -0.221 OA
BRANCH  18  23
HETATM   23  C16 UNL     1       4.018   0.070   1.982  1.00  0.00     0.214 C 
HETATM   24  O6  UNL     1       3.668  -0.977   2.477  1.00  0.00    -0.646 OA
HETATM   25  O7  UNL     1       4.588   1.058   2.668  1.00  0.00    -0.646 OA
ENDBRANCH  18  23
ENDBRANCH   1  14
TORSDOF 5
