REMARK  3 active torsions:
REMARK  status: ('A' for Active; 'I' for Inactive)
REMARK    1  A    between atoms: C6_6  and  C7_7 
REMARK    2  A    between atoms: C7_7  and  C8_8 
REMARK    3  A    between atoms: C8_8  and  C9_9 
ROOT
HETATM    1  C1  UNL     1       0.508   0.359   1.689  1.00  0.00     0.018 C 
HETATM    2  C2  UNL     1       1.844   0.924   2.195  1.00  0.00    -0.048 C 
HETATM    3  C3  UNL     1       1.949   2.262   2.316  1.00  0.00    -0.034 C 
HETATM    4  C4  UNL     1       0.738   3.096   1.941  1.00  0.00     0.025 C 
HETATM    5  C5  UNL     1      -0.441   2.215   1.473  1.00  0.00     0.005 C 
HETATM    6  C6  UNL     1      -0.039   1.117   0.439  1.00  0.00     0.004 C 
HETATM    7  C13 UNL     1       1.014   1.537  -0.586  1.00  0.00     0.000 C 
HETATM    8  C14 UNL     1      -0.686   1.018   2.432  1.00  0.00     0.004 C 
HETATM    9  C15 UNL     1       2.992   0.012   2.543  1.00  0.00     0.026 C 
ENDROOT
BRANCH   6  10
HETATM   10  C7  UNL     1      -1.215   0.434  -0.266  1.00  0.00     0.005 C 
BRANCH  10  11
HETATM   11  C8  UNL     1      -0.707  -0.787  -1.035  1.00  0.00     0.025 C 
BRANCH  11  12
HETATM   12  C9  UNL     1      -1.830  -1.605  -1.615  1.00  0.00    -0.034 C 
HETATM   13  C10 UNL     1      -1.545  -2.480  -2.596  1.00  0.00    -0.048 C 
HETATM   14  C11 UNL     1      -0.107  -2.654  -3.006  1.00  0.00     0.026 C 
HETATM   15  C12 UNL     1      -2.678  -3.240  -3.231  1.00  0.00     0.026 C 
ENDBRANCH  11  12
ENDBRANCH  10  11
ENDBRANCH   6  10
TORSDOF 3
