REMARK  5 active torsions:
REMARK  status: ('A' for Active; 'I' for Inactive)
REMARK    1  A    between atoms: C1_1  and  O5_22 
REMARK    2  A    between atoms: C14_16  and  O4_20 
REMARK    3  A    between atoms: C15_17  and  O3_18 
REMARK    4  A    between atoms: O5_22  and  C18_23 
REMARK    5  A    between atoms: C19_25  and  C23_32 
ROOT
HETATM    1  C1  UNL     1      -2.117  -1.512   0.545  1.00  0.00     0.099 A 
HETATM    2  C2  UNL     1      -2.098  -1.837  -0.831  1.00  0.00     0.024 A 
HETATM    3  C3  UNL     1      -1.634  -0.893  -1.775  1.00  0.00     0.002 A 
HETATM    4  C4  UNL     1      -1.184   0.381  -1.348  1.00  0.00     0.028 A 
HETATM    5  C5  UNL     1      -1.165   0.691   0.040  1.00  0.00     0.094 A 
HETATM    6  C6  UNL     1      -1.650  -0.249   0.979  1.00  0.00     0.048 A 
HETATM    7  O1  UNL     1      -0.691   1.873   0.480  1.00  0.00    -0.331 OA
HETATM    8  C7  UNL     1       0.247   2.604  -0.312  1.00  0.00     0.156 C 
HETATM    9  C8  UNL     1      -0.240   2.750  -1.763  1.00  0.00     0.086 C 
HETATM   10  C9  UNL     1      -0.757   1.392  -2.346  1.00  0.00     0.152 C 
HETATM   11  O2  UNL     1       0.292   0.905  -3.201  1.00  0.00    -0.327 OA
HETATM   12  C10 UNL     1       1.170   1.874  -3.461  1.00  0.00     0.115 A 
HETATM   13  C11 UNL     1       0.923   3.022  -2.691  1.00  0.00     0.007 A 
HETATM   14  C12 UNL     1       1.728   4.174  -2.854  1.00  0.00    -0.000 A 
HETATM   15  C13 UNL     1       2.797   4.178  -3.768  1.00  0.00     0.026 A 
HETATM   16  C14 UNL     1       3.064   3.019  -4.521  1.00  0.00     0.118 A 
HETATM   17  C15 UNL     1       2.261   1.860  -4.375  1.00  0.00     0.138 A 
ENDROOT
BRANCH   1  18
HETATM   18  O5  UNL     1      -2.572  -2.401   1.437  1.00  0.00    -0.304 OA
BRANCH  18  19
HETATM   19  C18 UNL     1      -2.309  -2.161   2.813  1.00  0.00     0.275 C 
HETATM   20  O6  UNL     1      -0.902  -2.124   3.011  1.00  0.00    -0.318 OA
HETATM   21  C19 UNL     1      -0.488  -1.840   4.342  1.00  0.00     0.237 C 
HETATM   22  C20 UNL     1      -1.018  -2.941   5.292  1.00  0.00     0.223 C 
HETATM   23  C21 UNL     1      -2.549  -3.112   5.161  1.00  0.00     0.221 C 
HETATM   24  O9  UNL     1      -0.691  -2.593   6.627  1.00  0.00    -0.217 OA
HETATM   25  C22 UNL     1      -2.926  -3.283   3.674  1.00  0.00     0.241 C 
HETATM   26  O8  UNL     1      -2.972  -4.247   5.899  1.00  0.00    -0.218 OA
HETATM   27  O7  UNL     1      -4.334  -3.247   3.523  1.00  0.00    -0.215 OA
BRANCH  21  28
HETATM   28  C23 UNL     1       1.017  -1.731   4.342  1.00  0.00     0.217 C 
HETATM   29  O10 UNL     1       1.563  -0.653   4.342  1.00  0.00    -0.646 OA
HETATM   30  O11 UNL     1       1.668  -2.891   4.342  1.00  0.00    -0.646 OA
ENDBRANCH  21  28
ENDBRANCH  18  19
ENDBRANCH   1  18
BRANCH  17  31
HETATM   31  O3  UNL     1       2.628   0.831  -5.151  1.00  0.00    -0.324 OA
HETATM   32  C16 UNL     1       1.859  -0.361  -5.087  1.00  0.00     0.182 C 
ENDBRANCH  17  31
BRANCH  16  33
HETATM   33  O4  UNL     1       4.091   3.023  -5.384  1.00  0.00    -0.326 OA
HETATM   34  C17 UNL     1       4.890   4.193  -5.464  1.00  0.00     0.181 C 
ENDBRANCH  16  33
TORSDOF 5
