REMARK  2 active torsions:
REMARK  status: ('A' for Active; 'I' for Inactive)
REMARK    1  A    between atoms: C10_10  and  O1_11 
REMARK    2  A    between atoms: O1_11  and  C11_12 
ROOT
HETATM    1  C1  UNL     1      -2.027  -2.531   0.348  1.00  0.00     0.000 C 
HETATM    2  C2  UNL     1      -2.826  -1.396   1.000  1.00  0.00     0.000 C 
HETATM    3  C3  UNL     1      -2.391  -0.006   0.498  1.00  0.00     0.002 C 
HETATM    4  C4  UNL     1      -0.855   0.162   0.691  1.00  0.00     0.030 C 
HETATM    5  C5  UNL     1      -0.014  -0.974   0.029  1.00  0.00     0.026 C 
HETATM    6  C6  UNL     1      -0.518  -2.344   0.555  1.00  0.00     0.002 C 
HETATM    7  C7  UNL     1       1.494  -0.769   0.379  1.00  0.00     0.102 C 
HETATM    8  C8  UNL     1       2.004   0.649   0.000  1.00  0.00     0.028 C 
HETATM    9  C9  UNL     1       1.141   1.725   0.674  1.00  0.00     0.033 C 
HETATM   10  C10 UNL     1      -0.342   1.572   0.330  1.00  0.00     0.124 C 
HETATM   11  C13 UNL     1       3.482   0.865   0.352  1.00  0.00     0.003 C 
HETATM   12  O3  UNL     1       1.658  -0.947   1.791  1.00  0.00    -0.307 OA
HETATM   13  C14 UNL     1       2.732  -1.691   2.023  1.00  0.00     0.272 C 
HETATM   14  C15 UNL     1       3.412  -2.183   0.785  1.00  0.00     0.098 C 
HETATM   15  C16 UNL     1       2.420  -1.810  -0.311  1.00  0.00     0.038 C 
HETATM   16  O4  UNL     1       3.143  -1.967   3.127  1.00  0.00    -0.264 OA
HETATM   17  C17 UNL     1      -0.113  -0.941  -1.506  1.00  0.00     0.002 C 
HETATM   18  C18 UNL     1      -3.145   1.053   1.312  1.00  0.00     0.000 C 
HETATM   19  C19 UNL     1      -2.803   0.156  -0.971  1.00  0.00     0.000 C 
ENDROOT
BRANCH  10  20
HETATM   20  O1  UNL     1      -0.527   1.836  -1.053  1.00  0.00    -0.304 OA
BRANCH  20  21
HETATM   21  C11 UNL     1      -0.430   3.131  -1.340  1.00  0.00     0.272 C 
HETATM   22  O2  UNL     1      -0.309   3.998  -0.506  1.00  0.00    -0.264 OA
HETATM   23  C12 UNL     1      -0.477   3.467  -2.807  1.00  0.00     0.106 C 
ENDBRANCH  20  21
ENDBRANCH  10  20
TORSDOF 2
