REMARK  8 active torsions:
REMARK  status: ('A' for Active; 'I' for Inactive)
REMARK    1  A    between atoms: C12_16  and  O5_18 
REMARK    2  A    between atoms: O5_18  and  O6_19 
REMARK    3  A    between atoms: O6_19  and  C14_20 
REMARK    4  A    between atoms: C14_20  and  C15_21 
REMARK    5  A    between atoms: C15_21  and  C16_23 
REMARK    6  A    between atoms: C16_23  and  C17_25 
REMARK    7  A    between atoms: C17_25  and  C18_27 
REMARK    8  A    between atoms: C18_27  and  C19_29 
ROOT
HETATM    1  C1  UNL     1      -3.287  -0.879   0.158  1.00  0.00     0.028 A 
HETATM    2  C2  UNL     1      -3.492  -0.146  -1.049  1.00  0.00     0.094 A 
HETATM    3  C3  UNL     1      -4.801   0.234  -1.428  1.00  0.00     0.049 A 
HETATM    4  C4  UNL     1      -5.910  -0.121  -0.625  1.00  0.00     0.106 A 
HETATM    5  C5  UNL     1      -5.707  -0.861   0.568  1.00  0.00     0.087 A 
HETATM    6  C6  UNL     1      -4.398  -1.242   0.963  1.00  0.00     0.134 A 
HETATM    7  O1  UNL     1      -4.205  -1.943   2.090  1.00  0.00    -0.190 OA
HETATM    8  C7  UNL     1      -6.897  -1.225   1.391  1.00  0.00     0.201 A 
HETATM    9  C8  UNL     1      -8.195  -0.754   0.863  1.00  0.00     0.062 A 
HETATM   10  C9  UNL     1      -8.264  -0.051  -0.289  1.00  0.00     0.081 A 
HETATM   11  O2  UNL     1      -7.154   0.248  -0.998  1.00  0.00    -0.311 OA
HETATM   12  C10 UNL     1      -9.617   0.398  -0.774  1.00  0.00     0.058 C 
HETATM   13  O3  UNL     1      -6.914  -1.850   2.426  1.00  0.00    -0.286 OA
HETATM   14  O4  UNL     1      -2.461   0.207  -1.850  1.00  0.00    -0.333 OA
HETATM   15  C11 UNL     1      -1.150  -0.350  -1.678  1.00  0.00     0.127 C 
HETATM   16  C12 UNL     1      -0.842  -0.422  -0.164  1.00  0.00     0.182 C 
HETATM   17  C13 UNL     1      -1.910  -1.254   0.570  1.00  0.00     0.066 C 
HETATM   18  C20 UNL     1      -1.135  -1.738  -2.336  1.00  0.00     0.033 C 
HETATM   19  C21 UNL     1      -0.168   0.572  -2.408  1.00  0.00     0.033 C 
ENDROOT
BRANCH  16  20
HETATM   20  O5  UNL     1       0.434  -0.990   0.062  1.00  0.00    -0.221 OA
BRANCH  20  21
HETATM   21  O6  UNL     1       1.414   0.066  -0.016  1.00  0.00    -0.218 OA
BRANCH  21  22
HETATM   22  C14 UNL     1       2.684  -0.500   0.211  1.00  0.00     0.218 C 
BRANCH  22  23
HETATM   23  C15 UNL     1       3.727   0.615   0.129  1.00  0.00     0.218 C 
HETATM   24  O7  UNL     1       3.852   1.004  -1.221  1.00  0.00    -0.218 OA
BRANCH  23  25
HETATM   25  C16 UNL     1       5.104   0.174   0.629  1.00  0.00     0.218 C 
HETATM   26  O8  UNL     1       5.654  -0.711  -0.320  1.00  0.00    -0.218 OA
BRANCH  25  27
HETATM   27  C17 UNL     1       6.068   1.346   0.808  1.00  0.00     0.218 C 
HETATM   28  O9  UNL     1       6.361   1.875  -0.465  1.00  0.00    -0.218 OA
BRANCH  27  29
HETATM   29  C18 UNL     1       7.385   0.932   1.467  1.00  0.00     0.218 C 
HETATM   30  O10 UNL     1       7.092   0.404   2.742  1.00  0.00    -0.218 OA
BRANCH  29  31
HETATM   31  C19 UNL     1       8.352   2.102   1.642  1.00  0.00     0.218 C 
HETATM   32  O11 UNL     1       9.580   1.594   2.107  1.00  0.00    -0.218 OA
ENDBRANCH  29  31
ENDBRANCH  27  29
ENDBRANCH  25  27
ENDBRANCH  23  25
ENDBRANCH  22  23
ENDBRANCH  21  22
ENDBRANCH  20  21
ENDBRANCH  16  20
TORSDOF 8
