REMARK  16 active torsions:
REMARK  status: ('A' for Active; 'I' for Inactive)
REMARK    1  A    between atoms: C9_9  and  C11_12 
REMARK    2  A    between atoms: C11_12  and  O2_13 
REMARK    3  A    between atoms: O2_13  and  C12_14 
REMARK    4  A    between atoms: C12_14  and  C13_15 
REMARK    5  A    between atoms: C20_23  and  O4_30 
REMARK    6  A    between atoms: O4_30  and  C27_31 
REMARK    7  A    between atoms: C27_31  and  C28_33 
REMARK    8  A    between atoms: C28_33  and  C29_34 
REMARK    9  A    between atoms: C29_34  and  C30_35 
REMARK   10  A    between atoms: C30_35  and  C31_36 
REMARK   11  A    between atoms: C31_36  and  C32_37 
REMARK   12  A    between atoms: C32_37  and  C33_38 
REMARK   13  A    between atoms: C33_38  and  C34_39 
REMARK   14  A    between atoms: C34_39  and  C35_40 
REMARK   15  A    between atoms: C35_40  and  C36_41 
REMARK   16  A    between atoms: C36_41  and  C37_42 
ROOT
HETATM    1  C1  UNL     1      -5.824   1.187   1.281  1.00  0.00    -0.015 C 
HETATM    2  C2  UNL     1      -5.971   0.488   2.592  1.00  0.00     0.202 C 
HETATM    3  C3  UNL     1      -4.690  -0.416   2.680  1.00  0.00     0.199 C 
HETATM    4  C4  UNL     1      -3.645   0.330   1.740  1.00  0.00     0.104 C 
HETATM    5  C5  UNL     1      -4.570   1.127   0.832  1.00  0.00    -0.023 C 
HETATM    6  C6  UNL     1      -2.861  -0.594   0.801  1.00  0.00     0.174 C 
HETATM    7  C7  UNL     1      -1.897  -1.625   1.332  1.00  0.00     0.015 C 
HETATM    8  C8  UNL     1      -2.494  -2.688   2.232  1.00  0.00    -0.005 C 
HETATM    9  C9  UNL     1      -3.785  -2.840   2.590  1.00  0.00     0.018 C 
HETATM   10  C10 UNL     1      -4.910  -1.883   2.182  1.00  0.00     0.204 C 
HETATM   11  O1  UNL     1      -6.154  -2.381   2.648  1.00  0.00    -0.216 OA
HETATM   12  C19 UNL     1      -0.514  -1.111   1.760  1.00  0.00     0.053 A 
HETATM   13  C20 UNL     1      -0.117   0.352   1.971  1.00  0.00     0.105 A 
HETATM   14  C21 UNL     1      -1.248   1.424   1.910  1.00  0.00     0.029 C 
HETATM   15  C22 UNL     1      -2.678   1.311   2.490  1.00  0.00     0.015 C 
HETATM   16  C23 UNL     1      -3.281   2.723   2.617  1.00  0.00     0.001 C 
HETATM   17  C24 UNL     1      -0.162  -0.650   3.145  1.00  0.00     0.030 A 
HETATM   18  C25 UNL     1      -1.231  -0.725   4.227  1.00  0.00     0.003 C 
HETATM   19  C26 UNL     1       1.207  -1.043   3.684  1.00  0.00     0.003 C 
HETATM   20  O6  UNL     1      -2.992  -0.522  -0.402  1.00  0.00    -0.291 OA
HETATM   21  O7  UNL     1      -4.266  -0.516   4.039  1.00  0.00    -0.219 OA
HETATM   22  O8  UNL     1      -6.039   1.488   3.596  1.00  0.00    -0.216 OA
HETATM   23  C39 UNL     1      -6.961   1.875   0.572  1.00  0.00     0.029 C 
ENDROOT
BRANCH  13  24
HETATM   24  O4  UNL     1       0.895   1.176   1.406  1.00  0.00    -0.306 OA
BRANCH  24  25
HETATM   25  C27 UNL     1       1.053   0.965   0.104  1.00  0.00     0.272 C 
HETATM   26  O5  UNL     1       0.334   0.248  -0.555  1.00  0.00    -0.264 OA
BRANCH  25  27
HETATM   27  C28 UNL     1       2.211   1.689  -0.527  1.00  0.00     0.096 C 
BRANCH  27  28
HETATM   28  C29 UNL     1       2.320   1.416  -2.029  1.00  0.00     0.010 C 
BRANCH  28  29
HETATM   29  C30 UNL     1       3.490   2.156  -2.678  1.00  0.00     0.001 C 
BRANCH  29  30
HETATM   30  C31 UNL     1       3.602   1.883  -4.178  1.00  0.00     0.000 C 
BRANCH  30  31
HETATM   31  C32 UNL     1       4.772   2.623  -4.828  1.00  0.00     0.000 C 
BRANCH  31  32
HETATM   32  C33 UNL     1       4.883   2.350  -6.328  1.00  0.00     0.000 C 
BRANCH  32  33
HETATM   33  C34 UNL     1       6.053   3.090  -6.977  1.00  0.00     0.000 C 
BRANCH  33  34
HETATM   34  C35 UNL     1       6.164   2.814  -8.477  1.00  0.00     0.000 C 
BRANCH  34  35
HETATM   35  C36 UNL     1       7.334   3.555  -9.127  1.00  0.00     0.000 C 
BRANCH  35  36
HETATM   36  C37 UNL     1       7.445   3.281 -10.627  1.00  0.00     0.000 C 
HETATM   37  C38 UNL     1       8.615   4.022 -11.278  1.00  0.00     0.000 C 
ENDBRANCH  35  36
ENDBRANCH  34  35
ENDBRANCH  33  34
ENDBRANCH  32  33
ENDBRANCH  31  32
ENDBRANCH  30  31
ENDBRANCH  29  30
ENDBRANCH  28  29
ENDBRANCH  27  28
ENDBRANCH  25  27
ENDBRANCH  24  25
ENDBRANCH  13  24
BRANCH   9  38
HETATM   38  C11 UNL     1      -4.113  -4.031   3.465  1.00  0.00     0.177 C 
BRANCH  38  39
HETATM   39  O2  UNL     1      -3.016  -4.305   4.322  1.00  0.00    -0.294 OA
BRANCH  39  40
HETATM   40  C12 UNL     1      -3.244  -5.346   5.119  1.00  0.00     0.296 C 
HETATM   41  O3  UNL     1      -4.272  -5.981   5.119  1.00  0.00    -0.259 OA
BRANCH  40  42
HETATM   42  C13 UNL     1      -2.125  -5.693   6.045  1.00  0.00     0.063 A 
HETATM   43  C14 UNL     1      -2.260  -6.774   6.938  1.00  0.00     0.005 A 
HETATM   44  C15 UNL     1      -1.207  -7.102   7.809  1.00  0.00     0.000 A 
HETATM   45  C16 UNL     1      -0.020  -6.350   7.791  1.00  0.00     0.000 A 
HETATM   46  C17 UNL     1       0.117  -5.272   6.899  1.00  0.00     0.000 A 
HETATM   47  C18 UNL     1      -0.936  -4.943   6.027  1.00  0.00     0.005 A 
ENDBRANCH  40  42
ENDBRANCH  39  40
ENDBRANCH  38  39
ENDBRANCH   9  38
TORSDOF 16
