REMARK  5 active torsions:
REMARK  status: ('A' for Active; 'I' for Inactive)
REMARK    1  A    between atoms: C2_2  and  C18_27 
REMARK    2  A    between atoms: C8_8  and  C17_23 
REMARK    3  A    between atoms: C10_10  and  O1_11 
REMARK    4  A    between atoms: O1_11  and  C11_12 
REMARK    5  A    between atoms: C15_16  and  C16_18 
ROOT
HETATM    1  C1  UNL     1       3.393   2.174  -1.062  1.00  0.00    -0.017 A 
HETATM    2  C2  UNL     1       3.297   0.760  -1.019  1.00  0.00     0.056 A 
HETATM    3  C3  UNL     1       2.029   0.123  -0.986  1.00  0.00     0.135 A 
HETATM    4  C4  UNL     1       0.840   0.908  -0.996  1.00  0.00     0.048 A 
HETATM    5  C5  UNL     1       0.943   2.336  -1.041  1.00  0.00     0.004 A 
HETATM    6  C6  UNL     1       2.217   2.959  -1.072  1.00  0.00    -0.004 A 
HETATM    7  C7  UNL     1      -0.227   3.139  -1.055  1.00  0.00     0.006 A 
HETATM    8  C8  UNL     1      -1.498   2.523  -1.023  1.00  0.00     0.066 A 
HETATM    9  C9  UNL     1      -1.611   1.115  -0.975  1.00  0.00     0.030 A 
HETATM   10  C10 UNL     1      -0.451   0.307  -0.963  1.00  0.00     0.099 A 
HETATM   11  O9  UNL     1       1.973  -1.217  -0.945  1.00  0.00    -0.190 OA
HETATM   12  C20 UNL     1       4.705   2.842  -1.096  1.00  0.00     0.031 C 
ENDROOT
BRANCH  10  13
HETATM   13  O1  UNL     1      -0.605  -1.025  -0.918  1.00  0.00    -0.304 OA
BRANCH  13  14
HETATM   14  C11 UNL     1      -1.662  -1.549  -0.121  1.00  0.00     0.274 C 
HETATM   15  C12 UNL     1      -1.510  -3.078   0.020  1.00  0.00     0.241 C 
HETATM   16  C13 UNL     1      -2.564  -3.658   0.988  1.00  0.00     0.220 C 
HETATM   17  O6  UNL     1      -1.654  -3.666  -1.262  1.00  0.00    -0.215 OA
HETATM   18  C14 UNL     1      -2.547  -2.859   2.311  1.00  0.00     0.215 C 
HETATM   19  O5  UNL     1      -2.279  -5.024   1.244  1.00  0.00    -0.218 OA
HETATM   20  C15 UNL     1      -2.647  -1.340   2.053  1.00  0.00     0.184 C 
HETATM   21  O4  UNL     1      -3.639  -3.256   3.123  1.00  0.00    -0.218 OA
HETATM   22  O2  UNL     1      -1.613  -0.941   1.162  1.00  0.00    -0.326 OA
BRANCH  20  23
HETATM   23  C16 UNL     1      -2.477  -0.504   3.326  1.00  0.00     0.214 C 
HETATM   24  O3  UNL     1      -2.719   0.846   3.004  1.00  0.00    -0.218 OA
ENDBRANCH  20  23
ENDBRANCH  13  14
ENDBRANCH  10  13
BRANCH   8  25
HETATM   25  C17 UNL     1      -2.719   3.359  -1.039  1.00  0.00     0.211 C 
HETATM   26  O7  UNL     1      -3.875   3.010  -1.016  1.00  0.00    -0.644 OA
HETATM   27  O8  UNL     1      -2.328   4.629  -1.084  1.00  0.00    -0.644 OA
ENDBRANCH   8  25
BRANCH   2  28
HETATM   28  C18 UNL     1       4.529  -0.064  -1.010  1.00  0.00     0.175 C 
HETATM   29  C19 UNL     1       5.295   0.131  -2.291  1.00  0.00     0.077 C 
HETATM   30  O10 UNL     1       4.936  -0.807  -0.148  1.00  0.00    -0.291 OA
ENDBRANCH   2  28
TORSDOF 5
