REMARK  3 active torsions:
REMARK  status: ('A' for Active; 'I' for Inactive)
REMARK    1  A    between atoms: N1_2  and  O1_7 
REMARK    2  A    between atoms: O1_7  and  C4_8 
REMARK    3  A    between atoms: C8_15  and  C9_17 
ROOT
HETATM    1  C4  UNL     1      -0.258  -0.375  -0.535  1.00  0.00     0.295 C 
HETATM    2  C5  UNL     1      -0.449   1.174  -0.576  1.00  0.00     0.243 C 
HETATM    3  O2  UNL     1      -1.399   1.563  -1.559  1.00  0.00    -0.215 OA
HETATM    4  C6  UNL     1       0.883   1.920  -0.875  1.00  0.00     0.220 C 
HETATM    5  O3  UNL     1       0.934   3.113  -0.111  1.00  0.00    -0.218 OA
HETATM    6  C7  UNL     1       2.092   1.014  -0.555  1.00  0.00     0.215 C 
HETATM    7  O4  UNL     1       3.307   1.656  -0.897  1.00  0.00    -0.218 OA
HETATM    8  C8  UNL     1       2.018  -0.348  -1.307  1.00  0.00     0.184 C 
HETATM    9  O5  UNL     1       0.672  -0.762  -1.537  1.00  0.00    -0.325 OA
ENDROOT
BRANCH   1  10
HETATM   10  O1  UNL     1      -1.479  -1.076  -0.690  1.00  0.00    -0.223 OA
BRANCH  10  11
HETATM   11  N1  UNL     1      -2.221  -0.912   0.484  1.00  0.00    -0.191 N 
HETATM   12  C1  UNL     1      -3.240   0.022   0.533  1.00  0.00     0.203 A 
HETATM   13  N3  UNL     1      -3.932   0.176   1.615  1.00  0.00    -0.202 NA
HETATM   14  C3  UNL     1      -3.723  -0.549   2.775  1.00  0.00     0.198 A 
HETATM   15  N2  UNL     1      -2.795  -1.447   2.838  1.00  0.00    -0.223 NA
HETATM   16  C2  UNL     1      -1.904  -1.750   1.680  1.00  0.00     0.260 A 
ENDBRANCH  10  11
ENDBRANCH   1  10
BRANCH   8  17
HETATM   17  C9  UNL     1       2.725  -1.471  -0.543  1.00  0.00     0.214 C 
HETATM   18  O6  UNL     1       2.771  -2.609  -1.375  1.00  0.00    -0.218 OA
ENDBRANCH   8  17
TORSDOF 3
