REMARK  1 active torsions:
REMARK  status: ('A' for Active; 'I' for Inactive)
REMARK    1  A    between atoms: C7_8  and  C10_12 
ROOT
HETATM    1  C1  UNL     1      -4.176  -0.614   0.270  1.00  0.00     0.135 A 
HETATM    2  C2  UNL     1      -4.022  -1.922   0.787  1.00  0.00     0.055 A 
HETATM    3  C3  UNL     1      -2.729  -2.457   0.994  1.00  0.00     0.138 A 
HETATM    4  C4  UNL     1      -1.586  -1.676   0.682  1.00  0.00     0.087 A 
HETATM    5  C5  UNL     1      -1.738  -0.362   0.162  1.00  0.00     0.107 A 
HETATM    6  C6  UNL     1      -3.035   0.166  -0.043  1.00  0.00     0.052 A 
HETATM    7  O1  UNL     1      -0.652   0.385  -0.135  1.00  0.00    -0.307 OA
HETATM    8  C7  UNL     1       0.615  -0.045   0.031  1.00  0.00     0.105 A 
HETATM    9  C8  UNL     1       0.883  -1.280   0.516  1.00  0.00     0.067 A 
HETATM   10  C9  UNL     1      -0.209  -2.205   0.883  1.00  0.00     0.202 A 
HETATM   11  O2  UNL     1       0.107  -3.293   1.309  1.00  0.00    -0.286 OA
HETATM   12  O5  UNL     1      -2.602  -3.700   1.486  1.00  0.00    -0.190 OA
HETATM   13  O6  UNL     1      -5.402  -0.110   0.074  1.00  0.00    -0.190 OA
ENDROOT
BRANCH   8  14
HETATM   14  C10 UNL     1       1.758   0.851  -0.324  1.00  0.00     0.048 A 
HETATM   15  C11 UNL     1       2.895   0.888   0.502  1.00  0.00     0.006 A 
HETATM   16  C12 UNL     1       3.975   1.726   0.178  1.00  0.00     0.028 A 
HETATM   17  C13 UNL     1       3.922   2.533  -0.973  1.00  0.00     0.133 A 
HETATM   18  C14 UNL     1       2.783   2.496  -1.797  1.00  0.00     0.055 A 
HETATM   19  O4  UNL     1       4.934   3.320  -1.277  1.00  0.00    -0.190 OA
HETATM   20  C15 UNL     1       1.699   1.658  -1.478  1.00  0.00     0.135 A 
HETATM   21  O3  UNL     1       0.639   1.635  -2.262  1.00  0.00    -0.190 OA
ENDBRANCH   8  14
TORSDOF 1
