REMARK  4 active torsions:
REMARK  status: ('A' for Active; 'I' for Inactive)
REMARK    1  A    between atoms: C7_10  and  O4_14 
REMARK    2  A    between atoms: C8_11  and  C9_12 
REMARK    3  A    between atoms: O4_14  and  C11_15 
REMARK    4  A    between atoms: C15_19  and  C16_20 
ROOT
HETATM    1  C1  UNL     1       5.246   0.193   0.377  1.00  0.00     0.276 C 
HETATM    2  C2  UNL     1       4.188  -0.563  -0.451  1.00  0.00     0.070 C 
HETATM    3  C3  UNL     1       2.746  -0.045  -0.238  1.00  0.00     0.044 C 
HETATM    4  C4  UNL     1       2.697   1.283   0.486  1.00  0.00     0.066 C 
HETATM    5  C5  UNL     1       3.893   2.152   0.408  1.00  0.00     0.296 C 
HETATM    6  O1  UNL     1       5.109   1.613   0.215  1.00  0.00    -0.270 OA
HETATM    7  O2  UNL     1       3.748   3.350   0.522  1.00  0.00    -0.259 OA
HETATM    8  C6  UNL     1       1.590   1.625   1.186  1.00  0.00     0.120 C 
HETATM    9  O3  UNL     1       0.504   0.842   1.346  1.00  0.00    -0.303 OA
HETATM   10  C7  UNL     1       0.404  -0.383   0.606  1.00  0.00     0.246 C 
HETATM   11  C8  UNL     1       1.783  -1.053   0.422  1.00  0.00     0.083 C 
HETATM   12  O10 UNL     1       5.160  -0.174   1.740  1.00  0.00    -0.190 OA
ENDROOT
BRANCH  10  13
HETATM   13  O4  UNL     1      -0.189  -0.133  -0.654  1.00  0.00    -0.303 OA
BRANCH  13  14
HETATM   14  C11 UNL     1      -1.490   0.416  -0.559  1.00  0.00     0.272 C 
HETATM   15  C12 UNL     1      -1.979   0.900  -1.947  1.00  0.00     0.241 C 
HETATM   16  C13 UNL     1      -3.453   1.357  -1.889  1.00  0.00     0.220 C 
HETATM   17  O9  UNL     1      -1.168   1.982  -2.379  1.00  0.00    -0.215 OA
HETATM   18  C14 UNL     1      -4.316   0.269  -1.213  1.00  0.00     0.215 C 
HETATM   19  O8  UNL     1      -3.934   1.603  -3.201  1.00  0.00    -0.218 OA
HETATM   20  C15 UNL     1      -3.707  -0.172   0.139  1.00  0.00     0.184 C 
HETATM   21  O7  UNL     1      -5.621   0.768  -0.980  1.00  0.00    -0.218 OA
HETATM   22  O6  UNL     1      -2.363  -0.590  -0.064  1.00  0.00    -0.326 OA
BRANCH  20  23
HETATM   23  C16 UNL     1      -4.447  -1.356   0.768  1.00  0.00     0.214 C 
HETATM   24  O5  UNL     1      -3.920  -1.570   2.059  1.00  0.00    -0.218 OA
ENDBRANCH  20  23
ENDBRANCH  13  14
ENDBRANCH  10  13
BRANCH  11  25
HETATM   25  C9  UNL     1       2.297  -1.563   1.748  1.00  0.00    -0.021 C 
HETATM   26  C10 UNL     1       2.553  -2.875   1.875  1.00  0.00    -0.005 C 
ENDBRANCH  11  25
TORSDOF 4
