REMARK  4 active torsions:
REMARK  status: ('A' for Active; 'I' for Inactive)
REMARK    1  A    between atoms: C15_17  and  C18_20 
REMARK    2  A    between atoms: C18_20  and  C19_21 
REMARK    3  A    between atoms: C19_21  and  C20_22 
REMARK    4  A    between atoms: C21_23  and  C22_24 
ROOT
HETATM    1  C1  UNL     1       5.486   0.203  -0.039  1.00  0.00     0.033 C 
HETATM    2  C2  UNL     1       6.096  -0.576  -1.234  1.00  0.00     0.152 C 
HETATM    3  C3  UNL     1       5.285  -1.848  -1.576  1.00  0.00     0.029 C 
HETATM    4  C4  UNL     1       3.768  -1.543  -1.846  1.00  0.00     0.014 C 
HETATM    5  C5  UNL     1       3.219  -0.242  -1.154  1.00  0.00     0.022 C 
HETATM    6  C6  UNL     1       3.980  -0.053   0.176  1.00  0.00     0.007 C 
HETATM    7  C7  UNL     1       1.695  -0.193  -0.971  1.00  0.00     0.011 C 
HETATM    8  C8  UNL     1       0.900  -1.213  -1.389  1.00  0.00     0.011 C 
HETATM    9  C9  UNL     1       1.459  -2.500  -1.855  1.00  0.00     0.169 C 
HETATM   10  C10 UNL     1       2.898  -2.775  -1.535  1.00  0.00     0.069 C 
HETATM   11  O1  UNL     1       0.799  -3.305  -2.471  1.00  0.00    -0.292 OA
HETATM   12  C11 UNL     1      -0.606  -1.000  -1.387  1.00  0.00     0.022 C 
HETATM   13  C12 UNL     1      -1.059  -0.283  -0.103  1.00  0.00     0.011 C 
HETATM   14  C13 UNL     1      -0.404   1.100  -0.094  1.00  0.00     0.069 C 
HETATM   15  C14 UNL     1       1.086   1.029  -0.350  1.00  0.00     0.169 C 
HETATM   16  O2  UNL     1       1.771   1.978  -0.049  1.00  0.00    -0.292 OA
HETATM   17  C15 UNL     1      -2.586  -0.291  -0.252  1.00  0.00     0.001 C 
HETATM   18  C16 UNL     1      -2.881  -1.652  -0.900  1.00  0.00     0.000 C 
HETATM   19  C17 UNL     1      -1.531  -2.221  -1.352  1.00  0.00     0.004 C 
HETATM   20  C26 UNL     1      -0.647  -1.078   1.149  1.00  0.00     0.001 C 
HETATM   21  C27 UNL     1      -0.963  -0.229  -2.664  1.00  0.00     0.004 C 
HETATM   22  C28 UNL     1       3.482   0.961  -2.078  1.00  0.00     0.004 C 
HETATM   23  C29 UNL     1       5.471  -2.807  -0.389  1.00  0.00     0.003 C 
HETATM   24  C30 UNL     1       5.887  -2.561  -2.801  1.00  0.00     0.003 C 
HETATM   25  O4  UNL     1       6.205   0.266  -2.367  1.00  0.00    -0.224 OA
ENDROOT
BRANCH  17  26
HETATM   26  C18 UNL     1      -3.346  -0.072   1.053  1.00  0.00     0.004 C 
HETATM   27  C25 UNL     1      -4.848  -0.217   0.799  1.00  0.00     0.000 C 
BRANCH  26  28
HETATM   28  C19 UNL     1      -2.975   1.293   1.635  1.00  0.00     0.026 C 
BRANCH  28  29
HETATM   29  C20 UNL     1      -4.024   1.820   2.576  1.00  0.00    -0.028 C 
HETATM   30  C21 UNL     1      -4.695   2.930   2.233  1.00  0.00    -0.001 C 
BRANCH  30  31
HETATM   31  C22 UNL     1      -5.744   3.457   3.176  1.00  0.00     0.145 C 
HETATM   32  C23 UNL     1      -5.279   4.707   3.924  1.00  0.00     0.038 C 
HETATM   33  C24 UNL     1      -6.285   2.375   4.109  1.00  0.00     0.038 C 
HETATM   34  O3  UNL     1      -6.776   3.832   2.291  1.00  0.00    -0.222 OA
ENDBRANCH  30  31
ENDBRANCH  28  29
ENDBRANCH  26  28
ENDBRANCH  17  26
TORSDOF 4
