REMARK  6 active torsions:
REMARK  status: ('A' for Active; 'I' for Inactive)
REMARK    1  A    between atoms: C12_14  and  O8_27 
REMARK    2  A    between atoms: C14_16  and  C17_21 
REMARK    3  A    between atoms: C17_21  and  O6_23 
REMARK    4  A    between atoms: O8_27  and  C20_28 
REMARK    5  A    between atoms: C20_28  and  C21_29 
REMARK    6  A    between atoms: C22_30  and  C23_31 
ROOT
HETATM    1  C1  UNL     1      -5.410  -1.123   0.453  1.00  0.00     0.204 C 
HETATM    2  C2  UNL     1      -5.342  -2.154   1.557  1.00  0.00     0.000 C 
HETATM    3  C3  UNL     1      -4.150  -2.479   2.092  1.00  0.00    -0.046 C 
HETATM    4  C4  UNL     1      -2.906  -1.764   1.600  1.00  0.00     0.023 C 
HETATM    5  C5  UNL     1      -3.170  -0.233   1.561  1.00  0.00     0.037 C 
HETATM    6  C6  UNL     1      -4.399   0.055   0.619  1.00  0.00     0.187 C 
HETATM    7  O1  UNL     1      -5.113   1.197   1.061  1.00  0.00    -0.220 OA
HETATM    8  C7  UNL     1      -1.898   0.502   1.004  1.00  0.00     0.041 C 
HETATM    9  C8  UNL     1      -0.566   0.053   1.680  1.00  0.00     0.061 C 
HETATM   10  C9  UNL     1      -0.395  -1.479   1.738  1.00  0.00     0.127 C 
HETATM   11  C10 UNL     1      -1.627  -2.106   2.395  1.00  0.00     0.034 C 
HETATM   12  O2  UNL     1      -0.246  -2.080   0.443  1.00  0.00    -0.302 OA
HETATM   13  C11 UNL     1       0.484  -1.481  -0.512  1.00  0.00     0.300 C 
HETATM   14  C12 UNL     1       0.762   0.006  -0.479  1.00  0.00     0.213 C 
HETATM   15  C13 UNL     1       0.686   0.553   0.945  1.00  0.00     0.079 C 
HETATM   16  C14 UNL     1       0.574   2.053   1.260  1.00  0.00     0.203 C 
HETATM   17  C15 UNL     1      -0.639   2.756   0.594  1.00  0.00     0.216 C 
HETATM   18  C16 UNL     1      -2.000   2.059   0.879  1.00  0.00     0.185 C 
HETATM   19  O3  UNL     1      -2.537   2.643   2.051  1.00  0.00    -0.221 OA
HETATM   20  O4  UNL     1      -0.449   2.848  -0.807  1.00  0.00    -0.218 OA
HETATM   21  O7  UNL     1       0.328   2.002   2.654  1.00  0.00    -0.347 OA
HETATM   22  C19 UNL     1      -0.287   0.777   3.014  1.00  0.00     0.145 C 
HETATM   23  O11 UNL     1       0.924  -2.115  -1.441  1.00  0.00    -0.262 OA
HETATM   24  C27 UNL     1      -3.475   0.178   3.020  1.00  0.00     0.003 C 
HETATM   25  C28 UNL     1      -4.057  -3.527   3.172  1.00  0.00     0.026 C 
HETATM   26  O12 UNL     1      -5.150  -1.785  -0.770  1.00  0.00    -0.216 OA
ENDROOT
BRANCH  14  27
HETATM   27  O8  UNL     1       2.053   0.271  -1.008  1.00  0.00    -0.291 OA
BRANCH  27  28
HETATM   28  C20 UNL     1       2.082   0.187  -2.336  1.00  0.00     0.296 C 
HETATM   29  O10 UNL     1       1.098   0.043  -3.024  1.00  0.00    -0.259 OA
BRANCH  28  30
HETATM   30  C21 UNL     1       3.412   0.281  -2.951  1.00  0.00     0.062 C 
HETATM   31  C22 UNL     1       3.965  -0.787  -3.551  1.00  0.00    -0.011 C 
HETATM   32  C26 UNL     1       3.191  -2.078  -3.574  1.00  0.00     0.029 C 
BRANCH  31  33
HETATM   33  C23 UNL     1       5.316  -0.807  -4.211  1.00  0.00     0.142 C 
HETATM   34  C24 UNL     1       6.205  -1.936  -3.686  1.00  0.00     0.037 C 
HETATM   35  C25 UNL     1       6.008   0.557  -4.172  1.00  0.00     0.037 C 
HETATM   36  O9  UNL     1       4.986  -1.096  -5.551  1.00  0.00    -0.222 OA
ENDBRANCH  31  33
ENDBRANCH  28  30
ENDBRANCH  27  28
ENDBRANCH  14  27
BRANCH  16  37
HETATM   37  C17 UNL     1       1.869   2.799   1.037  1.00  0.00     0.299 C 
HETATM   38  O5  UNL     1       2.873   2.217   0.697  1.00  0.00    -0.262 OA
BRANCH  37  39
HETATM   39  O6  UNL     1       1.809   4.111   1.240  1.00  0.00    -0.297 OA
HETATM   40  C18 UNL     1       3.068   4.744   1.070  1.00  0.00     0.185 C 
ENDBRANCH  37  39
ENDBRANCH  16  37
TORSDOF 6
