REMARK  1 active torsions:
REMARK  status: ('A' for Active; 'I' for Inactive)
REMARK    1  A    between atoms: C11_12  and  C12_14 
ROOT
HETATM    1  C1  UNL     1      -4.063   1.254   0.605  1.00  0.00     0.300 A 
HETATM    2  O1  UNL     1      -2.719   1.180   0.529  1.00  0.00    -0.273 OA
HETATM    3  C2  UNL     1      -1.992   0.037   0.584  1.00  0.00     0.101 A 
HETATM    4  C3  UNL     1      -2.707  -1.191   0.734  1.00  0.00     0.023 A 
HETATM    5  C4  UNL     1      -4.191  -1.168   0.826  1.00  0.00     0.007 A 
HETATM    6  C5  UNL     1      -4.836   0.010   0.764  1.00  0.00     0.069 A 
HETATM    7  C6  UNL     1      -2.023  -2.422   0.795  1.00  0.00     0.004 A 
HETATM    8  C7  UNL     1      -0.619  -2.434   0.711  1.00  0.00     0.024 A 
HETATM    9  C8  UNL     1       0.125  -1.238   0.566  1.00  0.00     0.092 A 
HETATM   10  C9  UNL     1      -0.574  -0.023   0.504  1.00  0.00     0.025 A 
HETATM   11  C10 UNL     1       0.428   1.094   0.346  1.00  0.00     0.063 A 
HETATM   12  C11 UNL     1       1.781   0.318   0.359  1.00  0.00     0.154 A 
HETATM   13  O2  UNL     1       1.445  -1.074   0.478  1.00  0.00    -0.331 OA
HETATM   14  O4  UNL     1      -4.656   2.305   0.549  1.00  0.00    -0.259 OA
ENDROOT
BRANCH  12  15
HETATM   15  C12 UNL     1       2.586   0.543  -0.916  1.00  0.00     0.152 C 
HETATM   16  C13 UNL     1       3.817  -0.367  -0.910  1.00  0.00     0.036 C 
HETATM   17  C14 UNL     1       2.949   2.023  -1.035  1.00  0.00     0.036 C 
HETATM   18  O3  UNL     1       1.775   0.197  -2.016  1.00  0.00    -0.224 OA
ENDBRANCH  12  15
TORSDOF 1
