REMARK  11 active torsions:
REMARK  status: ('A' for Active; 'I' for Inactive)
REMARK       I    between atoms: C1_1  and  N1_2 
REMARK    1  A    between atoms: C1_1  and  O2_10 
REMARK    2  A    between atoms: N1_2  and  C2_3 
REMARK    3  A    between atoms: O2_10  and  C8_11 
REMARK    4  A    between atoms: C8_11  and  C9_12 
REMARK    5  A    between atoms: C9_12  and  C10_13 
REMARK    6  A    between atoms: C10_13  and  C11_14 
REMARK    7  A    between atoms: C11_14  and  C12_15 
REMARK    8  A    between atoms: C12_15  and  C13_16 
REMARK    9  A    between atoms: C13_16  and  C14_17 
REMARK   10  A    between atoms: C14_17  and  C15_18 
REMARK   11  A    between atoms: C15_18  and  C16_19 
ROOT
HETATM    1  O2  UNL     1      -2.035  -1.318   1.139  1.00  0.00    -0.283 OA
ENDROOT
BRANCH   1   2
HETATM    2  C1  UNL     1      -2.592  -2.523   1.074  1.00  0.00     0.388 C 
HETATM    3  N1  UNL     1      -3.707  -2.705   1.842  1.00  0.00    -0.186 NA
HETATM    4  O1  UNL     1      -2.164  -3.428   0.394  1.00  0.00    -0.236 OA
BRANCH   3   5
HETATM    5  C2  UNL     1      -4.350  -3.916   1.842  1.00  0.00     0.087 A 
HETATM    6  C3  UNL     1      -5.756  -3.969   1.842  1.00  0.00     0.019 A 
HETATM    7  C4  UNL     1      -6.414  -5.213   1.842  1.00  0.00     0.002 A 
HETATM    8  C5  UNL     1      -5.668  -6.402   1.842  1.00  0.00     0.000 A 
HETATM    9  C6  UNL     1      -4.264  -6.351   1.842  1.00  0.00     0.002 A 
HETATM   10  C7  UNL     1      -3.604  -5.111   1.842  1.00  0.00     0.019 A 
ENDBRANCH   3   5
ENDBRANCH   1   2
BRANCH   1  11
HETATM   11  C8  UNL     1      -0.883  -1.209   0.314  1.00  0.00     0.154 C 
BRANCH  11  12
HETATM   12  C9  UNL     1      -0.301   0.199   0.437  1.00  0.00     0.033 C 
BRANCH  12  13
HETATM   13  C10 UNL     1       0.949   0.397  -0.422  1.00  0.00     0.003 C 
BRANCH  13  14
HETATM   14  C11 UNL     1       1.531   1.805  -0.301  1.00  0.00     0.000 C 
BRANCH  14  15
HETATM   15  C12 UNL     1       2.781   2.002  -1.160  1.00  0.00     0.000 C 
BRANCH  15  16
HETATM   16  C13 UNL     1       3.365   3.410  -1.037  1.00  0.00     0.000 C 
BRANCH  16  17
HETATM   17  C14 UNL     1       4.611   3.610  -1.901  1.00  0.00     0.001 C 
BRANCH  17  18
HETATM   18  C15 UNL     1       5.236   4.992  -1.725  1.00  0.00     0.012 C 
BRANCH  18  19
HETATM   19  C16 UNL     1       4.379   6.108  -2.324  1.00  0.00     0.068 C 
HETATM   20 BR1  UNL     1       5.309   7.778  -2.104  1.00  0.00    -0.081 Br
ENDBRANCH  18  19
ENDBRANCH  17  18
ENDBRANCH  16  17
ENDBRANCH  15  16
ENDBRANCH  14  15
ENDBRANCH  13  14
ENDBRANCH  12  13
ENDBRANCH  11  12
ENDBRANCH   1  11
TORSDOF 11
