REMARK  14 active torsions:
REMARK  status: ('A' for Active; 'I' for Inactive)
REMARK    1  A    between atoms: C5_5  and  C7_7 
REMARK    2  A    between atoms: C8_8  and  C9_9 
REMARK    3  A    between atoms: C9_9  and  O1_10 
REMARK    4  A    between atoms: O1_10  and  C10_11 
REMARK    5  A    between atoms: C10_11  and  C11_12 
REMARK    6  A    between atoms: C10_11  and  C12_15 
REMARK    7  A    between atoms: C12_15  and  C13_16 
REMARK    8  A    between atoms: C21_27  and  C25_33 
REMARK    9  A    between atoms: C26_34  and  C27_35 
REMARK   10  A    between atoms: C27_35  and  O9_36 
REMARK   11  A    between atoms: O9_36  and  C28_37 
REMARK   12  A    between atoms: C28_37  and  C29_38 
REMARK   13  A    between atoms: C28_37  and  C36_47 
REMARK   14  A    between atoms: C29_38  and  C30_39 
ROOT
HETATM    1  C7  UNL     1       2.824   1.521   0.186  1.00  0.00     0.105 A 
HETATM    2  C8  UNL     1       1.992   0.381   0.293  1.00  0.00     0.088 A 
HETATM    3  C19 UNL     1       0.721   0.850   0.268  1.00  0.00     0.032 A 
HETATM    4  C20 UNL     1      -0.486   0.115   0.342  1.00  0.00     0.002 A 
HETATM    5  C21 UNL     1      -1.705   0.844   0.297  1.00  0.00     0.002 A 
HETATM    6  C22 UNL     1      -1.693   2.264   0.178  1.00  0.00     0.029 A 
HETATM    7  C23 UNL     1      -0.471   2.990   0.102  1.00  0.00     0.154 A 
HETATM    8  C24 UNL     1       0.707   2.209   0.152  1.00  0.00     0.125 A 
HETATM    9  O7  UNL     1       2.004   2.687   0.098  1.00  0.00    -0.305 OA
HETATM   10  O8  UNL     1      -0.586   4.320  -0.008  1.00  0.00    -0.188 OA
ENDROOT
BRANCH   5  11
HETATM   11  C25 UNL     1      -2.992   0.123   0.371  1.00  0.00     0.005 C 
HETATM   12  C26 UNL     1      -4.057   0.637  -0.268  1.00  0.00     0.068 C 
BRANCH  12  13
HETATM   13  C27 UNL     1      -5.358  -0.043  -0.221  1.00  0.00     0.296 C 
HETATM   14  O14 UNL     1      -5.484  -1.076   0.394  1.00  0.00    -0.259 OA
BRANCH  13  15
HETATM   15  O9  UNL     1      -6.344   0.551  -0.887  1.00  0.00    -0.290 OA
BRANCH  15  16
HETATM   16  C28 UNL     1      -7.559  -0.180  -0.816  1.00  0.00     0.215 C 
BRANCH  16  17
HETATM   17  C29 UNL     1      -8.527   0.340  -1.879  1.00  0.00     0.068 C 
BRANCH  17  18
HETATM   18  C30 UNL     1      -7.992   0.139  -3.252  1.00  0.00    -0.017 A 
HETATM   19  C31 UNL     1      -8.131  -1.108  -3.887  1.00  0.00    -0.002 A 
HETATM   20  C32 UNL     1      -7.625  -1.295  -5.184  1.00  0.00     0.029 A 
HETATM   21  C33 UNL     1      -6.979  -0.238  -5.850  1.00  0.00     0.156 A 
HETATM   22  C34 UNL     1      -6.838   1.010  -5.213  1.00  0.00     0.156 A 
HETATM   23  O11 UNL     1      -6.504  -0.420  -7.067  1.00  0.00    -0.188 OA
HETATM   24  C35 UNL     1      -7.346   1.195  -3.916  1.00  0.00     0.025 A 
HETATM   25  O10 UNL     1      -6.234   2.006  -5.830  1.00  0.00    -0.188 OA
ENDBRANCH  17  18
ENDBRANCH  16  17
BRANCH  16  26
HETATM   26  C36 UNL     1      -8.125  -0.076   0.576  1.00  0.00     0.215 C 
HETATM   27  O12 UNL     1      -8.320   1.000   1.090  1.00  0.00    -0.646 OA
HETATM   28  O13 UNL     1      -8.381  -1.238   1.170  1.00  0.00    -0.646 OA
ENDBRANCH  16  26
ENDBRANCH  15  16
ENDBRANCH  13  15
ENDBRANCH  12  13
ENDBRANCH   5  11
BRANCH   2  29
HETATM   29  C9  UNL     1       2.428  -1.029   0.408  1.00  0.00     0.298 C 
HETATM   30  O6  UNL     1       1.635  -1.924   0.238  1.00  0.00    -0.259 OA
BRANCH  29  31
HETATM   31  O1  UNL     1       3.711  -1.221   0.703  1.00  0.00    -0.289 OA
BRANCH  31  32
HETATM   32  C10 UNL     1       4.029  -2.596   0.861  1.00  0.00     0.215 C 
BRANCH  32  33
HETATM   33  C11 UNL     1       3.965  -3.283  -0.475  1.00  0.00     0.215 C 
HETATM   34  O2  UNL     1       3.113  -4.303  -0.547  1.00  0.00    -0.646 OA
HETATM   35  O3  UNL     1       4.652  -2.914  -1.399  1.00  0.00    -0.646 OA
ENDBRANCH  32  33
BRANCH  32  36
HETATM   36  C12 UNL     1       5.402  -2.729   1.521  1.00  0.00     0.068 C 
BRANCH  36  37
HETATM   37  C13 UNL     1       5.432  -2.078   2.857  1.00  0.00    -0.017 A 
HETATM   38  C14 UNL     1       5.072  -2.805   4.004  1.00  0.00    -0.002 A 
HETATM   39  C15 UNL     1       5.102  -2.188   5.266  1.00  0.00     0.029 A 
HETATM   40  C16 UNL     1       5.492  -0.842   5.387  1.00  0.00     0.156 A 
HETATM   41  C17 UNL     1       5.854  -0.111   4.236  1.00  0.00     0.156 A 
HETATM   42  O5  UNL     1       5.518  -0.268   6.572  1.00  0.00    -0.188 OA
HETATM   43  C18 UNL     1       5.822  -0.733   2.977  1.00  0.00     0.025 A 
HETATM   44  O4  UNL     1       6.219   1.150   4.340  1.00  0.00    -0.188 OA
ENDBRANCH  36  37
ENDBRANCH  32  36
ENDBRANCH  31  32
ENDBRANCH  29  31
ENDBRANCH   2  29
BRANCH   1  45
HETATM   45  C5  UNL     1       4.305   1.603   0.162  1.00  0.00     0.025 A 
HETATM   46  C4  UNL     1       5.045   0.771  -0.697  1.00  0.00     0.004 A 
HETATM   47  C3  UNL     1       6.447   0.853  -0.717  1.00  0.00     0.030 A 
HETATM   48  C2  UNL     1       7.117   1.764   0.119  1.00  0.00     0.156 A 
HETATM   49  C1  UNL     1       6.379   2.598   0.980  1.00  0.00     0.156 A 
HETATM   50  O15 UNL     1       8.434   1.834   0.096  1.00  0.00    -0.188 OA
HETATM   51  C6  UNL     1       4.975   2.516   1.000  1.00  0.00     0.032 A 
HETATM   52  O16 UNL     1       6.998   3.455   1.768  1.00  0.00    -0.188 OA
ENDBRANCH   1  45
TORSDOF 14
