REMARK  5 active torsions:
REMARK  status: ('A' for Active; 'I' for Inactive)
REMARK    1  A    between atoms: S1_1  and  S2_2 
REMARK    2  A    between atoms: S1_1  and  C4_8 
REMARK    3  A    between atoms: S2_2  and  C1_3 
REMARK    4  A    between atoms: C1_3  and  C2_4 
REMARK    5  A    between atoms: C4_8  and  C5_9 
ROOT
HETATM    1  S2  UNL     1      -0.353  -0.820  -0.658  1.00  0.00     0.217 S 
HETATM    2  O1  UNL     1       0.029  -0.057  -1.834  1.00  0.00    -0.215 OA
HETATM    3  O2  UNL     1      -1.777  -1.100  -0.597  1.00  0.00    -0.215 OA
ENDROOT
BRANCH   1   4
HETATM    4  S1  UNL     1      -0.101   0.529   0.850  1.00  0.00    -0.016 SA
BRANCH   4   5
HETATM    5  C4  UNL     1      -1.211   1.887   0.375  1.00  0.00     0.099 C 
BRANCH   5   6
HETATM    6  C5  UNL     1      -1.137   2.980   1.406  1.00  0.00    -0.013 C 
HETATM    7  C6  UNL     1      -1.801   2.816   2.561  1.00  0.00    -0.004 C 
ENDBRANCH   5   6
ENDBRANCH   4   5
ENDBRANCH   1   4
BRANCH   1   8
HETATM    8  C1  UNL     1       0.541  -2.369  -0.658  1.00  0.00     0.159 C 
BRANCH   8   9
HETATM    9  C2  UNL     1       2.045  -2.369  -0.658  1.00  0.00    -0.008 C 
HETATM   10  C3  UNL     1       2.686  -2.104  -1.808  1.00  0.00    -0.004 C 
ENDBRANCH   8   9
ENDBRANCH   1   8
TORSDOF 5
