REMARK  19 active torsions:
REMARK  status: ('A' for Active; 'I' for Inactive)
REMARK    1  A    between atoms: C1_1  and  O6_12 
REMARK    2  A    between atoms: C5_5  and  C6_7 
REMARK    3  A    between atoms: O6_12  and  C7_13 
REMARK    4  A    between atoms: C7_13  and  C8_14 
REMARK    5  A    between atoms: C8_14  and  C9_16 
REMARK    6  A    between atoms: C9_16  and  O8_17 
REMARK    7  A    between atoms: O8_17  and  C10_18 
REMARK    8  A    between atoms: C10_18  and  C11_19 
REMARK    9  A    between atoms: C11_19  and  C12_20 
REMARK   10  A    between atoms: C12_20  and  C13_21 
REMARK   11  A    between atoms: C13_21  and  C14_22 
REMARK   12  A    between atoms: C14_22  and  C15_23 
REMARK   13  A    between atoms: C16_24  and  C17_25 
REMARK   14  A    between atoms: C17_25  and  C18_26 
REMARK   15  A    between atoms: C19_27  and  C20_28 
REMARK   16  A    between atoms: C20_28  and  C21_29 
REMARK   17  A    between atoms: C22_30  and  C23_31 
REMARK   18  A    between atoms: C23_31  and  C24_32 
REMARK   19  A    between atoms: C25_33  and  C26_34 
ROOT
HETATM    1  C10 UNL     1       1.098   1.311  -0.502  1.00  0.00     0.272 C 
HETATM    2  O9  UNL     1       0.635   0.506   0.273  1.00  0.00    -0.264 OA
ENDROOT
BRANCH   1   3
HETATM    3  O8  UNL     1       0.668   2.563  -0.613  1.00  0.00    -0.299 OA
BRANCH   3   4
HETATM    4  C9  UNL     1      -0.398   2.852   0.279  1.00  0.00     0.187 C 
BRANCH   4   5
HETATM    5  C8  UNL     1      -0.840   4.303   0.094  1.00  0.00     0.212 C 
HETATM    6  O7  UNL     1       0.231   5.141   0.467  1.00  0.00    -0.218 OA
BRANCH   5   7
HETATM    7  C7  UNL     1      -2.051   4.666   0.953  1.00  0.00     0.180 C 
BRANCH   7   8
HETATM    8  O6  UNL     1      -2.512   5.938   0.555  1.00  0.00    -0.326 OA
BRANCH   8   9
HETATM    9  C1  UNL     1      -3.609   6.399   1.318  1.00  0.00     0.270 C 
HETATM   10  C2  UNL     1      -3.926   7.875   0.977  1.00  0.00     0.241 C 
HETATM   11  C3  UNL     1      -5.213   8.346   1.690  1.00  0.00     0.220 C 
HETATM   12  O5  UNL     1      -2.840   8.696   1.379  1.00  0.00    -0.215 OA
HETATM   13  C4  UNL     1      -6.355   7.336   1.438  1.00  0.00     0.215 C 
HETATM   14  O4  UNL     1      -5.590   9.627   1.211  1.00  0.00    -0.218 OA
HETATM   15  C5  UNL     1      -5.910   5.891   1.758  1.00  0.00     0.184 C 
HETATM   16  O3  UNL     1      -7.471   7.658   2.248  1.00  0.00    -0.218 OA
HETATM   17  O1  UNL     1      -4.734   5.582   1.022  1.00  0.00    -0.326 OA
BRANCH  15  18
HETATM   18  C6  UNL     1      -6.961   4.844   1.371  1.00  0.00     0.214 C 
HETATM   19  O2  UNL     1      -6.541   3.592   1.865  1.00  0.00    -0.218 OA
ENDBRANCH  15  18
ENDBRANCH   8   9
ENDBRANCH   7   8
ENDBRANCH   5   7
ENDBRANCH   4   5
ENDBRANCH   3   4
ENDBRANCH   1   3
BRANCH   1  20
HETATM   20  C11 UNL     1       2.229   0.936  -1.422  1.00  0.00     0.096 C 
BRANCH  20  21
HETATM   21  C12 UNL     1       2.246  -0.557  -1.748  1.00  0.00     0.011 C 
BRANCH  21  22
HETATM   22  C13 UNL     1       3.367  -0.937  -2.717  1.00  0.00     0.005 C 
BRANCH  22  23
HETATM   23  C14 UNL     1       3.387  -2.432  -3.039  1.00  0.00     0.026 C 
BRANCH  23  24
HETATM   24  C15 UNL     1       4.494  -2.799  -3.992  1.00  0.00    -0.030 C 
HETATM   25  C16 UNL     1       4.854  -4.088  -4.088  1.00  0.00    -0.026 C 
BRANCH  25  26
HETATM   26  C17 UNL     1       4.135  -5.102  -3.240  1.00  0.00     0.051 C 
BRANCH  26  27
HETATM   27  C18 UNL     1       4.467  -6.498  -3.689  1.00  0.00    -0.026 C 
HETATM   28  C19 UNL     1       4.082  -7.529  -2.920  1.00  0.00    -0.026 C 
BRANCH  28  29
HETATM   29  C20 UNL     1       3.338  -7.234  -1.645  1.00  0.00     0.051 C 
BRANCH  29  30
HETATM   30  C21 UNL     1       2.787  -8.502  -1.049  1.00  0.00    -0.026 C 
HETATM   31  C22 UNL     1       2.278  -8.459   0.191  1.00  0.00    -0.026 C 
BRANCH  31  32
HETATM   32  C23 UNL     1       2.283  -7.145   0.926  1.00  0.00     0.051 C 
BRANCH  32  33
HETATM   33  C24 UNL     1       1.463  -7.240   2.184  1.00  0.00    -0.026 C 
HETATM   34  C25 UNL     1       1.559  -6.250   3.088  1.00  0.00    -0.030 C 
BRANCH  34  35
HETATM   35  C26 UNL     1       2.481  -5.098   2.795  1.00  0.00     0.026 C 
HETATM   36  C27 UNL     1       2.190  -3.881   3.674  1.00  0.00     0.005 C 
ENDBRANCH  34  35
ENDBRANCH  32  33
ENDBRANCH  31  32
ENDBRANCH  29  30
ENDBRANCH  28  29
ENDBRANCH  26  27
ENDBRANCH  25  26
ENDBRANCH  23  24
ENDBRANCH  22  23
ENDBRANCH  21  22
ENDBRANCH  20  21
ENDBRANCH   1  20
TORSDOF 19
