REMARK  0 active torsions:
REMARK  status: ('A' for Active; 'I' for Inactive)
ROOT
HETATM    1  C1  UNL     1       2.902   0.918  -2.256  1.00  0.00     0.070 C 
HETATM    2  C2  UNL     1       3.676   1.102  -0.955  1.00  0.00     0.012 C 
HETATM    3  C3  UNL     1       3.422  -0.059   0.016  1.00  0.00     0.019 C 
HETATM    4  C4  UNL     1       1.955  -0.250   0.258  1.00  0.00    -0.020 C 
HETATM    5  C5  UNL     1       0.965   0.174  -0.691  1.00  0.00     0.034 C 
HETATM    6  C6  UNL     1       1.424   0.686  -2.039  1.00  0.00     0.173 C 
HETATM    7  O1  UNL     1       0.750   0.930  -3.012  1.00  0.00    -0.291 OA
HETATM    8  C7  UNL     1      -0.434   0.082  -0.342  1.00  0.00     0.046 A 
HETATM    9  C8  UNL     1      -0.803  -0.584   0.871  1.00  0.00     0.042 A 
HETATM   10  C9  UNL     1       0.186  -1.068   1.752  1.00  0.00     0.003 C 
HETATM   11  C10 UNL     1       1.545  -0.889   1.455  1.00  0.00    -0.004 C 
HETATM   12  C11 UNL     1      -2.238  -0.779   1.242  1.00  0.00     0.194 A 
HETATM   13  C12 UNL     1      -3.242  -0.266   0.299  1.00  0.00     0.044 A 
HETATM   14  C13 UNL     1      -2.928   0.394  -0.814  1.00  0.00     0.132 A 
HETATM   15  C14 UNL     1      -1.529   0.672  -1.201  1.00  0.00     0.218 A 
HETATM   16  O2  UNL     1      -1.436   1.375  -2.180  1.00  0.00    -0.284 OA
HETATM   17  O3  UNL     1      -3.996   0.768  -1.519  1.00  0.00    -0.328 OA
HETATM   18  C15 UNL     1      -5.178   0.373  -0.812  1.00  0.00     0.153 A 
HETATM   19  C16 UNL     1      -4.727  -0.398   0.438  1.00  0.00     0.058 A 
HETATM   20  C17 UNL     1      -5.272   0.223   1.719  1.00  0.00     0.007 C 
HETATM   21  O4  UNL     1      -2.662  -1.320   2.240  1.00  0.00    -0.287 OA
HETATM   22  C18 UNL     1       4.172   0.275   1.317  1.00  0.00     0.004 C 
HETATM   23  C19 UNL     1       3.998  -1.359  -0.557  1.00  0.00     0.004 C 
ENDROOT
TORSDOF 0
