REMARK  0 active torsions:
REMARK  status: ('A' for Active; 'I' for Inactive)
ROOT
HETATM    1  C1  UNL     1       3.645  -1.524  -1.025  1.00  0.00     0.026 C 
HETATM    2  C2  UNL     1       2.182  -1.408  -0.678  1.00  0.00    -0.048 C 
HETATM    3  C3  UNL     1       1.522  -2.531  -0.310  1.00  0.00    -0.034 C 
HETATM    4  C4  UNL     1       0.076  -2.635   0.141  1.00  0.00     0.029 C 
HETATM    5  C5  UNL     1      -1.014  -2.024  -0.767  1.00  0.00     0.026 C 
HETATM    6  C6  UNL     1      -2.096  -1.318   0.029  1.00  0.00    -0.047 C 
HETATM    7  C7  UNL     1      -2.266   0.023   0.080  1.00  0.00    -0.030 C 
HETATM    8  C8  UNL     1      -1.437   1.047  -0.668  1.00  0.00     0.047 C 
HETATM    9  C9  UNL     1      -0.238   1.518   0.133  1.00  0.00    -0.047 C 
HETATM   10  C10 UNL     1      -0.152   2.797   0.545  1.00  0.00    -0.051 C 
HETATM   11  C11 UNL     1      -1.375   3.670   0.438  1.00  0.00     0.026 C 
HETATM   12  C12 UNL     1       1.160   3.289   1.094  1.00  0.00     0.026 C 
HETATM   13  C13 UNL     1       0.865   0.533   0.465  1.00  0.00     0.026 C 
HETATM   14  C14 UNL     1       1.574  -0.022  -0.787  1.00  0.00     0.026 C 
HETATM   15  C15 UNL     1      -3.033  -2.201   0.813  1.00  0.00     0.026 C 
ENDROOT
TORSDOF 0
