REMARK  12 active torsions:
REMARK  status: ('A' for Active; 'I' for Inactive)
REMARK    1  A    between atoms: C1_1  and  C32_50 
REMARK    2  A    between atoms: C2_2  and  O5_14 
REMARK    3  A    between atoms: O5_14  and  C10_15 
REMARK    4  A    between atoms: C11_16  and  O6_17 
REMARK    5  A    between atoms: O6_17  and  C12_18 
REMARK    6  A    between atoms: C16_25  and  C17_27 
REMARK    7  A    between atoms: C17_27  and  O11_28 
REMARK    8  A    between atoms: O11_28  and  C18_29 
REMARK    9  A    between atoms: C18_29  and  C19_30 
REMARK   10  A    between atoms: C20_31  and  C21_32 
REMARK   11  A    between atoms: C23_34  and  O12_35 
REMARK   12  A    between atoms: C30_46  and  C31_48 
ROOT
HETATM    1  C10 UNL     1       0.621   0.184  -0.994  1.00  0.00     0.271 C 
HETATM    2  C11 UNL     1      -0.135  -1.127  -1.357  1.00  0.00     0.207 C 
HETATM    3  C28 UNL     1      -1.209  -0.881  -2.437  1.00  0.00     0.217 C 
HETATM    4  O15 UNL     1      -1.875  -2.080  -2.793  1.00  0.00    -0.218 OA
HETATM    5  C29 UNL     1      -0.596  -0.199  -3.688  1.00  0.00     0.215 C 
HETATM    6  O16 UNL     1      -1.606   0.551  -4.338  1.00  0.00    -0.218 OA
HETATM    7  C30 UNL     1       0.600   0.742  -3.350  1.00  0.00     0.184 C 
HETATM    8  O17 UNL     1       0.496   1.191  -2.000  1.00  0.00    -0.326 OA
ENDROOT
BRANCH   2   9
HETATM    9  O6  UNL     1       0.803  -2.092  -1.811  1.00  0.00    -0.324 OA
BRANCH   9  10
HETATM   10  C12 UNL     1       0.445  -3.418  -1.473  1.00  0.00     0.270 C 
HETATM   11  C13 UNL     1       0.943  -4.441  -2.527  1.00  0.00     0.241 C 
HETATM   12  O7  UNL     1       0.547  -4.045  -3.832  1.00  0.00    -0.215 OA
HETATM   13  C14 UNL     1       2.475  -4.629  -2.453  1.00  0.00     0.220 C 
HETATM   14  O8  UNL     1       2.910  -5.641  -3.350  1.00  0.00    -0.218 OA
HETATM   15  C15 UNL     1       2.896  -4.961  -1.002  1.00  0.00     0.215 C 
HETATM   16  O9  UNL     1       2.455  -6.260  -0.629  1.00  0.00    -0.218 OA
HETATM   17  C16 UNL     1       2.318  -3.938   0.004  1.00  0.00     0.181 C 
HETATM   18  O10 UNL     1       0.906  -3.781  -0.168  1.00  0.00    -0.326 OA
BRANCH  17  19
HETATM   19  C17 UNL     1       3.020  -2.574  -0.070  1.00  0.00     0.184 C 
BRANCH  19  20
HETATM   20  O11 UNL     1       2.375  -1.664   0.807  1.00  0.00    -0.296 OA
BRANCH  20  21
HETATM   21  C18 UNL     1       2.686  -1.885   2.082  1.00  0.00     0.296 C 
HETATM   22  O14 UNL     1       3.422  -2.768   2.453  1.00  0.00    -0.259 OA
BRANCH  21  23
HETATM   23  C19 UNL     1       2.068  -0.975   3.055  1.00  0.00     0.068 C 
HETATM   24  C20 UNL     1       0.793  -0.578   2.910  1.00  0.00     0.005 C 
BRANCH  24  25
HETATM   25  C21 UNL     1       0.211   0.350   3.924  1.00  0.00     0.002 A 
HETATM   26  C22 UNL     1       1.055   1.152   4.711  1.00  0.00     0.026 A 
HETATM   27  C23 UNL     1       0.510   2.027   5.670  1.00  0.00     0.119 A 
HETATM   28  C25 UNL     1      -0.887   2.098   5.840  1.00  0.00     0.153 A 
HETATM   29  O13 UNL     1      -1.404   2.914   6.735  1.00  0.00    -0.188 OA
HETATM   30  C26 UNL     1      -1.729   1.293   5.053  1.00  0.00     0.029 A 
HETATM   31  C27 UNL     1      -1.184   0.420   4.096  1.00  0.00     0.002 A 
BRANCH  27  32
HETATM   32  O12 UNL     1       1.307   2.777   6.402  1.00  0.00    -0.326 OA
HETATM   33  C24 UNL     1       2.699   2.502   6.367  1.00  0.00     0.181 C 
ENDBRANCH  27  32
ENDBRANCH  24  25
ENDBRANCH  21  23
ENDBRANCH  20  21
ENDBRANCH  19  20
ENDBRANCH  17  19
ENDBRANCH   9  10
ENDBRANCH   2   9
BRANCH   1  34
HETATM   34  O5  UNL     1       0.086   0.717   0.209  1.00  0.00    -0.298 OA
BRANCH  34  35
HETATM   35  C2  UNL     1      -1.174   1.133   0.063  1.00  0.00     0.158 A 
HETATM   36  C1  UNL     1      -1.453   2.365  -0.434  1.00  0.00     0.125 A 
HETATM   37  O4  UNL     1      -2.723   2.797  -0.586  1.00  0.00    -0.305 OA
HETATM   38  C9  UNL     1      -3.809   2.063  -0.266  1.00  0.00     0.107 A 
HETATM   39  C4  UNL     1      -3.654   0.756   0.264  1.00  0.00     0.089 A 
HETATM   40  C8  UNL     1      -5.106   2.594  -0.457  1.00  0.00     0.052 A 
HETATM   41  C3  UNL     1      -2.277   0.223   0.453  1.00  0.00     0.224 A 
HETATM   42  C5  UNL     1      -4.795  -0.018   0.604  1.00  0.00     0.138 A 
HETATM   43  O1  UNL     1      -1.967  -0.863   0.887  1.00  0.00    -0.284 OA
HETATM   44  O2  UNL     1      -4.666  -1.254   1.106  1.00  0.00    -0.190 OA
HETATM   45  C6  UNL     1      -6.088   0.521   0.408  1.00  0.00     0.055 A 
HETATM   46  C7  UNL     1      -6.244   1.824  -0.121  1.00  0.00     0.135 A 
HETATM   47  O3  UNL     1      -7.471   2.332  -0.303  1.00  0.00    -0.190 OA
BRANCH  36  48
HETATM   48  C32 UNL     1      -0.328   3.273  -0.822  1.00  0.00     0.025 A 
HETATM   49  C33 UNL     1       0.791   3.408   0.020  1.00  0.00     0.004 A 
HETATM   50  C34 UNL     1       1.846   4.260  -0.348  1.00  0.00     0.028 A 
HETATM   51  C35 UNL     1       1.789   4.982  -1.553  1.00  0.00     0.131 A 
HETATM   52  O19 UNL     1       2.779   5.781  -1.895  1.00  0.00    -0.190 OA
HETATM   53  C36 UNL     1       0.668   4.846  -2.391  1.00  0.00     0.028 A 
HETATM   54  C37 UNL     1      -0.389   3.992  -2.027  1.00  0.00     0.004 A 
ENDBRANCH  36  48
ENDBRANCH  34  35
ENDBRANCH   1  34
BRANCH   7  55
HETATM   55  C31 UNL     1       1.971   0.084  -3.561  1.00  0.00     0.214 C 
HETATM   56  O18 UNL     1       2.924   1.105  -3.762  1.00  0.00    -0.218 OA
ENDBRANCH   7  55
TORSDOF 12
