REMARK  3 active torsions:
REMARK  status: ('A' for Active; 'I' for Inactive)
REMARK    1  A    between atoms: C2_2  and  O3_11 
REMARK    2  A    between atoms: C4_4  and  O2_9 
REMARK    3  A    between atoms: C6_6  and  O1_7 
ROOT
HETATM    1  C1  UNL     1       0.421   0.558  -1.718  1.00  0.00     0.049 A 
HETATM    2  C2  UNL     1       0.838   1.131  -0.504  1.00  0.00     0.098 A 
HETATM    3  C3  UNL     1       0.424   0.562   0.712  1.00  0.00     0.049 A 
HETATM    4  C4  UNL     1      -0.405  -0.574   0.719  1.00  0.00     0.098 A 
HETATM    5  C5  UNL     1      -0.818  -1.141  -0.499  1.00  0.00     0.049 A 
HETATM    6  C6  UNL     1      -0.408  -0.578  -1.720  1.00  0.00     0.098 A 
ENDROOT
BRANCH   2   7
HETATM    7  O3  UNL     1       1.615   2.196  -0.507  1.00  0.00    -0.328 OA
HETATM    8  C9  UNL     1       1.948   2.781   0.743  1.00  0.00     0.181 C 
ENDBRANCH   2   7
BRANCH   6   9
HETATM    9  O1  UNL     1      -0.797  -1.112  -2.860  1.00  0.00    -0.328 OA
HETATM   10  C7  UNL     1      -1.633  -2.258  -2.807  1.00  0.00     0.181 C 
ENDBRANCH   6   9
BRANCH   4  11
HETATM   11  O2  UNL     1      -0.792  -1.104   1.862  1.00  0.00    -0.328 OA
HETATM   12  C8  UNL     1      -0.347  -0.495   3.064  1.00  0.00     0.181 C 
ENDBRANCH   4  11
TORSDOF 3
