REMARK  5 active torsions:
REMARK  status: ('A' for Active; 'I' for Inactive)
REMARK    1  A    between atoms: C3_3  and  C15_21 
REMARK    2  A    between atoms: C6_6  and  O1_7 
REMARK    3  A    between atoms: O1_7  and  C7_8 
REMARK    4  A    between atoms: C11_15  and  C12_17 
REMARK    5  A    between atoms: C16_22  and  C17_23 
ROOT
HETATM    1  C1  UNL     1       0.922   0.728  -1.187  1.00  0.00     0.060 C 
HETATM    2  C2  UNL     1       1.426  -0.680  -1.525  1.00  0.00     0.122 A 
HETATM    3  C3  UNL     1       0.434  -1.902  -1.475  1.00  0.00     0.133 A 
HETATM    4  C4  UNL     1      -1.064  -1.703  -1.117  1.00  0.00     0.031 C 
HETATM    5  C5  UNL     1      -1.449  -0.211  -1.248  1.00  0.00     0.032 C 
HETATM    6  C6  UNL     1      -0.473   0.732  -0.527  1.00  0.00     0.120 C 
HETATM    7  C13 UNL     1      -1.898  -2.516  -2.117  1.00  0.00     0.003 C 
HETATM    8  C14 UNL     1      -1.354  -2.223   0.299  1.00  0.00     0.003 C 
HETATM    9  O8  UNL     1       1.279  -1.520  -0.428  1.00  0.00    -0.355 OA
HETATM   10  C19 UNL     1       2.834  -0.859  -2.076  1.00  0.00     0.033 C 
ENDROOT
BRANCH   6  11
HETATM   11  O1  UNL     1      -0.988   2.049  -0.551  1.00  0.00    -0.332 OA
BRANCH  11  12
HETATM   12  C7  UNL     1      -0.383   2.902   0.398  1.00  0.00     0.270 C 
HETATM   13  C8  UNL     1      -0.770   4.379   0.129  1.00  0.00     0.241 C 
HETATM   14  O2  UNL     1      -0.225   4.787  -1.115  1.00  0.00    -0.215 OA
HETATM   15  C9  UNL     1      -0.244   5.305   1.246  1.00  0.00     0.220 C 
HETATM   16  O3  UNL     1      -0.779   6.607   1.084  1.00  0.00    -0.218 OA
HETATM   17  C10 UNL     1      -0.646   4.744   2.629  1.00  0.00     0.215 C 
HETATM   18  O4  UNL     1       0.000   5.481   3.652  1.00  0.00    -0.218 OA
HETATM   19  C11 UNL     1      -0.256   3.254   2.768  1.00  0.00     0.184 C 
HETATM   20  O5  UNL     1      -0.824   2.518   1.693  1.00  0.00    -0.326 OA
BRANCH  19  21
HETATM   21  C12 UNL     1      -0.773   2.619   4.061  1.00  0.00     0.214 C 
HETATM   22  O6  UNL     1      -0.223   1.326   4.168  1.00  0.00    -0.218 OA
ENDBRANCH  19  21
ENDBRANCH  11  12
ENDBRANCH   6  11
BRANCH   3  23
HETATM   23  C15 UNL     1       0.855  -3.289  -1.937  1.00  0.00     0.001 C 
HETATM   24  C16 UNL     1       1.061  -4.264  -1.039  1.00  0.00     0.004 C 
BRANCH  24  25
HETATM   25  C17 UNL     1       1.479  -5.623  -1.535  1.00  0.00     0.174 C 
HETATM   26  C18 UNL     1       0.443  -6.703  -1.217  1.00  0.00     0.041 C 
HETATM   27  O7  UNL     1       2.697  -5.990  -0.932  1.00  0.00    -0.219 OA
ENDBRANCH  24  25
ENDBRANCH   3  23
TORSDOF 5
