REMARK  1 active torsions:
REMARK  status: ('A' for Active; 'I' for Inactive)
REMARK    1  A    between atoms: C3_3  and  C8_8 
ROOT
HETATM    1  C1  UNL     1       1.998   0.314   0.051  1.00  0.00     0.170 C 
HETATM    2  C2  UNL     1       0.635   0.982   0.315  1.00  0.00     0.040 C 
HETATM    3  C3  UNL     1      -0.494   0.279  -0.453  1.00  0.00     0.035 C 
HETATM    4  C4  UNL     1      -0.563  -1.203  -0.045  1.00  0.00     0.028 C 
HETATM    5  C5  UNL     1       0.787  -1.887   0.035  1.00  0.00    -0.032 C 
HETATM    6  C6  UNL     1       1.947  -1.201   0.096  1.00  0.00    -0.018 C 
HETATM    7  C7  UNL     1       3.254  -1.947   0.215  1.00  0.00     0.029 C 
HETATM    8  O2  UNL     1       2.467   0.715  -1.220  1.00  0.00    -0.219 OA
ENDROOT
BRANCH   3   9
HETATM    9  C8  UNL     1      -1.840   0.979  -0.238  1.00  0.00     0.127 C 
HETATM   10  C9  UNL     1      -3.008   0.219  -0.869  1.00  0.00     0.033 C 
HETATM   11  C10 UNL     1      -2.092   1.336   1.227  1.00  0.00     0.033 C 
HETATM   12  O1  UNL     1      -1.652   2.176  -0.959  1.00  0.00    -0.226 OA
ENDBRANCH   3   9
TORSDOF 1
