REMARK  4 active torsions:
REMARK  status: ('A' for Active; 'I' for Inactive)
REMARK    1  A    between atoms: C1_1  and  O1_2 
REMARK    2  A    between atoms: C1_1  and  C3_8 
REMARK    3  A    between atoms: O1_2  and  N1_3 
REMARK       I    between atoms: N1_3  and  C2_4 
REMARK    4  A    between atoms: C3_8  and  C4_9 
ROOT
HETATM    1  O1  UNL     1       1.189  -0.133   0.406  1.00  0.00    -0.223 OA
ENDROOT
BRANCH   1   2
HETATM    2  C1  UNL     1      -0.219  -0.133   0.406  1.00  0.00     0.179 C 
BRANCH   2   3
HETATM    3  C3  UNL     1      -0.697   1.318   0.406  1.00  0.00     0.076 C 
BRANCH   3   4
HETATM    4  C4  UNL     1      -2.223   1.438   0.408  1.00  0.00     0.341 C 
HETATM    5  N4  UNL     1      -2.623   2.834   0.400  1.00  0.00     0.618 N 
ENDBRANCH   3   4
ENDBRANCH   2   3
ENDBRANCH   1   2
BRANCH   1   6
HETATM    6  N1  UNL     1       1.621  -1.461   0.406  1.00  0.00     0.067 NA
HETATM    7  C2  UNL     1       2.178  -1.996  -0.721  1.00  0.00     0.782 C 
HETATM    8  N2  UNL     1       2.564  -3.217  -0.691  1.00  0.00    -0.111 NA
HETATM    9  N3  UNL     1       2.342  -1.291  -1.879  1.00  0.00     0.063 N 
HETATM   10  H1  UNL     1       2.457  -3.760   0.145  1.00  0.00     0.206 HD
ENDBRANCH   1   6
TORSDOF 4
