REMARK  3 active torsions:
REMARK  status: ('A' for Active; 'I' for Inactive)
REMARK    1  A    between atoms: C2_2  and  O4_20 
REMARK    2  A    between atoms: C3_3  and  O3_18 
REMARK    3  A    between atoms: C14_14  and  O1_15 
ROOT
HETATM    1  C1  UNL     1      -3.383  -0.109   0.191  1.00  0.00     0.155 A 
HETATM    2  C2  UNL     1      -2.674   1.090   0.383  1.00  0.00     0.141 A 
HETATM    3  C3  UNL     1      -1.258   1.115   0.330  1.00  0.00     0.118 A 
HETATM    4  C4  UNL     1      -0.490  -0.084   0.084  1.00  0.00     0.026 A 
HETATM    5  C5  UNL     1      -1.262  -1.291  -0.107  1.00  0.00     0.004 A 
HETATM    6  C6  UNL     1      -2.678  -1.297  -0.053  1.00  0.00     0.029 A 
HETATM    7  C7  UNL     1      -0.643  -2.533  -0.361  1.00  0.00     0.000 A 
HETATM    8  C8  UNL     1       0.752  -2.623  -0.432  1.00  0.00     0.002 A 
HETATM    9  C9  UNL     1       1.557  -1.476  -0.250  1.00  0.00     0.024 A 
HETATM   10  C10 UNL     1       0.967  -0.180   0.016  1.00  0.00     0.029 A 
HETATM   11  C11 UNL     1       1.897   0.910   0.188  1.00  0.00     0.131 A 
HETATM   12  C12 UNL     1       3.293   0.711   0.096  1.00  0.00     0.029 A 
HETATM   13  C13 UNL     1       3.828  -0.558  -0.164  1.00  0.00     0.026 A 
HETATM   14  C14 UNL     1       2.967  -1.654  -0.336  1.00  0.00     0.094 A 
HETATM   15  O2  UNL     1       1.559   2.176   0.443  1.00  0.00    -0.190 OA
HETATM   16  O5  UNL     1      -4.723  -0.121   0.244  1.00  0.00    -0.188 OA
ENDROOT
BRANCH   2  17
HETATM   17  O4  UNL     1      -3.356   2.223   0.617  1.00  0.00    -0.324 OA
HETATM   18  C17 UNL     1      -4.457   2.164   1.512  1.00  0.00     0.182 C 
ENDBRANCH   2  17
BRANCH   3  19
HETATM   19  O3  UNL     1      -0.734   2.328   0.523  1.00  0.00    -0.326 OA
HETATM   20  C16 UNL     1      -0.855   3.281  -0.521  1.00  0.00     0.181 C 
ENDBRANCH   3  19
BRANCH  14  21
HETATM   21  O1  UNL     1       3.512  -2.855  -0.582  1.00  0.00    -0.328 OA
HETATM   22  C15 UNL     1       4.887  -2.904  -0.936  1.00  0.00     0.181 C 
ENDBRANCH  14  21
TORSDOF 3
