REMARK  2 active torsions:
REMARK  status: ('A' for Active; 'I' for Inactive)
REMARK    1  A    between atoms: C8_9  and  C10_13 
REMARK    2  A    between atoms: C10_13  and  C11_14 
ROOT
HETATM    1  C1  UNL     1       4.350  -1.088   1.277  1.00  0.00     0.133 A 
HETATM    2  C2  UNL     1       4.110   0.279   1.010  1.00  0.00     0.028 A 
HETATM    3  C3  UNL     1       2.785   0.771   0.963  1.00  0.00     0.007 A 
HETATM    4  C4  UNL     1       1.696  -0.109   1.184  1.00  0.00     0.060 A 
HETATM    5  C5  UNL     1       1.936  -1.479   1.486  1.00  0.00     0.099 A 
HETATM    6  C6  UNL     1       3.264  -1.965   1.512  1.00  0.00     0.052 A 
HETATM    7  O1  UNL     1       0.922  -2.326   1.746  1.00  0.00    -0.328 OA
HETATM    8  C7  UNL     1      -0.361  -1.816   2.127  1.00  0.00     0.187 C 
HETATM    9  C8  UNL     1      -0.797  -0.664   1.197  1.00  0.00     0.213 C 
HETATM   10  C9  UNL     1       0.295   0.393   1.086  1.00  0.00     0.205 C 
HETATM   11  O2  UNL     1      -0.033   1.547   0.916  1.00  0.00    -0.289 OA
HETATM   12  O3  UNL     1      -1.980  -0.107   1.744  1.00  0.00    -0.215 OA
HETATM   13  O6  UNL     1       5.606  -1.555   1.311  1.00  0.00    -0.190 OA
ENDROOT
BRANCH   9  14
HETATM   14  C10 UNL     1      -1.162  -1.182  -0.195  1.00  0.00     0.067 C 
BRANCH  14  15
HETATM   15  C11 UNL     1      -1.676  -0.094  -1.066  1.00  0.00    -0.017 A 
HETATM   16  C12 UNL     1      -3.049   0.215  -1.072  1.00  0.00     0.025 A 
HETATM   17  C13 UNL     1      -3.541   1.242  -1.895  1.00  0.00     0.156 A 
HETATM   18  C14 UNL     1      -2.656   1.967  -2.717  1.00  0.00     0.156 A 
HETATM   19  O5  UNL     1      -4.828   1.525  -1.895  1.00  0.00    -0.188 OA
HETATM   20  C15 UNL     1      -1.283   1.658  -2.711  1.00  0.00     0.029 A 
HETATM   21  O4  UNL     1      -3.107   2.934  -3.490  1.00  0.00    -0.188 OA
HETATM   22  C16 UNL     1      -0.795   0.629  -1.887  1.00  0.00    -0.002 A 
ENDBRANCH  14  15
ENDBRANCH   9  14
TORSDOF 2
