REMARK  1 active torsions:
REMARK  status: ('A' for Active; 'I' for Inactive)
REMARK    1  A    between atoms: C8_8  and  C13_13 
ROOT
HETATM    1  C1  UNL     1       0.703  -1.186   0.035  1.00  0.00    -0.008 A 
HETATM    2  C2  UNL     1       0.244   0.062   0.545  1.00  0.00    -0.023 A 
HETATM    3  C3  UNL     1       1.186   1.041   0.953  1.00  0.00    -0.008 A 
HETATM    4  C4  UNL     1       2.572   0.793   0.824  1.00  0.00    -0.022 A 
HETATM    5  C5  UNL     1       3.026  -0.434   0.285  1.00  0.00    -0.004 A 
HETATM    6  C6  UNL     1       2.094  -1.422  -0.109  1.00  0.00    -0.001 A 
HETATM    7  C7  UNL     1       3.545   1.812   1.250  1.00  0.00     0.031 C 
HETATM    8  C8  UNL     1      -1.215   0.342   0.631  1.00  0.00     0.026 C 
HETATM    9  C9  UNL     1      -2.041  -0.941   0.863  1.00  0.00     0.030 C 
HETATM   10  C10 UNL     1      -1.586  -2.108   0.012  1.00  0.00    -0.030 C 
HETATM   11  C11 UNL     1      -0.291  -2.236  -0.342  1.00  0.00    -0.026 C 
HETATM   12  C12 UNL     1       0.131  -3.461  -1.117  1.00  0.00     0.030 C 
ENDROOT
BRANCH   8  13
HETATM   13  C13 UNL     1      -1.676   1.072  -0.635  1.00  0.00     0.004 C 
HETATM   14  C14 UNL     1      -3.141   1.504  -0.568  1.00  0.00     0.000 C 
HETATM   15  C15 UNL     1      -0.742   2.217  -1.029  1.00  0.00     0.000 C 
ENDBRANCH   8  13
TORSDOF 1
