REMARK  5 active torsions:
REMARK  status: ('A' for Active; 'I' for Inactive)
REMARK    1  A    between atoms: C2_2  and  O3_33 
REMARK    2  A    between atoms: C16_16  and  C25_25 
REMARK    3  A    between atoms: O3_33  and  C31_34 
REMARK    4  A    between atoms: C31_34  and  C32_35 
REMARK    5  A    between atoms: C33_36  and  C34_37 
ROOT
HETATM    1  C1  UNL     1       3.486  -0.752  -0.543  1.00  0.00     0.180 C 
HETATM    2  C2  UNL     1       4.154   0.037   0.609  1.00  0.00     0.155 C 
HETATM    3  C3  UNL     1       3.521   1.426   0.822  1.00  0.00     0.028 C 
HETATM    4  C4  UNL     1       2.004   1.285   1.160  1.00  0.00     0.003 C 
HETATM    5  C5  UNL     1       1.258   0.137   0.396  1.00  0.00     0.003 C 
HETATM    6  C6  UNL     1       2.055  -0.271  -0.863  1.00  0.00     0.035 C 
HETATM    7  C7  UNL     1      -0.188   0.568  -0.023  1.00  0.00     0.005 C 
HETATM    8  C8  UNL     1      -0.975   1.307   1.098  1.00  0.00     0.004 C 
HETATM    9  C9  UNL     1      -0.168   2.549   1.590  1.00  0.00     0.000 C 
HETATM   10  C10 UNL     1       1.266   2.631   1.055  1.00  0.00     0.000 C 
HETATM   11  C11 UNL     1      -2.375   1.740   0.547  1.00  0.00     0.015 C 
HETATM   12  C12 UNL     1      -3.170   0.549   0.021  1.00  0.00    -0.049 C 
HETATM   13  C13 UNL     1      -2.512  -0.494  -0.537  1.00  0.00    -0.035 C 
HETATM   14  C14 UNL     1      -1.006  -0.586  -0.645  1.00  0.00     0.025 C 
HETATM   15  C15 UNL     1      -4.705   0.555   0.182  1.00  0.00     0.028 C 
HETATM   16  C16 UNL     1      -5.334   1.992   0.230  1.00  0.00     0.082 C 
HETATM   17  C17 UNL     1      -4.537   2.973   1.139  1.00  0.00     0.011 C 
HETATM   18  C18 UNL     1      -3.211   2.416   1.656  1.00  0.00     0.004 C 
HETATM   19  C19 UNL     1      -5.459   2.572  -1.201  1.00  0.00     0.011 C 
HETATM   20  C20 UNL     1      -6.215   1.650  -2.172  1.00  0.00     0.001 C 
HETATM   21  C21 UNL     1      -5.590   0.250  -2.231  1.00  0.00     0.000 C 
HETATM   22  C22 UNL     1      -5.492  -0.361  -0.816  1.00  0.00     0.004 C 
HETATM   23  C23 UNL     1      -6.889  -0.719  -0.291  1.00  0.00     0.000 C 
HETATM   24  C24 UNL     1      -4.238   0.281  -2.949  1.00  0.00     0.000 C 
HETATM   25  C26 UNL     1      -2.178   2.721  -0.621  1.00  0.00     0.004 C 
HETATM   26  C27 UNL     1      -1.172   0.344   2.285  1.00  0.00     0.000 C 
HETATM   27  C28 UNL     1       1.189  -1.098   1.318  1.00  0.00     0.000 C 
HETATM   28  C29 UNL     1       4.240   2.139   1.977  1.00  0.00     0.003 C 
HETATM   29  C30 UNL     1       3.744   2.275  -0.438  1.00  0.00     0.003 C 
HETATM   30  O6  UNL     1       4.271  -0.643  -1.715  1.00  0.00    -0.221 OA
ENDROOT
BRANCH   2  31
HETATM   31  O3  UNL     1       4.023  -0.715   1.811  1.00  0.00    -0.298 OA
BRANCH  31  32
HETATM   32  C31 UNL     1       5.119  -1.412   2.094  1.00  0.00     0.296 C 
HETATM   33  O5  UNL     1       5.707  -1.346   3.148  1.00  0.00    -0.259 OA
BRANCH  32  34
HETATM   34  C32 UNL     1       5.600  -2.303   1.031  1.00  0.00     0.068 C 
HETATM   35  C33 UNL     1       5.707  -3.625   1.240  1.00  0.00     0.005 C 
BRANCH  35  36
HETATM   36  C34 UNL     1       6.201  -4.490   0.129  1.00  0.00     0.000 A 
HETATM   37  C35 UNL     1       5.955  -4.127  -1.207  1.00  0.00     0.002 A 
HETATM   38  C36 UNL     1       6.422  -4.941  -2.254  1.00  0.00     0.027 A 
HETATM   39  C37 UNL     1       7.135  -6.121  -1.969  1.00  0.00     0.131 A 
HETATM   40  C38 UNL     1       7.381  -6.481  -0.633  1.00  0.00     0.027 A 
HETATM   41  O4  UNL     1       7.572  -6.883  -2.951  1.00  0.00    -0.190 OA
HETATM   42  C39 UNL     1       6.914  -5.668   0.416  1.00  0.00     0.002 A 
ENDBRANCH  35  36
ENDBRANCH  32  34
ENDBRANCH  31  32
ENDBRANCH   2  31
BRANCH  16  43
HETATM   43  C25 UNL     1      -6.735   1.924   0.811  1.00  0.00     0.184 C 
HETATM   44  O1  UNL     1      -6.973   1.242   1.779  1.00  0.00    -0.647 OA
HETATM   45  O2  UNL     1      -7.647   2.654   0.176  1.00  0.00    -0.647 OA
ENDBRANCH  16  43
TORSDOF 5
