REMARK  5 active torsions:
REMARK  status: ('A' for Active; 'I' for Inactive)
REMARK    1  A    between atoms: C4_4  and  C7_7 
REMARK    2  A    between atoms: C7_7  and  C8_8 
REMARK    3  A    between atoms: C8_8  and  C9_9 
REMARK    4  A    between atoms: C9_9  and  C10_10 
REMARK    5  A    between atoms: C11_11  and  C12_12 
ROOT
HETATM    1  C7  UNL     1      -1.397  -0.816   1.547  1.00  0.00     0.146 C 
HETATM    2  O2  UNL     1      -2.709  -0.652   1.061  1.00  0.00    -0.222 OA
HETATM    3  C14 UNL     1      -1.477  -1.410   2.953  1.00  0.00     0.038 C 
ENDROOT
BRANCH   1   4
HETATM    4  C4  UNL     1      -0.699   0.498   1.547  1.00  0.00     0.005 A 
HETATM    5  C3  UNL     1      -1.445   1.690   1.547  1.00  0.00    -0.002 A 
HETATM    6  C2  UNL     1      -0.787   2.932   1.547  1.00  0.00    -0.004 A 
HETATM    7  C1  UNL     1       0.617   2.985   1.547  1.00  0.00    -0.022 A 
HETATM    8  C6  UNL     1       1.363   1.793   1.547  1.00  0.00    -0.004 A 
HETATM    9  C15 UNL     1       1.314   4.299   1.547  1.00  0.00     0.031 C 
HETATM   10  C5  UNL     1       0.705   0.551   1.547  1.00  0.00    -0.002 A 
ENDBRANCH   1   4
BRANCH   1  11
HETATM   11  C8  UNL     1      -0.680  -1.832   0.656  1.00  0.00     0.039 C 
BRANCH  11  12
HETATM   12  C9  UNL     1      -0.533  -1.351  -0.787  1.00  0.00     0.028 C 
BRANCH  12  13
HETATM   13  C10 UNL     1       0.336  -2.264  -1.611  1.00  0.00    -0.032 C 
HETATM   14  C11 UNL     1       0.760  -1.834  -2.811  1.00  0.00    -0.015 C 
HETATM   15  C13 UNL     1       1.629  -2.746  -3.635  1.00  0.00     0.029 C 
BRANCH  14  16
HETATM   16  C12 UNL     1       0.346  -0.463  -3.270  1.00  0.00     0.204 C 
HETATM   17  O1  UNL     1       1.199   0.504  -2.699  1.00  0.00    -0.216 OA
ENDBRANCH  14  16
ENDBRANCH  12  13
ENDBRANCH  11  12
ENDBRANCH   1  11
TORSDOF 5
