REMARK  1 active torsions:
REMARK  status: ('A' for Active; 'I' for Inactive)
REMARK    1  A    between atoms: C7_8  and  C10_12 
ROOT
HETATM    1  C1  UNL     1      -3.154   0.141  -0.086  1.00  0.00     0.052 A 
HETATM    2  C2  UNL     1      -4.295  -0.639   0.227  1.00  0.00     0.135 A 
HETATM    3  C3  UNL     1      -4.141  -1.945   0.744  1.00  0.00     0.055 A 
HETATM    4  C4  UNL     1      -2.848  -2.482   0.951  1.00  0.00     0.138 A 
HETATM    5  C5  UNL     1      -1.707  -1.701   0.639  1.00  0.00     0.087 A 
HETATM    6  C6  UNL     1      -1.857  -0.387   0.119  1.00  0.00     0.107 A 
HETATM    7  O1  UNL     1      -0.771   0.359  -0.178  1.00  0.00    -0.307 OA
HETATM    8  C7  UNL     1       0.496  -0.070  -0.012  1.00  0.00     0.105 A 
HETATM    9  C8  UNL     1       0.764  -1.305   0.473  1.00  0.00     0.067 A 
HETATM   10  C9  UNL     1      -0.328  -2.230   0.840  1.00  0.00     0.202 A 
HETATM   11  O2  UNL     1      -0.012  -3.316   1.266  1.00  0.00    -0.286 OA
HETATM   12  O6  UNL     1      -2.721  -3.725   1.443  1.00  0.00    -0.190 OA
HETATM   13  O7  UNL     1      -5.522  -0.135   0.031  1.00  0.00    -0.190 OA
ENDROOT
BRANCH   8  14
HETATM   14  C10 UNL     1       1.639   0.826  -0.367  1.00  0.00     0.051 A 
HETATM   15  C11 UNL     1       2.768   0.877   0.469  1.00  0.00     0.034 A 
HETATM   16  C12 UNL     1       3.850   1.717   0.148  1.00  0.00     0.156 A 
HETATM   17  C13 UNL     1       3.801   2.508  -1.014  1.00  0.00     0.158 A 
HETATM   18  O5  UNL     1       4.904   1.758   0.937  1.00  0.00    -0.188 OA
HETATM   19  C14 UNL     1       2.672   2.455  -1.848  1.00  0.00     0.057 A 
HETATM   20  O4  UNL     1       4.811   3.297  -1.322  1.00  0.00    -0.188 OA
HETATM   21  C15 UNL     1       1.588   1.617  -1.531  1.00  0.00     0.135 A 
HETATM   22  O3  UNL     1       0.535   1.582  -2.324  1.00  0.00    -0.190 OA
ENDBRANCH   8  14
TORSDOF 1
