REMARK  6 active torsions:
REMARK  status: ('A' for Active; 'I' for Inactive)
REMARK    1  A    between atoms: C7_7  and  C9_11 
REMARK    2  A    between atoms: C9_11  and  C10_12 
REMARK    3  A    between atoms: C10_12  and  C11_13 
REMARK    4  A    between atoms: C11_13  and  O3_15 
REMARK    5  A    between atoms: O3_15  and  C13_16 
REMARK    6  A    between atoms: C13_16  and  C14_17 
ROOT
HETATM    1  C9  UNL     1      -0.193   1.078   0.330  1.00  0.00     0.037 C 
ENDROOT
BRANCH   1   2
HETATM    2  C7  UNL     1      -0.619   1.982   1.482  1.00  0.00     0.147 A 
HETATM    3  C5  UNL     1      -2.123   2.156   1.541  1.00  0.00     0.010 A 
HETATM    4  C4  UNL     1      -2.375   3.504   1.359  1.00  0.00     0.061 A 
HETATM    5  C6  UNL     1      -3.217   1.274   1.732  1.00  0.00    -0.002 A 
HETATM    6  C3  UNL     1      -3.691   4.027   1.356  1.00  0.00     0.005 A 
HETATM    7  C8  UNL     1      -1.131   4.223   1.188  1.00  0.00     0.296 A 
HETATM    8  C2  UNL     1      -4.783   3.149   1.543  1.00  0.00     0.000 A 
HETATM    9  C1  UNL     1      -4.545   1.766   1.731  1.00  0.00    -0.000 A 
HETATM   10  O1  UNL     1      -0.109   3.334   1.262  1.00  0.00    -0.296 OA
HETATM   11  O2  UNL     1      -1.053   5.416   1.008  1.00  0.00    -0.259 OA
ENDBRANCH   1   2
BRANCH   1  12
HETATM   12  C10 UNL     1       1.330   0.940   0.328  1.00  0.00     0.033 C 
BRANCH  12  13
HETATM   13  C11 UNL     1       1.838   0.045  -0.803  1.00  0.00     0.125 C 
HETATM   14  C12 UNL     1       3.363  -0.055  -0.834  1.00  0.00     0.033 C 
BRANCH  13  15
HETATM   15  O3  UNL     1       1.281  -1.254  -0.666  1.00  0.00    -0.301 OA
BRANCH  15  16
HETATM   16  C13 UNL     1       1.445  -1.992  -1.760  1.00  0.00     0.291 C 
HETATM   17  O4  UNL     1       1.857  -1.559  -2.811  1.00  0.00    -0.260 OA
BRANCH  16  18
HETATM   18  C14 UNL     1       1.086  -3.410  -1.633  1.00  0.00     0.037 C 
HETATM   19  C15 UNL     1      -0.191  -3.887  -2.270  1.00  0.00     0.036 C 
HETATM   20  C16 UNL     1       1.846  -4.301  -0.975  1.00  0.00    -0.025 C 
HETATM   21  C17 UNL     1       3.123  -3.822  -0.340  1.00  0.00     0.030 C 
ENDBRANCH  16  18
ENDBRANCH  15  16
ENDBRANCH  13  15
ENDBRANCH  12  13
ENDBRANCH   1  12
TORSDOF 6
