REMARK  3 active torsions:
REMARK  status: ('A' for Active; 'I' for Inactive)
REMARK    1  A    between atoms: C8_10  and  C10_12 
REMARK    2  A    between atoms: C10_12  and  C11_13 
REMARK    3  A    between atoms: C11_13  and  C12_15 
ROOT
HETATM    1  C1  UNL     1      -4.109   0.229  -0.953  1.00  0.00     0.007 A 
HETATM    2  C2  UNL     1      -2.775   0.807  -0.644  1.00  0.00     0.023 A 
HETATM    3  C3  UNL     1      -2.711   2.137  -0.148  1.00  0.00     0.105 A 
HETATM    4  O1  UNL     1      -3.842   2.854   0.033  1.00  0.00    -0.273 OA
HETATM    5  C4  UNL     1      -5.070   2.365  -0.234  1.00  0.00     0.300 A 
HETATM    6  C5  UNL     1      -5.205   0.984  -0.752  1.00  0.00     0.069 A 
HETATM    7  O2  UNL     1      -6.074   3.018  -0.066  1.00  0.00    -0.259 OA
HETATM    8  C6  UNL     1      -1.451   2.705   0.152  1.00  0.00     0.052 A 
HETATM    9  C7  UNL     1      -0.267   1.953  -0.039  1.00  0.00     0.129 A 
HETATM   10  C8  UNL     1      -0.338   0.627  -0.535  1.00  0.00     0.006 A 
HETATM   11  C9  UNL     1      -1.596   0.051  -0.840  1.00  0.00    -0.000 A 
HETATM   12  O5  UNL     1       0.920   2.506   0.252  1.00  0.00    -0.190 OA
ENDROOT
BRANCH  10  13
HETATM   13  C10 UNL     1       0.891  -0.158  -0.738  1.00  0.00     0.064 C 
BRANCH  13  14
HETATM   14  C11 UNL     1       1.422  -0.721   0.582  1.00  0.00     0.184 C 
HETATM   15  O3  UNL     1       0.561  -1.754   1.000  1.00  0.00    -0.221 OA
BRANCH  14  16
HETATM   16  C12 UNL     1       2.832  -1.297   0.451  1.00  0.00     0.155 C 
HETATM   17  C13 UNL     1       3.387  -1.809   1.781  1.00  0.00     0.036 C 
HETATM   18  C14 UNL     1       2.947  -2.328  -0.672  1.00  0.00     0.036 C 
HETATM   19  O4  UNL     1       3.719  -0.236   0.168  1.00  0.00    -0.223 OA
ENDBRANCH  14  16
ENDBRANCH  13  14
ENDBRANCH  10  13
TORSDOF 3
