REMARK  3 active torsions:
REMARK  status: ('A' for Active; 'I' for Inactive)
REMARK    1  A    between atoms: C1_1  and  C2_2 
REMARK    2  A    between atoms: C1_1  and  O4_12 
REMARK    3  A    between atoms: C4_4  and  O1_5 
ROOT
HETATM    1  C2  UNL     1       0.580   0.168  -0.003  1.00  0.00     0.065 A 
HETATM    2  C3  UNL     1      -0.826   0.113  -0.003  1.00  0.00     0.032 A 
HETATM    3  C4  UNL     1      -1.486  -1.127  -0.003  1.00  0.00     0.119 A 
HETATM    4  C6  UNL     1      -0.740  -2.320  -0.003  1.00  0.00     0.153 A 
HETATM    5  O2  UNL     1      -1.352  -3.488  -0.003  1.00  0.00    -0.188 OA
HETATM    6  C7  UNL     1       0.666  -2.265  -0.003  1.00  0.00     0.030 A 
HETATM    7  C8  UNL     1       1.326  -1.025  -0.003  1.00  0.00     0.008 A 
ENDROOT
BRANCH   1   8
HETATM    8  C1  UNL     1       1.277   1.488  -0.003  1.00  0.00     0.296 C 
HETATM    9  O3  UNL     1       0.652   2.522  -0.003  1.00  0.00    -0.259 OA
BRANCH   8  10
HETATM   10  O4  UNL     1       2.607   1.426  -0.003  1.00  0.00    -0.296 OA
HETATM   11  C9  UNL     1       3.207   2.713  -0.008  1.00  0.00     0.185 C 
ENDBRANCH   8  10
ENDBRANCH   1   8
BRANCH   3  12
HETATM   12  O1  UNL     1      -2.805  -1.170  -0.003  1.00  0.00    -0.326 OA
HETATM   13  C5  UNL     1      -3.512   0.063  -0.003  1.00  0.00     0.181 C 
ENDBRANCH   3  12
TORSDOF 3
