REMARK  10 active torsions:
REMARK  status: ('A' for Active; 'I' for Inactive)
REMARK    1  A    between atoms: C1_1  and  C2_2 
REMARK    2  A    between atoms: C2_2  and  C3_3 
REMARK    3  A    between atoms: C3_3  and  C4_4 
REMARK    4  A    between atoms: C4_4  and  C5_5 
REMARK    5  A    between atoms: C4_4  and  N1_8 
REMARK       I    between atoms: N1_8  and  C6_9 
REMARK    6  A    between atoms: C6_9  and  C7_11 
REMARK    7  A    between atoms: C10_14  and  N2_17 
REMARK    8  A    between atoms: N2_17  and  C13_18 
REMARK    9  A    between atoms: N2_17  and  C20_31 
REMARK   10  A    between atoms: C13_18  and  C14_19 
ROOT
HETATM    1  C7  UNL     1       0.592  -0.154   1.016  1.00  0.00     0.058 A 
HETATM    2  C8  UNL     1       1.500   0.918   0.979  1.00  0.00     0.006 A 
HETATM    3  C9  UNL     1       2.330   1.100  -0.143  1.00  0.00     0.018 A 
HETATM    4  C10 UNL     1       2.254   0.205  -1.228  1.00  0.00     0.063 A 
HETATM    5  C11 UNL     1       1.344  -0.869  -1.187  1.00  0.00     0.018 A 
HETATM    6  C12 UNL     1       0.514  -1.049  -0.068  1.00  0.00     0.006 A 
ENDROOT
BRANCH   4   7
HETATM    7  N2  UNL     1       3.063   0.381  -2.320  1.00  0.00    -0.286 N 
BRANCH   7   8
HETATM    8  C13 UNL     1       2.596   0.010  -3.664  1.00  0.00     0.157 C 
BRANCH   8   9
HETATM    9  C14 UNL     1       1.279   0.594  -3.959  1.00  0.00     0.101 A 
HETATM   10  N3  UNL     1       0.201  -0.238  -4.203  1.00  0.00    -0.238 NA
HETATM   11  C15 UNL     1      -1.057   0.277  -4.486  1.00  0.00     0.176 A 
HETATM   12  C16 UNL     1      -2.291  -0.527  -4.766  1.00  0.00     0.316 A 
HETATM   13  C18 UNL     1      -1.197   1.709  -4.516  1.00  0.00     0.204 A 
HETATM   14  O4  UNL     1      -2.352  -1.734  -4.779  1.00  0.00    -0.263 OA
HETATM   15  N4  UNL     1      -3.459   0.170  -5.031  1.00  0.00    -0.016 NA
HETATM   16  C17 UNL     1      -3.473   1.561  -5.033  1.00  0.00     0.773 A 
HETATM   17  N5  UNL     1      -4.639   2.227  -5.299  1.00  0.00     0.062 N 
HETATM   18  N6  UNL     1      -2.408   2.258  -4.791  1.00  0.00    -0.037 NA
HETATM   19  N7  UNL     1      -0.123   2.547  -4.272  1.00  0.00    -0.222 NA
HETATM   20  C19 UNL     1       1.113   2.000  -3.994  1.00  0.00     0.117 A 
ENDBRANCH   8   9
ENDBRANCH   7   8
BRANCH   7  21
HETATM   21  C20 UNL     1       4.314   0.902  -2.164  1.00  0.00     0.318 C 
HETATM   22  O5  UNL     1       5.025   1.082  -3.127  1.00  0.00    -0.262 OA
ENDBRANCH   7  21
ENDBRANCH   4   7
BRANCH   1  23
HETATM   23  C6  UNL     1      -0.291  -0.346   2.205  1.00  0.00     0.275 C 
HETATM   24  N1  UNL     1       0.111   0.162   3.408  1.00  0.00    -0.225 NA
HETATM   25  O3  UNL     1      -1.340  -0.937   2.113  1.00  0.00    -0.266 OA
BRANCH  24  26
HETATM   26  C4  UNL     1      -0.746  -0.018   4.590  1.00  0.00     0.194 C 
BRANCH  26  27
HETATM   27  C3  UNL     1      -0.273  -1.201   5.434  1.00  0.00     0.047 C 
BRANCH  27  28
HETATM   28  C2  UNL     1      -0.543  -2.549   4.764  1.00  0.00     0.100 C 
BRANCH  28  29
HETATM   29  C1  UNL     1      -0.172  -3.713   5.645  1.00  0.00     0.185 C 
HETATM   30  O6  UNL     1      -0.973  -4.193   6.410  1.00  0.00    -0.647 OA
HETATM   31  O7  UNL     1       1.076  -4.150   5.506  1.00  0.00    -0.647 OA
ENDBRANCH  28  29
ENDBRANCH  27  28
ENDBRANCH  26  27
BRANCH  26  32
HETATM   32  C5  UNL     1      -0.857   1.252   5.393  1.00  0.00     0.209 C 
HETATM   33  O1  UNL     1      -0.049   1.518   6.250  1.00  0.00    -0.646 OA
HETATM   34  O2  UNL     1      -1.891   2.029   5.080  1.00  0.00    -0.646 OA
ENDBRANCH  26  32
ENDBRANCH  24  26
ENDBRANCH   1  23
TORSDOF 10
