REMARK  7 active torsions:
REMARK  status: ('A' for Active; 'I' for Inactive)
REMARK    1  A    between atoms: C5_5  and  C7_7 
REMARK    2  A    between atoms: C7_7  and  C8_8 
REMARK    3  A    between atoms: C8_8  and  C9_9 
REMARK    4  A    between atoms: C8_8  and  C11_12 
REMARK    5  A    between atoms: C9_9  and  O1_10 
REMARK    6  A    between atoms: C11_12  and  C12_13 
REMARK    7  A    between atoms: C13_14  and  C14_15 
ROOT
HETATM    1  C8  UNL     1      -0.293  -0.098   1.235  1.00  0.00     0.069 C 
ENDROOT
BRANCH   1   2
HETATM    2  C7  UNL     1      -0.459  -0.647   2.651  1.00  0.00     0.177 C 
HETATM    3  O3  UNL     1      -1.211   0.283   3.399  1.00  0.00    -0.218 OA
BRANCH   2   4
HETATM    4  C5  UNL     1      -1.156  -1.959   2.651  1.00  0.00     0.008 A 
HETATM    5  C4  UNL     1      -0.410  -3.150   2.651  1.00  0.00     0.000 A 
HETATM    6  C3  UNL     1      -1.068  -4.393   2.651  1.00  0.00     0.027 A 
HETATM    7  C2  UNL     1      -2.475  -4.447   2.651  1.00  0.00     0.131 A 
HETATM    8  C1  UNL     1      -3.217  -3.254   2.651  1.00  0.00     0.027 A 
HETATM    9  O4  UNL     1      -3.092  -5.611   2.651  1.00  0.00    -0.190 OA
HETATM   10  C6  UNL     1      -2.561  -2.012   2.651  1.00  0.00     0.000 A 
ENDBRANCH   2   4
ENDBRANCH   1   2
BRANCH   1  11
HETATM   11  C9  UNL     1      -1.629   0.109   0.520  1.00  0.00     0.146 C 
BRANCH  11  12
HETATM   12  O1  UNL     1      -1.363   0.527  -0.801  1.00  0.00    -0.351 OA
HETATM   13  C10 UNL     1      -2.529   0.750  -1.558  1.00  0.00     0.174 C 
ENDBRANCH  11  12
ENDBRANCH   1  11
BRANCH   1  14
HETATM   14  C11 UNL     1       0.604   1.141   1.182  1.00  0.00     0.031 C 
BRANCH  14  15
HETATM   15  C12 UNL     1       1.379   1.234  -0.103  1.00  0.00    -0.026 C 
HETATM   16  C13 UNL     1       1.324   2.379  -0.803  1.00  0.00    -0.005 C 
BRANCH  16  17
HETATM   17  C14 UNL     1       2.094   2.479  -2.080  1.00  0.00    -0.000 A 
HETATM   18  C15 UNL     1       1.631   3.305  -3.119  1.00  0.00     0.002 A 
HETATM   19  C16 UNL     1       2.356   3.396  -4.320  1.00  0.00     0.027 A 
HETATM   20  C17 UNL     1       3.543   2.662  -4.488  1.00  0.00     0.131 A 
HETATM   21  C18 UNL     1       4.004   1.836  -3.447  1.00  0.00     0.027 A 
HETATM   22  O2  UNL     1       4.221   2.748  -5.615  1.00  0.00    -0.190 OA
HETATM   23  C19 UNL     1       3.281   1.744  -2.244  1.00  0.00     0.002 A 
ENDBRANCH  16  17
ENDBRANCH  14  15
ENDBRANCH   1  14
TORSDOF 7
