REMARK  9 active torsions:
REMARK  status: ('A' for Active; 'I' for Inactive)
REMARK    1  A    between atoms: C9_11  and  C12_14 
REMARK    2  A    between atoms: C12_14  and  C13_15 
REMARK    3  A    between atoms: C13_15  and  C14_16 
REMARK    4  A    between atoms: C15_17  and  C16_18 
REMARK    5  A    between atoms: C16_18  and  C17_19 
REMARK    6  A    between atoms: C17_19  and  C18_20 
REMARK    7  A    between atoms: C19_21  and  C20_22 
REMARK    8  A    between atoms: C20_22  and  C21_23 
REMARK    9  A    between atoms: C21_23  and  C22_24 
ROOT
HETATM    1  C12 UNL     1      -1.461  -0.127   3.059  1.00  0.00     0.032 C 
ENDROOT
BRANCH   1   2
HETATM    2  C9  UNL     1      -1.264  -0.461   4.543  1.00  0.00     0.099 C 
HETATM    3  O2  UNL     1       0.008  -1.105   4.697  1.00  0.00    -0.336 OA
HETATM    4  C2  UNL     1       1.160  -0.398   4.756  1.00  0.00     0.086 A 
HETATM    5  C1  UNL     1       1.160   1.018   4.926  1.00  0.00    -0.002 A 
HETATM    6  C3  UNL     1       2.389  -1.096   4.654  1.00  0.00     0.002 A 
HETATM    7  C6  UNL     1       2.397   1.719   4.977  1.00  0.00     0.001 A 
HETATM    8  C11 UNL     1      -0.131   1.744   5.047  1.00  0.00     0.030 C 
HETATM    9  C5  UNL     1       3.617   1.012   4.869  1.00  0.00     0.127 A 
HETATM   10  C7  UNL     1       2.418   3.186   5.139  1.00  0.00     0.033 C 
HETATM   11  C4  UNL     1       3.613  -0.393   4.709  1.00  0.00     0.025 A 
HETATM   12  O1  UNL     1       4.787   1.666   4.918  1.00  0.00    -0.191 OA
HETATM   13  C10 UNL     1      -1.295   0.809   5.410  1.00  0.00     0.033 C 
HETATM   14  C8  UNL     1       2.400  -2.559   4.486  1.00  0.00     0.033 C 
HETATM   15  C28 UNL     1      -2.342  -1.451   4.990  1.00  0.00     0.030 C 
ENDBRANCH   1   2
BRANCH   1  16
HETATM   16  C13 UNL     1      -1.389  -1.363   2.162  1.00  0.00     0.028 C 
BRANCH  16  17
HETATM   17  C14 UNL     1      -1.379  -1.012   0.699  1.00  0.00    -0.035 C 
HETATM   18  C15 UNL     1      -0.965  -1.939  -0.182  1.00  0.00    -0.048 C 
HETATM   19  C27 UNL     1      -0.533  -3.283   0.342  1.00  0.00     0.026 C 
BRANCH  18  20
HETATM   20  C16 UNL     1      -0.955  -1.586  -1.645  1.00  0.00     0.026 C 
BRANCH  20  21
HETATM   21  C17 UNL     1      -0.756  -0.090  -1.883  1.00  0.00     0.030 C 
BRANCH  21  22
HETATM   22  C18 UNL     1      -0.457   0.227  -3.322  1.00  0.00    -0.034 C 
HETATM   23  C19 UNL     1      -0.604   1.494  -3.744  1.00  0.00    -0.048 C 
HETATM   24  C26 UNL     1      -1.063   2.531  -2.754  1.00  0.00     0.026 C 
BRANCH  23  25
HETATM   25  C20 UNL     1      -0.305   1.811  -5.186  1.00  0.00     0.026 C 
BRANCH  25  26
HETATM   26  C21 UNL     1      -0.533   0.613  -6.106  1.00  0.00     0.030 C 
BRANCH  26  27
HETATM   27  C22 UNL     1      -0.520   0.996  -7.563  1.00  0.00    -0.034 C 
HETATM   28  C23 UNL     1      -0.314   0.033  -8.477  1.00  0.00    -0.048 C 
HETATM   29  C24 UNL     1      -0.225   0.426  -9.926  1.00  0.00     0.026 C 
HETATM   30  C25 UNL     1      -0.184  -1.391  -8.004  1.00  0.00     0.026 C 
ENDBRANCH  26  27
ENDBRANCH  25  26
ENDBRANCH  23  25
ENDBRANCH  21  22
ENDBRANCH  20  21
ENDBRANCH  18  20
ENDBRANCH  16  17
ENDBRANCH   1  16
TORSDOF 9
