REMARK  6 active torsions:
REMARK  status: ('A' for Active; 'I' for Inactive)
REMARK    1  A    between atoms: C1_1  and  C19_26 
REMARK    2  A    between atoms: C5_5  and  O2_7 
REMARK    3  A    between atoms: O2_7  and  C6_8 
REMARK    4  A    between atoms: C6_8  and  C7_9 
REMARK    5  A    between atoms: C8_10  and  C15_18 
REMARK    6  A    between atoms: C16_19  and  C17_20 
ROOT
HETATM    1  C7  UNL     1      -0.680  -0.865  -1.148  1.00  0.00    -0.008 C 
HETATM    2  C8  UNL     1       0.586  -1.254  -1.889  1.00  0.00     0.043 C 
HETATM    3  C9  UNL     1       0.297  -1.656  -3.357  1.00  0.00     0.015 C 
HETATM    4  C10 UNL     1      -0.518  -0.547  -4.055  1.00  0.00     0.070 C 
HETATM    5  C11 UNL     1      -1.744  -0.149  -3.264  1.00  0.00     0.173 C 
HETATM    6  C12 UNL     1      -1.740  -0.350  -1.803  1.00  0.00     0.032 C 
HETATM    7  O3  UNL     1      -2.715   0.318  -3.814  1.00  0.00    -0.291 OA
HETATM    8  C13 UNL     1      -0.502  -2.969  -3.385  1.00  0.00     0.001 C 
HETATM    9  C14 UNL     1       1.605  -1.897  -4.121  1.00  0.00     0.001 C 
ENDROOT
BRANCH   1  10
HETATM   10  C6  UNL     1      -0.732  -1.070   0.344  1.00  0.00     0.168 C 
BRANCH  10  11
HETATM   11  O2  UNL     1      -0.359   0.123   0.996  1.00  0.00    -0.324 OA
BRANCH  11  12
HETATM   12  C5  UNL     1      -0.205  -0.031   2.393  1.00  0.00     0.270 C 
HETATM   13  C4  UNL     1       0.389   1.275   2.983  1.00  0.00     0.241 C 
HETATM   14  C3  UNL     1      -0.606   2.465   2.918  1.00  0.00     0.220 C 
HETATM   15  O5  UNL     1       0.750   1.037   4.332  1.00  0.00    -0.215 OA
HETATM   16  C2  UNL     1      -2.072   1.973   2.813  1.00  0.00     0.215 C 
HETATM   17  O6  UNL     1      -0.309   3.262   1.785  1.00  0.00    -0.218 OA
HETATM   18  C1  UNL     1      -2.256   0.631   3.555  1.00  0.00     0.184 C 
HETATM   19  O7  UNL     1      -2.934   2.947   3.371  1.00  0.00    -0.218 OA
HETATM   20  O1  UNL     1      -1.463  -0.402   2.969  1.00  0.00    -0.326 OA
BRANCH  18  21
HETATM   21  C19 UNL     1      -3.699   0.119   3.559  1.00  0.00     0.214 C 
HETATM   22  O8  UNL     1      -3.774  -0.988   4.428  1.00  0.00    -0.218 OA
ENDBRANCH  18  21
ENDBRANCH  11  12
ENDBRANCH  10  11
ENDBRANCH   1  10
BRANCH   2  23
HETATM   23  C15 UNL     1       1.570  -0.113  -1.779  1.00  0.00    -0.024 C 
HETATM   24  C16 UNL     1       2.770  -0.352  -1.223  1.00  0.00     0.002 C 
BRANCH  24  25
HETATM   25  C17 UNL     1       3.748   0.787  -1.115  1.00  0.00     0.174 C 
HETATM   26  C18 UNL     1       4.229   1.010   0.319  1.00  0.00     0.041 C 
HETATM   27  O4  UNL     1       4.875   0.516  -1.920  1.00  0.00    -0.219 OA
ENDBRANCH  24  25
ENDBRANCH   2  23
TORSDOF 6
