REMARK  7 active torsions:
REMARK  status: ('A' for Active; 'I' for Inactive)
REMARK    1  A    between atoms: C1_1  and  O2_4 
REMARK    2  A    between atoms: O2_4  and  C3_5 
REMARK    3  A    between atoms: C4_6  and  C5_7 
REMARK    4  A    between atoms: C5_7  and  C6_8 
REMARK    5  A    between atoms: C6_8  and  C7_9 
REMARK    6  A    between atoms: C7_9  and  C8_10 
REMARK    7  A    between atoms: C8_10  and  C9_11 
ROOT
HETATM    1  C3  UNL     1       2.482   1.275   1.129  1.00  0.00     0.121 C 
HETATM    2  C4  UNL     1       1.803   0.117   1.129  1.00  0.00     0.001 C 
ENDROOT
BRANCH   2   3
HETATM    3  C5  UNL     1       0.297   0.168   1.129  1.00  0.00     0.028 C 
BRANCH   3   4
HETATM    4  C6  UNL     1      -0.314  -0.662   0.000  1.00  0.00     0.005 C 
BRANCH   4   5
HETATM    5  C7  UNL     1      -1.842  -0.623   0.000  1.00  0.00     0.000 C 
BRANCH   5   6
HETATM    6  C8  UNL     1      -2.453  -1.451  -1.131  1.00  0.00     0.000 C 
BRANCH   6   7
HETATM    7  C9  UNL     1      -3.982  -1.410  -1.133  1.00  0.00     0.000 C 
HETATM    8  C10 UNL     1      -4.592  -2.238  -2.262  1.00  0.00     0.000 C 
ENDBRANCH   6   7
ENDBRANCH   5   6
ENDBRANCH   4   5
ENDBRANCH   3   4
ENDBRANCH   2   3
BRANCH   1   9
HETATM    9  O2  UNL     1       3.813   1.275   1.129  1.00  0.00    -0.275 OA
BRANCH   9  10
HETATM   10  C1  UNL     1       4.256   2.529   1.129  1.00  0.00     0.277 C 
HETATM   11  C2  UNL     1       5.754   2.680   1.131  1.00  0.00     0.107 C 
HETATM   12  O1  UNL     1       3.533   3.500   1.125  1.00  0.00    -0.264 OA
ENDBRANCH   9  10
ENDBRANCH   1   9
TORSDOF 7
