REMARK  2 active torsions:
REMARK  status: ('A' for Active; 'I' for Inactive)
REMARK    1  A    between atoms: C23_23  and  C26_26 
REMARK    2  A    between atoms: C26_26  and  O2_28 
ROOT
HETATM    1  C1  UNL     1       3.983   0.049  -0.844  1.00  0.00     0.039 C 
HETATM    2  C2  UNL     1       5.494   0.315  -0.699  1.00  0.00     0.183 C 
HETATM    3  C3  UNL     1       5.752   1.609   0.104  1.00  0.00     0.182 C 
HETATM    4  C4  UNL     1       5.018   1.668   1.469  1.00  0.00     0.031 C 
HETATM    5  C5  UNL     1       3.504   1.404   1.231  1.00  0.00     0.006 C 
HETATM    6  C6  UNL     1       3.197   0.070   0.496  1.00  0.00     0.017 C 
HETATM    7  C7  UNL     1       1.688  -0.133   0.307  1.00  0.00    -0.053 C 
HETATM    8  C8  UNL     1       0.764   0.453   1.121  1.00  0.00    -0.053 C 
HETATM    9  C9  UNL     1       1.172   1.449   2.190  1.00  0.00     0.021 C 
HETATM   10  C10 UNL     1       2.664   1.500   2.510  1.00  0.00     0.005 C 
HETATM   11  C11 UNL     1      -0.732   0.125   1.035  1.00  0.00     0.015 C 
HETATM   12  C12 UNL     1      -1.154  -0.361  -0.381  1.00  0.00     0.004 C 
HETATM   13  C13 UNL     1      -0.213  -1.518  -0.779  1.00  0.00     0.005 C 
HETATM   14  C14 UNL     1       1.252  -1.057  -0.822  1.00  0.00     0.021 C 
HETATM   15  C15 UNL     1      -0.955   0.801  -1.377  1.00  0.00     0.000 C 
HETATM   16  C16 UNL     1      -2.648  -0.861  -0.398  1.00  0.00     0.001 C 
HETATM   17  C17 UNL     1      -3.602  -0.070   0.570  1.00  0.00     0.000 C 
HETATM   18  C18 UNL     1      -3.031   1.328   0.840  1.00  0.00     0.000 C 
HETATM   19  C19 UNL     1      -1.633   1.318   1.475  1.00  0.00     0.004 C 
HETATM   20  C20 UNL     1      -3.742  -0.832   1.899  1.00  0.00     0.000 C 
HETATM   21  C21 UNL     1      -5.022   0.084  -0.021  1.00  0.00     0.001 C 
HETATM   22  C22 UNL     1      -5.484  -1.209  -0.703  1.00  0.00     0.009 C 
HETATM   23  C23 UNL     1      -4.650  -1.508  -1.975  1.00  0.00     0.078 C 
HETATM   24  C24 UNL     1      -3.207  -0.928  -1.853  1.00  0.00     0.009 C 
HETATM   25  C25 UNL     1      -4.611  -3.025  -2.221  1.00  0.00     0.010 C 
HETATM   26  C28 UNL     1      -0.896  -1.020   2.055  1.00  0.00     0.004 C 
HETATM   27  C29 UNL     1       3.602  -1.143   1.356  1.00  0.00     0.004 C 
HETATM   28  C30 UNL     1       5.604   0.652   2.467  1.00  0.00     0.003 C 
HETATM   29  C31 UNL     1       5.203   3.065   2.070  1.00  0.00     0.003 C 
HETATM   30  O3  UNL     1       7.145   1.822   0.256  1.00  0.00    -0.221 OA
HETATM   31  O4  UNL     1       6.117  -0.812  -0.107  1.00  0.00    -0.221 OA
ENDROOT
BRANCH  23  32
HETATM   32  C26 UNL     1      -5.320  -0.875  -3.178  1.00  0.00     0.271 C 
HETATM   33  O1  UNL     1      -6.303  -0.182  -3.051  1.00  0.00    -0.264 OA
BRANCH  32  34
HETATM   34  O2  UNL     1      -4.748  -1.141  -4.350  1.00  0.00    -0.299 OA
HETATM   35  C27 UNL     1      -5.434  -0.535  -5.436  1.00  0.00     0.184 C 
ENDBRANCH  32  34
ENDBRANCH  23  32
TORSDOF 2
