REMARK  6 active torsions:
REMARK  status: ('A' for Active; 'I' for Inactive)
REMARK    1  A    between atoms: O1_2  and  C2_3 
REMARK    2  A    between atoms: C2_3  and  C3_5 
REMARK    3  A    between atoms: C5_8  and  O5_16 
REMARK    4  A    between atoms: C10_13  and  C11_14 
REMARK    5  A    between atoms: O5_16  and  C12_17 
REMARK    6  A    between atoms: C16_21  and  C17_23 
ROOT
HETATM    1  C3  UNL     1      -0.961   2.715   1.652  1.00  0.00     0.066 C 
HETATM    2  C4  UNL     1      -1.815   1.799   1.150  1.00  0.00     0.120 C 
HETATM    3  O3  UNL     1      -1.494   0.514   0.928  1.00  0.00    -0.303 OA
HETATM    4  C5  UNL     1      -0.104   0.199   0.814  1.00  0.00     0.246 C 
HETATM    5  C6  UNL     1       0.699   0.777   1.994  1.00  0.00     0.082 C 
HETATM    6  C7  UNL     1       0.435   2.295   2.064  1.00  0.00     0.043 C 
HETATM    7  C8  UNL     1       1.574   2.883   1.209  1.00  0.00     0.030 C 
HETATM    8  C9  UNL     1       2.678   1.871   1.334  1.00  0.00    -0.032 C 
HETATM    9  C10 UNL     1       2.187   0.709   1.775  1.00  0.00    -0.011 C 
ENDROOT
BRANCH   4  10
HETATM   10  O5  UNL     1       0.049  -1.203   0.771  1.00  0.00    -0.304 OA
BRANCH  10  11
HETATM   11  C12 UNL     1      -0.574  -1.797  -0.352  1.00  0.00     0.272 C 
HETATM   12  C13 UNL     1      -0.606  -3.338  -0.205  1.00  0.00     0.241 C 
HETATM   13  C14 UNL     1      -1.139  -4.008  -1.490  1.00  0.00     0.220 C 
HETATM   14  O10 UNL     1      -1.438  -3.689   0.889  1.00  0.00    -0.215 OA
HETATM   15  C15 UNL     1      -0.383  -3.463  -2.723  1.00  0.00     0.215 C 
HETATM   16  O9  UNL     1      -0.969  -5.414  -1.406  1.00  0.00    -0.218 OA
HETATM   17  C16 UNL     1      -0.375  -1.918  -2.738  1.00  0.00     0.184 C 
HETATM   18  O8  UNL     1      -1.002  -3.926  -3.910  1.00  0.00    -0.218 OA
HETATM   19  O6  UNL     1       0.162  -1.436  -1.514  1.00  0.00    -0.326 OA
BRANCH  17  20
HETATM   20  C17 UNL     1       0.494  -1.336  -3.858  1.00  0.00     0.214 C 
HETATM   21  O7  UNL     1       0.289   0.059  -3.897  1.00  0.00    -0.218 OA
ENDBRANCH  17  20
ENDBRANCH  10  11
ENDBRANCH   4  10
BRANCH   9  22
HETATM   22  C11 UNL     1       3.004  -0.527   2.035  1.00  0.00     0.204 C 
HETATM   23  O4  UNL     1       3.937  -0.268   3.060  1.00  0.00    -0.216 OA
ENDBRANCH   9  22
BRANCH   1  24
HETATM   24  C2  UNL     1      -1.362   4.119   1.828  1.00  0.00     0.294 C 
HETATM   25  O2  UNL     1      -0.662   4.881   2.455  1.00  0.00    -0.259 OA
BRANCH  24  26
HETATM   26  O1  UNL     1      -2.512   4.467   1.260  1.00  0.00    -0.296 OA
HETATM   27  C1  UNL     1      -2.842   5.828   1.498  1.00  0.00     0.185 C 
ENDBRANCH  24  26
ENDBRANCH   1  24
TORSDOF 6
