REMARK  13 active torsions:
REMARK  status: ('A' for Active; 'I' for Inactive)
REMARK    1  A    between atoms: C1_1  and  C2_2 
REMARK    2  A    between atoms: C1_1  and  C28_40 
REMARK    3  A    between atoms: C2_2  and  C3_3 
REMARK    4  A    between atoms: C3_3  and  C5_5 
REMARK    5  A    between atoms: C5_5  and  C6_6 
REMARK    6  A    between atoms: C7_7  and  C8_8 
REMARK    7  A    between atoms: C9_9  and  C10_10 
REMARK    8  A    between atoms: C10_10  and  O2_12 
REMARK    9  A    between atoms: O2_12  and  C11_13 
REMARK   10  A    between atoms: C11_13  and  C12_14 
REMARK   11  A    between atoms: C16_18  and  O4_20 
REMARK   12  A    between atoms: O4_20  and  C17_21 
REMARK   13  A    between atoms: C17_21  and  C26_32 
ROOT
HETATM    1  C12 UNL     1      -0.852  -4.115  -1.012  1.00  0.00     0.181 C 
HETATM    2  C13 UNL     1      -1.266  -5.336  -1.861  1.00  0.00     0.215 C 
HETATM    3  C14 UNL     1      -2.457  -5.002  -2.787  1.00  0.00     0.220 C 
HETATM    4  C15 UNL     1      -2.156  -3.713  -3.586  1.00  0.00     0.241 C 
HETATM    5  C16 UNL     1      -1.686  -2.572  -2.649  1.00  0.00     0.271 C 
HETATM    6  O3  UNL     1      -0.582  -3.014  -1.869  1.00  0.00    -0.326 OA
HETATM    7  O8  UNL     1      -3.328  -3.301  -4.272  1.00  0.00    -0.215 OA
HETATM    8  O9  UNL     1      -2.690  -6.078  -3.682  1.00  0.00    -0.218 OA
HETATM    9  O10 UNL     1      -1.619  -6.398  -0.992  1.00  0.00    -0.218 OA
ENDROOT
BRANCH   1  10
HETATM   10  C11 UNL     1       0.420  -4.359  -0.193  1.00  0.00     0.184 C 
BRANCH  10  11
HETATM   11  O2  UNL     1       0.742  -3.189   0.541  1.00  0.00    -0.296 OA
BRANCH  11  12
HETATM   12  C10 UNL     1       1.820  -3.350   1.305  1.00  0.00     0.292 C 
HETATM   13  O1  UNL     1       2.473  -4.367   1.340  1.00  0.00    -0.260 OA
BRANCH  12  14
HETATM   14  C9  UNL     1       2.195  -2.197   2.131  1.00  0.00     0.041 C 
HETATM   15  C8  UNL     1       1.363  -1.172   2.377  1.00  0.00     0.001 C 
HETATM   16  C27 UNL     1       3.574  -2.162   2.732  1.00  0.00     0.037 C 
BRANCH  15  17
HETATM   17  C7  UNL     1       1.791  -0.043   3.213  1.00  0.00    -0.005 C 
HETATM   18  C6  UNL     1       1.258   1.178   3.041  1.00  0.00    -0.026 C 
BRANCH  18  19
HETATM   19  C5  UNL     1       1.734   2.299   3.924  1.00  0.00     0.029 C 
BRANCH  19  20
HETATM   20  C3  UNL     1       2.244   3.496   3.121  1.00  0.00     0.035 C 
HETATM   21  C4  UNL     1       3.309   3.108   2.094  1.00  0.00     0.003 C 
BRANCH  20  22
HETATM   22  C2  UNL     1       2.680   4.660   4.012  1.00  0.00     0.163 C 
HETATM   23  O11 UNL     1       1.541   5.158   4.676  1.00  0.00    -0.223 OA
BRANCH  22  24
HETATM   24  C1  UNL     1       3.309   5.807   3.219  1.00  0.00     0.130 C 
BRANCH  24  25
HETATM   25  C28 UNL     1       3.643   6.990   4.086  1.00  0.00     0.188 C 
HETATM   26  O12 UNL     1       3.994   6.842   5.232  1.00  0.00    -0.647 OA
HETATM   27  O13 UNL     1       3.520   8.176   3.496  1.00  0.00    -0.647 OA
ENDBRANCH  24  25
ENDBRANCH  22  24
ENDBRANCH  20  22
ENDBRANCH  19  20
ENDBRANCH  18  19
ENDBRANCH  15  17
ENDBRANCH  12  14
ENDBRANCH  11  12
ENDBRANCH  10  11
ENDBRANCH   1  10
BRANCH   5  28
HETATM   28  O4  UNL     1      -1.277  -1.447  -3.401  1.00  0.00    -0.319 OA
BRANCH  28  29
HETATM   29  C17 UNL     1      -1.379  -0.228  -2.684  1.00  0.00     0.202 C 
HETATM   30  C18 UNL     1      -0.262   0.691  -3.238  1.00  0.00     0.132 C 
HETATM   31  C19 UNL     1      -0.471   2.149  -2.883  1.00  0.00     0.259 C 
HETATM   32  N1  UNL     1      -1.752   2.627  -2.731  1.00  0.00    -0.212 NA
HETATM   33  O5  UNL     1       0.476   2.887  -2.740  1.00  0.00    -0.270 OA
HETATM   34  C20 UNL     1      -2.848   1.830  -2.844  1.00  0.00     0.083 A 
HETATM   35  C21 UNL     1      -2.731   0.402  -2.840  1.00  0.00     0.030 A 
HETATM   36  C25 UNL     1      -4.133   2.426  -2.961  1.00  0.00     0.019 A 
HETATM   37  C22 UNL     1      -3.908  -0.389  -2.961  1.00  0.00     0.000 A 
HETATM   38  C23 UNL     1      -5.176   0.219  -3.088  1.00  0.00    -0.000 A 
HETATM   39  C24 UNL     1      -5.289   1.625  -3.086  1.00  0.00     0.002 A 
BRANCH  29  40
HETATM   40  C26 UNL     1      -1.125  -0.549  -1.231  1.00  0.00     0.216 C 
HETATM   41  O6  UNL     1       0.002  -0.680  -0.809  1.00  0.00    -0.645 OA
HETATM   42  O7  UNL     1      -2.215  -0.672  -0.479  1.00  0.00    -0.645 OA
ENDBRANCH  29  40
ENDBRANCH  28  29
ENDBRANCH   5  28
TORSDOF 13
