REMARK  9 active torsions:
REMARK  status: ('A' for Active; 'I' for Inactive)
REMARK    1  A    between atoms: C6_6  and  O1_7 
REMARK    2  A    between atoms: O1_7  and  C7_8 
REMARK    3  A    between atoms: C14_19  and  C29_44 
REMARK    4  A    between atoms: C16_21  and  C17_22 
REMARK    5  A    between atoms: C17_22  and  O6_23 
REMARK    6  A    between atoms: O6_23  and  C18_24 
REMARK    7  A    between atoms: C20_27  and  O10_32 
REMARK    8  A    between atoms: O10_32  and  C23_33 
REMARK    9  A    between atoms: C24_35  and  C28_42 
ROOT
HETATM    1  C1  UNL     1      -1.525   3.785   1.246  1.00  0.00     0.024 A 
HETATM    2  C2  UNL     1      -1.623   2.379   1.295  1.00  0.00     0.002 A 
HETATM    3  C3  UNL     1      -0.455   1.584   1.307  1.00  0.00    -0.000 A 
HETATM    4  C4  UNL     1       0.828   2.195   1.272  1.00  0.00     0.002 A 
HETATM    5  C5  UNL     1       0.930   3.627   1.227  1.00  0.00     0.048 A 
HETATM    6  C6  UNL     1      -0.260   4.414   1.213  1.00  0.00     0.099 A 
HETATM    7  C13 UNL     1       2.217   4.238   1.195  1.00  0.00     0.136 A 
HETATM    8  C14 UNL     1       3.381   3.430   1.207  1.00  0.00     0.060 A 
HETATM    9  C15 UNL     1       3.277   2.021   1.250  1.00  0.00     0.003 A 
HETATM   10  C16 UNL     1       2.008   1.398   1.283  1.00  0.00     0.008 A 
HETATM   11  O17 UNL     1       2.354   5.574   1.156  1.00  0.00    -0.190 OA
ENDROOT
BRANCH  10  12
HETATM   12  C17 UNL     1       1.953  -0.076   1.328  1.00  0.00     0.172 C 
BRANCH  12  13
HETATM   13  O6  UNL     1       1.541  -0.568   0.074  1.00  0.00    -0.324 OA
BRANCH  13  14
HETATM   14  C18 UNL     1       1.561  -1.981  -0.004  1.00  0.00     0.270 C 
HETATM   15  O7  UNL     1       0.551  -2.492   0.857  1.00  0.00    -0.326 OA
HETATM   16  C19 UNL     1       0.480  -3.908   0.920  1.00  0.00     0.177 C 
HETATM   17  C20 UNL     1       0.145  -4.471  -0.475  1.00  0.00     0.180 C 
HETATM   18  C21 UNL     1       1.156  -3.986  -1.535  1.00  0.00     0.217 C 
HETATM   19  C22 UNL     1       1.297  -2.449  -1.459  1.00  0.00     0.241 C 
HETATM   20  O9  UNL     1       0.717  -4.369  -2.828  1.00  0.00    -0.218 OA
HETATM   21  O8  UNL     1       2.369  -2.031  -2.289  1.00  0.00    -0.215 OA
BRANCH  17  22
HETATM   22  O10 UNL     1       0.154  -5.885  -0.396  1.00  0.00    -0.326 OA
BRANCH  22  23
HETATM   23  C23 UNL     1      -1.016  -6.418   0.193  1.00  0.00     0.270 C 
HETATM   24  O11 UNL     1      -2.088  -6.274  -0.729  1.00  0.00    -0.326 OA
HETATM   25  C24 UNL     1      -3.350  -6.721  -0.256  1.00  0.00     0.184 C 
HETATM   26  C25 UNL     1      -3.277  -8.233   0.053  1.00  0.00     0.215 C 
HETATM   27  C26 UNL     1      -2.131  -8.551   1.039  1.00  0.00     0.220 C 
HETATM   28  O14 UNL     1      -4.516  -8.645   0.607  1.00  0.00    -0.218 OA
HETATM   29  C27 UNL     1      -0.814  -7.916   0.539  1.00  0.00     0.241 C 
HETATM   30  O13 UNL     1      -1.973  -9.957   1.154  1.00  0.00    -0.218 OA
HETATM   31  O12 UNL     1       0.178  -8.037   1.545  1.00  0.00    -0.215 OA
BRANCH  25  32
HETATM   32  C28 UNL     1      -4.373  -6.383  -1.346  1.00  0.00     0.214 C 
HETATM   33  O15 UNL     1      -4.481  -4.979  -1.430  1.00  0.00    -0.218 OA
ENDBRANCH  25  32
ENDBRANCH  22  23
ENDBRANCH  17  22
ENDBRANCH  13  14
ENDBRANCH  12  13
ENDBRANCH  10  12
BRANCH   8  34
HETATM   34  C29 UNL     1       4.719   4.059   1.174  1.00  0.00     0.175 C 
HETATM   35  C30 UNL     1       5.670   3.305   2.064  1.00  0.00     0.077 C 
HETATM   36  O16 UNL     1       5.084   5.031   0.557  1.00  0.00    -0.291 OA
ENDBRANCH   8  34
BRANCH   6  37
HETATM   37  O1  UNL     1      -0.219   5.754   1.168  1.00  0.00    -0.304 OA
BRANCH  37  38
HETATM   38  C7  UNL     1      -1.268   6.432   0.490  1.00  0.00     0.274 C 
HETATM   39  O2  UNL     1      -1.465   5.863  -0.803  1.00  0.00    -0.329 OA
HETATM   40  C8  UNL     1      -0.352   5.955  -1.688  1.00  0.00     0.151 C 
HETATM   41  C9  UNL     1       0.018   7.440  -1.918  1.00  0.00     0.212 C 
HETATM   42  C12 UNL     1      -0.752   5.234  -2.979  1.00  0.00     0.035 C 
HETATM   43  C10 UNL     1       0.260   8.164  -0.574  1.00  0.00     0.220 C 
HETATM   44  O5  UNL     1       1.189   7.494  -2.713  1.00  0.00    -0.218 OA
HETATM   45  C11 UNL     1      -0.932   7.936   0.385  1.00  0.00     0.241 C 
HETATM   46  O4  UNL     1       0.492   9.549  -0.773  1.00  0.00    -0.218 OA
HETATM   47  O3  UNL     1      -2.088   8.629  -0.063  1.00  0.00    -0.215 OA
ENDBRANCH  37  38
ENDBRANCH   6  37
TORSDOF 9
