REMARK  2 active torsions:
REMARK  status: ('A' for Active; 'I' for Inactive)
REMARK    1  A    between atoms: C6_6  and  C7_8 
REMARK    2  A    between atoms: C7_8  and  N1_9 
ROOT
HETATM    1  N1  UNL     1       0.896   0.287  -1.131  1.00  0.00    -0.273 N 
HETATM    2  C8  UNL     1      -0.283  -0.223  -1.666  1.00  0.00     0.181 A 
HETATM    3  N2  UNL     1      -0.287  -1.090  -2.633  1.00  0.00    -0.225 NA
HETATM    4  C9  UNL     1       0.844  -1.574  -3.205  1.00  0.00     0.088 A 
HETATM    5  C10 UNL     1       0.793  -2.520  -4.260  1.00  0.00     0.019 A 
HETATM    6  C11 UNL     1       1.994  -3.004  -4.830  1.00  0.00     0.002 A 
HETATM    7  C12 UNL     1       3.244  -2.547  -4.354  1.00  0.00     0.000 A 
HETATM    8  C13 UNL     1       3.305  -1.602  -3.301  1.00  0.00     0.006 A 
HETATM    9  C14 UNL     1       2.104  -1.115  -2.727  1.00  0.00     0.074 A 
HETATM   10  C15 UNL     1       2.137  -0.115  -1.613  1.00  0.00     0.264 A 
HETATM   11  O2  UNL     1       3.131   0.359  -1.109  1.00  0.00    -0.267 OA
ENDROOT
BRANCH   1  12
HETATM   12  C7  UNL     1       0.811   1.268  -0.033  1.00  0.00     0.170 C 
BRANCH  12  13
HETATM   13  C6  UNL     1       0.754   0.570   1.320  1.00  0.00     0.242 C 
HETATM   14  C5  UNL     1       0.615   1.547   2.506  1.00  0.00     0.100 C 
HETATM   15  C4  UNL     1      -0.861   1.441   2.900  1.00  0.00     0.288 C 
HETATM   16  C3  UNL     1      -1.094  -0.041   2.580  1.00  0.00     0.152 C 
HETATM   17  N3  UNL     1      -1.693   2.338   2.080  1.00  0.00     0.340 N 
HETATM   18  C2  UNL     1      -2.566  -0.445   2.465  1.00  0.00     0.034 C 
HETATM   19  O1  UNL     1      -0.412  -0.223   1.357  1.00  0.00    -0.331 OA
HETATM   20  C1  UNL     1      -3.346   0.576   1.623  1.00  0.00     0.041 C 
HETATM   21  C16 UNL     1      -3.117   2.008   2.127  1.00  0.00     0.290 C 
HETATM   22  O3  UNL     1       1.914  -0.225   1.463  1.00  0.00    -0.193 OA
ENDBRANCH  12  13
ENDBRANCH   1  12
TORSDOF 2
