REMARK  2 active torsions:
REMARK  status: ('A' for Active; 'I' for Inactive)
REMARK    1  A    between atoms: C1_1  and  O4_19 
REMARK    2  A    between atoms: C2_2  and  O3_17 
ROOT
HETATM    1  C1  UNL     1      -2.430   0.121   0.248  1.00  0.00     0.118 A 
HETATM    2  C2  UNL     1      -1.697   1.311   0.437  1.00  0.00     0.141 A 
HETATM    3  C3  UNL     1      -0.281   1.303   0.381  1.00  0.00     0.155 A 
HETATM    4  C4  UNL     1       0.440   0.084   0.131  1.00  0.00     0.028 A 
HETATM    5  C5  UNL     1      -0.338  -1.113  -0.061  1.00  0.00     0.004 A 
HETATM    6  C6  UNL     1      -1.754  -1.086   0.000  1.00  0.00     0.026 A 
HETATM    7  C7  UNL     1       0.285  -2.357  -0.313  1.00  0.00     0.000 A 
HETATM    8  C8  UNL     1       1.686  -2.449  -0.385  1.00  0.00     0.000 A 
HETATM    9  C9  UNL     1       2.483  -1.297  -0.201  1.00  0.00     0.002 A 
HETATM   10  C10 UNL     1       1.881  -0.016   0.060  1.00  0.00     0.002 A 
HETATM   11  C11 UNL     1       2.766   1.096   0.236  1.00  0.00     0.002 A 
HETATM   12  C12 UNL     1       4.168   0.939   0.154  1.00  0.00     0.027 A 
HETATM   13  C13 UNL     1       4.733  -0.324  -0.106  1.00  0.00     0.131 A 
HETATM   14  C14 UNL     1       3.893  -1.443  -0.281  1.00  0.00     0.027 A 
HETATM   15  O1  UNL     1       6.063  -0.463  -0.182  1.00  0.00    -0.190 OA
HETATM   16  O2  UNL     1       0.315   2.486   0.572  1.00  0.00    -0.188 OA
ENDROOT
BRANCH   1  17
HETATM   17  O4  UNL     1      -3.769   0.139   0.305  1.00  0.00    -0.326 OA
HETATM   18  C16 UNL     1      -4.465  -1.061  -0.006  1.00  0.00     0.181 C 
ENDBRANCH   1  17
BRANCH   2  19
HETATM   19  O3  UNL     1      -2.350   2.457   0.674  1.00  0.00    -0.324 OA
HETATM   20  C15 UNL     1      -3.523   2.723  -0.080  1.00  0.00     0.182 C 
ENDBRANCH   2  19
TORSDOF 2
