REMARK  14 active torsions:
REMARK  status: ('A' for Active; 'I' for Inactive)
REMARK    1  A    between atoms: C1_2  and  C12_22 
REMARK    2  A    between atoms: C5_6  and  O2_7 
REMARK    3  A    between atoms: O2_7  and  C6_8 
REMARK    4  A    between atoms: C6_8  and  C11_17 
REMARK    5  A    between atoms: C7_10  and  C10_15 
REMARK    6  A    between atoms: C12_22  and  O11_23 
REMARK    7  A    between atoms: O11_23  and  C13_24 
REMARK    8  A    between atoms: C13_24  and  C14_26 
REMARK    9  A    between atoms: C16_28  and  C17_29 
REMARK   10  A    between atoms: C18_30  and  C19_31 
REMARK   11  A    between atoms: C19_31  and  C20_32 
REMARK   12  A    between atoms: C20_32  and  C22_34 
REMARK   13  A    between atoms: C22_34  and  C23_35 
REMARK   14  A    between atoms: C23_35  and  C24_36 
ROOT
HETATM    1  O1  UNL     1       2.020  -3.162  -1.268  1.00  0.00    -0.326 OA
HETATM    2  C1  UNL     1       3.340  -2.631  -1.184  1.00  0.00     0.181 C 
HETATM    3  C2  UNL     1       4.354  -3.641  -1.771  1.00  0.00     0.215 C 
HETATM    4  C3  UNL     1       4.225  -5.033  -1.111  1.00  0.00     0.220 C 
HETATM    5  C4  UNL     1       2.748  -5.481  -1.156  1.00  0.00     0.241 C 
HETATM    6  C5  UNL     1       1.799  -4.397  -0.586  1.00  0.00     0.272 C 
HETATM    7  O8  UNL     1       2.570  -6.707  -0.467  1.00  0.00    -0.215 OA
HETATM    8  O9  UNL     1       5.035  -5.969  -1.807  1.00  0.00    -0.218 OA
HETATM    9  O10 UNL     1       5.662  -3.135  -1.574  1.00  0.00    -0.218 OA
ENDROOT
BRANCH   2  10
HETATM   10  C12 UNL     1       3.326  -1.297  -1.938  1.00  0.00     0.184 C 
BRANCH  10  11
HETATM   11  O11 UNL     1       2.479  -0.381  -1.262  1.00  0.00    -0.296 OA
BRANCH  11  12
HETATM   12  C13 UNL     1       2.508   0.832  -1.807  1.00  0.00     0.292 C 
HETATM   13  O12 UNL     1       3.105   1.100  -2.824  1.00  0.00    -0.260 OA
BRANCH  12  14
HETATM   14  C14 UNL     1       1.756   1.871  -1.094  1.00  0.00     0.041 C 
HETATM   15  C15 UNL     1       2.508   3.059  -0.553  1.00  0.00     0.037 C 
HETATM   16  C16 UNL     1       0.430   1.813  -0.900  1.00  0.00     0.001 C 
BRANCH  16  17
HETATM   17  C17 UNL     1      -0.272   2.881  -0.178  1.00  0.00    -0.005 C 
HETATM   18  C18 UNL     1      -1.613   2.920  -0.145  1.00  0.00    -0.026 C 
BRANCH  18  19
HETATM   19  C19 UNL     1      -2.281   4.037   0.609  1.00  0.00     0.029 C 
BRANCH  19  20
HETATM   20  C20 UNL     1      -3.195   4.877  -0.281  1.00  0.00     0.035 C 
HETATM   21  C21 UNL     1      -4.346   4.066  -0.879  1.00  0.00     0.003 C 
BRANCH  20  22
HETATM   22  C22 UNL     1      -3.672   6.160   0.404  1.00  0.00     0.163 C 
HETATM   23  O15 UNL     1      -4.572   5.805   1.430  1.00  0.00    -0.223 OA
BRANCH  22  24
HETATM   24  C23 UNL     1      -4.389   7.109  -0.555  1.00  0.00     0.130 C 
BRANCH  24  25
HETATM   25  C24 UNL     1      -4.693   8.442   0.076  1.00  0.00     0.188 C 
HETATM   26  O13 UNL     1      -4.024   8.865   0.988  1.00  0.00    -0.647 OA
HETATM   27  O14 UNL     1      -5.735   9.088  -0.441  1.00  0.00    -0.647 OA
ENDBRANCH  24  25
ENDBRANCH  22  24
ENDBRANCH  20  22
ENDBRANCH  19  20
ENDBRANCH  18  19
ENDBRANCH  16  17
ENDBRANCH  12  14
ENDBRANCH  11  12
ENDBRANCH  10  11
ENDBRANCH   2  10
BRANCH   6  28
HETATM   28  O2  UNL     1       1.947  -4.242   0.816  1.00  0.00    -0.304 OA
BRANCH  28  29
HETATM   29  C6  UNL     1       0.750  -3.858   1.465  1.00  0.00     0.252 C 
HETATM   30  O3  UNL     1      -0.104  -3.127   0.615  1.00  0.00    -0.328 OA
HETATM   31  C7  UNL     1      -1.088  -2.461   1.375  1.00  0.00     0.184 C 
HETATM   32  C8  UNL     1      -0.406  -2.184   2.731  1.00  0.00     0.217 C 
HETATM   33  C9  UNL     1       0.971  -2.887   2.645  1.00  0.00     0.238 C 
HETATM   34  O5  UNL     1      -1.168  -2.756   3.777  1.00  0.00    -0.218 OA
HETATM   35  O4  UNL     1       1.961  -1.910   2.357  1.00  0.00    -0.215 OA
BRANCH  31  36
HETATM   36  C10 UNL     1      -1.502  -1.199   0.629  1.00  0.00     0.214 C 
HETATM   37  O6  UNL     1      -2.354  -1.572  -0.432  1.00  0.00    -0.218 OA
ENDBRANCH  31  36
BRANCH  29  38
HETATM   38  C11 UNL     1       0.039  -5.133   1.912  1.00  0.00     0.241 C 
HETATM   39  O7  UNL     1      -0.479  -5.774   0.768  1.00  0.00    -0.215 OA
ENDBRANCH  29  38
ENDBRANCH  28  29
ENDBRANCH   6  28
TORSDOF 14
