REMARK  4 active torsions:
REMARK  status: ('A' for Active; 'I' for Inactive)
REMARK    1  A    between atoms: C7_8  and  C10_12 
REMARK    2  A    between atoms: C12_14  and  O4_19 
REMARK    3  A    between atoms: O4_19  and  C16_20 
REMARK    4  A    between atoms: C19_23  and  C20_24 
ROOT
HETATM    1  C10 UNL     1       3.346   2.094  -0.111  1.00  0.00     0.025 A 
HETATM    2  C11 UNL     1       2.475   1.705  -1.143  1.00  0.00     0.029 A 
HETATM    3  C12 UNL     1       2.975   1.426  -2.428  1.00  0.00     0.125 A 
HETATM    4  C13 UNL     1       4.356   1.537  -2.680  1.00  0.00     0.154 A 
HETATM    5  C14 UNL     1       5.227   1.926  -1.647  1.00  0.00     0.029 A 
HETATM    6  C15 UNL     1       4.725   2.203  -0.363  1.00  0.00     0.004 A 
HETATM    7  O3  UNL     1       4.834   1.277  -3.879  1.00  0.00    -0.188 OA
ENDROOT
BRANCH   3   8
HETATM    8  O4  UNL     1       2.152   1.063  -3.389  1.00  0.00    -0.305 OA
BRANCH   8   9
HETATM    9  C16 UNL     1       1.145   0.272  -3.076  1.00  0.00     0.100 A 
HETATM   10  C17 UNL     1       1.313  -0.736  -2.111  1.00  0.00     0.025 A 
HETATM   11  C18 UNL     1       0.240  -1.580  -1.777  1.00  0.00     0.004 A 
HETATM   12  C19 UNL     1      -1.008  -1.418  -2.408  1.00  0.00     0.023 A 
HETATM   13  C29 UNL     1      -1.178  -0.410  -3.373  1.00  0.00     0.004 A 
HETATM   14  C30 UNL     1      -0.102   0.434  -3.705  1.00  0.00     0.025 A 
BRANCH  12  15
HETATM   15  C20 UNL     1      -2.148  -2.314  -2.053  1.00  0.00     0.103 A 
HETATM   16  C21 UNL     1      -1.881  -3.549  -1.568  1.00  0.00     0.067 A 
HETATM   17  C22 UNL     1      -2.975  -4.475  -1.199  1.00  0.00     0.202 A 
HETATM   18  C23 UNL     1      -4.352  -3.945  -1.402  1.00  0.00     0.087 A 
HETATM   19  O8  UNL     1      -2.658  -5.562  -0.774  1.00  0.00    -0.286 OA
HETATM   20  C24 UNL     1      -5.492  -4.727  -1.090  1.00  0.00     0.138 A 
HETATM   21  C28 UNL     1      -4.504  -2.631  -1.922  1.00  0.00     0.107 A 
HETATM   22  C25 UNL     1      -6.785  -4.189  -1.297  1.00  0.00     0.055 A 
HETATM   23  O7  UNL     1      -5.365  -5.969  -0.598  1.00  0.00    -0.190 OA
HETATM   24  C26 UNL     1      -6.940  -2.883  -1.815  1.00  0.00     0.135 A 
HETATM   25  C27 UNL     1      -5.799  -2.103  -2.125  1.00  0.00     0.052 A 
HETATM   26  O6  UNL     1      -8.166  -2.379  -2.010  1.00  0.00    -0.190 OA
HETATM   27  O5  UNL     1      -3.416  -1.885  -2.219  1.00  0.00    -0.307 OA
ENDBRANCH  12  15
ENDBRANCH   8   9
ENDBRANCH   3   8
BRANCH   1  28
HETATM   28  C7  UNL     1       2.809   2.389   1.252  1.00  0.00     0.103 A 
HETATM   29  O1  UNL     1       3.604   2.244   2.332  1.00  0.00    -0.307 OA
HETATM   30  C5  UNL     1       3.195   2.490   3.598  1.00  0.00     0.107 A 
HETATM   31  C4  UNL     1       1.865   2.924   3.852  1.00  0.00     0.087 A 
HETATM   32  C6  UNL     1       4.092   2.313   4.676  1.00  0.00     0.052 A 
HETATM   33  C3  UNL     1       1.438   3.180   5.180  1.00  0.00     0.138 A 
HETATM   34  C9  UNL     1       0.943   3.104   2.695  1.00  0.00     0.202 A 
HETATM   35  C2  UNL     1       2.344   2.998   6.252  1.00  0.00     0.055 A 
HETATM   36  O9  UNL     1       0.188   3.588   5.436  1.00  0.00    -0.190 OA
HETATM   37  C1  UNL     1       3.668   2.567   6.002  1.00  0.00     0.135 A 
HETATM   38  O10 UNL     1       4.522   2.397   7.020  1.00  0.00    -0.190 OA
HETATM   39  C8  UNL     1       1.525   2.799   1.371  1.00  0.00     0.067 A 
HETATM   40  O2  UNL     1      -0.211   3.467   2.723  1.00  0.00    -0.286 OA
ENDBRANCH   1  28
TORSDOF 4
