REMARK  14 active torsions:
REMARK  status: ('A' for Active; 'I' for Inactive)
REMARK    1  A    between atoms: C7_7  and  C9_11 
REMARK    2  A    between atoms: C9_11  and  C10_12 
REMARK    3  A    between atoms: C9_11  and  S1_15 
REMARK    4  A    between atoms: C10_12  and  C11_13 
REMARK    5  A    between atoms: S1_15  and  C13_16 
REMARK    6  A    between atoms: C13_16  and  C14_17 
REMARK    7  A    between atoms: C14_17  and  C15_18 
REMARK    8  A    between atoms: C14_17  and  N2_25 
REMARK       I    between atoms: C15_18  and  N1_20 
REMARK    9  A    between atoms: N1_20  and  C16_21 
REMARK   10  A    between atoms: C16_21  and  C17_22 
REMARK       I    between atoms: N2_25  and  C18_26 
REMARK   11  A    between atoms: C18_26  and  C19_27 
REMARK   12  A    between atoms: C19_27  and  C20_28 
REMARK   13  A    between atoms: C20_28  and  C21_29 
REMARK   14  A    between atoms: C21_29  and  C22_31 
ROOT
HETATM    1  C14 UNL     1      -0.107  -0.219  -1.268  1.00  0.00     0.197 C 
ENDROOT
BRANCH   1   2
HETATM    2  C13 UNL     1      -0.982  -0.094  -0.020  1.00  0.00     0.092 C 
BRANCH   2   3
HETATM    3  S1  UNL     1      -0.029  -0.455   1.480  1.00  0.00    -0.132 SA
BRANCH   3   4
HETATM    4  C9  UNL     1      -1.320  -0.129   2.713  1.00  0.00     0.093 C 
BRANCH   4   5
HETATM    5  C7  UNL     1      -2.410  -1.174   2.592  1.00  0.00     0.086 A 
HETATM    6  C5  UNL     1      -3.738  -1.000   2.248  1.00  0.00     0.002 A 
HETATM    7  C4  UNL     1      -4.348  -2.211   2.271  1.00  0.00     0.047 A 
HETATM    8  C6  UNL     1      -4.479   0.273   1.873  1.00  0.00     0.033 C 
HETATM    9  C3  UNL     1      -5.787  -2.367   1.967  1.00  0.00    -0.001 C 
HETATM   10  C8  UNL     1      -3.438  -3.209   2.607  1.00  0.00     0.232 A 
HETATM   11  C2  UNL     1      -6.566  -1.272   1.830  1.00  0.00    -0.026 C 
HETATM   12  C1  UNL     1      -6.008   0.125   2.076  1.00  0.00     0.031 C 
HETATM   13  O1  UNL     1      -2.219  -2.541   2.812  1.00  0.00    -0.287 OA
HETATM   14  O2  UNL     1      -3.670  -4.524   2.717  1.00  0.00    -0.163 OA
ENDBRANCH   4   5
BRANCH   4  15
HETATM   15  C10 UNL     1      -0.734  -0.104   4.127  1.00  0.00     0.017 C 
BRANCH  15  16
HETATM   16  C11 UNL     1       0.299   1.006   4.316  1.00  0.00     0.001 C 
HETATM   17  C12 UNL     1       0.859   1.053   5.738  1.00  0.00     0.000 C 
ENDBRANCH  15  16
ENDBRANCH   4  15
ENDBRANCH   3   4
ENDBRANCH   2   3
ENDBRANCH   1   2
BRANCH   1  18
HETATM   18  C15 UNL     1      -0.900  -0.092  -2.541  1.00  0.00     0.275 C 
HETATM   19  O3  UNL     1      -2.043   0.303  -2.525  1.00  0.00    -0.268 OA
HETATM   20  N1  UNL     1      -0.305  -0.434  -3.721  1.00  0.00    -0.225 NA
BRANCH  20  21
HETATM   21  C16 UNL     1      -1.064  -0.317  -4.975  1.00  0.00     0.226 C 
BRANCH  21  22
HETATM   22  C17 UNL     1      -0.244  -0.736  -6.162  1.00  0.00     0.211 C 
HETATM   23  O4  UNL     1      -0.865  -0.656  -7.336  1.00  0.00    -0.646 OA
HETATM   24  O5  UNL     1       0.897  -1.113  -6.029  1.00  0.00    -0.646 OA
ENDBRANCH  21  22
ENDBRANCH  20  21
ENDBRANCH   1  18
BRANCH   1  25
HETATM   25  N2  UNL     1       1.008   0.738  -1.229  1.00  0.00    -0.229 NA
HETATM   26  C18 UNL     1       2.270   0.310  -1.533  1.00  0.00     0.252 C 
HETATM   27  O8  UNL     1       2.467  -0.844  -1.832  1.00  0.00    -0.271 OA
BRANCH  26  28
HETATM   28  C19 UNL     1       3.400   1.303  -1.486  1.00  0.00     0.092 C 
BRANCH  28  29
HETATM   29  C20 UNL     1       4.740   0.682  -1.881  1.00  0.00     0.060 C 
BRANCH  29  30
HETATM   30  C21 UNL     1       5.897   1.680  -1.813  1.00  0.00     0.388 C 
HETATM   31  N3  UNL     1       5.709   2.742  -2.785  1.00  0.00     0.628 N 
BRANCH  30  32
HETATM   32  C22 UNL     1       7.235   1.021  -2.014  1.00  0.00     0.224 C 
HETATM   33  O6  UNL     1       8.276   1.699  -1.537  1.00  0.00    -0.646 OA
HETATM   34  O7  UNL     1       7.324  -0.047  -2.572  1.00  0.00    -0.646 OA
ENDBRANCH  30  32
ENDBRANCH  29  30
ENDBRANCH  28  29
ENDBRANCH  26  28
ENDBRANCH   1  25
TORSDOF 14
