REMARK  2 active torsions:
REMARK  status: ('A' for Active; 'I' for Inactive)
REMARK    1  A    between atoms: C7_7  and  C9_10 
REMARK    2  A    between atoms: C9_10  and  C10_11 
ROOT
HETATM    1  C10 UNL     1      -1.791   0.467  -1.121  1.00  0.00     0.112 C 
HETATM    2  N2  UNL     1      -0.666  -0.129  -1.811  1.00  0.00    -0.239 NA
HETATM    3  C11 UNL     1       0.453  -0.207  -0.988  1.00  0.00     0.258 C 
HETATM    4  C12 UNL     1       0.137   0.367   0.385  1.00  0.00     0.136 C 
HETATM    5  C13 UNL     1      -1.244   1.104   0.174  1.00  0.00     0.041 C 
HETATM    6  C14 UNL     1      -1.195   2.652   0.129  1.00  0.00     0.030 C 
HETATM    7  C15 UNL     1       0.029   3.113  -0.672  1.00  0.00     0.118 A 
HETATM    8  C16 UNL     1       1.373   2.434  -0.260  1.00  0.00     0.145 A 
HETATM    9  C17 UNL     1       1.246   1.361   0.842  1.00  0.00     0.067 C 
HETATM   10  C18 UNL     1       2.559   0.713   1.252  1.00  0.00    -0.028 C 
HETATM   11  C19 UNL     1       3.578   0.463   0.404  1.00  0.00    -0.030 C 
HETATM   12  C20 UNL     1       4.856  -0.197   0.879  1.00  0.00     0.030 C 
HETATM   13  C21 UNL     1       5.242  -1.455   0.076  1.00  0.00     0.026 C 
HETATM   14  C22 UNL     1       4.154  -2.508   0.113  1.00  0.00    -0.032 C 
HETATM   15  C23 UNL     1       3.908  -3.285   1.189  1.00  0.00    -0.011 C 
HETATM   16  C24 UNL     1       2.777  -4.299   1.172  1.00  0.00     0.231 C 
HETATM   17  C25 UNL     1       1.811  -4.068   2.324  1.00  0.00     0.207 C 
HETATM   18  C26 UNL     1       0.912  -2.893   2.336  1.00  0.00     0.043 C 
HETATM   19  C27 UNL     1       0.873  -1.949   1.373  1.00  0.00     0.041 C 
HETATM   20  C28 UNL     1      -0.006  -0.756   1.418  1.00  0.00     0.181 C 
HETATM   21  O1  UNL     1      -0.834  -0.678   2.299  1.00  0.00    -0.291 OA
HETATM   22  O2  UNL     1       1.754  -4.840   3.256  1.00  0.00    -0.288 OA
HETATM   23  O3  UNL     1       3.322  -5.602   1.205  1.00  0.00    -0.210 OA
HETATM   24  C29 UNL     1       4.740  -3.170   2.443  1.00  0.00     0.029 C 
HETATM   25  C30 UNL     1       5.596  -1.107  -1.373  1.00  0.00     0.005 C 
HETATM   26  O4  UNL     1       0.977   3.697   0.168  1.00  0.00    -0.356 OA
HETATM   27  C31 UNL     1      -0.066   3.934  -1.953  1.00  0.00     0.032 C 
HETATM   28  C32 UNL     1      -2.492   3.276  -0.402  1.00  0.00     0.003 C 
HETATM   29  O5  UNL     1       1.508  -0.662  -1.367  1.00  0.00    -0.270 OA
ENDROOT
BRANCH   1  30
HETATM   30  C9  UNL     1      -2.842  -0.592  -0.795  1.00  0.00     0.052 C 
BRANCH  30  31
HETATM   31  C7  UNL     1      -4.115   0.041  -0.273  1.00  0.00     0.000 A 
HETATM   32  C5  UNL     1      -5.076   0.676  -0.982  1.00  0.00     0.015 A 
HETATM   33  C4  UNL     1      -6.100   1.129  -0.188  1.00  0.00     0.081 A 
HETATM   34  C6  UNL     1      -5.090   0.885  -2.385  1.00  0.00     0.001 A 
HETATM   35  C3  UNL     1      -7.209   1.822  -0.729  1.00  0.00     0.019 A 
HETATM   36  N1  UNL     1      -5.785   0.768   1.113  1.00  0.00    -0.244 NA
HETATM   37  C2  UNL     1      -7.246   2.045  -2.129  1.00  0.00     0.002 A 
HETATM   38  C1  UNL     1      -6.190   1.578  -2.955  1.00  0.00     0.000 A 
HETATM   39  C8  UNL     1      -4.543   0.086   1.066  1.00  0.00     0.095 A 
ENDBRANCH  30  31
ENDBRANCH   1  30
TORSDOF 2
