REMARK  0 active torsions:
REMARK  status: ('A' for Active; 'I' for Inactive)
ROOT
HETATM    1  C1  UNL     1       1.754   0.736   0.211  1.00  0.00     0.186 C 
HETATM    2  C2  UNL     1       3.176   1.283  -0.012  1.00  0.00     0.041 C 
HETATM    3  C3  UNL     1       4.059   0.103  -0.444  1.00  0.00     0.034 C 
HETATM    4  C4  UNL     1       3.260  -1.162  -0.069  1.00  0.00     0.158 C 
HETATM    5  C5  UNL     1       2.104  -0.652   0.816  1.00  0.00     0.099 C 
HETATM    6  C6  UNL     1       1.063  -1.731   1.269  1.00  0.00     0.184 C 
HETATM    7  C7  UNL     1      -0.105  -2.295   0.418  1.00  0.00     0.148 A 
HETATM    8  C8  UNL     1      -1.248  -1.422  -0.127  1.00  0.00     0.032 C 
HETATM    9  C9  UNL     1      -2.486  -1.383   0.801  1.00  0.00     0.003 C 
HETATM   10  C10 UNL     1      -3.436  -0.160   0.721  1.00  0.00     0.004 A 
HETATM   11  C11 UNL     1      -2.914   1.236   1.037  1.00  0.00     0.022 A 
HETATM   12  C12 UNL     1      -1.475   1.244   1.533  1.00  0.00    -0.028 C 
HETATM   13  C13 UNL     1      -0.514   1.879   0.824  1.00  0.00     0.011 C 
HETATM   14  C14 UNL     1       0.922   1.646   1.111  1.00  0.00     0.196 C 
HETATM   15  O1  UNL     1       1.420   2.184   2.074  1.00  0.00    -0.289 OA
HETATM   16  C15 UNL     1      -0.867   2.824  -0.297  1.00  0.00     0.034 C 
HETATM   17  C16 UNL     1      -3.424   0.902  -0.367  1.00  0.00     0.004 A 
HETATM   18  C17 UNL     1      -4.775   1.494  -0.746  1.00  0.00     0.000 C 
HETATM   19  C18 UNL     1      -2.492   0.783  -1.569  1.00  0.00     0.000 C 
HETATM   20  C19 UNL     1      -0.373  -3.844   0.474  1.00  0.00     0.172 A 
HETATM   21  O2  UNL     1       0.336  -3.209  -0.537  1.00  0.00    -0.351 OA
HETATM   22  O3  UNL     1       0.471  -1.291   2.475  1.00  0.00    -0.221 OA
HETATM   23  O4  UNL     1       2.783  -1.834  -1.221  1.00  0.00    -0.223 OA
HETATM   24  C20 UNL     1       4.467   0.252  -1.912  1.00  0.00     0.003 C 
HETATM   25  O5  UNL     1       1.166   0.603  -1.074  1.00  0.00    -0.218 OA
ENDROOT
TORSDOF 0
