REMARK  1 active torsions:
REMARK  status: ('A' for Active; 'I' for Inactive)
REMARK    1  A    between atoms: C8_8  and  C12_12 
ROOT
HETATM    1  C1  UNL     1       2.084   0.863   0.355  1.00  0.00     0.004 C 
HETATM    2  C2  UNL     1       3.281  -0.019   0.760  1.00  0.00     0.000 C 
HETATM    3  C3  UNL     1       3.322  -1.332  -0.033  1.00  0.00     0.000 C 
HETATM    4  C4  UNL     1       1.996  -2.098   0.068  1.00  0.00     0.000 C 
HETATM    5  C5  UNL     1       0.803  -1.223  -0.356  1.00  0.00     0.004 C 
HETATM    6  C6  UNL     1      -0.527  -2.004  -0.311  1.00  0.00     0.004 C 
HETATM    7  C7  UNL     1      -1.805  -1.125  -0.293  1.00  0.00     0.022 C 
HETATM    8  C8  UNL     1      -1.566   0.361  -0.461  1.00  0.00    -0.049 C 
HETATM    9  C9  UNL     1      -0.395   0.930  -0.109  1.00  0.00    -0.035 C 
HETATM   10  C10 UNL     1       0.738   0.096   0.457  1.00  0.00     0.018 C 
HETATM   11  C11 UNL     1       0.412  -0.201   1.935  1.00  0.00     0.004 C 
HETATM   12  C15 UNL     1       2.080   2.156   1.180  1.00  0.00     0.000 C 
ENDROOT
BRANCH   8  13
HETATM   13  C12 UNL     1      -2.680   1.191  -1.041  1.00  0.00     0.018 C 
HETATM   14  C13 UNL     1      -3.940   1.162  -0.178  1.00  0.00     0.004 C 
HETATM   15  C14 UNL     1      -2.959   0.850  -2.506  1.00  0.00     0.004 C 
ENDBRANCH   8  13
TORSDOF 1
