REMARK  5 active torsions:
REMARK  status: ('A' for Active; 'I' for Inactive)
REMARK    1  A    between atoms: C1_1  and  O5_22 
REMARK    2  A    between atoms: C2_2  and  O4_20 
REMARK    3  A    between atoms: C4_4  and  C8_9 
REMARK    4  A    between atoms: C6_6  and  O1_7 
REMARK    5  A    between atoms: C9_10  and  C10_11 
REMARK       I    between atoms: C10_11  and  N1_12 
ROOT
HETATM    1  C1  UNL     1      -3.432  -0.732  -0.377  1.00  0.00     0.138 A 
HETATM    2  C2  UNL     1      -2.750  -1.037   0.816  1.00  0.00     0.118 A 
HETATM    3  C3  UNL     1      -1.344  -1.031   0.840  1.00  0.00     0.026 A 
HETATM    4  C4  UNL     1      -0.617  -0.721  -0.322  1.00  0.00     0.004 A 
HETATM    5  C5  UNL     1      -1.301  -0.418  -1.514  1.00  0.00     0.026 A 
HETATM    6  C6  UNL     1      -2.707  -0.422  -1.543  1.00  0.00     0.118 A 
ENDROOT
BRANCH   4   7
HETATM    7  C8  UNL     1       0.875  -0.715  -0.295  1.00  0.00     0.005 C 
HETATM    8  C9  UNL     1       1.500  -1.010   0.857  1.00  0.00     0.061 C 
BRANCH   8   9
HETATM    9  C10 UNL     1       2.965  -1.016   0.934  1.00  0.00     0.263 C 
HETATM   10  N1  UNL     1       3.648   0.168   0.811  1.00  0.00    -0.263 N 
HETATM   11  C11 UNL     1       2.885   1.439   0.684  1.00  0.00     0.117 C 
HETATM   12  C15 UNL     1       5.029   0.193   0.791  1.00  0.00     0.263 C 
HETATM   13  C12 UNL     1       3.648   2.648   1.264  1.00  0.00     0.051 C 
HETATM   14  C13 UNL     1       5.111   2.658   0.877  1.00  0.00    -0.019 C 
HETATM   15  C14 UNL     1       5.742   1.484   0.678  1.00  0.00     0.056 C 
HETATM   16  O2  UNL     1       5.676  -0.830   0.861  1.00  0.00    -0.267 OA
HETATM   17  O3  UNL     1       3.565  -2.051   1.103  1.00  0.00    -0.267 OA
ENDBRANCH   8   9
ENDBRANCH   4   7
BRANCH   2  18
HETATM   18  O4  UNL     1      -3.424  -1.328   1.910  1.00  0.00    -0.326 OA
HETATM   19  C16 UNL     1      -2.689  -1.695   3.068  1.00  0.00     0.181 C 
ENDBRANCH   2  18
BRANCH   6  20
HETATM   20  O1  UNL     1      -3.342  -0.137  -2.662  1.00  0.00    -0.326 OA
HETATM   21  C7  UNL     1      -2.564   0.170  -3.811  1.00  0.00     0.181 C 
ENDBRANCH   6  20
BRANCH   1  22
HETATM   22  O5  UNL     1      -4.750  -0.738  -0.402  1.00  0.00    -0.324 OA
HETATM   23  C17 UNL     1      -5.395  -0.426  -1.629  1.00  0.00     0.182 C 
ENDBRANCH   1  22
TORSDOF 5
