REMARK  3 active torsions:
REMARK  status: ('A' for Active; 'I' for Inactive)
REMARK    1  A    between atoms: C19_21  and  C22_24 
REMARK    2  A    between atoms: C22_24  and  C23_25 
REMARK    3  A    between atoms: C23_25  and  C24_26 
ROOT
HETATM    1  C1  UNL     1       6.719  -0.449  -1.047  1.00  0.00     0.033 C 
HETATM    2  C2  UNL     1       6.250   0.605  -0.041  1.00  0.00     0.153 C 
HETATM    3  C3  UNL     1       5.607  -0.041   1.203  1.00  0.00     0.041 C 
HETATM    4  C4  UNL     1       5.043  -1.457   0.934  1.00  0.00     0.065 C 
HETATM    5  C5  UNL     1       4.453  -1.629  -0.490  1.00  0.00     0.011 C 
HETATM    6  C6  UNL     1       5.539  -1.295  -1.560  1.00  0.00     0.003 C 
HETATM    7  C7  UNL     1       3.188  -0.723  -0.650  1.00  0.00     0.021 C 
HETATM    8  C8  UNL     1       2.279  -0.707   0.584  1.00  0.00    -0.015 C 
HETATM    9  C9  UNL     1       2.652  -1.252   1.762  1.00  0.00     0.031 C 
HETATM   10  C10 UNL     1       4.000  -1.795   1.973  1.00  0.00     0.172 C 
HETATM   11  O1  UNL     1       4.256  -2.479   2.936  1.00  0.00    -0.291 OA
HETATM   12  C11 UNL     1       0.939  -0.016   0.416  1.00  0.00     0.144 C 
HETATM   13  C12 UNL     1       0.191  -0.535  -0.830  1.00  0.00     0.032 C 
HETATM   14  C13 UNL     1       1.043  -0.277  -2.082  1.00  0.00     0.003 C 
HETATM   15  C14 UNL     1       2.383  -1.035  -1.949  1.00  0.00     0.004 C 
HETATM   16  C15 UNL     1      -0.053  -2.047  -0.660  1.00  0.00     0.003 C 
HETATM   17  C16 UNL     1      -1.150   0.223  -0.756  1.00  0.00     0.032 C 
HETATM   18  C17 UNL     1      -1.393   0.353   0.754  1.00  0.00     0.118 C 
HETATM   19  C18 UNL     1      -0.152  -0.180   1.492  1.00  0.00     0.064 C 
HETATM   20  O2  UNL     1      -2.547  -0.420   0.986  1.00  0.00    -0.356 OA
HETATM   21  C19 UNL     1      -3.408  -0.330  -0.125  1.00  0.00     0.145 C 
HETATM   22  C20 UNL     1      -2.436  -0.440  -1.307  1.00  0.00     0.032 C 
HETATM   23  C21 UNL     1      -2.932   0.223  -2.588  1.00  0.00     0.003 C 
HETATM   24  O5  UNL     1       1.229   1.375   0.313  1.00  0.00    -0.222 OA
HETATM   25  C28 UNL     1       4.049  -3.108  -0.660  1.00  0.00     0.001 C 
HETATM   26  O6  UNL     1       7.344   1.412   0.348  1.00  0.00    -0.223 OA
ENDROOT
BRANCH  21  27
HETATM   27  C22 UNL     1      -4.147   1.006  -0.057  1.00  0.00     0.181 C 
HETATM   28  O4  UNL     1      -5.102   1.037  -1.092  1.00  0.00    -0.221 OA
BRANCH  27  29
HETATM   29  C23 UNL     1      -4.885   1.111   1.279  1.00  0.00     0.061 C 
HETATM   30  C27 UNL     1      -3.971   1.535   2.428  1.00  0.00     0.005 C 
BRANCH  29  31
HETATM   31  C24 UNL     1      -6.151   1.967   1.186  1.00  0.00     0.129 C 
HETATM   32  C25 UNL     1      -5.858   3.414   0.787  1.00  0.00     0.033 C 
HETATM   33  C26 UNL     1      -7.235   1.324   0.320  1.00  0.00     0.033 C 
HETATM   34  O3  UNL     1      -6.592   1.959   2.526  1.00  0.00    -0.226 OA
ENDBRANCH  29  31
ENDBRANCH  27  29
ENDBRANCH  21  27
TORSDOF 3
