REMARK  0 active torsions:
REMARK  status: ('A' for Active; 'I' for Inactive)
ROOT
HETATM    1  C1  UNL     1       4.187   0.708   1.502  1.00  0.00     0.027 A 
HETATM    2  C2  UNL     1       4.804  -0.209   0.620  1.00  0.00     0.133 A 
HETATM    3  C3  UNL     1       4.079  -0.736  -0.474  1.00  0.00     0.051 A 
HETATM    4  C4  UNL     1       2.734  -0.352  -0.688  1.00  0.00     0.094 A 
HETATM    5  C5  UNL     1       2.125   0.602   0.174  1.00  0.00     0.028 A 
HETATM    6  C6  UNL     1       2.851   1.114   1.278  1.00  0.00     0.002 A 
HETATM    7  C7  UNL     1       0.746   1.077  -0.094  1.00  0.00     0.152 C 
HETATM    8  C8  UNL     1       0.012   0.388  -1.304  1.00  0.00     0.086 C 
HETATM    9  C9  UNL     1       0.627  -0.973  -1.661  1.00  0.00     0.156 C 
HETATM   10  O1  UNL     1       2.053  -0.900  -1.713  1.00  0.00    -0.331 OA
HETATM   11  C10 UNL     1      -1.366   0.217  -0.713  1.00  0.00     0.007 A 
HETATM   12  C11 UNL     1      -1.327   0.533   0.654  1.00  0.00     0.093 A 
HETATM   13  O2  UNL     1      -0.118   0.926   1.051  1.00  0.00    -0.329 OA
HETATM   14  C12 UNL     1      -2.565   0.372   1.327  1.00  0.00     0.050 A 
HETATM   15  C13 UNL     1      -3.822  -0.041   0.817  1.00  0.00     0.121 A 
HETATM   16  C14 UNL     1      -3.853  -0.338  -0.549  1.00  0.00     0.119 A 
HETATM   17  C15 UNL     1      -2.620  -0.191  -1.231  1.00  0.00     0.024 A 
HETATM   18  O3  UNL     1      -5.085  -0.706  -0.895  1.00  0.00    -0.300 OA
HETATM   19  C16 UNL     1      -5.930  -0.659   0.281  1.00  0.00     0.304 A 
HETATM   20  O4  UNL     1      -5.036  -0.224   1.335  1.00  0.00    -0.299 OA
HETATM   21  O5  UNL     1       6.075  -0.581   0.823  1.00  0.00    -0.190 OA
ENDROOT
TORSDOF 0
