REMARK  1 active torsions:
REMARK  status: ('A' for Active; 'I' for Inactive)
REMARK    1  A    between atoms: C8_8  and  C9_9 
ROOT
HETATM    1  C1  UNL     1      -5.338  -0.707   0.135  1.00  0.00     0.000 A 
HETATM    2  C2  UNL     1      -5.330   0.715   0.017  1.00  0.00     0.002 A 
HETATM    3  C3  UNL     1      -4.100   1.420  -0.059  1.00  0.00     0.025 A 
HETATM    4  C4  UNL     1      -2.914   0.658  -0.008  1.00  0.00     0.100 A 
HETATM    5  C5  UNL     1      -2.906  -0.699   0.105  1.00  0.00     0.025 A 
HETATM    6  C6  UNL     1      -4.115  -1.432   0.182  1.00  0.00     0.002 A 
HETATM    7  C7  UNL     1      -1.641  -1.172   0.131  1.00  0.00     0.027 A 
HETATM    8  C8  UNL     1      -0.803  -0.035   0.025  1.00  0.00     0.100 A 
HETATM    9  O3  UNL     1      -1.617   1.135  -0.065  1.00  0.00    -0.307 OA
ENDROOT
BRANCH   8  10
HETATM   10  C9  UNL     1       0.678   0.031   0.004  1.00  0.00     0.027 A 
HETATM   11  C10 UNL     1       1.439  -1.148   0.094  1.00  0.00     0.029 A 
HETATM   12  C11 UNL     1       2.844  -1.090   0.074  1.00  0.00     0.129 A 
HETATM   13  C12 UNL     1       3.488   0.158  -0.039  1.00  0.00     0.029 A 
HETATM   14  O2  UNL     1       3.547  -2.201   0.160  1.00  0.00    -0.190 OA
HETATM   15  C13 UNL     1       2.731   1.342  -0.131  1.00  0.00     0.129 A 
HETATM   16  C15 UNL     1       4.977   0.225  -0.063  1.00  0.00     0.035 C 
HETATM   17  C14 UNL     1       1.326   1.273  -0.110  1.00  0.00     0.029 A 
HETATM   18  O1  UNL     1       3.328   2.512  -0.236  1.00  0.00    -0.190 OA
ENDBRANCH   8  10
TORSDOF 1
