REMARK  7 active torsions:
REMARK  status: ('A' for Active; 'I' for Inactive)
REMARK    1  A    between atoms: C5_5  and  C7_7 
REMARK    2  A    between atoms: C7_7  and  O2_9 
REMARK    3  A    between atoms: O2_9  and  C8_10 
REMARK    4  A    between atoms: C10_12  and  C20_29 
REMARK    5  A    between atoms: C11_14  and  O5_17 
REMARK    6  A    between atoms: O5_17  and  C13_18 
REMARK    7  A    between atoms: C13_18  and  C14_20 
ROOT
HETATM    1  C8  UNL     1      -1.707  -0.542   1.181  1.00  0.00     0.193 C 
HETATM    2  C9  UNL     1      -2.469   0.777   1.181  1.00  0.00     0.212 C 
HETATM    3  C10 UNL     1      -1.479   1.935   1.181  1.00  0.00     0.184 C 
HETATM    4  O3  UNL     1      -0.719   1.840   2.356  1.00  0.00    -0.326 OA
HETATM    5  C11 UNL     1       0.161   0.759   2.183  1.00  0.00     0.277 C 
HETATM    6  C12 UNL     1      -0.657  -0.522   2.284  1.00  0.00     0.239 C 
HETATM    7  O4  UNL     1       0.191  -1.629   2.142  1.00  0.00    -0.215 OA
HETATM    8  O11 UNL     1      -3.274   0.851   0.035  1.00  0.00    -0.218 OA
ENDROOT
BRANCH   1   9
HETATM    9  O2  UNL     1      -2.602  -1.597   1.407  1.00  0.00    -0.295 OA
BRANCH   9  10
HETATM   10  C7  UNL     1      -2.739  -2.565   0.493  1.00  0.00     0.296 C 
HETATM   11  O1  UNL     1      -3.510  -3.474   0.688  1.00  0.00    -0.259 OA
BRANCH  10  12
HETATM   12  C5  UNL     1      -2.016  -2.525  -0.647  1.00  0.00     0.067 A 
HETATM   13  C4  UNL     1      -1.126  -1.475  -0.872  1.00  0.00     0.035 A 
HETATM   14  C3  UNL     1      -0.380  -1.434  -2.050  1.00  0.00     0.158 A 
HETATM   15  C2  UNL     1      -0.523  -2.442  -3.002  1.00  0.00     0.181 A 
HETATM   16  O12 UNL     1       0.485  -0.413  -2.268  1.00  0.00    -0.188 OA
HETATM   17  C1  UNL     1      -1.413  -3.493  -2.777  1.00  0.00     0.158 A 
HETATM   18  O13 UNL     1       0.202  -2.402  -4.146  1.00  0.00    -0.186 OA
HETATM   19  C6  UNL     1      -2.159  -3.534  -1.600  1.00  0.00     0.035 A 
HETATM   20  O14 UNL     1      -1.552  -4.473  -3.702  1.00  0.00    -0.188 OA
ENDBRANCH  10  12
ENDBRANCH   9  10
ENDBRANCH   1   9
BRANCH   3  21
HETATM   21  C20 UNL     1      -2.229   3.260   1.153  1.00  0.00     0.214 C 
HETATM   22  O10 UNL     1      -1.852   3.987   0.015  1.00  0.00    -0.218 OA
ENDBRANCH   3  21
BRANCH   5  23
HETATM   23  O5  UNL     1       1.143   0.778   3.183  1.00  0.00    -0.270 OA
BRANCH  23  24
HETATM   24  C13 UNL     1       2.436   0.862   2.849  1.00  0.00     0.298 C 
HETATM   25  O6  UNL     1       3.283   0.879   3.711  1.00  0.00    -0.259 OA
BRANCH  24  26
HETATM   26  C14 UNL     1       2.795   0.928   1.549  1.00  0.00     0.068 A 
HETATM   27  C15 UNL     1       4.143   1.015   1.201  1.00  0.00     0.035 A 
HETATM   28  C16 UNL     1       4.514   1.083  -0.142  1.00  0.00     0.158 A 
HETATM   29  C17 UNL     1       3.537   1.064  -1.137  1.00  0.00     0.181 A 
HETATM   30  O9  UNL     1       5.824   1.168  -0.480  1.00  0.00    -0.188 OA
HETATM   31  C18 UNL     1       2.189   0.976  -0.789  1.00  0.00     0.158 A 
HETATM   32  O8  UNL     1       3.897   1.129  -2.442  1.00  0.00    -0.186 OA
HETATM   33  C19 UNL     1       1.818   0.908   0.554  1.00  0.00     0.035 A 
HETATM   34  O7  UNL     1       1.240   0.957  -1.756  1.00  0.00    -0.188 OA
ENDBRANCH  24  26
ENDBRANCH  23  24
ENDBRANCH   5  23
TORSDOF 7
