REMARK  2 active torsions:
REMARK  status: ('A' for Active; 'I' for Inactive)
REMARK    1  A    between atoms: C13_15  and  C15_18 
REMARK    2  A    between atoms: C15_18  and  O4_19 
ROOT
HETATM    1  C1  UNL     1      -0.267  -1.398  -0.246  1.00  0.00     0.028 A 
HETATM    2  C2  UNL     1       0.096  -2.738  -0.152  1.00  0.00     0.002 A 
HETATM    3  C3  UNL     1       1.427  -3.078   0.098  1.00  0.00     0.003 A 
HETATM    4  C4  UNL     1       2.384  -2.071   0.257  1.00  0.00     0.044 A 
HETATM    5  C5  UNL     1       2.006  -0.718   0.182  1.00  0.00     0.068 A 
HETATM    6  C6  UNL     1       0.670  -0.368  -0.077  1.00  0.00     0.134 A 
HETATM    7  O1  UNL     1       0.256   0.921  -0.204  1.00  0.00    -0.190 OA
HETATM    8  C7  UNL     1       3.028   0.350   0.361  1.00  0.00     0.200 C 
HETATM    9  C8  UNL     1       4.469  -0.025   0.283  1.00  0.00     0.067 A 
HETATM   10  C9  UNL     1       4.820  -1.383   0.369  1.00  0.00     0.046 A 
HETATM   11  C10 UNL     1       3.798  -2.454   0.488  1.00  0.00     0.196 C 
HETATM   12  O2  UNL     1       4.112  -3.622   0.702  1.00  0.00    -0.287 OA
HETATM   13  C11 UNL     1       6.165  -1.749   0.324  1.00  0.00     0.031 A 
HETATM   14  C12 UNL     1       7.174  -0.793   0.179  1.00  0.00     0.131 A 
HETATM   15  C13 UNL     1       6.821   0.558   0.058  1.00  0.00     0.058 A 
HETATM   16  C14 UNL     1       5.466   0.956   0.117  1.00  0.00     0.135 A 
HETATM   17  O3  UNL     1       5.143   2.269  -0.039  1.00  0.00    -0.190 OA
HETATM   18  O5  UNL     1       8.473  -1.194   0.124  1.00  0.00    -0.190 OA
HETATM   19  O6  UNL     1       2.684   1.499   0.618  1.00  0.00    -0.286 OA
ENDROOT
BRANCH  15  20
HETATM   20  C15 UNL     1       7.969   1.543  -0.141  1.00  0.00     0.173 C 
BRANCH  20  21
HETATM   21  O4  UNL     1       7.591   2.899  -0.265  1.00  0.00    -0.347 OA
HETATM   22  C16 UNL     1       8.700   3.756  -0.432  1.00  0.00     0.175 C 
ENDBRANCH  20  21
ENDBRANCH  15  20
TORSDOF 2
