REMARK  2 active torsions:
REMARK  status: ('A' for Active; 'I' for Inactive)
REMARK    1  A    between atoms: C3_3  and  O8_22 
REMARK    2  A    between atoms: C10_11  and  S1_17 
ROOT
HETATM    1  C1  UNL     1      -0.178   3.515  -2.302  1.00  0.00     0.002 A 
HETATM    2  C2  UNL     1      -0.240   3.803  -0.942  1.00  0.00     0.026 A 
HETATM    3  C3  UNL     1      -0.215   2.818   0.059  1.00  0.00     0.117 A 
HETATM    4  C4  UNL     1      -0.117   1.462  -0.339  1.00  0.00     0.125 A 
HETATM    5  C5  UNL     1      -0.057   1.182  -1.716  1.00  0.00     0.064 A 
HETATM    6  C6  UNL     1      -0.086   2.186  -2.693  1.00  0.00     0.005 A 
HETATM    7  C7  UNL     1       0.041  -0.224  -2.174  1.00  0.00     0.201 A 
HETATM    8  C8  UNL     1       0.076  -1.272  -1.124  1.00  0.00     0.088 A 
HETATM    9  C9  UNL     1       0.012  -0.856   0.219  1.00  0.00     0.120 A 
HETATM   10  O1  UNL     1      -0.086   0.460   0.587  1.00  0.00    -0.304 OA
HETATM   11  C10 UNL     1       0.048  -1.847   1.224  1.00  0.00     0.152 A 
HETATM   12  C11 UNL     1       0.146  -3.209   0.905  1.00  0.00     0.148 A 
HETATM   13  C12 UNL     1       0.203  -3.560  -0.443  1.00  0.00     0.056 A 
HETATM   14  C13 UNL     1       0.170  -2.631  -1.482  1.00  0.00     0.138 A 
HETATM   15  O2  UNL     1       0.236  -3.099  -2.759  1.00  0.00    -0.190 OA
HETATM   16  O3  UNL     1       0.187  -4.207   1.829  1.00  0.00    -0.189 OA
HETATM   17  O7  UNL     1       0.090  -0.476  -3.374  1.00  0.00    -0.286 OA
ENDROOT
BRANCH  11  18
HETATM   18  S1  UNL     1      -0.032  -1.323   2.940  1.00  0.00     0.143 S 
HETATM   19  O4  UNL     1       0.020  -2.566   4.038  1.00  0.00    -0.591 OA
HETATM   20  O5  UNL     1      -1.315  -0.669   3.133  1.00  0.00    -0.591 OA
HETATM   21  O6  UNL     1       1.142  -0.507   3.200  1.00  0.00    -0.591 OA
ENDBRANCH  11  18
BRANCH   3  22
HETATM   22  O8  UNL     1      -0.286   3.308   1.344  1.00  0.00    -0.326 OA
HETATM   23  C14 UNL     1      -0.253   2.449   2.453  1.00  0.00     0.181 C 
ENDBRANCH   3  22
TORSDOF 2
