REMARK  4 active torsions:
REMARK  status: ('A' for Active; 'I' for Inactive)
REMARK    1  A    between atoms: C3_3  and  O8_22 
REMARK    2  A    between atoms: C10_11  and  S1_17 
REMARK    3  A    between atoms: O8_22  and  C14_23 
REMARK    4  A    between atoms: C15_25  and  C19_32 
ROOT
HETATM    1  C1  UNL     1       2.436   2.875  -3.703  1.00  0.00     0.002 A 
HETATM    2  C2  UNL     1       2.222   2.938  -2.330  1.00  0.00     0.026 A 
HETATM    3  C3  UNL     1       2.561   1.913  -1.428  1.00  0.00     0.119 A 
HETATM    4  C4  UNL     1       3.156   0.741  -1.957  1.00  0.00     0.125 A 
HETATM    5  C5  UNL     1       3.333   0.677  -3.354  1.00  0.00     0.064 A 
HETATM    6  C6  UNL     1       2.987   1.713  -4.227  1.00  0.00     0.005 A 
HETATM    7  C7  UNL     1       3.843  -0.578  -3.958  1.00  0.00     0.201 C 
HETATM    8  C8  UNL     1       3.724  -1.778  -3.094  1.00  0.00     0.088 C 
HETATM    9  C9  UNL     1       3.608  -1.559  -1.711  1.00  0.00     0.120 C 
HETATM   10  O1  UNL     1       3.608  -0.293  -1.182  1.00  0.00    -0.304 OA
HETATM   11  C10 UNL     1       3.576  -2.696  -0.880  1.00  0.00     0.152 C 
HETATM   12  C11 UNL     1       3.485  -3.992  -1.409  1.00  0.00     0.148 C 
HETATM   13  C12 UNL     1       3.504  -4.135  -2.797  1.00  0.00     0.056 C 
HETATM   14  C13 UNL     1       3.661  -3.058  -3.669  1.00  0.00     0.138 C 
HETATM   15  O2  UNL     1       3.682  -3.290  -5.010  1.00  0.00    -0.190 OA
HETATM   16  O3  UNL     1       3.362  -5.110  -0.643  1.00  0.00    -0.189 OA
HETATM   17  O7  UNL     1       4.227  -0.629  -5.122  1.00  0.00    -0.286 OA
ENDROOT
BRANCH   3  18
HETATM   18  O8  UNL     1       2.237   2.216  -0.126  1.00  0.00    -0.302 OA
BRANCH  18  19
HETATM   19  C14 UNL     1       2.420   1.339   0.959  1.00  0.00     0.274 C 
HETATM   20  O9  UNL     1       1.395   1.779   1.837  1.00  0.00    -0.326 OA
HETATM   21  C15 UNL     1       1.377   1.081   3.054  1.00  0.00     0.184 C 
HETATM   22  C16 UNL     1       2.687   1.330   3.793  1.00  0.00     0.215 C 
HETATM   23  C17 UNL     1       3.836   0.850   2.934  1.00  0.00     0.220 C 
HETATM   24  O12 UNL     1       2.727   0.631   5.014  1.00  0.00    -0.218 OA
HETATM   25  C18 UNL     1       3.772   1.561   1.599  1.00  0.00     0.241 C 
HETATM   26  O11 UNL     1       5.057   1.120   3.571  1.00  0.00    -0.218 OA
HETATM   27  O10 UNL     1       4.806   1.110   0.759  1.00  0.00    -0.215 OA
BRANCH  21  28
HETATM   28  C19 UNL     1       0.180   1.547   3.869  1.00  0.00     0.214 C 
HETATM   29  O13 UNL     1      -1.023   1.232   3.195  1.00  0.00    -0.218 OA
ENDBRANCH  21  28
ENDBRANCH  18  19
ENDBRANCH   3  18
BRANCH  11  30
HETATM   30  S1  UNL     1       3.843  -2.470   0.879  1.00  0.00     0.143 S 
HETATM   31  O4  UNL     1       4.465  -3.801   1.649  1.00  0.00    -0.591 OA
HETATM   32  O5  UNL     1       2.574  -2.118   1.487  1.00  0.00    -0.591 OA
HETATM   33  O6  UNL     1       4.893  -1.474   1.011  1.00  0.00    -0.591 OA
ENDBRANCH  11  30
TORSDOF 4
