REMARK  3 active torsions:
REMARK  status: ('A' for Active; 'I' for Inactive)
REMARK    1  A    between atoms: C4_4  and  O4_12 
REMARK    2  A    between atoms: C5_5  and  C8_9 
REMARK    3  A    between atoms: C6_6  and  O1_7 
ROOT
HETATM    1  C1  UNL     1       1.508   0.815  -0.423  1.00  0.00     0.052 A 
HETATM    2  C2  UNL     1       2.042  -0.366  -0.088  1.00  0.00     0.135 A 
HETATM    3  C3  UNL     1       1.186  -1.363   0.164  1.00  0.00     0.052 A 
HETATM    4  C4  UNL     1      -0.150  -1.212   0.132  1.00  0.00     0.104 A 
HETATM    5  C5  UNL     1      -0.649  -0.011  -0.261  1.00  0.00     0.109 A 
HETATM    6  C6  UNL     1       0.181   1.034  -0.526  1.00  0.00     0.104 A 
HETATM    7  O5  UNL     1       3.387  -0.558  -0.025  1.00  0.00    -0.190 OA
ENDROOT
BRANCH   5   8
HETATM    8  C8  UNL     1      -2.006   0.157  -0.374  1.00  0.00     0.215 C 
HETATM    9  O2  UNL     1      -2.511   1.204  -0.712  1.00  0.00    -0.644 OA
HETATM   10  O3  UNL     1      -2.934  -0.796  -0.127  1.00  0.00    -0.644 OA
ENDBRANCH   5   8
BRANCH   4  11
HETATM   11  O4  UNL     1      -0.913  -2.330   0.368  1.00  0.00    -0.328 OA
HETATM   12  C9  UNL     1      -1.158  -2.578   1.735  1.00  0.00     0.181 C 
ENDBRANCH   4  11
BRANCH   6  13
HETATM   13  O1  UNL     1      -0.324   2.264  -0.894  1.00  0.00    -0.328 OA
HETATM   14  C7  UNL     1       0.548   3.340  -1.156  1.00  0.00     0.181 C 
ENDBRANCH   6  13
TORSDOF 3
