REMARK  1 active torsions:
REMARK  status: ('A' for Active; 'I' for Inactive)
REMARK    1  A    between atoms: C12_13  and  O3_17 
ROOT
HETATM    1  C1  UNL     1      -0.506   3.636  -1.585  1.00  0.00     0.023 A 
HETATM    2  C2  UNL     1      -0.562   3.945  -0.227  1.00  0.00     0.133 A 
HETATM    3  C3  UNL     1      -0.527   2.872   0.664  1.00  0.00     0.052 A 
HETATM    4  C4  UNL     1      -0.435   1.538   0.253  1.00  0.00     0.105 A 
HETATM    5  C5  UNL     1      -0.381   1.266  -1.128  1.00  0.00     0.058 A 
HETATM    6  C6  UNL     1      -0.416   2.324  -2.065  1.00  0.00    -0.015 A 
HETATM    7  C7  UNL     1      -0.366   2.208  -3.575  1.00  0.00     0.031 C 
HETATM    8  C8  UNL     1      -0.287  -0.164  -1.532  1.00  0.00     0.201 A 
HETATM    9  C9  UNL     1      -0.258  -1.183  -0.448  1.00  0.00     0.087 A 
HETATM   10  C10 UNL     1      -0.320  -0.728   0.879  1.00  0.00     0.107 A 
HETATM   11  O1  UNL     1      -0.406   0.586   1.228  1.00  0.00    -0.307 OA
HETATM   12  C11 UNL     1      -0.282  -1.676   1.907  1.00  0.00     0.049 A 
HETATM   13  C12 UNL     1      -0.215  -3.058   1.690  1.00  0.00     0.098 A 
HETATM   14  C13 UNL     1      -0.140  -3.447   0.350  1.00  0.00     0.052 A 
HETATM   15  C14 UNL     1      -0.167  -2.562  -0.732  1.00  0.00     0.138 A 
HETATM   16  O2  UNL     1      -0.090  -3.095  -1.983  1.00  0.00    -0.190 OA
HETATM   17  O4  UNL     1      -0.233  -0.519  -2.703  1.00  0.00    -0.286 OA
HETATM   18  O5  UNL     1      -0.653   5.227   0.214  1.00  0.00    -0.190 OA
ENDROOT
BRANCH  13  19
HETATM   19  O3  UNL     1      -0.153  -4.019   2.669  1.00  0.00    -0.328 OA
HETATM   20  C15 UNL     1       0.036  -3.603   4.002  1.00  0.00     0.181 C 
ENDBRANCH  13  19
TORSDOF 1
