REMARK  3 active torsions:
REMARK  status: ('A' for Active; 'I' for Inactive)
REMARK    1  A    between atoms: C1_1  and  C15_20 
REMARK    2  A    between atoms: C2_2  and  O5_18 
REMARK    3  A    between atoms: C15_20  and  C16_21 
ROOT
HETATM    1  C1  UNL     1      -0.022   1.522   0.180  1.00  0.00     0.030 C 
HETATM    2  C2  UNL     1      -0.523   1.770   1.469  1.00  0.00     0.094 C 
HETATM    3  C3  UNL     1      -0.707   0.663   2.305  1.00  0.00     0.049 C 
HETATM    4  C4  UNL     1      -0.280  -0.630   1.999  1.00  0.00     0.107 A 
HETATM    5  C5  UNL     1       0.316  -0.816   0.742  1.00  0.00     0.087 A 
HETATM    6  C6  UNL     1       0.443   0.244  -0.175  1.00  0.00     0.134 C 
HETATM    7  O1  UNL     1       0.954   0.044  -1.422  1.00  0.00    -0.190 OA
HETATM    8  C7  UNL     1       0.771  -2.185   0.381  1.00  0.00     0.201 A 
HETATM    9  C8  UNL     1       0.442  -3.252   1.358  1.00  0.00     0.064 A 
HETATM   10  C9  UNL     1      -0.176  -2.902   2.568  1.00  0.00     0.103 A 
HETATM   11  O2  UNL     1      -0.472  -1.619   2.920  1.00  0.00    -0.307 OA
HETATM   12  C10 UNL     1      -0.475  -3.948   3.448  1.00  0.00     0.027 A 
HETATM   13  C11 UNL     1      -0.179  -5.279   3.147  1.00  0.00     0.029 A 
HETATM   14  C12 UNL     1       0.439  -5.625   1.943  1.00  0.00     0.131 A 
HETATM   15  C13 UNL     1       0.742  -4.589   1.056  1.00  0.00     0.033 A 
HETATM   16  O3  UNL     1       0.737  -6.916   1.639  1.00  0.00    -0.190 OA
HETATM   17  O4  UNL     1       1.377  -2.452  -0.654  1.00  0.00    -0.286 OA
ENDROOT
BRANCH   1  18
HETATM   18  C15 UNL     1       0.057   2.641  -0.844  1.00  0.00     0.056 C 
BRANCH  18  19
HETATM   19  C16 UNL     1      -0.840   2.334  -2.016  1.00  0.00    -0.030 C 
HETATM   20  C17 UNL     1      -0.534   2.428  -3.323  1.00  0.00    -0.048 C 
HETATM   21  C18 UNL     1      -1.547   2.060  -4.383  1.00  0.00     0.026 C 
HETATM   22  C19 UNL     1       0.787   2.910  -3.875  1.00  0.00     0.026 C 
ENDBRANCH  18  19
ENDBRANCH   1  18
BRANCH   2  23
HETATM   23  O5  UNL     1      -1.057   2.981   1.829  1.00  0.00    -0.328 OA
HETATM   24  C14 UNL     1      -0.145   3.816   2.505  1.00  0.00     0.181 C 
ENDBRANCH   2  23
TORSDOF 3
