REMARK  0 active torsions:
REMARK  status: ('A' for Active; 'I' for Inactive)
ROOT
HETATM    1  C1  UNL     1      -0.239  -0.786  -0.276  1.00  0.00     0.028 A 
HETATM    2  C2  UNL     1       0.097  -2.131  -0.170  1.00  0.00     0.002 A 
HETATM    3  C3  UNL     1       1.430  -2.487   0.040  1.00  0.00     0.003 A 
HETATM    4  C4  UNL     1       2.406  -1.493   0.152  1.00  0.00     0.044 A 
HETATM    5  C5  UNL     1       2.058  -0.131   0.053  1.00  0.00     0.067 A 
HETATM    6  C6  UNL     1       0.716   0.237  -0.165  1.00  0.00     0.134 A 
HETATM    7  O1  UNL     1       0.289   1.522  -0.315  1.00  0.00    -0.190 OA
HETATM    8  C7  UNL     1       3.118   0.908   0.182  1.00  0.00     0.200 C 
HETATM    9  C8  UNL     1       4.549   0.492   0.153  1.00  0.00     0.067 A 
HETATM   10  C9  UNL     1       4.865  -0.876   0.261  1.00  0.00     0.044 A 
HETATM   11  C10 UNL     1       3.812  -1.916   0.363  1.00  0.00     0.196 C 
HETATM   12  O2  UNL     1       4.098  -3.094   0.568  1.00  0.00    -0.287 OA
HETATM   13  C11 UNL     1       6.198  -1.292   0.262  1.00  0.00     0.003 A 
HETATM   14  C12 UNL     1       7.214  -0.344   0.137  1.00  0.00    -0.002 A 
HETATM   15  C13 UNL     1       6.913   1.011   0.006  1.00  0.00     0.004 A 
HETATM   16  C14 UNL     1       5.574   1.450   0.021  1.00  0.00     0.130 A 
HETATM   17  O3  UNL     1       5.329   2.781  -0.142  1.00  0.00    -0.190 OA
HETATM   18  C15 UNL     1       8.068   1.974  -0.150  1.00  0.00     0.033 C 
HETATM   19  O4  UNL     1       2.812   2.082   0.348  1.00  0.00    -0.286 OA
ENDROOT
TORSDOF 0
