REMARK  16 active torsions:
REMARK  status: ('A' for Active; 'I' for Inactive)
REMARK    1  A    between atoms: O1_1  and  C1_2 
REMARK    2  A    between atoms: O1_1  and  C18_21 
REMARK    3  A    between atoms: C1_2  and  C2_3 
REMARK    4  A    between atoms: C2_3  and  C3_4 
REMARK    5  A    between atoms: C3_4  and  C4_5 
REMARK    6  A    between atoms: C4_5  and  C5_6 
REMARK    7  A    between atoms: C5_6  and  C6_7 
REMARK    8  A    between atoms: C6_7  and  C7_8 
REMARK    9  A    between atoms: C7_8  and  C8_9 
REMARK   10  A    between atoms: C8_9  and  C9_10 
REMARK   11  A    between atoms: C9_10  and  C10_11 
REMARK   12  A    between atoms: C10_11  and  C11_12 
REMARK   13  A    between atoms: C11_12  and  C12_13 
REMARK   14  A    between atoms: C12_13  and  C13_14 
REMARK   15  A    between atoms: C13_14  and  C14_15 
REMARK   16  A    between atoms: C14_15  and  C15_16 
ROOT
HETATM    1  C15 UNL     1      10.992  -6.421  -4.481  1.00  0.00     0.077 C 
HETATM    2  C16 UNL     1      11.066  -7.267  -5.685  1.00  0.00    -0.078 C 
HETATM    3  C17 UNL     1      11.123  -7.962  -6.676  1.00  0.00    -0.014 C 
ENDROOT
BRANCH   1   4
HETATM    4  C14 UNL     1       9.674  -5.636  -4.443  1.00  0.00     0.014 C 
BRANCH   4   5
HETATM    5  C13 UNL     1       9.574  -4.748  -3.191  1.00  0.00     0.001 C 
BRANCH   5   6
HETATM    6  C12 UNL     1       8.253  -3.963  -3.146  1.00  0.00     0.000 C 
BRANCH   6   7
HETATM    7  C11 UNL     1       8.148  -3.080  -1.891  1.00  0.00     0.000 C 
BRANCH   7   8
HETATM    8  C10 UNL     1       6.824  -2.300  -1.851  1.00  0.00     0.000 C 
BRANCH   8   9
HETATM    9  C9  UNL     1       6.710  -1.412  -0.601  1.00  0.00     0.000 C 
BRANCH   9  10
HETATM   10  C8  UNL     1       5.387  -0.629  -0.580  1.00  0.00     0.000 C 
BRANCH  10  11
HETATM   11  C7  UNL     1       5.270   0.290   0.647  1.00  0.00     0.000 C 
BRANCH  11  12
HETATM   12  C6  UNL     1       3.945   1.071   0.641  1.00  0.00     0.003 C 
BRANCH  12  13
HETATM   13  C5  UNL     1       3.835   2.051   1.823  1.00  0.00     0.033 C 
BRANCH  13  14
HETATM   14  C4  UNL     1       2.481   2.764   1.883  1.00  0.00     0.155 C 
HETATM   15  O2  UNL     1       2.281   3.506   0.704  1.00  0.00    -0.223 OA
BRANCH  14  16
HETATM   16  C3  UNL     1       2.374   3.701   3.091  1.00  0.00     0.069 C 
BRANCH  16  17
HETATM   17  C2  UNL     1       1.071   4.504   3.119  1.00  0.00     0.185 C 
HETATM   18  O3  UNL     1       1.098   5.467   2.090  1.00  0.00    -0.221 OA
BRANCH  17  19
HETATM   19  C1  UNL     1       0.870   5.228   4.446  1.00  0.00     0.185 C 
BRANCH  19  20
HETATM   20  O1  UNL     1      -0.339   5.944   4.462  1.00  0.00    -0.299 OA
BRANCH  20  21
HETATM   21  C18 UNL     1      -1.485   5.229   4.623  1.00  0.00     0.273 C 
HETATM   22  C19 UNL     1      -2.701   6.125   4.493  1.00  0.00     0.106 C 
HETATM   23  O4  UNL     1      -1.540   4.037   4.823  1.00  0.00    -0.264 OA
ENDBRANCH  20  21
ENDBRANCH  19  20
ENDBRANCH  17  19
ENDBRANCH  16  17
ENDBRANCH  14  16
ENDBRANCH  13  14
ENDBRANCH  12  13
ENDBRANCH  11  12
ENDBRANCH  10  11
ENDBRANCH   9  10
ENDBRANCH   8   9
ENDBRANCH   7   8
ENDBRANCH   6   7
ENDBRANCH   5   6
ENDBRANCH   4   5
ENDBRANCH   1   4
TORSDOF 16
