REMARK  1 active torsions:
REMARK  status: ('A' for Active; 'I' for Inactive)
REMARK    1  A    between atoms: C10_13  and  O3_14 
ROOT
HETATM    1  C1  UNL     1      -3.210  -1.203   0.592  1.00  0.00     0.119 A 
HETATM    2  C2  UNL     1      -2.075  -1.887   0.414  1.00  0.00     0.026 A 
HETATM    3  C3  UNL     1      -0.921  -1.212   0.237  1.00  0.00     0.035 A 
HETATM    4  C4  UNL     1      -0.919   0.140   0.187  1.00  0.00    -0.016 A 
HETATM    5  C5  UNL     1      -2.061   0.810   0.442  1.00  0.00     0.022 A 
HETATM    6  C6  UNL     1      -3.199   0.131   0.620  1.00  0.00     0.119 A 
HETATM    7  O1  UNL     1      -4.320   0.584   0.833  1.00  0.00    -0.300 OA
HETATM    8  C7  UNL     1      -5.211  -0.527   0.952  1.00  0.00     0.304 A 
HETATM    9  O2  UNL     1      -4.340  -1.646   0.779  1.00  0.00    -0.300 OA
HETATM   10  C8  UNL     1       0.398   0.884  -0.038  1.00  0.00     0.081 C 
HETATM   11  C9  UNL     1       1.472  -0.026  -0.661  1.00  0.00     0.229 C 
HETATM   12  N1  UNL     1       1.535  -1.107   0.305  1.00  0.00     0.165 N 
HETATM   13  C10 UNL     1       0.382  -1.988   0.121  1.00  0.00     0.360 C 
HETATM   14  C12 UNL     1       1.547  -0.429   1.604  1.00  0.00     0.254 C 
HETATM   15  C13 UNL     1       0.978   0.992   1.387  1.00  0.00     0.044 C 
HETATM   16  C14 UNL     1       2.860   0.639  -0.834  1.00  0.00     0.036 C 
HETATM   17  C15 UNL     1       2.788   2.145  -1.132  1.00  0.00     0.038 C 
HETATM   18  C16 UNL     1       1.452   2.461  -1.778  1.00  0.00     0.183 C 
HETATM   19  C17 UNL     1       0.272   2.179  -0.856  1.00  0.00     0.188 C 
HETATM   20  O4  UNL     1      -0.834   2.124  -1.730  1.00  0.00    -0.220 OA
HETATM   21  O5  UNL     1       1.395   3.809  -2.175  1.00  0.00    -0.221 OA
ENDROOT
BRANCH  13  22
HETATM   22  O3  UNL     1       0.415  -3.078   1.036  1.00  0.00    -0.323 OA
HETATM   23  C11 UNL     1       1.454  -3.994   0.765  1.00  0.00     0.177 C 
ENDBRANCH  13  22
TORSDOF 1
