REMARK  0 active torsions:
REMARK  status: ('A' for Active; 'I' for Inactive)
ROOT
HETATM    1  C1  UNL     1      -1.932   0.590   0.070  1.00  0.00     0.000 A 
HETATM    2  C2  UNL     1      -1.910  -0.817   0.007  1.00  0.00     0.002 A 
HETATM    3  C3  UNL     1      -0.709  -1.517  -0.039  1.00  0.00     0.018 A 
HETATM    4  C4  UNL     1       0.487  -0.783  -0.024  1.00  0.00     0.067 A 
HETATM    5  C5  UNL     1       0.461   0.626   0.039  1.00  0.00     0.020 A 
HETATM    6  C6  UNL     1      -0.753   1.328   0.087  1.00  0.00     0.002 A 
HETATM    7  C7  UNL     1       1.832   1.089   0.032  1.00  0.00     0.046 A 
HETATM    8  C8  UNL     1       2.622  -0.065  -0.036  1.00  0.00     0.086 A 
HETATM    9  N1  UNL     1       1.834  -1.214  -0.066  1.00  0.00    -0.273 N 
HETATM   10  C9  UNL     1       2.446  -2.445  -0.129  1.00  0.00     0.265 A 
HETATM   11  C10 UNL     1       3.933  -2.475  -0.166  1.00  0.00     0.063 A 
HETATM   12  C11 UNL     1       4.672  -1.334  -0.140  1.00  0.00     0.025 A 
HETATM   13  C12 UNL     1       4.017  -0.034  -0.071  1.00  0.00     0.098 A 
HETATM   14  N2  UNL     1       4.629   1.163  -0.039  1.00  0.00    -0.240 NA
HETATM   15  C13 UNL     1       3.871   2.272   0.031  1.00  0.00     0.126 A 
HETATM   16  C14 UNL     1       2.466   2.331   0.073  1.00  0.00     0.151 A 
HETATM   17  O1  UNL     1       1.766   3.490   0.145  1.00  0.00    -0.189 OA
HETATM   18  O2  UNL     1       1.797  -3.492  -0.154  1.00  0.00    -0.267 OA
ENDROOT
TORSDOF 0
