REMARK  2 active torsions:
REMARK  status: ('A' for Active; 'I' for Inactive)
REMARK    1  A    between atoms: C13_14  and  C14_15 
REMARK    2  A    between atoms: C21_27  and  O7_28 
ROOT
HETATM    1  C1  UNL     1      -1.955  -0.488   0.152  1.00  0.00     0.050 C 
HETATM    2  C2  UNL     1      -2.029  -2.020  -0.032  1.00  0.00     0.037 C 
HETATM    3  C3  UNL     1      -0.674  -2.674  -0.365  1.00  0.00     0.067 C 
HETATM    4  C4  UNL     1       0.481  -2.283   0.545  1.00  0.00     0.152 C 
HETATM    5  C5  UNL     1       0.410  -0.950   1.302  1.00  0.00     0.077 C 
HETATM    6  C6  UNL     1      -0.496  -0.040   0.424  1.00  0.00     0.013 C 
HETATM    7  C7  UNL     1      -0.311   1.422   0.838  1.00  0.00     0.001 C 
HETATM    8  C8  UNL     1       1.096   1.925   0.468  1.00  0.00     0.005 C 
HETATM    9  C9  UNL     1       2.228   0.863   0.538  1.00  0.00     0.056 C 
HETATM   10  C10 UNL     1       1.821  -0.306   1.441  1.00  0.00     0.136 A 
HETATM   11  C11 UNL     1       2.856  -1.008   2.153  1.00  0.00     0.226 A 
HETATM   12  C12 UNL     1       4.237  -0.649   1.789  1.00  0.00     0.302 C 
HETATM   13  O1  UNL     1       4.504   0.617   1.361  1.00  0.00    -0.298 OA
HETATM   14  C13 UNL     1       3.487   1.552   1.113  1.00  0.00     0.151 C 
HETATM   15  O3  UNL     1       5.119  -1.476   1.905  1.00  0.00    -0.261 OA
HETATM   16  O4  UNL     1       2.248  -0.038   2.968  1.00  0.00    -0.346 OA
HETATM   17  C18 UNL     1       2.585   0.327  -0.874  1.00  0.00     0.005 C 
HETATM   18  C19 UNL     1      -0.197  -1.308   2.678  1.00  0.00     0.010 C 
HETATM   19  O5  UNL     1       1.443  -3.011   0.640  1.00  0.00    -0.296 OA
HETATM   20  C20 UNL     1      -3.163  -2.230  -1.051  1.00  0.00     0.096 C 
HETATM   21  O6  UNL     1      -3.533  -0.971  -1.524  1.00  0.00    -0.340 OA
HETATM   22  C21 UNL     1      -2.560  -0.008  -1.198  1.00  0.00     0.187 C 
HETATM   23  C23 UNL     1      -1.599   0.158  -2.376  1.00  0.00     0.061 C 
HETATM   24  C24 UNL     1      -4.400  -2.860  -0.386  1.00  0.00     0.030 C 
HETATM   25  C25 UNL     1      -2.818  -3.119  -2.255  1.00  0.00     0.030 C 
HETATM   26  C26 UNL     1      -2.893  -0.052   1.311  1.00  0.00     0.005 C 
ENDROOT
BRANCH  14  27
HETATM   27  C14 UNL     1       4.023   2.685   0.273  1.00  0.00     0.032 A 
HETATM   28  C15 UNL     1       4.855   2.626  -0.776  1.00  0.00     0.121 A 
HETATM   29  O2  UNL     1       5.100   3.741  -1.234  1.00  0.00    -0.303 OA
HETATM   30  C16 UNL     1       4.497   4.573  -0.557  1.00  0.00     0.122 A 
HETATM   31  C17 UNL     1       3.791   3.998   0.423  1.00  0.00     0.027 A 
ENDBRANCH  14  27
BRANCH  22  32
HETATM   32  O7  UNL     1      -3.262   1.197  -0.965  1.00  0.00    -0.332 OA
HETATM   33  C22 UNL     1      -3.877   1.781  -2.094  1.00  0.00     0.177 C 
ENDBRANCH  22  32
TORSDOF 2
