REMARK  3 active torsions:
REMARK  status: ('A' for Active; 'I' for Inactive)
REMARK    1  A    between atoms: C10_11  and  C15_18 
REMARK    2  A    between atoms: C13_14  and  O2_15 
REMARK    3  A    between atoms: C15_18  and  C18_21 
ROOT
HETATM    1  C1  UNL     1      -0.575   4.041  -2.443  1.00  0.00     0.002 A 
HETATM    2  C2  UNL     1      -0.536   4.348  -1.141  1.00  0.00     0.029 A 
HETATM    3  C3  UNL     1      -0.451   3.383  -0.211  1.00  0.00     0.154 A 
HETATM    4  C4  UNL     1      -0.399   2.090  -0.594  1.00  0.00     0.128 A 
HETATM    5  C5  UNL     1      -0.429   1.776  -1.900  1.00  0.00     0.064 A 
HETATM    6  C6  UNL     1      -0.521   2.756  -2.820  1.00  0.00     0.005 A 
HETATM    7  C7  UNL     1      -0.358   0.470  -2.280  1.00  0.00     0.201 A 
HETATM    8  C8  UNL     1      -0.239  -0.517  -1.338  1.00  0.00     0.086 A 
HETATM    9  C9  UNL     1      -0.216  -0.167  -0.029  1.00  0.00     0.101 A 
HETATM   10  O1  UNL     1      -0.313   1.132   0.364  1.00  0.00    -0.305 OA
HETATM   11  C10 UNL     1      -0.106  -1.121   0.924  1.00  0.00     0.006 A 
HETATM   12  C11 UNL     1      -0.023  -2.398   0.520  1.00  0.00     0.027 A 
HETATM   13  C12 UNL     1      -0.052  -2.762  -0.767  1.00  0.00     0.153 A 
HETATM   14  C13 UNL     1      -0.125  -1.815  -1.722  1.00  0.00     0.124 A 
HETATM   15  O3  UNL     1       0.021  -4.085  -1.087  1.00  0.00    -0.188 OA
HETATM   16  O4  UNL     1      -0.379   0.243  -3.471  1.00  0.00    -0.286 OA
HETATM   17  O5  UNL     1      -0.411   3.717   1.109  1.00  0.00    -0.188 OA
ENDROOT
BRANCH  11  18
HETATM   18  C15 UNL     1      -0.088  -0.873   2.445  1.00  0.00     0.039 C 
HETATM   19  C16 UNL     1      -1.344  -1.542   3.059  1.00  0.00     0.009 C 
HETATM   20  C17 UNL     1      -0.086   0.581   2.969  1.00  0.00     0.009 C 
BRANCH  18  21
HETATM   21  C18 UNL     1       1.174  -1.517   2.997  1.00  0.00    -0.023 C 
HETATM   22  C19 UNL     1       2.409  -1.186   2.594  1.00  0.00    -0.005 C 
ENDBRANCH  18  21
ENDBRANCH  11  18
BRANCH  14  23
HETATM   23  O2  UNL     1      -0.210  -2.248  -3.027  1.00  0.00    -0.326 OA
HETATM   24  C14 UNL     1       1.036  -2.401  -3.670  1.00  0.00     0.181 C 
ENDBRANCH  14  23
TORSDOF 3
