REMARK  3 active torsions:
REMARK  status: ('A' for Active; 'I' for Inactive)
REMARK    1  A    between atoms: C2_3  and  O2_4 
REMARK    2  A    between atoms: C11_14  and  O3_20 
REMARK    3  A    between atoms: O3_20  and  C17_21 
ROOT
HETATM    1  O1  UNL     1      -2.325  -2.807   1.077  1.00  0.00    -0.188 OA
HETATM    2  C1  UNL     1      -1.216  -2.036   0.917  1.00  0.00     0.153 A 
HETATM    3  C2  UNL     1      -1.306  -0.635   0.958  1.00  0.00     0.119 A 
HETATM    4  C4  UNL     1      -0.113   0.084   0.801  1.00  0.00     0.022 A 
HETATM    5  C5  UNL     1       1.127  -0.519   0.562  1.00  0.00    -0.018 A 
HETATM    6  C6  UNL     1       1.206  -1.921   0.545  1.00  0.00     0.009 A 
HETATM    7  C7  UNL     1       0.024  -2.647   0.713  1.00  0.00     0.027 A 
HETATM    8  C8  UNL     1       2.515  -2.670   0.349  1.00  0.00     0.277 C 
HETATM    9  N1  UNL     1       3.646  -1.772   0.476  1.00  0.00     0.144 N 
HETATM   10  C9  UNL     1       3.421  -0.574  -0.285  1.00  0.00     0.244 C 
HETATM   11  C10 UNL     1       2.379   0.315   0.386  1.00  0.00     0.086 C 
HETATM   12  C11 UNL     1       2.294   1.605  -0.448  1.00  0.00     0.135 C 
HETATM   13  C12 UNL     1       3.663   2.319  -0.494  1.00  0.00     0.056 C 
HETATM   14  C13 UNL     1       4.874   1.412  -0.485  1.00  0.00    -0.030 C 
HETATM   15  C14 UNL     1       4.749   0.086  -0.369  1.00  0.00    -0.015 C 
HETATM   16  C15 UNL     1       5.798  -0.977  -0.182  1.00  0.00     0.059 C 
HETATM   17  C16 UNL     1       4.929  -2.253  -0.016  1.00  0.00     0.255 C 
ENDROOT
BRANCH  12  18
HETATM   18  O3  UNL     1       1.885   1.269  -1.745  1.00  0.00    -0.304 OA
BRANCH  18  19
HETATM   19  C17 UNL     1       0.950   1.952  -2.464  1.00  0.00     0.272 C 
HETATM   20  O4  UNL     1       0.623   1.605  -3.580  1.00  0.00    -0.264 OA
HETATM   21  C18 UNL     1       0.335   3.181  -1.819  1.00  0.00     0.106 C 
ENDBRANCH  18  19
ENDBRANCH  12  18
BRANCH   3  22
HETATM   22  O2  UNL     1      -2.532  -0.069   1.211  1.00  0.00    -0.326 OA
HETATM   23  C3  UNL     1      -2.586   1.299   1.548  1.00  0.00     0.181 C 
ENDBRANCH   3  22
TORSDOF 3
