REMARK  3 active torsions:
REMARK  status: ('A' for Active; 'I' for Inactive)
REMARK    1  A    between atoms: C4_4  and  C7_8 
REMARK    2  A    between atoms: C7_8  and  O3_10 
REMARK    3  A    between atoms: O3_10  and  C8_11 
ROOT
HETATM    1  C7  UNL     1      -0.105   1.187  -0.188  1.00  0.00     0.298 C 
HETATM    2  O2  UNL     1      -1.311   1.400  -0.106  1.00  0.00    -0.259 OA
ENDROOT
BRANCH   1   3
HETATM    3  C4  UNL     1       0.796   2.328  -0.508  1.00  0.00     0.068 A 
HETATM    4  C3  UNL     1       2.185   2.143  -0.497  1.00  0.00     0.035 A 
HETATM    5  C2  UNL     1       3.053   3.189  -0.815  1.00  0.00     0.158 A 
HETATM    6  C1  UNL     1       2.520   4.439  -1.166  1.00  0.00     0.181 A 
HETATM    7  O8  UNL     1       4.397   2.987  -0.785  1.00  0.00    -0.188 OA
HETATM    8  C6  UNL     1       1.135   4.643  -1.171  1.00  0.00     0.158 A 
HETATM    9  O9  UNL     1       3.344   5.473  -1.486  1.00  0.00    -0.186 OA
HETATM   10  C5  UNL     1       0.282   3.583  -0.847  1.00  0.00     0.035 A 
HETATM   11  O1  UNL     1       0.636   5.858  -1.524  1.00  0.00    -0.188 OA
ENDBRANCH   1   3
BRANCH   1  12
HETATM   12  O3  UNL     1       0.399  -0.070  -0.016  1.00  0.00    -0.270 OA
BRANCH  12  13
HETATM   13  C8  UNL     1      -0.472  -1.144   0.271  1.00  0.00     0.277 C 
HETATM   14  O4  UNL     1      -0.368  -1.305   1.667  1.00  0.00    -0.329 OA
HETATM   15  C9  UNL     1      -1.156  -2.350   2.169  1.00  0.00     0.151 C 
HETATM   16  C10 UNL     1      -0.851  -3.681   1.484  1.00  0.00     0.212 C 
HETATM   17  C13 UNL     1      -2.640  -1.978   2.202  1.00  0.00     0.035 C 
HETATM   18  C11 UNL     1      -0.766  -3.594  -0.030  1.00  0.00     0.220 C 
HETATM   19  O7  UNL     1       0.390  -4.160   1.954  1.00  0.00    -0.218 OA
HETATM   20  C12 UNL     1       0.031  -2.376  -0.443  1.00  0.00     0.241 C 
HETATM   21  O6  UNL     1      -2.050  -3.486  -0.595  1.00  0.00    -0.218 OA
HETATM   22  O5  UNL     1      -0.121  -2.199  -1.830  1.00  0.00    -0.215 OA
ENDBRANCH  12  13
ENDBRANCH   1  12
TORSDOF 3
