REMARK  1 active torsions:
REMARK  status: ('A' for Active; 'I' for Inactive)
REMARK    1  A    between atoms: C22_24  and  C23_25 
ROOT
HETATM    1  C1  UNL     1       4.859  -1.977  -0.510  1.00  0.00     0.067 C 
HETATM    2  C2  UNL     1       5.994  -0.994  -0.168  1.00  0.00     0.159 C 
HETATM    3  C3  UNL     1       5.613  -0.090   1.024  1.00  0.00     0.055 C 
HETATM    4  C4  UNL     1       4.170   0.373   0.967  1.00  0.00    -0.044 C 
HETATM    5  C5  UNL     1       3.440   0.231  -0.371  1.00  0.00     0.043 C 
HETATM    6  C6  UNL     1       3.518  -1.262  -0.840  1.00  0.00     0.158 C 
HETATM    7  O1  UNL     1       2.477  -2.047  -0.293  1.00  0.00    -0.223 OA
HETATM    8  C7  UNL     1       2.006   0.840  -0.301  1.00  0.00     0.006 C 
HETATM    9  C8  UNL     1       1.324   0.563   1.057  1.00  0.00     0.005 C 
HETATM   10  C9  UNL     1       2.131   1.281   2.145  1.00  0.00     0.025 C 
HETATM   11  C10 UNL     1       3.584   0.861   2.088  1.00  0.00    -0.035 C 
HETATM   12  C11 UNL     1      -0.189   0.846   0.969  1.00  0.00     0.003 C 
HETATM   13  C12 UNL     1      -0.607   1.900  -0.066  1.00  0.00     0.003 C 
HETATM   14  C13 UNL     1      -0.193   1.441  -1.484  1.00  0.00     0.000 C 
HETATM   15  C14 UNL     1       1.074   0.549  -1.494  1.00  0.00     0.000 C 
HETATM   16  C15 UNL     1      -2.107   2.178   0.233  1.00  0.00     0.032 C 
HETATM   17  C16 UNL     1      -2.313   1.650   1.660  1.00  0.00     0.118 C 
HETATM   18  C17 UNL     1      -0.936   1.281   2.225  1.00  0.00     0.030 C 
HETATM   19  O2  UNL     1      -3.135   0.498   1.584  1.00  0.00    -0.337 OA
HETATM   20  C18 UNL     1      -3.555   0.197   0.264  1.00  0.00     0.187 C 
HETATM   21  C19 UNL     1      -3.258   1.486  -0.533  1.00  0.00     0.054 C 
HETATM   22  C20 UNL     1      -4.430   2.479  -0.568  1.00  0.00     0.005 C 
HETATM   23  C21 UNL     1      -2.762  -1.027  -0.279  1.00  0.00     0.059 C 
HETATM   24  C22 UNL     1      -3.637  -1.943  -1.148  1.00  0.00     0.038 C 
HETATM   25  C24 UNL     1      -4.850  -2.436  -0.326  1.00  0.00     0.032 C 
HETATM   26  C25 UNL     1      -4.580  -3.770   0.383  1.00  0.00     0.003 C 
HETATM   27  C26 UNL     1      -5.326  -1.383   0.701  1.00  0.00     0.145 C 
HETATM   28  O3  UNL     1      -4.963  -0.078   0.272  1.00  0.00    -0.335 OA
HETATM   29  C27 UNL     1       0.115   3.209   0.291  1.00  0.00     0.000 C 
HETATM   30  C28 UNL     1       4.215   1.084  -1.391  1.00  0.00     0.007 C 
HETATM   31  O4  UNL     1       7.166  -1.719   0.150  1.00  0.00    -0.223 OA
ENDROOT
BRANCH  24  32
HETATM   32  C23 UNL     1      -2.828  -3.080  -1.783  1.00  0.00     0.159 C 
HETATM   33 CL1  UNL     1      -1.484  -2.396  -2.732  1.00  0.00    -0.097 Cl
HETATM   34 CL2  UNL     1      -3.887  -4.037  -2.853  1.00  0.00    -0.097 Cl
ENDBRANCH  24  32
TORSDOF 1
