REMARK  4 active torsions:
REMARK  status: ('A' for Active; 'I' for Inactive)
REMARK    1  A    between atoms: C1_1  and  O6_29 
REMARK    2  A    between atoms: C2_2  and  O5_27 
REMARK    3  A    between atoms: C15_19  and  C16_20 
REMARK    4  A    between atoms: C16_20  and  O3_21 
ROOT
HETATM    1  C1  UNL     1      -3.146  -0.931   0.018  1.00  0.00     0.116 A 
HETATM    2  C2  UNL     1      -2.968  -2.268  -0.151  1.00  0.00     0.118 A 
HETATM    3  C3  UNL     1      -1.716  -2.755  -0.294  1.00  0.00     0.045 A 
HETATM    4  C4  UNL     1      -0.655  -1.941  -0.275  1.00  0.00     0.079 A 
HETATM    5  C5  UNL     1      -0.839  -0.628  -0.111  1.00  0.00     0.003 A 
HETATM    6  C6  UNL     1      -2.067  -0.121   0.023  1.00  0.00     0.024 A 
HETATM    7  C7  UNL     1       0.469   0.095  -0.108  1.00  0.00     0.069 A 
HETATM    8  C8  UNL     1       1.240  -1.164  -0.376  1.00  0.00     0.057 A 
HETATM    9  N1  UNL     1       0.569  -2.234  -0.419  1.00  0.00    -0.253 NA
HETATM   10  C9  UNL     1       2.699  -0.961  -0.617  1.00  0.00     0.121 C 
HETATM   11  N2  UNL     1       2.824   0.066  -1.658  1.00  0.00    -0.157 NA
HETATM   12  C10 UNL     1       2.286   1.362  -1.237  1.00  0.00     0.108 C 
HETATM   13  C11 UNL     1       0.782   1.049  -1.278  1.00  0.00     0.091 C 
HETATM   14  C12 UNL     1       0.851   0.406  -2.658  1.00  0.00     0.289 C 
HETATM   15  O1  UNL     1       2.095  -0.267  -2.718  1.00  0.00    -0.251 OA
HETATM   16  O2  UNL     1      -0.113  -0.609  -2.850  1.00  0.00    -0.188 OA
HETATM   17  C13 UNL     1       2.778   1.802   0.118  1.00  0.00    -0.032 C 
HETATM   18  C14 UNL     1       2.497   0.778   1.188  1.00  0.00     0.031 C 
HETATM   19  C15 UNL     1       0.967   0.550   1.280  1.00  0.00     0.099 C 
HETATM   20  C18 UNL     1       3.260  -0.482   0.733  1.00  0.00     0.029 C 
HETATM   21  C19 UNL     1       3.404   2.959   0.396  1.00  0.00    -0.033 C 
HETATM   22  C20 UNL     1       3.721   4.083  -0.556  1.00  0.00     0.030 C 
ENDROOT
BRANCH  19  23
HETATM   23  C16 UNL     1       0.202   1.781   1.772  1.00  0.00     0.272 C 
HETATM   24  O4  UNL     1       0.371   2.864   1.253  1.00  0.00    -0.264 OA
BRANCH  23  25
HETATM   25  O3  UNL     1      -0.696   1.621   2.788  1.00  0.00    -0.299 OA
HETATM   26  C17 UNL     1      -0.915   0.394   3.438  1.00  0.00     0.184 C 
ENDBRANCH  23  25
ENDBRANCH  19  23
BRANCH   1  27
HETATM   27  O6  UNL     1      -4.438  -0.468   0.142  1.00  0.00    -0.326 OA
HETATM   28  C22 UNL     1      -4.674   0.920   0.074  1.00  0.00     0.181 C 
ENDBRANCH   1  27
BRANCH   2  29
HETATM   29  O5  UNL     1      -4.097  -3.058  -0.157  1.00  0.00    -0.326 OA
HETATM   30  C21 UNL     1      -3.959  -4.458  -0.243  1.00  0.00     0.181 C 
ENDBRANCH   2  29
TORSDOF 4
