REMARK  5 active torsions:
REMARK  status: ('A' for Active; 'I' for Inactive)
REMARK    1  A    between atoms: C2_2  and  O4_26 
REMARK    2  A    between atoms: C14_14  and  C15_15 
REMARK    3  A    between atoms: C15_15  and  O1_18 
REMARK    4  A    between atoms: O1_18  and  C18_19 
REMARK    5  A    between atoms: O4_26  and  C23_27 
ROOT
HETATM    1  C1  UNL     1       1.762  -0.750   0.697  1.00  0.00     0.034 C 
HETATM    2  C2  UNL     1       3.151  -0.749   1.383  1.00  0.00     0.127 C 
HETATM    3  C3  UNL     1       3.904   0.567   1.684  1.00  0.00     0.065 C 
HETATM    4  C4  UNL     1       4.084   1.692   0.643  1.00  0.00     0.147 C 
HETATM    5  C5  UNL     1       2.954   2.699   0.719  1.00  0.00    -0.001 C 
HETATM    6  C6  UNL     1       2.346   3.337  -0.294  1.00  0.00    -0.028 C 
HETATM    7  C7  UNL     1       1.239   4.344  -0.060  1.00  0.00     0.030 C 
HETATM    8  C8  UNL     1      -0.155   3.686  -0.026  1.00  0.00     0.026 C 
HETATM    9  C9  UNL     1      -0.088   2.499   0.915  1.00  0.00    -0.031 C 
HETATM   10  C10 UNL     1       0.279   1.276   0.505  1.00  0.00    -0.031 C 
HETATM   11  C11 UNL     1       0.575   0.044   1.343  1.00  0.00     0.021 C 
HETATM   12  C12 UNL     1      -0.651  -0.886   1.221  1.00  0.00     0.004 C 
HETATM   13  C13 UNL     1      -0.058  -2.292   1.262  1.00  0.00     0.003 C 
HETATM   14  C14 UNL     1       1.243  -2.204   0.439  1.00  0.00     0.028 C 
HETATM   15  C20 UNL     1       0.755   0.366   2.839  1.00  0.00     0.004 C 
HETATM   16  C21 UNL     1      -0.656   3.360  -1.444  1.00  0.00     0.005 C 
HETATM   17  O3  UNL     1       5.227   2.433   1.041  1.00  0.00    -0.221 OA
HETATM   18  C22 UNL     1       4.402   1.189  -0.765  1.00  0.00     0.038 C 
ENDROOT
BRANCH  14  19
HETATM   19  C15 UNL     1       1.102  -2.640  -1.051  1.00  0.00     0.101 C 
HETATM   20  C16 UNL     1       0.724  -4.139  -1.117  1.00  0.00     0.030 C 
HETATM   21  C17 UNL     1       2.425  -2.546  -1.832  1.00  0.00     0.030 C 
BRANCH  19  22
HETATM   22  O1  UNL     1       0.035  -1.961  -1.644  1.00  0.00    -0.307 OA
BRANCH  22  23
HETATM   23  C18 UNL     1       0.164  -0.900  -2.484  1.00  0.00     0.272 C 
HETATM   24  C19 UNL     1      -1.211  -0.445  -2.939  1.00  0.00     0.106 C 
HETATM   25  O2  UNL     1       1.189  -0.359  -2.826  1.00  0.00    -0.264 OA
ENDBRANCH  22  23
ENDBRANCH  19  22
ENDBRANCH  14  19
BRANCH   2  26
HETATM   26  O4  UNL     1       4.014  -1.562   0.629  1.00  0.00    -0.304 OA
BRANCH  26  27
HETATM   27  C23 UNL     1       4.928  -2.338   1.274  1.00  0.00     0.272 C 
HETATM   28  C24 UNL     1       5.791  -3.076   0.270  1.00  0.00     0.106 C 
HETATM   29  O5  UNL     1       5.050  -2.428   2.475  1.00  0.00    -0.264 OA
ENDBRANCH  26  27
ENDBRANCH   2  26
TORSDOF 5
