REMARK  16 active torsions:
REMARK  status: ('A' for Active; 'I' for Inactive)
REMARK    1  A    between atoms: C3_3  and  O3_12 
REMARK    2  A    between atoms: C6_6  and  C7_7 
REMARK    3  A    between atoms: C7_7  and  O1_8 
REMARK    4  A    between atoms: O1_8  and  C8_9 
REMARK    5  A    between atoms: O3_12  and  C10_13 
REMARK    6  A    between atoms: C10_13  and  C11_14 
REMARK    7  A    between atoms: C11_14  and  C12_15 
REMARK    8  A    between atoms: C12_15  and  O4_16 
REMARK    9  A    between atoms: O4_16  and  C13_17 
REMARK   10  A    between atoms: C17_23  and  C25_33 
REMARK   11  A    between atoms: C18_24  and  O7_26 
REMARK   12  A    between atoms: O7_26  and  C20_27 
REMARK   13  A    between atoms: C20_27  and  C21_28 
REMARK   14  A    between atoms: C21_28  and  C22_29 
REMARK   15  A    between atoms: C25_33  and  O9_34 
REMARK   16  A    between atoms: O9_34  and  C26_35 
ROOT
HETATM    1  C1  UNL     1       2.313  -0.878   1.370  1.00  0.00    -0.021 C 
HETATM    2  C2  UNL     1       3.701  -0.534   0.878  1.00  0.00     0.083 C 
HETATM    3  C3  UNL     1       4.704  -1.355   1.689  1.00  0.00     0.135 C 
HETATM    4  C4  UNL     1       4.358  -2.847   1.586  1.00  0.00     0.056 C 
HETATM    5  C5  UNL     1       2.922  -3.136   1.930  1.00  0.00    -0.026 C 
HETATM    6  C6  UNL     1       1.942  -2.214   1.850  1.00  0.00    -0.000 C 
HETATM    7  C17 UNL     1       3.703   1.009   0.984  1.00  0.00     0.190 C 
HETATM    8  C18 UNL     1       2.219   1.399   0.785  1.00  0.00     0.176 C 
HETATM    9  C19 UNL     1       1.507   0.194   1.330  1.00  0.00     0.002 C 
HETATM   10  O11 UNL     1       4.067   1.373   2.292  1.00  0.00    -0.220 OA
ENDROOT
BRANCH   3  11
HETATM   11  O3  UNL     1       5.999  -1.204   1.194  1.00  0.00    -0.303 OA
BRANCH  11  12
HETATM   12  C10 UNL     1       6.882  -0.434   1.869  1.00  0.00     0.274 C 
HETATM   13  O6  UNL     1       6.575   0.304   2.779  1.00  0.00    -0.264 OA
BRANCH  12  14
HETATM   14  C11 UNL     1       8.316  -0.638   1.391  1.00  0.00     0.123 C 
BRANCH  14  15
HETATM   15  C12 UNL     1       8.639  -1.327   0.035  1.00  0.00     0.111 C 
HETATM   16  C15 UNL     1       8.505  -2.846   0.219  1.00  0.00     0.031 C 
HETATM   17  C16 UNL     1       7.729  -0.781  -1.076  1.00  0.00     0.031 C 
BRANCH  15  18
HETATM   18  O4  UNL     1       9.957  -0.940  -0.234  1.00  0.00    -0.306 OA
BRANCH  18  19
HETATM   19  C13 UNL     1      10.822  -1.430  -1.168  1.00  0.00     0.272 C 
HETATM   20  O5  UNL     1      11.930  -0.952  -1.300  1.00  0.00    -0.264 OA
HETATM   21  C14 UNL     1      10.406  -2.596  -2.045  1.00  0.00     0.106 C 
ENDBRANCH  18  19
ENDBRANCH  15  18
ENDBRANCH  14  15
ENDBRANCH  12  14
ENDBRANCH  11  12
ENDBRANCH   3  11
BRANCH   7  22
HETATM   22  C25 UNL     1       4.594   1.782   0.014  1.00  0.00     0.185 C 
BRANCH  22  23
HETATM   23  O9  UNL     1       5.891   1.936   0.524  1.00  0.00    -0.299 OA
BRANCH  23  24
HETATM   24  C26 UNL     1       6.688   2.830  -0.127  1.00  0.00     0.273 C 
HETATM   25  C27 UNL     1       7.994   3.048   0.609  1.00  0.00     0.106 C 
HETATM   26  O10 UNL     1       6.386   3.401  -1.151  1.00  0.00    -0.264 OA
ENDBRANCH  23  24
ENDBRANCH  22  23
ENDBRANCH   7  22
BRANCH   6  27
HETATM   27  C7  UNL     1       0.512  -2.557   2.208  1.00  0.00     0.178 C 
BRANCH  27  28
HETATM   28  O1  UNL     1      -0.304  -2.453   1.061  1.00  0.00    -0.297 OA
BRANCH  28  29
HETATM   29  C8  UNL     1      -1.625  -2.795   1.087  1.00  0.00     0.273 C 
HETATM   30  O2  UNL     1      -2.341  -2.675   0.115  1.00  0.00    -0.264 OA
HETATM   31  C9  UNL     1      -2.150  -3.364   2.394  1.00  0.00     0.106 C 
ENDBRANCH  28  29
ENDBRANCH  27  28
ENDBRANCH   6  27
BRANCH   8  32
HETATM   32  O7  UNL     1       1.947   1.549  -0.587  1.00  0.00    -0.297 OA
BRANCH  32  33
HETATM   33  C20 UNL     1       0.752   2.084  -0.947  1.00  0.00     0.272 C 
HETATM   34  O8  UNL     1      -0.111   2.435  -0.175  1.00  0.00    -0.264 OA
BRANCH  33  35
HETATM   35  C21 UNL     1       0.667   2.226  -2.459  1.00  0.00     0.096 C 
BRANCH  35  36
HETATM   36  C22 UNL     1       0.665   3.696  -2.918  1.00  0.00     0.010 C 
HETATM   37  C23 UNL     1       1.930   4.435  -2.451  1.00  0.00     0.001 C 
HETATM   38  C24 UNL     1       0.538   3.776  -4.450  1.00  0.00     0.001 C 
ENDBRANCH  35  36
ENDBRANCH  33  35
ENDBRANCH  32  33
ENDBRANCH   8  32
TORSDOF 16
