REMARK  12 active torsions:
REMARK  status: ('A' for Active; 'I' for Inactive)
REMARK    1  A    between atoms: C2_2  and  O9_37 
REMARK    2  A    between atoms: C11_11  and  O1_12 
REMARK    3  A    between atoms: O1_12  and  C12_13 
REMARK    4  A    between atoms: C12_13  and  C13_14 
REMARK    5  A    between atoms: C19_21  and  O5_28 
REMARK    6  A    between atoms: O5_28  and  C24_29 
REMARK    7  A    between atoms: O9_37  and  C29_38 
REMARK    8  A    between atoms: C29_38  and  C30_39 
REMARK    9  A    between atoms: C30_39  and  C31_40 
REMARK   10  A    between atoms: C31_40  and  C32_41 
REMARK   11  A    between atoms: C31_40  and  N1_47 
REMARK       I    between atoms: N1_47  and  C38_48 
REMARK   12  A    between atoms: C38_48  and  C39_50 
ROOT
HETATM    1  C1  UNL     1       4.749   1.341   2.498  1.00  0.00    -0.022 C 
HETATM    2  C2  UNL     1       4.539  -0.168   2.312  1.00  0.00     0.142 C 
HETATM    3  C3  UNL     1       5.822  -0.918   1.892  1.00  0.00     0.037 C 
HETATM    4  C4  UNL     1       7.053  -0.008   1.671  1.00  0.00     0.034 C 
HETATM    5  C5  UNL     1       7.129   0.891   2.921  1.00  0.00     0.020 C 
HETATM    6  C6  UNL     1       5.986   1.869   2.674  1.00  0.00    -0.013 C 
HETATM    7  C7  UNL     1       6.263   3.339   2.443  1.00  0.00     0.227 C 
HETATM    8  C8  UNL     1       6.679   3.712   1.006  1.00  0.00     0.186 C 
HETATM    9  C9  UNL     1       8.001   3.319   0.314  1.00  0.00     0.087 C 
HETATM   10  C10 UNL     1       8.017   1.821  -0.194  1.00  0.00     0.067 C 
HETATM   11  C11 UNL     1       7.018   0.702   0.279  1.00  0.00     0.128 C 
HETATM   12  C19 UNL     1       9.257   1.370  -1.002  1.00  0.00     0.156 A 
HETATM   13  C20 UNL     1       9.997   2.504  -1.749  1.00  0.00     0.146 A 
HETATM   14  C21 UNL     1       9.518   3.957  -1.650  1.00  0.00     0.066 C 
HETATM   15  C22 UNL     1       8.144   4.150  -1.004  1.00  0.00     0.161 C 
HETATM   16  O3  UNL     1       7.910   5.523  -0.773  1.00  0.00    -0.223 OA
HETATM   17  O4  UNL     1      11.180   2.283  -1.008  1.00  0.00    -0.351 OA
HETATM   18  C23 UNL     1      10.603   1.204  -0.294  1.00  0.00     0.172 A 
HETATM   19  C26 UNL     1       9.143   3.870   1.210  1.00  0.00     0.010 C 
HETATM   20  O7  UNL     1       5.910   4.399   0.365  1.00  0.00    -0.293 OA
HETATM   21  O8  UNL     1       7.078   3.897   3.463  1.00  0.00    -0.211 OA
HETATM   22  C27 UNL     1       6.886   0.220   4.302  1.00  0.00     0.004 C 
HETATM   23  C28 UNL     1       8.600   1.315   3.061  1.00  0.00     0.004 C 
HETATM   24  C43 UNL     1       3.481   2.156   2.345  1.00  0.00     0.028 C 
ENDROOT
BRANCH   2  25
HETATM   25  O9  UNL     1       3.534  -0.451   1.350  1.00  0.00    -0.298 OA
BRANCH  25  26
HETATM   26  C29 UNL     1       2.363  -1.013   1.759  1.00  0.00     0.305 C 
HETATM   27  O12 UNL     1       2.103  -1.319   2.902  1.00  0.00    -0.261 OA
BRANCH  26  28
HETATM   28  C30 UNL     1       1.364  -1.112   0.612  1.00  0.00     0.264 C 
HETATM   29  O11 UNL     1       0.298  -1.998   0.901  1.00  0.00    -0.210 OA
BRANCH  28  30
HETATM   30  C31 UNL     1       1.869  -1.409  -0.807  1.00  0.00     0.169 C 
BRANCH  30  31
HETATM   31  C32 UNL     1       0.714  -1.739  -1.737  1.00  0.00     0.003 A 
HETATM   32  C33 UNL     1      -0.314  -0.806  -1.927  1.00  0.00    -0.002 A 
HETATM   33  C34 UNL     1      -1.417  -1.090  -2.734  1.00  0.00    -0.000 A 
HETATM   34  C35 UNL     1      -1.511  -2.325  -3.375  1.00  0.00    -0.000 A 
HETATM   35  C36 UNL     1      -0.491  -3.262  -3.211  1.00  0.00    -0.000 A 
HETATM   36  C37 UNL     1       0.611  -2.966  -2.404  1.00  0.00    -0.002 A 
ENDBRANCH  30  31
BRANCH  30  37
HETATM   37  N1  UNL     1       3.002  -2.309  -1.058  1.00  0.00    -0.229 NA
HETATM   38  C38 UNL     1       3.375  -3.436  -0.382  1.00  0.00     0.271 C 
HETATM   39  O10 UNL     1       4.334  -4.053  -0.813  1.00  0.00    -0.266 OA
BRANCH  38  40
HETATM   40  C39 UNL     1       2.734  -3.971   0.877  1.00  0.00     0.031 C 
HETATM   41  C40 UNL     1       3.491  -3.902   1.987  1.00  0.00    -0.025 C 
HETATM   42  C41 UNL     1       3.165  -4.469   3.342  1.00  0.00     0.030 C 
HETATM   43  C42 UNL     1       1.452  -4.758   0.809  1.00  0.00     0.036 C 
ENDBRANCH  38  40
ENDBRANCH  30  37
ENDBRANCH  28  30
ENDBRANCH  26  28
ENDBRANCH  25  26
ENDBRANCH   2  25
BRANCH  11  44
HETATM   44  O1  UNL     1       5.718   1.137  -0.004  1.00  0.00    -0.301 OA
BRANCH  44  45
HETATM   45  C12 UNL     1       4.938   0.780  -1.072  1.00  0.00     0.296 C 
HETATM   46  O2  UNL     1       3.900   1.430  -1.201  1.00  0.00    -0.259 OA
BRANCH  45  47
HETATM   47  C13 UNL     1       5.072  -0.314  -2.092  1.00  0.00     0.063 A 
HETATM   48  C14 UNL     1       4.317  -0.195  -3.273  1.00  0.00     0.005 A 
HETATM   49  C15 UNL     1       4.299  -1.201  -4.241  1.00  0.00     0.000 A 
HETATM   50  C16 UNL     1       5.052  -2.358  -4.058  1.00  0.00     0.000 A 
HETATM   51  C17 UNL     1       5.816  -2.494  -2.900  1.00  0.00     0.000 A 
HETATM   52  C18 UNL     1       5.813  -1.495  -1.925  1.00  0.00     0.005 A 
ENDBRANCH  45  47
ENDBRANCH  44  45
ENDBRANCH  11  44
BRANCH  12  53
HETATM   53  O5  UNL     1       8.940   0.298  -1.843  1.00  0.00    -0.302 OA
BRANCH  53  54
HETATM   54  C24 UNL     1       9.791  -0.277  -2.737  1.00  0.00     0.272 C 
HETATM   55  C25 UNL     1       9.055  -1.329  -3.541  1.00  0.00     0.106 C 
HETATM   56  O6  UNL     1      10.957  -0.001  -2.905  1.00  0.00    -0.264 OA
ENDBRANCH  53  54
ENDBRANCH  12  53
TORSDOF 12
