REMARK  21 active torsions:
REMARK  status: ('A' for Active; 'I' for Inactive)
REMARK    1  A    between atoms: C2_2  and  C25_31 
REMARK    2  A    between atoms: C6_6  and  O1_7 
REMARK    3  A    between atoms: C12_15  and  C14_19 
REMARK    4  A    between atoms: C14_19  and  C15_20 
REMARK    5  A    between atoms: C15_20  and  C16_21 
REMARK    6  A    between atoms: C16_21  and  C17_22 
REMARK    7  A    between atoms: C17_22  and  C18_23 
REMARK    8  A    between atoms: C18_23  and  C19_24 
REMARK    9  A    between atoms: C19_24  and  C20_25 
REMARK   10  A    between atoms: C20_25  and  C21_26 
REMARK   11  A    between atoms: C21_26  and  C22_27 
REMARK   12  A    between atoms: C22_27  and  C23_28 
REMARK   13  A    between atoms: C25_31  and  C26_32 
REMARK   14  A    between atoms: C26_32  and  C27_33 
REMARK   15  A    between atoms: C27_33  and  C28_34 
REMARK   16  A    between atoms: C28_34  and  C29_35 
REMARK   17  A    between atoms: C29_35  and  C30_36 
REMARK   18  A    between atoms: C30_36  and  C31_37 
REMARK   19  A    between atoms: C31_37  and  C32_38 
REMARK   20  A    between atoms: C32_38  and  C33_39 
REMARK   21  A    between atoms: C33_39  and  C34_40 
ROOT
HETATM    1  C1  UNL     1       4.078  -1.131  -1.872  1.00  0.00     0.151 A 
HETATM    2  C2  UNL     1       2.867  -1.813  -1.618  1.00  0.00     0.028 A 
HETATM    3  C3  UNL     1       1.744  -1.069  -1.254  1.00  0.00     0.102 A 
HETATM    4  C4  UNL     1       1.790   0.330  -1.174  1.00  0.00     0.032 A 
HETATM    5  C5  UNL     1       2.993   0.978  -1.441  1.00  0.00     0.029 A 
HETATM    6  C6  UNL     1       4.161   0.277  -1.781  1.00  0.00     0.119 A 
HETATM    7  C8  UNL     1       0.490   0.851  -0.743  1.00  0.00     0.090 A 
HETATM    8  C9  UNL     1      -0.385  -0.340  -0.631  1.00  0.00     0.302 A 
HETATM    9  O2  UNL     1       0.502  -1.587  -0.905  1.00  0.00    -0.273 OA
HETATM   10  O3  UNL     1      -1.601  -0.413  -0.515  1.00  0.00    -0.259 OA
HETATM   11  C10 UNL     1       0.157   2.134  -0.426  1.00  0.00     0.134 A 
HETATM   12  C11 UNL     1      -1.070   2.624   0.226  1.00  0.00     0.155 A 
HETATM   13  C12 UNL     1      -0.947   3.951   0.485  1.00  0.00     0.069 A 
HETATM   14  C13 UNL     1       0.344   4.420  -0.051  1.00  0.00     0.298 A 
HETATM   15  O4  UNL     1       1.067   3.169  -0.612  1.00  0.00    -0.271 OA
HETATM   16  O5  UNL     1       0.819   5.546   0.003  1.00  0.00    -0.259 OA
HETATM   17  O6  UNL     1      -2.079   1.860   0.709  1.00  0.00    -0.188 OA
HETATM   18  O7  UNL     1       5.170  -1.888  -2.157  1.00  0.00    -0.188 OA
ENDROOT
BRANCH   2  19
HETATM   19  C25 UNL     1       2.818  -3.329  -1.738  1.00  0.00     0.030 C 
BRANCH  19  20
HETATM   20  C26 UNL     1       1.468  -3.935  -2.155  1.00  0.00     0.005 C 
BRANCH  20  21
HETATM   21  C27 UNL     1       1.580  -5.397  -2.623  1.00  0.00     0.000 C 
BRANCH  21  22
HETATM   22  C28 UNL     1       0.237  -5.918  -3.167  1.00  0.00     0.000 C 
BRANCH  22  23
HETATM   23  C29 UNL     1       0.360  -7.166  -4.058  1.00  0.00     0.000 C 
BRANCH  23  24
HETATM   24  C30 UNL     1       0.549  -6.902  -5.567  1.00  0.00     0.000 C 
BRANCH  24  25
HETATM   25  C31 UNL     1       1.902  -6.296  -5.982  1.00  0.00     0.000 C 
BRANCH  25  26
HETATM   26  C32 UNL     1       1.918  -4.757  -6.006  1.00  0.00     0.000 C 
BRANCH  26  27
HETATM   27  C33 UNL     1       3.349  -4.194  -5.984  1.00  0.00     0.000 C 
BRANCH  27  28
HETATM   28  C34 UNL     1       3.373  -2.667  -5.807  1.00  0.00     0.000 C 
HETATM   29  C35 UNL     1       4.807  -2.125  -5.747  1.00  0.00     0.000 C 
ENDBRANCH  27  28
ENDBRANCH  26  27
ENDBRANCH  25  26
ENDBRANCH  24  25
ENDBRANCH  23  24
ENDBRANCH  22  23
ENDBRANCH  21  22
ENDBRANCH  20  21
ENDBRANCH  19  20
ENDBRANCH   2  19
BRANCH   6  30
HETATM   30  O1  UNL     1       5.268   1.073  -1.980  1.00  0.00    -0.326 OA
HETATM   31  C7  UNL     1       6.537   0.551  -2.277  1.00  0.00     0.181 C 
ENDBRANCH   6  30
BRANCH  13  32
HETATM   32  C14 UNL     1      -1.865   4.779   1.342  1.00  0.00     0.034 C 
BRANCH  32  33
HETATM   33  C15 UNL     1      -1.166   5.060   2.683  1.00  0.00     0.005 C 
BRANCH  33  34
HETATM   34  C16 UNL     1      -2.120   5.531   3.792  1.00  0.00     0.000 C 
BRANCH  34  35
HETATM   35  C17 UNL     1      -1.353   5.748   5.108  1.00  0.00     0.000 C 
BRANCH  35  36
HETATM   36  C18 UNL     1      -2.268   5.792   6.343  1.00  0.00     0.000 C 
BRANCH  36  37
HETATM   37  C19 UNL     1      -1.510   5.591   7.668  1.00  0.00     0.000 C 
BRANCH  37  38
HETATM   38  C20 UNL     1      -1.368   4.134   8.157  1.00  0.00     0.000 C 
BRANCH  38  39
HETATM   39  C21 UNL     1      -0.481   3.205   7.307  1.00  0.00     0.000 C 
BRANCH  39  40
HETATM   40  C22 UNL     1      -1.250   2.434   6.218  1.00  0.00     0.000 C 
BRANCH  40  41
HETATM   41  C23 UNL     1      -0.309   1.766   5.201  1.00  0.00     0.000 C 
HETATM   42  C24 UNL     1      -1.086   1.081   4.068  1.00  0.00     0.000 C 
ENDBRANCH  40  41
ENDBRANCH  39  40
ENDBRANCH  38  39
ENDBRANCH  37  38
ENDBRANCH  36  37
ENDBRANCH  35  36
ENDBRANCH  34  35
ENDBRANCH  33  34
ENDBRANCH  32  33
ENDBRANCH  13  32
TORSDOF 21
