REMARK  10 active torsions:
REMARK  status: ('A' for Active; 'I' for Inactive)
REMARK    1  A    between atoms: C3_3  and  O11_49 
REMARK    2  A    between atoms: C10_10  and  O1_11 
REMARK    3  A    between atoms: C12_13  and  O2_15 
REMARK    4  A    between atoms: N1_21  and  C16_22 
REMARK    5  A    between atoms: C19_25  and  C24_31 
REMARK    6  A    between atoms: C22_28  and  O6_29 
REMARK    7  A    between atoms: C24_31  and  O7_32 
REMARK    8  A    between atoms: O7_32  and  C25_33 
REMARK    9  A    between atoms: C25_33  and  C26_35 
REMARK   10  A    between atoms: C27_36  and  N2_41 
ROOT
HETATM    1  C1  UNL     1       1.363   1.680   1.096  1.00  0.00     0.086 C 
HETATM    2  C2  UNL     1       0.956   0.219   0.753  1.00  0.00     0.041 C 
HETATM    3  C3  UNL     1       1.470  -0.002  -0.677  1.00  0.00     0.148 C 
HETATM    4  C4  UNL     1       1.920   1.398  -1.106  1.00  0.00     0.206 C 
HETATM    5  C5  UNL     1       3.398   1.796  -0.937  1.00  0.00     0.163 C 
HETATM    6  C6  UNL     1       3.887   1.328   0.426  1.00  0.00     0.086 C 
HETATM    7  C7  UNL     1       2.885   1.827   1.454  1.00  0.00     0.136 C 
HETATM    8  C8  UNL     1       3.399   3.271   1.671  1.00  0.00     0.036 C 
HETATM    9  C9  UNL     1       4.771   3.405   0.950  1.00  0.00     0.057 C 
HETATM   10  C10 UNL     1       5.210   1.945   0.875  1.00  0.00     0.123 C 
HETATM   11  C12 UNL     1       4.625   4.040  -0.440  1.00  0.00     0.120 C 
HETATM   12  C13 UNL     1       3.541   3.305  -1.230  1.00  0.00     0.063 C 
HETATM   13  O3  UNL     1       3.161   1.066   2.614  1.00  0.00    -0.226 OA
HETATM   14  O4  UNL     1       4.173   1.127  -1.901  1.00  0.00    -0.223 OA
HETATM   15  O5  UNL     1       1.768   1.465  -2.523  1.00  0.00    -0.219 OA
HETATM   16  C15 UNL     1       0.976   2.424  -0.258  1.00  0.00     0.256 C 
HETATM   17  N1  UNL     1      -0.504   2.435  -0.045  1.00  0.00     0.138 N 
HETATM   18  C18 UNL     1      -1.176   1.144  -0.169  1.00  0.00     0.253 C 
HETATM   19  C19 UNL     1      -0.594   0.103   0.822  1.00  0.00     0.062 C 
HETATM   20  C20 UNL     1      -1.113   0.431   2.248  1.00  0.00     0.007 C 
HETATM   21  C21 UNL     1      -0.068   1.083   3.149  1.00  0.00     0.030 C 
HETATM   22  C22 UNL     1       0.690   2.199   2.431  1.00  0.00     0.120 C 
ENDROOT
BRANCH  19  23
HETATM   23  C24 UNL     1      -1.122  -1.298   0.436  1.00  0.00     0.154 C 
BRANCH  23  24
HETATM   24  O7  UNL     1      -0.541  -2.272   1.262  1.00  0.00    -0.298 OA
BRANCH  24  25
HETATM   25  C25 UNL     1      -0.252  -3.529   0.807  1.00  0.00     0.297 C 
HETATM   26  O8  UNL     1       0.440  -4.229   1.540  1.00  0.00    -0.259 OA
BRANCH  25  27
HETATM   27  C26 UNL     1      -0.689  -4.128  -0.506  1.00  0.00     0.079 A 
HETATM   28  C27 UNL     1       0.180  -4.927  -1.280  1.00  0.00     0.074 A 
HETATM   29  C28 UNL     1      -0.200  -5.294  -2.574  1.00  0.00     0.018 A 
HETATM   30  C29 UNL     1      -1.461  -4.962  -3.079  1.00  0.00     0.002 A 
HETATM   31  C30 UNL     1      -2.355  -4.254  -2.279  1.00  0.00     0.000 A 
HETATM   32  C31 UNL     1      -1.962  -3.833  -1.006  1.00  0.00     0.007 A 
BRANCH  28  33
HETATM   33  N2  UNL     1       1.494  -5.351  -0.814  1.00  0.00    -0.249 N 
HETATM   34  C32 UNL     1       1.726  -6.166   0.291  1.00  0.00     0.244 C 
HETATM   35  C33 UNL     1       3.212  -6.267   0.591  1.00  0.00     0.098 C 
HETATM   36  O10 UNL     1       0.861  -6.843   0.840  1.00  0.00    -0.272 OA
HETATM   37  C34 UNL     1       3.854  -5.382  -0.498  1.00  0.00     0.089 C 
HETATM   38  C35 UNL     1       2.704  -5.164  -1.469  1.00  0.00     0.243 C 
HETATM   39  C36 UNL     1       5.118  -5.972  -1.124  1.00  0.00     0.010 C 
HETATM   40  O9  UNL     1       2.822  -4.843  -2.646  1.00  0.00    -0.272 OA
ENDBRANCH  28  33
ENDBRANCH  25  27
ENDBRANCH  24  25
ENDBRANCH  23  24
ENDBRANCH  19  23
BRANCH   3  41
HETATM   41  O11 UNL     1       2.435  -1.011  -0.743  1.00  0.00    -0.351 OA
HETATM   42  C37 UNL     1       2.503  -1.655  -1.997  1.00  0.00     0.174 C 
ENDBRANCH   3  41
BRANCH  17  43
HETATM   43  C16 UNL     1      -1.209   3.469  -0.813  1.00  0.00     0.250 C 
HETATM   44  C17 UNL     1      -0.550   4.854  -0.702  1.00  0.00     0.037 C 
ENDBRANCH  17  43
BRANCH  22  45
HETATM   45  O6  UNL     1      -0.079   3.361   2.268  1.00  0.00    -0.354 OA
HETATM   46  C23 UNL     1      -0.191   4.175   3.417  1.00  0.00     0.174 C 
ENDBRANCH  22  45
BRANCH  10  47
HETATM   47  O1  UNL     1       6.256   1.701  -0.016  1.00  0.00    -0.354 OA
HETATM   48  C11 UNL     1       6.931   0.489   0.247  1.00  0.00     0.174 C 
ENDBRANCH  10  47
BRANCH  11  49
HETATM   49  O2  UNL     1       5.794   4.042  -1.216  1.00  0.00    -0.354 OA
HETATM   50  C14 UNL     1       6.854   4.797  -0.670  1.00  0.00     0.174 C 
ENDBRANCH  11  49
TORSDOF 10
