REMARK  16 active torsions:
REMARK  status: ('A' for Active; 'I' for Inactive)
REMARK    1  A    between atoms: C4_4  and  O3_9 
REMARK    2  A    between atoms: C5_6  and  C6_7 
REMARK    3  A    between atoms: O3_9  and  C7_10 
REMARK    4  A    between atoms: C7_10  and  C8_11 
REMARK    5  A    between atoms: C12_15  and  O5_17 
REMARK    6  A    between atoms: O5_17  and  C13_18 
REMARK    7  A    between atoms: C13_18  and  C14_19 
REMARK    8  A    between atoms: C17_22  and  O6_25 
REMARK    9  A    between atoms: O6_25  and  C20_26 
REMARK   10  A    between atoms: C20_26  and  C21_27 
REMARK   11  A    between atoms: C21_27  and  C22_28 
REMARK   12  A    between atoms: C25_32  and  C28_37 
REMARK   13  A    between atoms: C28_37  and  O10_38 
REMARK   14  A    between atoms: O10_38  and  C29_39 
REMARK   15  A    between atoms: C29_39  and  C30_40 
REMARK   16  A    between atoms: C30_40  and  C31_41 
ROOT
HETATM    1  C14 UNL     1       0.567   1.192  -0.815  1.00  0.00    -0.017 C 
HETATM    2  C15 UNL     1      -0.141   0.737   0.431  1.00  0.00     0.055 C 
HETATM    3  C16 UNL     1      -0.311  -0.796   0.475  1.00  0.00     0.067 C 
HETATM    4  C17 UNL     1      -0.814  -1.383  -0.865  1.00  0.00     0.131 C 
HETATM    5  C18 UNL     1      -0.815  -0.419  -2.060  1.00  0.00     0.056 C 
HETATM    6  C19 UNL     1       0.269   0.616  -1.986  1.00  0.00    -0.030 C 
HETATM    7  C25 UNL     1      -1.316  -0.915   1.647  1.00  0.00     0.184 C 
HETATM    8  C26 UNL     1      -2.265   0.256   1.358  1.00  0.00     0.173 A 
HETATM    9  C27 UNL     1      -1.572   1.224   0.614  1.00  0.00     0.149 A 
HETATM   10  O8  UNL     1      -1.846   1.541   2.095  1.00  0.00    -0.351 OA
HETATM   11  O9  UNL     1      -0.591  -0.726   2.851  1.00  0.00    -0.221 OA
ENDROOT
BRANCH   1  12
HETATM   12  C13 UNL     1       1.584   2.300  -0.670  1.00  0.00     0.167 C 
BRANCH  12  13
HETATM   13  O5  UNL     1       2.593   1.896   0.235  1.00  0.00    -0.325 OA
BRANCH  13  14
HETATM   14  C12 UNL     1       3.422   2.951   0.677  1.00  0.00     0.270 C 
HETATM   15  C11 UNL     1       3.187   3.165   2.156  1.00  0.00     0.241 C 
HETATM   16  C10 UNL     1       4.185   4.178   2.665  1.00  0.00     0.220 C 
HETATM   17  O12 UNL     1       1.888   3.654   2.377  1.00  0.00    -0.215 OA
HETATM   18  C9  UNL     1       5.576   3.658   2.369  1.00  0.00     0.215 C 
HETATM   19  O13 UNL     1       4.033   4.346   4.051  1.00  0.00    -0.218 OA
HETATM   20  C8  UNL     1       5.723   3.377   0.878  1.00  0.00     0.180 C 
HETATM   21  O14 UNL     1       6.492   4.643   2.784  1.00  0.00    -0.218 OA
HETATM   22  O4  UNL     1       4.734   2.478   0.445  1.00  0.00    -0.326 OA
BRANCH  20  23
HETATM   23  C7  UNL     1       7.090   2.781   0.552  1.00  0.00     0.177 C 
BRANCH  23  24
HETATM   24  O3  UNL     1       7.317   2.916  -0.829  1.00  0.00    -0.326 OA
BRANCH  24  25
HETATM   25  C4  UNL     1       8.619   2.569  -1.240  1.00  0.00     0.270 C 
HETATM   26  C3  UNL     1       8.669   2.396  -2.742  1.00  0.00     0.241 C 
HETATM   27  C2  UNL     1       8.613   3.712  -3.495  1.00  0.00     0.220 C 
HETATM   28  O15 UNL     1       9.844   1.700  -3.090  1.00  0.00    -0.215 OA
HETATM   29  C1  UNL     1       9.543   4.746  -2.888  1.00  0.00     0.215 C 
HETATM   30  O16 UNL     1       7.293   4.201  -3.484  1.00  0.00    -0.218 OA
HETATM   31  C5  UNL     1       9.493   4.797  -1.368  1.00  0.00     0.184 C 
HETATM   32  O17 UNL     1      10.865   4.475  -3.297  1.00  0.00    -0.218 OA
HETATM   33  O1  UNL     1       9.541   3.529  -0.772  1.00  0.00    -0.326 OA
BRANCH  31  34
HETATM   34  C6  UNL     1       8.385   5.676  -0.796  1.00  0.00     0.214 C 
HETATM   35  O2  UNL     1       8.680   7.037  -1.044  1.00  0.00    -0.218 OA
ENDBRANCH  31  34
ENDBRANCH  24  25
ENDBRANCH  23  24
ENDBRANCH  20  23
ENDBRANCH  13  14
ENDBRANCH  12  13
ENDBRANCH   1  12
BRANCH   4  36
HETATM   36  O6  UNL     1      -0.037  -2.508  -1.194  1.00  0.00    -0.304 OA
BRANCH  36  37
HETATM   37  C20 UNL     1      -0.649  -3.715  -1.346  1.00  0.00     0.272 C 
HETATM   38  O7  UNL     1      -1.825  -3.929  -1.153  1.00  0.00    -0.264 OA
BRANCH  37  39
HETATM   39  C21 UNL     1       0.359  -4.761  -1.793  1.00  0.00     0.096 C 
BRANCH  39  40
HETATM   40  C22 UNL     1      -0.263  -6.109  -2.205  1.00  0.00     0.010 C 
HETATM   41  C23 UNL     1      -1.131  -5.979  -3.469  1.00  0.00     0.001 C 
HETATM   42  C24 UNL     1       0.841  -7.155  -2.441  1.00  0.00     0.001 C 
ENDBRANCH  39  40
ENDBRANCH  37  39
ENDBRANCH  36  37
ENDBRANCH   4  36
BRANCH   7  43
HETATM   43  C28 UNL     1      -1.977  -2.279   1.816  1.00  0.00     0.185 C 
BRANCH  43  44
HETATM   44  O10 UNL     1      -0.945  -3.228   1.834  1.00  0.00    -0.299 OA
BRANCH  44  45
HETATM   45  C29 UNL     1      -1.182  -4.450   2.374  1.00  0.00     0.272 C 
HETATM   46  O11 UNL     1      -2.235  -4.798   2.858  1.00  0.00    -0.264 OA
BRANCH  45  47
HETATM   47  C30 UNL     1       0.056  -5.326   2.261  1.00  0.00     0.096 C 
BRANCH  47  48
HETATM   48  C31 UNL     1       1.394  -4.613   2.541  1.00  0.00     0.010 C 
HETATM   49  C32 UNL     1       1.431  -4.022   3.961  1.00  0.00     0.001 C 
HETATM   50  C33 UNL     1       2.575  -5.579   2.339  1.00  0.00     0.001 C 
ENDBRANCH  47  48
ENDBRANCH  45  47
ENDBRANCH  44  45
ENDBRANCH  43  44
ENDBRANCH   7  43
TORSDOF 16
