REMARK  11 active torsions:
REMARK  status: ('A' for Active; 'I' for Inactive)
REMARK    1  A    between atoms: C2_2  and  O9_48 
REMARK    2  A    between atoms: C6_6  and  O1_7 
REMARK    3  A    between atoms: C9_10  and  C28_33 
REMARK    4  A    between atoms: C10_11  and  C22_27 
REMARK    5  A    between atoms: C11_12  and  C12_14 
REMARK    6  A    between atoms: C15_17  and  O3_20 
REMARK    7  A    between atoms: C19_22  and  O4_23 
REMARK    8  A    between atoms: O4_23  and  C20_24 
REMARK       I    between atoms: C28_33  and  N1_34 
REMARK    9  A    between atoms: C29_35  and  N2_39 
REMARK       I    between atoms: N2_39  and  C33_40 
REMARK   10  A    between atoms: C33_40  and  C34_41 
REMARK   11  A    between atoms: C34_41  and  C36_43 
ROOT
HETATM    1  C1  UNL     1       3.998  -1.865   2.062  1.00  0.00     0.048 A 
HETATM    2  C2  UNL     1       4.905  -0.807   1.955  1.00  0.00     0.098 A 
HETATM    3  C3  UNL     1       4.396   0.373   1.402  1.00  0.00     0.048 A 
HETATM    4  C4  UNL     1       3.061   0.517   1.013  1.00  0.00     0.097 A 
HETATM    5  C5  UNL     1       2.216  -0.593   1.120  1.00  0.00     0.053 A 
HETATM    6  C6  UNL     1       2.663  -1.817   1.647  1.00  0.00     0.096 A 
HETATM    7  C8  UNL     1       0.820  -0.347   0.595  1.00  0.00     0.186 C 
HETATM    8  C9  UNL     1       0.881  -0.321  -0.946  1.00  0.00     0.120 C 
HETATM    9  C10 UNL     1       1.156   1.160  -1.280  1.00  0.00     0.066 C 
HETATM   10  C11 UNL     1       1.284   1.871   0.089  1.00  0.00     0.149 C 
HETATM   11  O2  UNL     1       2.625   1.722   0.532  1.00  0.00    -0.329 OA
HETATM   12  C19 UNL     1       0.410   1.050   1.051  1.00  0.00     0.186 C 
HETATM   13  O8  UNL     1      -0.088  -1.334   1.010  1.00  0.00    -0.218 OA
ENDROOT
BRANCH   8  14
HETATM   14  C28 UNL     1       1.647  -1.587  -1.351  1.00  0.00     0.238 C 
HETATM   15  N1  UNL     1       2.828  -1.522  -2.050  1.00  0.00    -0.302 N 
HETATM   16  C29 UNL     1       3.668  -2.701  -2.234  1.00  0.00     0.192 C 
HETATM   17  C32 UNL     1       3.430  -0.383  -2.725  1.00  0.00     0.106 C 
HETATM   18  C30 UNL     1       5.024  -2.155  -2.707  1.00  0.00     0.050 C 
HETATM   19  C31 UNL     1       4.584  -0.963  -3.561  1.00  0.00     0.028 C 
HETATM   20  O7  UNL     1       1.238  -2.640  -0.914  1.00  0.00    -0.272 OA
BRANCH  16  21
HETATM   21  N2  UNL     1       3.765  -3.475  -0.990  1.00  0.00    -0.217 NA
HETATM   22  C33 UNL     1       4.505  -4.627  -0.929  1.00  0.00     0.253 C 
HETATM   23  O6  UNL     1       5.093  -5.070  -1.887  1.00  0.00    -0.271 OA
BRANCH  22  24
HETATM   24  C34 UNL     1       4.572  -5.287   0.442  1.00  0.00     0.081 C 
HETATM   25  C35 UNL     1       4.422  -6.812   0.313  1.00  0.00     0.010 C 
BRANCH  24  26
HETATM   26  C36 UNL     1       5.897  -4.894   1.124  1.00  0.00     0.009 C 
HETATM   27  C37 UNL     1       6.001  -5.348   2.586  1.00  0.00     0.001 C 
ENDBRANCH  24  26
ENDBRANCH  22  24
ENDBRANCH  16  21
ENDBRANCH   8  14
BRANCH   9  28
HETATM   28  C22 UNL     1       0.176   1.818  -2.249  1.00  0.00    -0.019 A 
HETATM   29  C23 UNL     1       0.645   2.785  -3.152  1.00  0.00    -0.004 A 
HETATM   30  C24 UNL     1      -0.207   3.442  -4.043  1.00  0.00    -0.000 A 
HETATM   31  C25 UNL     1      -1.569   3.146  -4.054  1.00  0.00    -0.000 A 
HETATM   32  C26 UNL     1      -2.064   2.193  -3.165  1.00  0.00    -0.000 A 
HETATM   33  C27 UNL     1      -1.201   1.546  -2.278  1.00  0.00    -0.004 A 
ENDBRANCH   9  28
BRANCH  12  34
HETATM   34  O4  UNL     1      -0.953   1.246   0.838  1.00  0.00    -0.299 OA
BRANCH  34  35
HETATM   35  C20 UNL     1      -1.913   0.979   1.769  1.00  0.00     0.273 C 
HETATM   36  O5  UNL     1      -3.095   1.064   1.509  1.00  0.00    -0.264 OA
HETATM   37  C21 UNL     1      -1.439   0.663   3.177  1.00  0.00     0.106 C 
ENDBRANCH  34  35
ENDBRANCH  12  34
BRANCH  10  38
HETATM   38  C12 UNL     1       1.032   3.385  -0.007  1.00  0.00     0.005 A 
HETATM   39  C13 UNL     1      -0.230   3.970  -0.167  1.00  0.00     0.000 A 
HETATM   40  C14 UNL     1      -0.402   5.352  -0.270  1.00  0.00     0.024 A 
HETATM   41  C15 UNL     1       0.668   6.255  -0.241  1.00  0.00     0.094 A 
HETATM   42  C16 UNL     1       1.933   5.671  -0.104  1.00  0.00     0.024 A 
HETATM   43  C17 UNL     1       2.106   4.289  -0.008  1.00  0.00     0.000 A 
BRANCH  41  44
HETATM   44  O3  UNL     1       0.415   7.601  -0.330  1.00  0.00    -0.328 OA
HETATM   45  C18 UNL     1       1.493   8.493  -0.166  1.00  0.00     0.181 C 
ENDBRANCH  41  44
ENDBRANCH  10  38
BRANCH   6  46
HETATM   46  O1  UNL     1       1.837  -2.903   1.765  1.00  0.00    -0.328 OA
HETATM   47  C7  UNL     1       1.879  -3.614   2.982  1.00  0.00     0.181 C 
ENDBRANCH   6  46
BRANCH   2  48
HETATM   48  O9  UNL     1       6.208  -1.016   2.330  1.00  0.00    -0.328 OA
HETATM   49  C38 UNL     1       7.177  -0.082   1.918  1.00  0.00     0.181 C 
ENDBRANCH   2  48
TORSDOF 11
