REMARK  8 active torsions:
REMARK  status: ('A' for Active; 'I' for Inactive)
REMARK    1  A    between atoms: C3_3  and  O2_7 
REMARK    2  A    between atoms: O2_7  and  C6_8 
REMARK    3  A    between atoms: C7_10  and  C11_17 
REMARK    4  A    between atoms: C12_19  and  C15_22 
REMARK    5  A    between atoms: C15_22  and  O8_23 
REMARK    6  A    between atoms: O8_23  and  C16_24 
REMARK    7  A    between atoms: C16_24  and  C17_25 
REMARK    8  A    between atoms: C18_26  and  C19_27 
ROOT
HETATM    1  C1  UNL     1       1.628   3.871  -0.083  1.00  0.00     0.053 C 
HETATM    2  C2  UNL     1       1.444   2.351  -0.277  1.00  0.00     0.100 C 
HETATM    3  C3  UNL     1       2.777   1.633  -0.444  1.00  0.00     0.245 C 
HETATM    4  O1  UNL     1       3.749   1.990   0.513  1.00  0.00    -0.304 OA
HETATM    5  C4  UNL     1       3.906   3.321   0.751  1.00  0.00     0.115 C 
HETATM    6  C5  UNL     1       2.978   4.238   0.448  1.00  0.00     0.004 C 
HETATM    7  C12 UNL     1       0.530   2.202  -1.524  1.00  0.00     0.178 C 
HETATM    8  C13 UNL     1       0.682   3.542  -2.199  1.00  0.00     0.002 C 
HETATM    9  C14 UNL     1       1.312   4.436  -1.433  1.00  0.00    -0.024 C 
HETATM   10  O11 UNL     1       0.971   1.200  -2.413  1.00  0.00    -0.219 OA
ENDROOT
BRANCH   7  11
HETATM   11  C15 UNL     1      -0.919   1.915  -1.169  1.00  0.00     0.187 C 
BRANCH  11  12
HETATM   12  O8  UNL     1      -0.974   0.646  -0.572  1.00  0.00    -0.295 OA
BRANCH  12  13
HETATM   13  C16 UNL     1      -2.127   0.290   0.076  1.00  0.00     0.296 C 
HETATM   14  O10 UNL     1      -3.045   1.076   0.089  1.00  0.00    -0.259 OA
BRANCH  13  15
HETATM   15  C17 UNL     1      -2.239  -0.955   0.615  1.00  0.00     0.068 C 
HETATM   16  C18 UNL     1      -3.217  -1.542   1.333  1.00  0.00     0.005 C 
BRANCH  16  17
HETATM   17  C19 UNL     1      -4.358  -1.127   1.926  1.00  0.00     0.000 A 
HETATM   18  C20 UNL     1      -5.215  -2.062   2.388  1.00  0.00     0.002 A 
HETATM   19  C21 UNL     1      -6.367  -1.745   3.000  1.00  0.00     0.027 A 
HETATM   20  C22 UNL     1      -6.719  -0.467   3.208  1.00  0.00     0.131 A 
HETATM   21  C23 UNL     1      -5.855   0.473   2.794  1.00  0.00     0.027 A 
HETATM   22  O9  UNL     1      -7.875  -0.130   3.838  1.00  0.00    -0.190 OA
HETATM   23  C24 UNL     1      -4.706   0.148   2.180  1.00  0.00     0.002 A 
ENDBRANCH  16  17
ENDBRANCH  13  15
ENDBRANCH  12  13
ENDBRANCH  11  12
ENDBRANCH   7  11
BRANCH   3  24
HETATM   24  O2  UNL     1       2.573   0.258  -0.179  1.00  0.00    -0.304 OA
BRANCH  24  25
HETATM   25  C6  UNL     1       3.390  -0.628  -0.912  1.00  0.00     0.272 C 
HETATM   26  O3  UNL     1       2.558  -1.204  -1.896  1.00  0.00    -0.326 OA
HETATM   27  C7  UNL     1       1.569  -2.056  -1.383  1.00  0.00     0.184 C 
HETATM   28  C8  UNL     1       2.211  -3.229  -0.662  1.00  0.00     0.215 C 
HETATM   29  C9  UNL     1       3.071  -2.726   0.483  1.00  0.00     0.220 C 
HETATM   30  O6  UNL     1       3.009  -3.959  -1.565  1.00  0.00    -0.218 OA
HETATM   31  C10 UNL     1       4.039  -1.672  -0.025  1.00  0.00     0.241 C 
HETATM   32  O5  UNL     1       2.242  -2.169   1.476  1.00  0.00    -0.218 OA
HETATM   33  O4  UNL     1       5.040  -2.319  -0.780  1.00  0.00    -0.215 OA
BRANCH  27  34
HETATM   34  C11 UNL     1       0.660  -2.485  -2.524  1.00  0.00     0.214 C 
HETATM   35  O7  UNL     1      -0.085  -1.362  -2.951  1.00  0.00    -0.218 OA
ENDBRANCH  27  34
ENDBRANCH  24  25
ENDBRANCH   3  24
TORSDOF 8
