REMARK  6 active torsions:
REMARK  status: ('A' for Active; 'I' for Inactive)
REMARK    1  A    between atoms: C2_2  and  O5_29 
REMARK    2  A    between atoms: C15_17  and  C18_20 
REMARK    3  A    between atoms: C18_20  and  C20_22 
REMARK    4  A    between atoms: C20_22  and  C21_23 
REMARK    5  A    between atoms: C21_23  and  C22_24 
REMARK    6  A    between atoms: O5_29  and  C25_30 
ROOT
HETATM    1  C1  UNL     1      -5.176   0.205   0.430  1.00  0.00     0.030 C 
HETATM    2  C2  UNL     1      -5.229  -1.000  -0.527  1.00  0.00     0.124 C 
HETATM    3  C3  UNL     1      -3.945  -1.852  -0.486  1.00  0.00     0.030 C 
HETATM    4  C4  UNL     1      -3.233  -1.719   0.873  1.00  0.00     0.005 C 
HETATM    5  C5  UNL     1      -2.721  -0.264   1.104  1.00  0.00     0.000 C 
HETATM    6  C6  UNL     1      -3.752   0.766   0.547  1.00  0.00     0.003 C 
HETATM    7  C7  UNL     1      -1.344  -0.019   0.414  1.00  0.00     0.005 C 
HETATM    8  C8  UNL     1      -0.303  -1.117   0.758  1.00  0.00     0.031 C 
HETATM    9  C9  UNL     1      -0.818  -2.535   0.436  1.00  0.00     0.152 C 
HETATM   10  C10 UNL     1      -2.162  -2.801   1.127  1.00  0.00     0.033 C 
HETATM   11  O1  UNL     1      -0.961  -2.725  -0.959  1.00  0.00    -0.224 OA
HETATM   12  C11 UNL     1       1.014  -0.799   0.021  1.00  0.00     0.005 C 
HETATM   13  C12 UNL     1       1.578   0.570   0.424  1.00  0.00     0.028 C 
HETATM   14  C13 UNL     1       0.584   1.684   0.039  1.00  0.00     0.152 C 
HETATM   15  C14 UNL     1      -0.783   1.400   0.699  1.00  0.00     0.033 C 
HETATM   16  O2  UNL     1       0.410   1.770  -1.365  1.00  0.00    -0.224 OA
HETATM   17  C15 UNL     1       2.916   0.518  -0.334  1.00  0.00     0.002 C 
HETATM   18  C16 UNL     1       3.426  -0.906  -0.072  1.00  0.00     0.000 C 
HETATM   19  C17 UNL     1       2.189  -1.742   0.275  1.00  0.00     0.000 C 
HETATM   20  C23 UNL     1       1.877   0.625   1.932  1.00  0.00     0.003 C 
HETATM   21  C24 UNL     1      -2.580  -0.059   2.621  1.00  0.00     0.000 C 
ENDROOT
BRANCH  17  22
HETATM   22  C18 UNL     1       3.920   1.586   0.094  1.00  0.00     0.001 C 
HETATM   23  C19 UNL     1       3.332   2.973  -0.176  1.00  0.00     0.000 C 
BRANCH  22  24
HETATM   24  C20 UNL     1       5.246   1.357  -0.631  1.00  0.00     0.011 C 
BRANCH  24  25
HETATM   25  C21 UNL     1       6.391   2.178  -0.035  1.00  0.00     0.098 C 
BRANCH  25  26
HETATM   26  C22 UNL     1       7.729   1.799  -0.611  1.00  0.00     0.185 C 
HETATM   27  O3  UNL     1       8.772   2.012   0.187  1.00  0.00    -0.647 OA
HETATM   28  O4  UNL     1       7.818   1.336  -1.725  1.00  0.00    -0.647 OA
ENDBRANCH  25  26
ENDBRANCH  24  25
ENDBRANCH  22  24
ENDBRANCH  17  22
BRANCH   2  29
HETATM   29  O5  UNL     1      -5.432  -0.539  -1.856  1.00  0.00    -0.304 OA
BRANCH  29  30
HETATM   30  C25 UNL     1      -5.781  -1.520  -2.686  1.00  0.00     0.272 C 
HETATM   31  C26 UNL     1      -5.924  -1.117  -4.129  1.00  0.00     0.106 C 
HETATM   32  O6  UNL     1      -5.977  -2.660  -2.334  1.00  0.00    -0.264 OA
ENDBRANCH  29  30
ENDBRANCH   2  29
TORSDOF 6
