REMARK  5 active torsions:
REMARK  status: ('A' for Active; 'I' for Inactive)
REMARK    1  A    between atoms: C3_3  and  C23_30 
REMARK    2  A    between atoms: N1_9  and  C9_11 
REMARK    3  A    between atoms: C12_14  and  O2_15 
REMARK    4  A    between atoms: C20_24  and  O4_25 
REMARK    5  A    between atoms: C23_30  and  O7_31 
ROOT
HETATM    1  C1  UNL     1      -2.867   1.595   1.687  1.00  0.00     0.033 C 
HETATM    2  C2  UNL     1      -3.515   0.245   1.393  1.00  0.00     0.007 C 
HETATM    3  C3  UNL     1      -2.508  -0.934   1.279  1.00  0.00     0.061 C 
HETATM    4  C4  UNL     1      -1.039  -0.472   1.506  1.00  0.00     0.036 C 
HETATM    5  C5  UNL     1      -0.728   0.725   0.560  1.00  0.00     0.060 C 
HETATM    6  C6  UNL     1      -1.718   1.887   0.735  1.00  0.00     0.154 C 
HETATM    7  O1  UNL     1      -2.182   2.382  -0.492  1.00  0.00    -0.223 OA
HETATM    8  C7  UNL     1      -0.692  -0.141  -0.743  1.00  0.00     0.226 C 
HETATM    9  N1  UNL     1      -1.907  -0.828  -1.194  1.00  0.00     0.135 N 
HETATM   10  C8  UNL     1      -2.598  -1.555  -0.136  1.00  0.00     0.253 C 
HETATM   11  C11 UNL     1       0.369  -1.241  -0.356  1.00  0.00     0.089 C 
HETATM   12  C12 UNL     1       0.053  -1.507   1.138  1.00  0.00     0.120 C 
HETATM   13  C14 UNL     1       1.837  -0.728  -0.456  1.00  0.00     0.163 C 
HETATM   14  C15 UNL     1       1.845   0.442   0.509  1.00  0.00     0.061 C 
HETATM   15  C16 UNL     1       0.683   1.373   0.863  1.00  0.00     0.009 C 
HETATM   16  C17 UNL     1       1.153   2.622  -0.015  1.00  0.00     0.005 C 
HETATM   17  C18 UNL     1       2.562   2.255  -0.648  1.00  0.00     0.060 C 
HETATM   18  C19 UNL     1       3.080   1.334   0.455  1.00  0.00     0.157 C 
HETATM   19  O3  UNL     1       4.246   0.637   0.103  1.00  0.00    -0.223 OA
HETATM   20  C20 UNL     1       2.539   1.385  -1.967  1.00  0.00     0.151 C 
HETATM   21  C22 UNL     1       2.386  -0.185  -1.824  1.00  0.00     0.207 C 
HETATM   22  O5  UNL     1       1.607  -0.686  -2.885  1.00  0.00    -0.218 OA
HETATM   23  O6  UNL     1       2.726  -1.701   0.018  1.00  0.00    -0.223 OA
ENDROOT
BRANCH   3  24
HETATM   24  C23 UNL     1      -2.967  -2.000   2.306  1.00  0.00     0.144 C 
BRANCH  24  25
HETATM   25  O7  UNL     1      -2.694  -1.560   3.615  1.00  0.00    -0.351 OA
HETATM   26  C24 UNL     1      -2.941  -2.558   4.581  1.00  0.00     0.174 C 
ENDBRANCH  24  25
ENDBRANCH   3  24
BRANCH  12  27
HETATM   27  O2  UNL     1      -0.307  -2.826   1.422  1.00  0.00    -0.354 OA
HETATM   28  C13 UNL     1       0.759  -3.748   1.350  1.00  0.00     0.174 C 
ENDBRANCH  12  27
BRANCH   9  29
HETATM   29  C9  UNL     1      -2.826  -0.095  -2.058  1.00  0.00     0.250 C 
HETATM   30  C10 UNL     1      -2.177   0.568  -3.285  1.00  0.00     0.037 C 
ENDBRANCH   9  29
BRANCH  20  31
HETATM   31  O4  UNL     1       3.747   1.608  -2.655  1.00  0.00    -0.351 OA
HETATM   32  C21 UNL     1       3.720   2.736  -3.503  1.00  0.00     0.174 C 
ENDBRANCH  20  31
TORSDOF 5
