REMARK  7 active torsions:
REMARK  status: ('A' for Active; 'I' for Inactive)
REMARK    1  A    between atoms: C2_2  and  O2_10 
REMARK    2  A    between atoms: C5_5  and  C7_7 
REMARK    3  A    between atoms: C7_7  and  C8_8 
REMARK    4  A    between atoms: O2_10  and  O3_11 
REMARK    5  A    between atoms: O3_11  and  C9_12 
REMARK    6  A    between atoms: C12_15  and  C15_18 
REMARK    7  A    between atoms: C15_18  and  C16_19 
ROOT
HETATM    1  O2  UNL     1       5.373   0.596   0.338  1.00  0.00    -0.190 OA
ENDROOT
BRANCH   1   2
HETATM    2  C2  UNL     1       4.047   0.818   0.099  1.00  0.00     0.131 A 
HETATM    3  C1  UNL     1       3.618   1.869  -0.719  1.00  0.00     0.027 A 
HETATM    4  C6  UNL     1       2.263   2.101  -0.963  1.00  0.00    -0.002 A 
HETATM    5  C5  UNL     1       1.282   1.283  -0.395  1.00  0.00    -0.019 A 
HETATM    6  C4  UNL     1       1.700   0.229   0.424  1.00  0.00    -0.002 A 
HETATM    7  C3  UNL     1       3.057   0.004   0.664  1.00  0.00     0.027 A 
BRANCH   5   8
HETATM    8  C7  UNL     1      -0.185   1.536  -0.653  1.00  0.00     0.062 C 
BRANCH   8   9
HETATM    9  C8  UNL     1      -0.740   2.536   0.356  1.00  0.00     0.187 C 
HETATM   10  O1  UNL     1      -2.115   2.747   0.107  1.00  0.00    -0.220 OA
ENDBRANCH   8   9
ENDBRANCH   5   8
ENDBRANCH   1   2
BRANCH   1  11
HETATM   11  O3  UNL     1       5.868  -0.556  -0.403  1.00  0.00    -0.190 OA
BRANCH  11  12
HETATM   12  C9  UNL     1       7.194  -0.775  -0.163  1.00  0.00     0.131 A 
HETATM   13  C10 UNL     1       7.626  -1.841   0.636  1.00  0.00     0.027 A 
HETATM   14  C11 UNL     1       8.981  -2.066   0.885  1.00  0.00    -0.002 A 
HETATM   15  C12 UNL     1       9.961  -1.230   0.341  1.00  0.00    -0.019 A 
HETATM   16  C13 UNL     1       9.539  -0.162  -0.458  1.00  0.00    -0.002 A 
HETATM   17  C14 UNL     1       8.182   0.057  -0.702  1.00  0.00     0.027 A 
BRANCH  15  18
HETATM   18  C15 UNL     1      11.427  -1.479   0.614  1.00  0.00     0.062 C 
BRANCH  18  19
HETATM   19  C16 UNL     1      11.942  -2.658  -0.205  1.00  0.00     0.187 C 
HETATM   20  O4  UNL     1      13.320  -2.846   0.048  1.00  0.00    -0.220 OA
ENDBRANCH  18  19
ENDBRANCH  15  18
ENDBRANCH  11  12
ENDBRANCH   1  11
TORSDOF 7
