REMARK  11 active torsions:
REMARK  status: ('A' for Active; 'I' for Inactive)
REMARK    1  A    between atoms: C1_1  and  C2_2 
REMARK    2  A    between atoms: C1_1  and  C16_17 
REMARK    3  A    between atoms: C3_3  and  C4_4 
REMARK    4  A    between atoms: C5_5  and  C6_6 
REMARK    5  A    between atoms: C7_7  and  C8_8 
REMARK    6  A    between atoms: C9_9  and  C10_10 
REMARK    7  A    between atoms: C10_10  and  C11_11 
REMARK    8  A    between atoms: C11_11  and  C12_12 
REMARK    9  A    between atoms: C12_12  and  C13_13 
REMARK   10  A    between atoms: C13_13  and  C14_14 
REMARK   11  A    between atoms: C17_18  and  C18_19 
ROOT
HETATM    1  C6  UNL     1       6.905   0.150  -0.141  1.00  0.00     0.050 C 
HETATM    2  C7  UNL     1       7.637   1.197  -0.570  1.00  0.00     0.009 C 
ENDROOT
BRANCH   1   3
HETATM    3  C5  UNL     1       5.428   0.218  -0.131  1.00  0.00    -0.050 C 
HETATM    4  C4  UNL     1       4.217   0.272  -0.085  1.00  0.00    -0.009 C 
BRANCH   4   5
HETATM    5  C3  UNL     1       2.771   0.337   0.011  1.00  0.00    -0.013 C 
HETATM    6  C2  UNL     1       1.565   0.390   0.126  1.00  0.00    -0.073 C 
BRANCH   6   7
HETATM    7  C1  UNL     1       0.112   0.454   0.372  1.00  0.00     0.102 C 
BRANCH   7   8
HETATM    8  C16 UNL     1      -0.444   1.818   0.062  1.00  0.00    -0.014 C 
HETATM    9  C17 UNL     1      -1.695   2.081  -0.351  1.00  0.00     0.006 C 
BRANCH   9  10
HETATM   10  C18 UNL     1      -2.788   1.069  -0.572  1.00  0.00     0.208 C 
HETATM   11  O2  UNL     1      -4.013   1.534  -0.016  1.00  0.00    -0.215 OA
ENDBRANCH   9  10
ENDBRANCH   7   8
ENDBRANCH   6   7
ENDBRANCH   4   5
ENDBRANCH   1   3
BRANCH   2  12
HETATM   12  C8  UNL     1       9.104   1.242  -0.604  1.00  0.00    -0.004 C 
HETATM   13  C9  UNL     1       9.919   0.448   0.120  1.00  0.00    -0.026 C 
BRANCH  13  14
HETATM   14  C10 UNL     1      11.426   0.543   0.100  1.00  0.00     0.034 C 
BRANCH  14  15
HETATM   15  C11 UNL     1      12.075  -0.828  -0.149  1.00  0.00     0.069 C 
BRANCH  15  16
HETATM   16  C12 UNL     1      13.598  -0.797  -0.162  1.00  0.00     0.151 C 
HETATM   17  O1  UNL     1      14.207   0.247  -0.115  1.00  0.00    -0.296 OA
BRANCH  16  18
HETATM   18  C13 UNL     1      14.304  -2.142  -0.259  1.00  0.00     0.065 C 
BRANCH  18  19
HETATM   19  C14 UNL     1      15.835  -2.091  -0.128  1.00  0.00     0.008 C 
HETATM   20  C15 UNL     1      16.303  -1.702   1.282  1.00  0.00     0.001 C 
ENDBRANCH  18  19
ENDBRANCH  16  18
ENDBRANCH  15  16
ENDBRANCH  14  15
ENDBRANCH  13  14
ENDBRANCH   2  12
TORSDOF 11
