REMARK  11 active torsions:
REMARK  status: ('A' for Active; 'I' for Inactive)
REMARK    1  A    between atoms: C1_1  and  C2_2 
REMARK    2  A    between atoms: C1_1  and  C16_16 
REMARK    3  A    between atoms: C3_3  and  C4_4 
REMARK    4  A    between atoms: C5_5  and  C6_6 
REMARK    5  A    between atoms: C7_7  and  C8_8 
REMARK    6  A    between atoms: C9_9  and  C10_10 
REMARK    7  A    between atoms: C10_10  and  C11_11 
REMARK    8  A    between atoms: C11_11  and  C12_12 
REMARK    9  A    between atoms: C12_12  and  C13_13 
REMARK   10  A    between atoms: C13_13  and  C14_14 
REMARK   11  A    between atoms: C17_17  and  C18_18 
ROOT
HETATM    1  C6  UNL     1       6.912   0.664   0.334  1.00  0.00     0.050 C 
HETATM    2  C7  UNL     1       7.696   1.670  -0.098  1.00  0.00     0.009 C 
ENDROOT
BRANCH   1   3
HETATM    3  C5  UNL     1       5.439   0.775   0.315  1.00  0.00    -0.050 C 
HETATM    4  C4  UNL     1       4.228   0.834   0.332  1.00  0.00    -0.009 C 
BRANCH   4   5
HETATM    5  C3  UNL     1       2.779   0.876   0.390  1.00  0.00    -0.013 C 
HETATM    6  C2  UNL     1       1.569   0.895   0.471  1.00  0.00    -0.073 C 
BRANCH   6   7
HETATM    7  C1  UNL     1       0.108   0.888   0.669  1.00  0.00     0.102 C 
BRANCH   7   8
HETATM    8  C16 UNL     1      -0.500   2.232   0.366  1.00  0.00    -0.014 C 
HETATM    9  C17 UNL     1      -1.759   2.445  -0.049  1.00  0.00     0.006 C 
BRANCH   9  10
HETATM   10  C18 UNL     1      -2.807   1.388  -0.278  1.00  0.00     0.208 C 
HETATM   11  O1  UNL     1      -4.046   1.784   0.300  1.00  0.00    -0.215 OA
ENDBRANCH   9  10
ENDBRANCH   7   8
ENDBRANCH   6   7
ENDBRANCH   4   5
ENDBRANCH   1   3
BRANCH   2  12
HETATM   12  C8  UNL     1       9.165   1.633  -0.117  1.00  0.00    -0.004 C 
HETATM   13  C9  UNL     1       9.921   0.815   0.640  1.00  0.00    -0.026 C 
BRANCH  13  14
HETATM   14  C10 UNL     1      11.430   0.778   0.602  1.00  0.00     0.026 C 
BRANCH  14  15
HETATM   15  C11 UNL     1      11.919  -0.628   0.216  1.00  0.00     0.005 C 
BRANCH  15  16
HETATM   16  C12 UNL     1      13.450  -0.728   0.179  1.00  0.00     0.000 C 
BRANCH  16  17
HETATM   17  C13 UNL     1      13.990  -2.162   0.024  1.00  0.00     0.000 C 
BRANCH  17  18
HETATM   18  C14 UNL     1      13.610  -2.874  -1.286  1.00  0.00     0.000 C 
HETATM   19  C15 UNL     1      12.332  -3.722  -1.193  1.00  0.00     0.000 C 
ENDBRANCH  17  18
ENDBRANCH  16  17
ENDBRANCH  15  16
ENDBRANCH  14  15
ENDBRANCH  13  14
ENDBRANCH   2  12
TORSDOF 11
