REMARK  3 active torsions:
REMARK  status: ('A' for Active; 'I' for Inactive)
REMARK    1  A    between atoms: C3_4  and  C5_6 
REMARK    2  A    between atoms: C8_9  and  C9_11 
REMARK    3  A    between atoms: C10_12  and  C11_13 
ROOT
HETATM    1  C5  UNL     1       0.003  -0.754  -0.668  1.00  0.00     0.036 A 
HETATM    2  C6  UNL     1       1.293  -0.899  -1.129  1.00  0.00     0.008 A 
HETATM    3  C7  UNL     1       2.213   0.005  -0.534  1.00  0.00     0.015 A 
HETATM    4  C8  UNL     1       1.619   0.836   0.376  1.00  0.00     0.071 A 
HETATM    5  S2  UNL     1      -0.059   0.517   0.499  1.00  0.00    -0.078 SA
ENDROOT
BRANCH   1   6
HETATM    6  C3  UNL     1      -1.147  -1.557  -1.100  1.00  0.00     0.035 A 
HETATM    7  S1  UNL     1      -2.760  -1.366  -0.510  1.00  0.00    -0.086 SA
HETATM    8  C2  UNL     1      -3.363  -2.622  -1.507  1.00  0.00     0.035 A 
HETATM    9  C1  UNL     1      -2.370  -3.178  -2.265  1.00  0.00     0.007 A 
HETATM   10  C4  UNL     1      -1.107  -2.570  -2.031  1.00  0.00     0.007 A 
ENDBRANCH   1   6
BRANCH   4  11
HETATM   11  C9  UNL     1       2.303   1.863   1.161  1.00  0.00    -0.053 C 
HETATM   12  C10 UNL     1       2.878   2.707   1.814  1.00  0.00    -0.058 C 
BRANCH  12  13
HETATM   13  C11 UNL     1       3.588   3.725   2.611  1.00  0.00     0.049 C 
HETATM   14  C12 UNL     1       4.719   3.414   3.259  1.00  0.00     0.009 C 
ENDBRANCH  12  13
ENDBRANCH   4  11
TORSDOF 3
