REMARK  7 active torsions:
REMARK  status: ('A' for Active; 'I' for Inactive)
REMARK    1  A    between atoms: C1_1  and  O10_31 
REMARK    2  A    between atoms: C7_8  and  C10_12 
REMARK    3  A    between atoms: C14_16  and  O3_18 
REMARK    4  A    between atoms: O3_18  and  C16_19 
REMARK    5  A    between atoms: C17_21  and  C21_28 
REMARK    6  A    between atoms: O10_31  and  C22_32 
REMARK    7  A    between atoms: C23_34  and  C27_41 
ROOT
HETATM    1  C1  UNL     1       1.277  -0.039   1.714  1.00  0.00     0.099 A 
HETATM    2  C2  UNL     1       1.989  -1.239   1.601  1.00  0.00     0.025 A 
HETATM    3  C3  UNL     1       3.255  -1.301   1.018  1.00  0.00     0.007 A 
HETATM    4  C4  UNL     1       3.858  -0.130   0.553  1.00  0.00     0.057 A 
HETATM    5  C5  UNL     1       3.239   1.120   0.727  1.00  0.00     0.099 A 
HETATM    6  C6  UNL     1       1.952   1.115   1.279  1.00  0.00     0.049 A 
HETATM    7  O1  UNL     1       3.755   2.282   0.222  1.00  0.00    -0.328 OA
HETATM    8  C7  UNL     1       4.519   2.158  -0.954  1.00  0.00     0.151 C 
HETATM    9  C8  UNL     1       5.620   1.112  -0.780  1.00  0.00     0.104 C 
HETATM   10  C9  UNL     1       5.150  -0.193  -0.168  1.00  0.00     0.178 C 
HETATM   11  O2  UNL     1       5.802  -1.223  -0.289  1.00  0.00    -0.291 OA
ENDROOT
BRANCH   8  12
HETATM   12  C10 UNL     1       3.638   1.974  -2.186  1.00  0.00     0.008 A 
HETATM   13  C11 UNL     1       3.720   2.865  -3.260  1.00  0.00     0.000 A 
HETATM   14  C12 UNL     1       2.876   2.722  -4.360  1.00  0.00     0.029 A 
HETATM   15  C13 UNL     1       1.917   1.708  -4.419  1.00  0.00     0.153 A 
HETATM   16  C14 UNL     1       1.798   0.793  -3.361  1.00  0.00     0.122 A 
HETATM   17  O9  UNL     1       1.097   1.588  -5.498  1.00  0.00    -0.188 OA
HETATM   18  C15 UNL     1       2.688   0.952  -2.290  1.00  0.00     0.025 A 
BRANCH  16  19
HETATM   19  O3  UNL     1       0.829  -0.174  -3.477  1.00  0.00    -0.301 OA
BRANCH  19  20
HETATM   20  C16 UNL     1       0.714  -1.254  -2.571  1.00  0.00     0.274 C 
HETATM   21  O4  UNL     1       1.009  -2.396  -3.348  1.00  0.00    -0.326 OA
HETATM   22  C17 UNL     1       0.883  -3.590  -2.618  1.00  0.00     0.184 C 
HETATM   23  C18 UNL     1      -0.559  -3.744  -2.151  1.00  0.00     0.215 C 
HETATM   24  C19 UNL     1      -0.940  -2.567  -1.276  1.00  0.00     0.220 C 
HETATM   25  O7  UNL     1      -0.728  -4.916  -1.392  1.00  0.00    -0.218 OA
HETATM   26  C20 UNL     1      -0.709  -1.294  -2.060  1.00  0.00     0.241 C 
HETATM   27  O6  UNL     1      -2.296  -2.674  -0.924  1.00  0.00    -0.218 OA
HETATM   28  O5  UNL     1      -0.929  -0.187  -1.221  1.00  0.00    -0.215 OA
BRANCH  22  29
HETATM   29  C21 UNL     1       1.331  -4.748  -3.497  1.00  0.00     0.214 C 
HETATM   30  O8  UNL     1       2.724  -4.658  -3.725  1.00  0.00    -0.218 OA
ENDBRANCH  22  29
ENDBRANCH  19  20
ENDBRANCH  16  19
ENDBRANCH   8  12
BRANCH   1  31
HETATM   31  O10 UNL     1       0.015  -0.090   2.252  1.00  0.00    -0.304 OA
BRANCH  31  32
HETATM   32  C22 UNL     1      -0.610   1.064   2.770  1.00  0.00     0.274 C 
HETATM   33  O11 UNL     1      -0.569   0.915   4.173  1.00  0.00    -0.326 OA
HETATM   34  C23 UNL     1      -1.175   1.992   4.841  1.00  0.00     0.184 C 
HETATM   35  C24 UNL     1      -2.641   2.095   4.432  1.00  0.00     0.215 C 
HETATM   36  C25 UNL     1      -2.765   2.232   2.928  1.00  0.00     0.220 C 
HETATM   37  O14 UNL     1      -3.248   3.222   5.015  1.00  0.00    -0.218 OA
HETATM   38  C26 UNL     1      -2.039   1.075   2.281  1.00  0.00     0.241 C 
HETATM   39  O13 UNL     1      -4.122   2.206   2.564  1.00  0.00    -0.218 OA
HETATM   40  O12 UNL     1      -2.042   1.239   0.884  1.00  0.00    -0.215 OA
BRANCH  34  41
HETATM   41  C27 UNL     1      -1.026   1.780   6.341  1.00  0.00     0.214 C 
HETATM   42  O15 UNL     1       0.342   1.816   6.698  1.00  0.00    -0.218 OA
ENDBRANCH  34  41
ENDBRANCH  31  32
ENDBRANCH   1  31
TORSDOF 7
