REMARK  4 active torsions:
REMARK  status: ('A' for Active; 'I' for Inactive)
REMARK       I    between atoms: C1_2  and  N2_3 
REMARK       I    between atoms: N2_3  and  C2_4 
REMARK    1  A    between atoms: C2_4  and  O1_5 
REMARK    2  A    between atoms: O1_5  and  C3_6 
REMARK    3  A    between atoms: C3_6  and  C4_7 
REMARK    4  A    between atoms: C4_7  and  C5_8 
ROOT
HETATM    1  N1  UNL     1      -3.341  -0.409  -0.001  1.00  0.00    -0.084 N 
HETATM    2  C1  UNL     1      -2.311   0.481   0.000  1.00  0.00     0.391 C 
HETATM    3  N2  UNL     1      -1.028  -0.019  -0.003  1.00  0.00    -0.128 NA
HETATM    4  C2  UNL     1       0.170   0.657  -0.003  1.00  0.00     0.392 C 
HETATM    5  O2  UNL     1       0.232   1.867   0.000  1.00  0.00    -0.236 OA
HETATM    6  O3  UNL     1      -2.561   1.661   0.003  1.00  0.00    -0.241 OA
ENDROOT
BRANCH   4   7
HETATM    7  O1  UNL     1       1.289  -0.115  -0.005  1.00  0.00    -0.283 OA
BRANCH   7   8
HETATM    8  C3  UNL     1       2.524   0.553  -0.002  1.00  0.00     0.154 C 
BRANCH   8   9
HETATM    9  C4  UNL     1       3.656  -0.474  -0.003  1.00  0.00     0.033 C 
BRANCH   9  10
HETATM   10  C5  UNL     1       5.035   0.206  -0.000  1.00  0.00     0.003 C 
HETATM   11  C6  UNL     1       6.180  -0.815   0.000  1.00  0.00     0.000 C 
ENDBRANCH   9  10
ENDBRANCH   8   9
ENDBRANCH   7   8
ENDBRANCH   4   7
TORSDOF 4
