REMARK  3 active torsions:
REMARK  status: ('A' for Active; 'I' for Inactive)
REMARK    1  A    between atoms: C7_7  and  C9_11 
REMARK    2  A    between atoms: C9_11  and  C10_12 
REMARK    3  A    between atoms: C10_12  and  C11_13 
ROOT
HETATM    1  C1  UNL     1      -3.203  -0.519  -1.537  1.00  0.00     0.005 C 
HETATM    2  C2  UNL     1      -3.296  -2.018  -1.864  1.00  0.00     0.005 C 
HETATM    3  C3  UNL     1      -1.910  -2.582  -2.218  1.00  0.00     0.031 C 
HETATM    4  C4  UNL     1      -0.907  -2.115  -1.213  1.00  0.00     0.035 A 
HETATM    5  C5  UNL     1      -1.071  -1.090  -0.362  1.00  0.00    -0.016 A 
HETATM    6  C6  UNL     1      -2.320  -0.264  -0.303  1.00  0.00     0.024 C 
HETATM    7  C7  UNL     1       0.129  -0.960   0.551  1.00  0.00     0.143 A 
HETATM    8  O1  UNL     1       1.043  -1.960   0.118  1.00  0.00    -0.297 OA
HETATM    9  C8  UNL     1       0.433  -2.631  -0.900  1.00  0.00     0.291 A 
HETATM   10  O2  UNL     1       0.947  -3.572  -1.494  1.00  0.00    -0.260 OA
ENDROOT
BRANCH   7  11
HETATM   11  C9  UNL     1       0.809   0.410   0.511  1.00  0.00     0.035 C 
BRANCH  11  12
HETATM   12  C10 UNL     1       0.262   1.395   1.559  1.00  0.00     0.003 C 
BRANCH  12  13
HETATM   13  C11 UNL     1       0.925   2.777   1.447  1.00  0.00     0.000 C 
HETATM   14  C12 UNL     1       0.441   3.734   2.545  1.00  0.00     0.000 C 
ENDBRANCH  12  13
ENDBRANCH  11  12
ENDBRANCH   7  11
TORSDOF 3
