REMARK  3 active torsions:
REMARK  status: ('A' for Active; 'I' for Inactive)
REMARK    1  A    between atoms: C7_7  and  C9_11 
REMARK    2  A    between atoms: C9_11  and  C10_12 
REMARK    3  A    between atoms: C10_12  and  C11_13 
ROOT
HETATM    1  C1  UNL     1      -3.216  -0.248  -1.467  1.00  0.00     0.041 C 
HETATM    2  C2  UNL     1      -3.243  -1.748  -1.770  1.00  0.00     0.187 C 
HETATM    3  C3  UNL     1      -1.854  -2.230  -2.143  1.00  0.00     0.209 C 
HETATM    4  C4  UNL     1      -0.900  -1.775  -1.099  1.00  0.00     0.070 A 
HETATM    5  C5  UNL     1      -1.075  -0.753  -0.253  1.00  0.00     0.013 A 
HETATM    6  C6  UNL     1      -2.323   0.079  -0.252  1.00  0.00     0.029 C 
HETATM    7  C7  UNL     1       0.081  -0.695   0.723  1.00  0.00     0.242 A 
HETATM    8  O1  UNL     1       0.950  -1.774   0.363  1.00  0.00    -0.271 OA
HETATM    9  C8  UNL     1       0.366  -2.391  -0.699  1.00  0.00     0.296 A 
HETATM   10  O2  UNL     1       0.775  -3.398  -1.266  1.00  0.00    -0.259 OA
HETATM   11  O3  UNL     1      -0.366  -1.062   2.018  1.00  0.00    -0.191 OA
HETATM   12  O4  UNL     1      -1.816  -3.642  -2.200  1.00  0.00    -0.216 OA
HETATM   13  O5  UNL     1      -4.107  -2.022  -2.845  1.00  0.00    -0.220 OA
ENDROOT
BRANCH   7  14
HETATM   14  C9  UNL     1       0.859   0.611   0.759  1.00  0.00     0.064 C 
BRANCH  14  15
HETATM   15  C10 UNL     1       0.245   1.709   1.643  1.00  0.00     0.005 C 
BRANCH  15  16
HETATM   16  C11 UNL     1       1.009   3.037   1.521  1.00  0.00     0.000 C 
HETATM   17  C12 UNL     1       0.412   4.124   2.425  1.00  0.00     0.000 C 
ENDBRANCH  15  16
ENDBRANCH  14  15
ENDBRANCH   7  14
TORSDOF 3
