REMARK  2 active torsions:
REMARK  status: ('A' for Active; 'I' for Inactive)
REMARK    1  A    between atoms: C9_11  and  C10_12 
REMARK    2  A    between atoms: C10_12  and  C11_13 
ROOT
HETATM    1  C1  UNL     1      -1.109   1.629   1.810  1.00  0.00     0.002 A 
HETATM    2  C2  UNL     1      -2.424   1.733   1.342  1.00  0.00     0.028 A 
HETATM    3  C3  UNL     1      -2.843   1.074   0.179  1.00  0.00     0.136 A 
HETATM    4  C4  UNL     1      -1.860   0.322  -0.463  1.00  0.00     0.091 A 
HETATM    5  C5  UNL     1      -0.530   0.202  -0.032  1.00  0.00     0.030 A 
HETATM    6  C6  UNL     1      -0.148   0.865   1.133  1.00  0.00     0.002 A 
HETATM    7  C7  UNL     1       0.186  -0.670  -0.978  1.00  0.00     0.099 A 
HETATM    8  O1  UNL     1      -0.679  -1.136  -1.974  1.00  0.00    -0.273 OA
HETATM    9  C8  UNL     1      -2.049  -0.474  -1.686  1.00  0.00     0.302 A 
HETATM   10  O2  UNL     1      -3.084  -0.604  -2.326  1.00  0.00    -0.259 OA
HETATM   11  C9  UNL     1       1.484  -1.039  -0.993  1.00  0.00    -0.001 C 
HETATM   12  O3  UNL     1      -4.112   1.150  -0.299  1.00  0.00    -0.190 OA
ENDROOT
BRANCH  11  13
HETATM   13  C10 UNL     1       2.555  -0.604  -0.028  1.00  0.00     0.028 C 
BRANCH  13  14
HETATM   14  C11 UNL     1       3.953  -1.085  -0.452  1.00  0.00     0.005 C 
HETATM   15  C12 UNL     1       5.044  -0.602   0.512  1.00  0.00     0.000 C 
ENDBRANCH  13  14
ENDBRANCH  11  13
TORSDOF 2
