REMARK  4 active torsions:
REMARK  status: ('A' for Active; 'I' for Inactive)
REMARK    1  A    between atoms: C1_1  and  C2_2 
REMARK    2  A    between atoms: C2_2  and  C3_3 
REMARK    3  A    between atoms: C3_3  and  N1_4 
REMARK    4  A    between atoms: C4_5  and  C5_6 
ROOT
HETATM    1  C3  UNL     1      -2.541  -0.676   0.042  1.00  0.00     0.126 C 
ENDROOT
BRANCH   1   2
HETATM    2  C2  UNL     1      -2.297   0.842   0.038  1.00  0.00     0.026 C 
BRANCH   2   3
HETATM    3  C1  UNL     1      -3.612   1.637   0.008  1.00  0.00     0.002 C 
HETATM    4  C6  UNL     1      -3.362   3.151  -0.007  1.00  0.00     0.000 C 
ENDBRANCH   2   3
ENDBRANCH   1   2
BRANCH   1   5
HETATM    5  N1  UNL     1      -1.246  -1.397   0.084  1.00  0.00    -0.268 NA
HETATM    6  C4  UNL     1      -1.318  -2.681   0.018  1.00  0.00     0.105 C 
BRANCH   6   7
HETATM    7  C5  UNL     1      -0.117  -3.474   0.042  1.00  0.00     0.085 C 
HETATM    8  S1  UNL     1       0.030  -5.037  -0.048  1.00  0.00    -0.076 SA
ENDBRANCH   6   7
ENDBRANCH   1   5
TORSDOF 4
