REMARK  1 active torsions:
REMARK  status: ('A' for Active; 'I' for Inactive)
REMARK    1  A    between atoms: C3_3  and  C4_4 
ROOT
HETATM    1  C1  UNL     1      -4.494  -1.588  -4.528  1.00  0.00     0.090 C 
HETATM    2  C2  UNL     1      -3.740  -1.693  -3.269  1.00  0.00    -0.085 C 
HETATM    3  C3  UNL     1      -3.102  -1.776  -2.242  1.00  0.00    -0.062 C 
ENDROOT
BRANCH   3   4
HETATM    4  C4  UNL     1      -2.311  -1.865  -1.002  1.00  0.00     0.069 C 
HETATM    5  C5  UNL     1      -1.987  -0.761  -0.310  1.00  0.00     0.082 C 
HETATM    6  O1  UNL     1      -1.221  -0.794   0.843  1.00  0.00    -0.314 OA
HETATM    7  C8  UNL     1      -2.377   0.648  -0.671  1.00  0.00     0.057 C 
HETATM    8  C6  UNL     1      -0.870   0.540   1.207  1.00  0.00     0.192 C 
HETATM    9  C7  UNL     1      -2.020   1.373   0.637  1.00  0.00     0.064 C 
HETATM   10  O2  UNL     1       0.337   0.899   0.592  1.00  0.00    -0.334 OA
HETATM   11  C11 UNL     1      -0.653   0.656   2.716  1.00  0.00     0.059 C 
HETATM   12  C9  UNL     1       1.357   0.494   1.464  1.00  0.00     0.145 C 
HETATM   13  C10 UNL     1       0.857   0.893   2.845  1.00  0.00     0.037 C 
ENDBRANCH   3   4
TORSDOF 1
