REMARK  7 active torsions:
REMARK  status: ('A' for Active; 'I' for Inactive)
REMARK    1  A    between atoms: C3_3  and  C24_30 
REMARK    2  A    between atoms: C5_5  and  C8_9 
REMARK    3  A    between atoms: C6_6  and  O1_7 
REMARK    4  A    between atoms: C8_9  and  C9_10 
REMARK    5  A    between atoms: C11_12  and  C20_23 
REMARK    6  A    between atoms: C20_23  and  C21_24 
REMARK    7  A    between atoms: C21_24  and  C22_25 
ROOT
HETATM    1  C9  UNL     1       0.727   0.610  -0.972  1.00  0.00     0.033 A 
HETATM    2  C10 UNL     1      -0.549   0.763  -0.412  1.00  0.00     0.134 A 
HETATM    3  C11 UNL     1      -1.104  -0.309   0.290  1.00  0.00     0.082 A 
HETATM    4  C12 UNL     1      -0.424  -1.512   0.519  1.00  0.00     0.101 A 
HETATM    5  C13 UNL     1       0.850  -1.622  -0.059  1.00  0.00     0.047 A 
HETATM    6  C14 UNL     1       1.424  -0.594  -0.829  1.00  0.00     0.131 A 
HETATM    7  O2  UNL     1       2.711  -0.679  -1.267  1.00  0.00    -0.190 OA
HETATM    8  C15 UNL     1       1.638  -2.805   0.287  1.00  0.00     0.002 C 
HETATM    9  C16 UNL     1       1.029  -3.809   0.939  1.00  0.00     0.001 C 
HETATM   10  C17 UNL     1      -0.458  -3.795   1.201  1.00  0.00     0.117 C 
HETATM   11  O3  UNL     1      -0.986  -2.496   1.288  1.00  0.00    -0.331 OA
HETATM   12  C18 UNL     1      -0.760  -4.495   2.531  1.00  0.00     0.035 C 
HETATM   13  C19 UNL     1      -1.144  -4.547   0.054  1.00  0.00     0.035 C 
HETATM   14  O5  UNL     1      -1.201   1.956  -0.455  1.00  0.00    -0.190 OA
ENDROOT
BRANCH   1  15
HETATM   15  C8  UNL     1       1.409   1.784  -1.631  1.00  0.00     0.061 C 
BRANCH  15  16
HETATM   16  C5  UNL     1       2.434   2.398  -0.715  1.00  0.00     0.030 C 
HETATM   17  C4  UNL     1       3.026   1.701   0.477  1.00  0.00     0.133 C 
HETATM   18  C3  UNL     1       4.381   1.750   0.569  1.00  0.00     0.071 C 
HETATM   19  O6  UNL     1       2.253   1.013   1.357  1.00  0.00    -0.190 OA
HETATM   20  C2  UNL     1       5.229   2.490  -0.399  1.00  0.00     0.133 C 
HETATM   21  C1  UNL     1       4.656   3.410  -1.222  1.00  0.00     0.026 C 
HETATM   22  O8  UNL     1       6.579   2.315  -0.394  1.00  0.00    -0.190 OA
HETATM   23  C6  UNL     1       3.169   3.642  -1.153  1.00  0.00     0.090 C 
HETATM   24  C26 UNL     1       5.493   4.172  -2.219  1.00  0.00     0.035 C 
BRANCH  18  25
HETATM   25  C24 UNL     1       5.099   0.993   1.673  1.00  0.00     0.113 C 
HETATM   26  C25 UNL     1       4.730  -0.449   1.958  1.00  0.00     0.061 C 
HETATM   27  O7  UNL     1       6.120   1.556   2.281  1.00  0.00    -0.195 OA
ENDBRANCH  18  25
BRANCH  23  28
HETATM   28  O1  UNL     1       2.587   4.856  -0.906  1.00  0.00    -0.329 OA
HETATM   29  C7  UNL     1       3.421   5.894  -0.446  1.00  0.00     0.181 C 
ENDBRANCH  23  28
ENDBRANCH  15  16
ENDBRANCH   1  15
BRANCH   3  30
HETATM   30  C20 UNL     1      -2.471  -0.068   0.891  1.00  0.00     0.177 C 
HETATM   31  O4  UNL     1      -2.570   0.793   1.752  1.00  0.00    -0.291 OA
BRANCH  30  32
HETATM   32  C21 UNL     1      -3.715  -0.642   0.230  1.00  0.00     0.069 C 
BRANCH  32  33
HETATM   33  C22 UNL     1      -3.514  -1.795  -0.760  1.00  0.00     0.008 C 
HETATM   34  C23 UNL     1      -4.795  -2.109  -1.545  1.00  0.00     0.001 C 
ENDBRANCH  32  33
ENDBRANCH  30  32
ENDBRANCH   3  30
TORSDOF 7
