REMARK  2 active torsions:
REMARK  status: ('A' for Active; 'I' for Inactive)
REMARK    1  A    between atoms: C2_2  and  N1_26 
REMARK    2  A    between atoms: C15_15  and  C18_19 
ROOT
HETATM    1  C1  UNL     1      -1.699  -0.424  -1.879  1.00  0.00     0.038 C 
HETATM    2  C2  UNL     1      -1.912  -1.731  -1.082  1.00  0.00     0.241 C 
HETATM    3  C3  UNL     1      -0.636  -2.340  -0.512  1.00  0.00     0.001 C 
HETATM    4  C4  UNL     1       0.523  -1.454  -0.086  1.00  0.00    -0.047 C 
HETATM    5  C5  UNL     1       0.410  -0.032  -0.603  1.00  0.00     0.015 A 
HETATM    6  C6  UNL     1      -0.231   0.012  -1.984  1.00  0.00     0.006 C 
HETATM    7  C7  UNL     1       1.502   0.916  -0.141  1.00  0.00     0.004 A 
HETATM    8  C8  UNL     1       2.430   0.489   1.007  1.00  0.00     0.001 C 
HETATM    9  C9  UNL     1       1.879  -0.589   1.964  1.00  0.00     0.004 C 
HETATM   10  C10 UNL     1       0.971  -1.677   1.364  1.00  0.00     0.022 C 
HETATM   11  C11 UNL     1       3.883   0.271   0.522  1.00  0.00     0.003 C 
HETATM   12  C12 UNL     1       4.411   1.575  -0.155  1.00  0.00     0.009 C 
HETATM   13  C13 UNL     1       3.586   1.826  -1.430  1.00  0.00     0.001 C 
HETATM   14  C14 UNL     1       2.085   1.963  -1.098  1.00  0.00     0.000 C 
HETATM   15  C15 UNL     1       5.913   1.250  -0.342  1.00  0.00     0.088 C 
HETATM   16  C16 UNL     1       6.272   0.537   0.975  1.00  0.00     0.159 C 
HETATM   17  C17 UNL     1       4.958   0.050   1.606  1.00  0.00     0.033 C 
HETATM   18  O1  UNL     1       7.137  -0.546   0.728  1.00  0.00    -0.223 OA
HETATM   19  C20 UNL     1       4.358   2.863   0.715  1.00  0.00     0.001 C 
HETATM   20  C21 UNL     1       3.911  -0.991  -0.377  1.00  0.00     0.000 C 
HETATM   21  C22 UNL     1       0.065   1.126   0.295  1.00  0.00     0.004 A 
HETATM   22  C23 UNL     1      -0.482  -3.677  -0.476  1.00  0.00    -0.003 C 
ENDROOT
BRANCH   2  23
HETATM   23  N1  UNL     1      -3.010  -1.633  -0.111  1.00  0.00     0.143 N 
HETATM   24  C24 UNL     1      -3.435  -2.929   0.404  1.00  0.00     0.286 C 
HETATM   25  C25 UNL     1      -2.752  -0.732   1.003  1.00  0.00     0.286 C 
ENDBRANCH   2  23
BRANCH  15  26
HETATM   26  C18 UNL     1       6.793   2.413  -0.784  1.00  0.00     0.153 C 
HETATM   27  O2  UNL     1       6.557   2.998  -1.818  1.00  0.00    -0.296 OA
HETATM   28  C19 UNL     1       7.978   2.844   0.061  1.00  0.00     0.072 C 
ENDBRANCH  15  26
TORSDOF 2
