REMARK  2 active torsions:
REMARK  status: ('A' for Active; 'I' for Inactive)
REMARK    1  A    between atoms: C2_2  and  N1_26 
REMARK    2  A    between atoms: C15_15  and  C18_19 
ROOT
HETATM    1  C1  UNL     1      -0.947  -1.355  -2.467  1.00  0.00     0.040 C 
HETATM    2  C2  UNL     1      -1.791  -2.038  -1.383  1.00  0.00     0.275 C 
HETATM    3  C3  UNL     1      -0.838  -2.634  -0.366  1.00  0.00    -0.011 C 
HETATM    4  C4  UNL     1       0.376  -1.809   0.041  1.00  0.00     0.020 C 
HETATM    5  C5  UNL     1       0.250  -0.356  -0.421  1.00  0.00     0.004 A 
HETATM    6  C6  UNL     1      -0.151  -0.178  -1.885  1.00  0.00     0.003 C 
HETATM    7  C7  UNL     1       1.203   0.663   0.181  1.00  0.00     0.000 A 
HETATM    8  C8  UNL     1       2.227   0.170   1.214  1.00  0.00     0.000 C 
HETATM    9  C9  UNL     1       1.942  -1.153   1.962  1.00  0.00     0.000 C 
HETATM   10  C10 UNL     1       0.700  -1.948   1.537  1.00  0.00     0.004 C 
HETATM   11  C11 UNL     1       3.651   0.211   0.591  1.00  0.00     0.003 C 
HETATM   12  C12 UNL     1       4.013   1.659   0.130  1.00  0.00     0.009 C 
HETATM   13  C13 UNL     1       3.073   2.038  -1.027  1.00  0.00     0.001 C 
HETATM   14  C14 UNL     1       1.604   1.938  -0.578  1.00  0.00     0.000 C 
HETATM   15  C15 UNL     1       5.516   1.524  -0.218  1.00  0.00     0.088 C 
HETATM   16  C16 UNL     1       6.045   0.610   0.902  1.00  0.00     0.159 C 
HETATM   17  C17 UNL     1       4.832  -0.093   1.533  1.00  0.00     0.033 C 
HETATM   18  O1  UNL     1       6.942  -0.343   0.380  1.00  0.00    -0.223 OA
HETATM   19  C20 UNL     1       3.918   2.751   1.232  1.00  0.00     0.001 C 
HETATM   20  C21 UNL     1       3.702  -0.844  -0.551  1.00  0.00     0.000 C 
HETATM   21  C22 UNL     1      -0.257   0.664   0.578  1.00  0.00     0.000 A 
HETATM   22  C23 UNL     1      -1.030  -3.896   0.056  1.00  0.00    -0.007 C 
ENDROOT
BRANCH  15  23
HETATM   23  C18 UNL     1       6.271   2.822  -0.485  1.00  0.00     0.153 C 
HETATM   24  O2  UNL     1       5.806   3.667  -1.217  1.00  0.00    -0.296 OA
HETATM   25  C19 UNL     1       7.642   3.041   0.126  1.00  0.00     0.072 C 
ENDBRANCH  15  23
BRANCH   2  26
HETATM   26  N1  UNL     1      -2.718  -1.097  -0.752  1.00  0.00     0.343 N 
HETATM   27  C24 UNL     1      -3.568  -1.686   0.280  1.00  0.00     0.329 C 
ENDBRANCH   2  26
TORSDOF 2
