REMARK  1 active torsions:
REMARK  status: ('A' for Active; 'I' for Inactive)
REMARK    1  A    between atoms: C3_3  and  C13_13 
ROOT
HETATM    1  C1  UNL     1      -0.386  -2.222   1.333  1.00  0.00     0.022 C 
HETATM    2  C2  UNL     1      -1.680  -1.827   0.619  1.00  0.00     0.004 C 
HETATM    3  C3  UNL     1      -1.733  -0.309   0.345  1.00  0.00     0.001 C 
HETATM    4  C4  UNL     1      -0.402   0.171  -0.302  1.00  0.00     0.008 C 
HETATM    5  C5  UNL     1       0.571  -0.969  -0.694  1.00  0.00     0.019 C 
HETATM    6  C6  UNL     1       0.826  -1.868   0.505  1.00  0.00    -0.044 C 
HETATM    7  C7  UNL     1       2.025  -2.364   0.849  1.00  0.00    -0.009 C 
HETATM    8  C8  UNL     1       1.857  -0.406  -1.335  1.00  0.00     0.008 C 
HETATM    9  C9  UNL     1       1.568   0.514  -2.528  1.00  0.00     0.022 C 
HETATM   10  C10 UNL     1       0.612   1.591  -2.092  1.00  0.00    -0.044 C 
HETATM   11  C11 UNL     1      -0.682   1.065  -1.528  1.00  0.00     0.022 C 
HETATM   12  C12 UNL     1       0.894   2.900  -2.178  1.00  0.00    -0.009 C 
ENDROOT
BRANCH   3  13
HETATM   13  C13 UNL     1      -2.140   0.528   1.592  1.00  0.00     0.000 C 
HETATM   14  C14 UNL     1      -2.230   2.040   1.303  1.00  0.00     0.000 C 
HETATM   15  C15 UNL     1      -3.495   0.094   2.189  1.00  0.00     0.000 C 
ENDBRANCH   3  13
TORSDOF 1
