REMARK  4 active torsions:
REMARK  status: ('A' for Active; 'I' for Inactive)
REMARK    1  A    between atoms: C1_1  and  C11_13 
REMARK    2  A    between atoms: C2_2  and  C3_3 
REMARK    3  A    between atoms: C5_5  and  O2_11 
REMARK    4  A    between atoms: C6_6  and  O1_9 
ROOT
HETATM    1  C3  UNL     1      -1.187   1.296   0.067  1.00  0.00     0.002 C 
HETATM    2  C4  UNL     1      -0.596   0.032   0.008  1.00  0.00     0.026 C 
HETATM    3  C5  UNL     1      -1.295  -1.170   0.209  1.00  0.00     0.116 C 
HETATM    4  C6  UNL     1      -2.701  -1.108   0.345  1.00  0.00     0.116 C 
HETATM    5  C7  UNL     1      -3.270   0.169   0.480  1.00  0.00     0.026 C 
HETATM    6  C8  UNL     1      -2.544   1.354   0.386  1.00  0.00     0.002 C 
ENDROOT
BRANCH   1   7
HETATM    7  C2  UNL     1      -0.360   2.514  -0.078  1.00  0.00     0.006 C 
HETATM    8  C1  UNL     1      -0.667   3.647  -0.745  1.00  0.00     0.070 C 
BRANCH   8   9
HETATM    9  C11 UNL     1      -1.865   3.871  -1.597  1.00  0.00     0.211 C 
HETATM   10  O3  UNL     1      -2.106   5.022  -1.950  1.00  0.00    -0.644 OA
HETATM   11  O4  UNL     1      -2.643   2.857  -2.038  1.00  0.00    -0.644 OA
ENDBRANCH   8   9
ENDBRANCH   1   7
BRANCH   3  12
HETATM   12  O2  UNL     1      -0.606  -2.348   0.078  1.00  0.00    -0.326 OA
HETATM   13  C10 UNL     1       0.276  -2.630   1.143  1.00  0.00     0.181 C 
ENDBRANCH   3  12
BRANCH   4  14
HETATM   14  O1  UNL     1      -3.578  -2.162   0.473  1.00  0.00    -0.326 OA
HETATM   15  C9  UNL     1      -3.122  -3.477   0.675  1.00  0.00     0.181 C 
ENDBRANCH   4  14
TORSDOF 4
