REMARK  7 active torsions:
REMARK  status: ('A' for Active; 'I' for Inactive)
REMARK    1  A    between atoms: C1_2  and  C21_30 
REMARK    2  A    between atoms: C4_5  and  O4_15 
REMARK    3  A    between atoms: C5_6  and  O2_7 
REMARK    4  A    between atoms: O2_7  and  C6_8 
REMARK    5  A    between atoms: O4_15  and  C12_16 
REMARK    6  A    between atoms: C12_16  and  C13_17 
REMARK    7  A    between atoms: C14_18  and  C15_19 
ROOT
HETATM    1  O1  UNL     1       7.511  -0.174  -0.743  1.00  0.00    -0.326 OA
HETATM    2  C1  UNL     1       8.306  -0.935   0.126  1.00  0.00     0.184 C 
HETATM    3  C2  UNL     1       7.686  -2.318   0.280  1.00  0.00     0.215 C 
HETATM    4  C3  UNL     1       6.280  -2.184   0.825  1.00  0.00     0.217 C 
HETATM    5  C4  UNL     1       5.468  -1.267  -0.075  1.00  0.00     0.214 C 
HETATM    6  C5  UNL     1       6.213   0.049  -0.234  1.00  0.00     0.272 C 
HETATM    7  O8  UNL     1       5.691  -3.459   0.875  1.00  0.00    -0.218 OA
HETATM    8  O9  UNL     1       8.421  -3.115   1.176  1.00  0.00    -0.218 OA
ENDROOT
BRANCH   5   9
HETATM    9  O4  UNL     1       4.228  -1.042   0.537  1.00  0.00    -0.293 OA
BRANCH   9  10
HETATM   10  C12 UNL     1       3.065  -1.273  -0.139  1.00  0.00     0.296 C 
HETATM   11  O7  UNL     1       3.069  -1.707  -1.288  1.00  0.00    -0.259 OA
BRANCH  10  12
HETATM   12  C13 UNL     1       1.766  -1.026   0.533  1.00  0.00     0.068 C 
HETATM   13  C14 UNL     1       0.567  -1.283  -0.046  1.00  0.00     0.005 C 
BRANCH  13  14
HETATM   14  C15 UNL     1      -0.750  -1.077   0.574  1.00  0.00     0.002 A 
HETATM   15  C16 UNL     1      -1.898  -1.473  -0.131  1.00  0.00     0.002 A 
HETATM   16  C17 UNL     1      -3.168  -1.303   0.418  1.00  0.00     0.029 A 
HETATM   17  C18 UNL     1      -3.337  -0.730   1.682  1.00  0.00     0.156 A 
HETATM   18  C19 UNL     1      -2.206  -0.322   2.396  1.00  0.00     0.156 A 
HETATM   19  O6  UNL     1      -4.567  -0.555   2.232  1.00  0.00    -0.188 OA
HETATM   20  C20 UNL     1      -0.936  -0.496   1.838  1.00  0.00     0.029 A 
HETATM   21  O5  UNL     1      -2.357   0.242   3.623  1.00  0.00    -0.188 OA
ENDBRANCH  13  14
ENDBRANCH  10  12
ENDBRANCH   9  10
ENDBRANCH   5   9
BRANCH   6  22
HETATM   22  O2  UNL     1       5.553   0.819  -1.214  1.00  0.00    -0.304 OA
BRANCH  22  23
HETATM   23  C6  UNL     1       5.944   2.111  -1.455  1.00  0.00     0.097 A 
HETATM   24  C7  UNL     1       5.322   2.813  -2.498  1.00  0.00     0.026 A 
HETATM   25  C8  UNL     1       5.652   4.129  -2.821  1.00  0.00     0.029 A 
HETATM   26  C9  UNL     1       6.636   4.820  -2.113  1.00  0.00     0.131 A 
HETATM   27  C10 UNL     1       7.276   4.131  -1.079  1.00  0.00     0.029 A 
HETATM   28  O3  UNL     1       6.969   6.103  -2.413  1.00  0.00    -0.190 OA
HETATM   29  C11 UNL     1       6.940   2.814  -0.760  1.00  0.00     0.026 A 
ENDBRANCH  22  23
ENDBRANCH   6  22
BRANCH   2  30
HETATM   30  C21 UNL     1       9.716  -1.003  -0.442  1.00  0.00     0.214 C 
HETATM   31  O10 UNL     1      10.284   0.292  -0.458  1.00  0.00    -0.218 OA
ENDBRANCH   2  30
TORSDOF 7
