REMARK  1 active torsions:
REMARK  status: ('A' for Active; 'I' for Inactive)
REMARK    1  A    between atoms: C12_13  and  C15_18 
ROOT
HETATM    1  C1  UNL     1      -3.096  -0.014  -1.772  1.00  0.00     0.000 C 
HETATM    2  C2  UNL     1      -2.954  -1.526  -1.900  1.00  0.00     0.000 C 
HETATM    3  C3  UNL     1      -1.908  -2.153  -0.924  1.00  0.00     0.001 C 
HETATM    4  C4  UNL     1      -2.337  -1.849   0.600  1.00  0.00     0.011 C 
HETATM    5  C5  UNL     1      -2.442  -0.256   0.680  1.00  0.00     0.022 C 
HETATM    6  C6  UNL     1      -3.505   0.238  -0.330  1.00  0.00     0.004 C 
HETATM    7  C7  UNL     1      -1.044   0.396   0.643  1.00  0.00     0.013 C 
HETATM    8  C8  UNL     1       0.082  -0.254   1.038  1.00  0.00     0.014 C 
HETATM    9  C9  UNL     1       0.111  -1.690   1.470  1.00  0.00     0.169 C 
HETATM   10  C10 UNL     1      -1.062  -2.628   1.171  1.00  0.00     0.069 C 
HETATM   11  O1  UNL     1       1.119  -2.163   1.981  1.00  0.00    -0.292 OA
HETATM   12  C11 UNL     1       1.448   0.387   1.018  1.00  0.00     0.062 C 
HETATM   13  C12 UNL     1       1.502   1.862   0.691  1.00  0.00     0.155 A 
HETATM   14  C13 UNL     1       0.319   2.635   0.471  1.00  0.00     0.203 A 
HETATM   15  C14 UNL     1      -0.896   1.839   0.277  1.00  0.00     0.198 C 
HETATM   16  O2  UNL     1      -1.824   2.472  -0.209  1.00  0.00    -0.289 OA
HETATM   17  O3  UNL     1       0.706   2.665   1.824  1.00  0.00    -0.346 OA
HETATM   18  C18 UNL     1      -3.044   0.258   2.044  1.00  0.00     0.004 C 
HETATM   19  C19 UNL     1      -2.149  -3.674  -1.233  1.00  0.00     0.000 C 
HETATM   20  C20 UNL     1      -0.517  -1.778  -1.498  1.00  0.00     0.000 C 
ENDROOT
BRANCH  13  21
HETATM   21  C15 UNL     1       2.851   2.473   0.273  1.00  0.00     0.152 C 
HETATM   22  C16 UNL     1       3.125   2.166  -1.205  1.00  0.00     0.036 C 
HETATM   23  C17 UNL     1       4.019   1.974   1.129  1.00  0.00     0.036 C 
HETATM   24  O4  UNL     1       2.853   3.883   0.390  1.00  0.00    -0.224 OA
ENDBRANCH  13  21
TORSDOF 1
