REMARK  2 active torsions:
REMARK  status: ('A' for Active; 'I' for Inactive)
REMARK    1  A    between atoms: C12_14  and  C14_17 
REMARK    2  A    between atoms: C14_17  and  C15_18 
ROOT
HETATM    1  C1  UNL     1      -3.207   5.980  -1.278  1.00  0.00     0.004 A 
HETATM    2  C2  UNL     1      -3.034   5.680  -2.626  1.00  0.00     0.028 A 
HETATM    3  C3  UNL     1      -2.846   4.366  -3.067  1.00  0.00     0.136 A 
HETATM    4  C4  UNL     1      -2.845   3.338  -2.100  1.00  0.00     0.087 A 
HETATM    5  C5  UNL     1      -3.028   3.609  -0.730  1.00  0.00     0.105 A 
HETATM    6  C6  UNL     1      -3.204   4.943  -0.347  1.00  0.00     0.025 A 
HETATM    7  O1  UNL     1      -3.040   2.662   0.252  1.00  0.00    -0.305 OA
HETATM    8  C7  UNL     1      -2.888   1.351  -0.086  1.00  0.00     0.128 A 
HETATM    9  C8  UNL     1      -2.683   0.919  -1.402  1.00  0.00     0.064 A 
HETATM   10  C9  UNL     1      -2.644   1.919  -2.497  1.00  0.00     0.201 A 
HETATM   11  O2  UNL     1      -2.456   1.566  -3.657  1.00  0.00    -0.286 OA
HETATM   12  C10 UNL     1      -2.501  -0.439  -1.689  1.00  0.00     0.005 A 
HETATM   13  C11 UNL     1      -2.533  -1.375  -0.656  1.00  0.00    -0.002 A 
HETATM   14  C12 UNL     1      -2.779  -0.975   0.660  1.00  0.00     0.009 A 
HETATM   15  C13 UNL     1      -2.938   0.393   0.938  1.00  0.00     0.150 A 
HETATM   16  O3  UNL     1      -3.131   0.829   2.213  1.00  0.00    -0.188 OA
HETATM   17  O4  UNL     1      -2.694   4.159  -4.405  1.00  0.00    -0.190 OA
ENDROOT
BRANCH  14  18
HETATM   18  C14 UNL     1      -2.813  -1.980   1.794  1.00  0.00     0.054 C 
BRANCH  18  19
HETATM   19  C15 UNL     1      -3.300  -3.357   1.414  1.00  0.00    -0.030 C 
HETATM   20  C16 UNL     1      -2.966  -4.511   2.021  1.00  0.00    -0.048 C 
HETATM   21  C17 UNL     1      -3.524  -5.834   1.549  1.00  0.00     0.026 C 
HETATM   22  C18 UNL     1      -2.043  -4.615   3.211  1.00  0.00     0.026 C 
ENDBRANCH  18  19
ENDBRANCH  14  18
TORSDOF 2
