REMARK  4 active torsions:
REMARK  status: ('A' for Active; 'I' for Inactive)
REMARK    1  A    between atoms: C2_2  and  C3_3 
REMARK    2  A    between atoms: C3_3  and  C4_4 
REMARK    3  A    between atoms: C4_4  and  C5_5 
REMARK    4  A    between atoms: C5_5  and  C6_6 
ROOT
HETATM    1  C1  UNL     1       1.469  -2.014   1.321  1.00  0.00     0.000 C 
HETATM    2  C2  UNL     1       1.217  -0.518   0.958  1.00  0.00     0.003 C 
HETATM    3  C9  UNL     1       2.428   0.413   1.253  1.00  0.00     0.028 C 
HETATM    4  C10 UNL     1       2.673   0.163   2.770  1.00  0.00     0.002 C 
HETATM    5  C11 UNL     1       1.234   0.054   3.321  1.00  0.00     0.000 C 
HETATM    6  C12 UNL     1       0.375   0.207   2.038  1.00  0.00     0.003 C 
HETATM    7  C13 UNL     1       0.449   1.711   1.693  1.00  0.00     0.033 C 
HETATM    8  C14 UNL     1       1.900   1.864   1.234  1.00  0.00     0.152 C 
HETATM    9  O2  UNL     1       2.002   2.477  -0.024  1.00  0.00    -0.224 OA
HETATM   10  C15 UNL     1       3.677   0.175   0.408  1.00  0.00     0.003 C 
ENDROOT
BRANCH   2  11
HETATM   11  C3  UNL     1       0.622  -0.633  -0.475  1.00  0.00     0.003 C 
BRANCH  11  12
HETATM   12  C4  UNL     1       0.203   0.529  -1.390  1.00  0.00     0.037 C 
BRANCH  12  13
HETATM   13  C5  UNL     1      -0.499   0.054  -2.669  1.00  0.00     0.171 C 
HETATM   14  O1  UNL     1      -0.747   1.178  -3.498  1.00  0.00    -0.219 OA
BRANCH  13  15
HETATM   15  C6  UNL     1      -1.806  -0.698  -2.513  1.00  0.00    -0.014 C 
HETATM   16  C7  UNL     1      -2.176  -1.611  -3.660  1.00  0.00     0.029 C 
HETATM   17  C8  UNL     1      -2.629  -0.548  -1.463  1.00  0.00    -0.007 C 
ENDBRANCH  13  15
ENDBRANCH  12  13
ENDBRANCH  11  12
ENDBRANCH   2  11
TORSDOF 4
