REMARK  1 active torsions:
REMARK  status: ('A' for Active; 'I' for Inactive)
REMARK    1  A    between atoms: C1_1  and  O3_19 
ROOT
HETATM    1  C1  UNL     1      -0.878   0.269   0.068  1.00  0.00     0.119 A 
HETATM    2  C2  UNL     1      -0.808  -1.146   0.002  1.00  0.00     0.028 A 
HETATM    3  C3  UNL     1       0.369  -1.882  -0.046  1.00  0.00     0.020 A 
HETATM    4  C4  UNL     1       1.572  -1.168  -0.035  1.00  0.00     0.069 A 
HETATM    5  C5  UNL     1       1.531   0.237   0.022  1.00  0.00     0.045 A 
HETATM    6  C6  UNL     1       0.335   0.978   0.073  1.00  0.00     0.154 A 
HETATM    7  O1  UNL     1       0.423   2.330   0.130  1.00  0.00    -0.188 OA
HETATM    8  C7  UNL     1       2.905   0.699   0.014  1.00  0.00     0.023 A 
HETATM    9  C8  UNL     1       3.701  -0.453  -0.048  1.00  0.00     0.085 A 
HETATM   10  N1  UNL     1       2.915  -1.603  -0.078  1.00  0.00    -0.273 N 
HETATM   11  C9  UNL     1       3.528  -2.833  -0.140  1.00  0.00     0.265 A 
HETATM   12  C10 UNL     1       5.014  -2.863  -0.178  1.00  0.00     0.063 A 
HETATM   13  C11 UNL     1       5.752  -1.721  -0.149  1.00  0.00     0.025 A 
HETATM   14  C12 UNL     1       5.098  -0.421  -0.078  1.00  0.00     0.098 A 
HETATM   15  N2  UNL     1       5.717   0.772  -0.043  1.00  0.00    -0.243 NA
HETATM   16  C13 UNL     1       4.963   1.884   0.017  1.00  0.00     0.099 A 
HETATM   17  C14 UNL     1       3.559   1.929   0.048  1.00  0.00     0.022 A 
HETATM   18  O2  UNL     1       2.879  -3.881  -0.164  1.00  0.00    -0.267 OA
ENDROOT
BRANCH   1  19
HETATM   19  O3  UNL     1      -2.151   0.791   0.101  1.00  0.00    -0.326 OA
HETATM   20  C15 UNL     1      -2.391   2.176   0.075  1.00  0.00     0.181 C 
ENDBRANCH   1  19
TORSDOF 1
