REMARK  12 active torsions:
REMARK  status: ('A' for Active; 'I' for Inactive)
REMARK    1  A    between atoms: C3_3  and  O4_16 
REMARK    2  A    between atoms: C5_6  and  C6_7 
REMARK    3  A    between atoms: C6_7  and  O2_8 
REMARK    4  A    between atoms: O2_8  and  C7_9 
REMARK    5  A    between atoms: C7_9  and  C8_10 
REMARK    6  A    between atoms: C8_10  and  C9_11 
REMARK    7  A    between atoms: C9_11  and  C10_12 
REMARK    8  A    between atoms: O4_16  and  C13_17 
REMARK    9  A    between atoms: C13_17  and  C14_18 
REMARK   10  A    between atoms: C14_18  and  C15_19 
REMARK   11  A    between atoms: C19_24  and  O6_26 
REMARK   12  A    between atoms: O6_26  and  C21_27 
ROOT
HETATM    1  C1  UNL     1       1.166  -0.639  -0.517  1.00  0.00     0.155 C 
HETATM    2  C2  UNL     1       1.287  -2.147  -0.255  1.00  0.00     0.119 C 
HETATM    3  C3  UNL     1       2.493  -2.493   0.599  1.00  0.00     0.252 C 
HETATM    4  O1  UNL     1       3.698  -1.956   0.098  1.00  0.00    -0.304 OA
HETATM    5  C4  UNL     1       3.651  -0.710  -0.452  1.00  0.00     0.115 C 
HETATM    6  C5  UNL     1       2.528  -0.032  -0.740  1.00  0.00     0.038 C 
HETATM    7  C18 UNL     1       1.225  -2.723  -1.660  1.00  0.00     0.153 A 
HETATM    8  C19 UNL     1       0.700  -1.708  -2.662  1.00  0.00     0.154 C 
HETATM    9  C20 UNL     1       0.232  -0.577  -1.736  1.00  0.00     0.068 C 
HETATM   10  C23 UNL     1       1.241  -4.130  -1.918  1.00  0.00     0.172 A 
HETATM   11  O8  UNL     1       2.496  -3.547  -2.162  1.00  0.00    -0.351 OA
HETATM   12  O9  UNL     1       0.570   0.008   0.580  1.00  0.00    -0.221 OA
ENDROOT
BRANCH   6  13
HETATM   13  C6  UNL     1       2.608   1.372  -1.303  1.00  0.00     0.178 C 
BRANCH  13  14
HETATM   14  O2  UNL     1       1.545   2.186  -0.844  1.00  0.00    -0.297 OA
BRANCH  14  15
HETATM   15  C7  UNL     1       1.521   3.461  -1.322  1.00  0.00     0.272 C 
HETATM   16  O3  UNL     1       2.424   3.957  -1.958  1.00  0.00    -0.264 OA
BRANCH  15  17
HETATM   17  C8  UNL     1       0.213   4.188  -1.038  1.00  0.00     0.096 C 
BRANCH  17  18
HETATM   18  C9  UNL     1      -1.050   3.338  -0.779  1.00  0.00     0.010 C 
HETATM   19  C12 UNL     1      -2.307   4.109  -1.228  1.00  0.00     0.001 C 
BRANCH  18  20
HETATM   20  C10 UNL     1      -1.159   2.939   0.708  1.00  0.00     0.001 C 
HETATM   21  C11 UNL     1      -2.214   1.857   0.978  1.00  0.00     0.000 C 
ENDBRANCH  18  20
ENDBRANCH  17  18
ENDBRANCH  15  17
ENDBRANCH  14  15
ENDBRANCH  13  14
ENDBRANCH   6  13
BRANCH   3  22
HETATM   22  O4  UNL     1       2.419  -1.955   1.903  1.00  0.00    -0.275 OA
BRANCH  22  23
HETATM   23  C13 UNL     1       1.550  -2.531   2.776  1.00  0.00     0.274 C 
HETATM   24  O5  UNL     1       0.816  -3.457   2.512  1.00  0.00    -0.264 OA
BRANCH  23  25
HETATM   25  C14 UNL     1       1.684  -1.900   4.151  1.00  0.00     0.096 C 
BRANCH  25  26
HETATM   26  C15 UNL     1       1.288  -0.413   4.201  1.00  0.00     0.010 C 
HETATM   27  C16 UNL     1      -0.206  -0.219   3.895  1.00  0.00     0.001 C 
HETATM   28  C17 UNL     1       1.629   0.182   5.577  1.00  0.00     0.001 C 
ENDBRANCH  25  26
ENDBRANCH  23  25
ENDBRANCH  22  23
ENDBRANCH   3  22
BRANCH   8  29
HETATM   29  O6  UNL     1      -0.348  -2.219  -3.446  1.00  0.00    -0.302 OA
BRANCH  29  30
HETATM   30  C21 UNL     1      -0.940  -1.377  -4.334  1.00  0.00     0.272 C 
HETATM   31  C22 UNL     1      -2.109  -2.068  -5.006  1.00  0.00     0.106 C 
HETATM   32  O7  UNL     1      -0.595  -0.237  -4.547  1.00  0.00    -0.264 OA
ENDBRANCH  29  30
ENDBRANCH   8  29
TORSDOF 12
