REMARK  3 active torsions:
REMARK  status: ('A' for Active; 'I' for Inactive)
REMARK    1  A    between atoms: C2_2  and  C3_3 
REMARK    2  A    between atoms: C3_3  and  C4_4 
REMARK    3  A    between atoms: C5_5  and  C6_6 
ROOT
HETATM    1  C1  UNL     1       1.196  -0.637   0.478  1.00  0.00     0.000 C 
HETATM    2  C2  UNL     1      -0.326  -0.943   0.649  1.00  0.00     0.006 C 
HETATM    3  C9  UNL     1      -0.636  -2.427   0.894  1.00  0.00     0.029 C 
HETATM    4  C10 UNL     1      -2.168  -2.358   1.006  1.00  0.00     0.003 C 
HETATM    5  C11 UNL     1      -2.407  -0.933   1.542  1.00  0.00     0.000 C 
HETATM    6  C12 UNL     1      -0.987  -0.307   1.963  1.00  0.00     0.003 C 
HETATM    7  C13 UNL     1      -0.019  -1.204   2.875  1.00  0.00     0.033 C 
HETATM    8  C14 UNL     1       0.031  -2.608   2.260  1.00  0.00     0.152 C 
HETATM    9  O2  UNL     1      -0.653  -3.542   3.062  1.00  0.00    -0.224 OA
HETATM   10  C15 UNL     1      -0.150  -3.433  -0.149  1.00  0.00     0.003 C 
ENDROOT
BRANCH   2  11
HETATM   11  C3  UNL     1      -0.885  -0.380  -0.702  1.00  0.00     0.026 C 
BRANCH  11  12
HETATM   12  C4  UNL     1      -0.843   1.128  -0.765  1.00  0.00    -0.028 C 
HETATM   13  C5  UNL     1      -0.601   1.814  -1.893  1.00  0.00    -0.001 C 
BRANCH  13  14
HETATM   14  C6  UNL     1      -0.553   3.324  -1.994  1.00  0.00     0.145 C 
HETATM   15  C7  UNL     1       0.903   3.785  -1.922  1.00  0.00     0.038 C 
HETATM   16  C8  UNL     1      -1.213   3.788  -3.294  1.00  0.00     0.038 C 
HETATM   17  O1  UNL     1      -1.254   3.931  -0.928  1.00  0.00    -0.222 OA
ENDBRANCH  13  14
ENDBRANCH  11  12
ENDBRANCH   2  11
TORSDOF 3
