REMARK  2 active torsions:
REMARK  status: ('A' for Active; 'I' for Inactive)
REMARK    1  A    between atoms: C3_3  and  C30_33 
REMARK    2  A    between atoms: C16_16  and  C25_27 
ROOT
HETATM    1  C1  UNL     1      -2.813  -0.988  -2.930  1.00  0.00     0.033 C 
HETATM    2  C2  UNL     1      -2.942  -2.504  -3.031  1.00  0.00     0.159 C 
HETATM    3  C3  UNL     1      -2.094  -3.247  -1.981  1.00  0.00     0.086 C 
HETATM    4  C4  UNL     1      -2.283  -2.665  -0.543  1.00  0.00     0.009 C 
HETATM    5  C5  UNL     1      -2.410  -1.121  -0.356  1.00  0.00     0.001 C 
HETATM    6  C6  UNL     1      -3.232  -0.521  -1.534  1.00  0.00     0.003 C 
HETATM    7  C7  UNL     1      -0.999  -0.446  -0.243  1.00  0.00     0.005 C 
HETATM    8  C8  UNL     1       0.115  -1.086   0.643  1.00  0.00     0.004 C 
HETATM    9  C9  UNL     1       0.075  -2.627   0.513  1.00  0.00     0.000 C 
HETATM   10  C10 UNL     1      -1.327  -3.244   0.521  1.00  0.00     0.001 C 
HETATM   11  C11 UNL     1       1.539  -0.505   0.220  1.00  0.00     0.017 C 
HETATM   12  C12 UNL     1       1.523   1.025   0.280  1.00  0.00    -0.049 C 
HETATM   13  C13 UNL     1       0.357   1.689   0.173  1.00  0.00    -0.035 C 
HETATM   14  C14 UNL     1      -1.009   1.071   0.017  1.00  0.00     0.025 C 
HETATM   15  C15 UNL     1       2.873   1.754   0.307  1.00  0.00     0.025 C 
HETATM   16  C16 UNL     1       3.798   1.209   1.425  1.00  0.00     0.090 C 
HETATM   17  C17 UNL     1       3.977  -0.310   1.197  1.00  0.00     0.158 C 
HETATM   18  C18 UNL     1       2.651  -1.073   1.148  1.00  0.00     0.037 C 
HETATM   19  O1  UNL     1       4.692  -0.601   0.020  1.00  0.00    -0.223 OA
HETATM   20  C19 UNL     1       5.162   1.941   1.431  1.00  0.00     0.157 C 
HETATM   21  C20 UNL     1       5.062   3.466   1.401  1.00  0.00     0.033 C 
HETATM   22  C21 UNL     1       4.149   4.028   0.293  1.00  0.00     0.003 C 
HETATM   23  C22 UNL     1       2.791   3.296   0.320  1.00  0.00     0.004 C 
HETATM   24  C23 UNL     1       3.915   5.533   0.570  1.00  0.00     0.000 C 
HETATM   25  C24 UNL     1       4.804   3.927  -1.101  1.00  0.00     0.000 C 
HETATM   26  O2  UNL     1       5.988   1.533   0.367  1.00  0.00    -0.223 OA
HETATM   27  C26 UNL     1       1.925  -0.840  -1.249  1.00  0.00     0.004 C 
HETATM   28  C27 UNL     1      -0.164  -0.755   2.137  1.00  0.00     0.000 C 
HETATM   29  C28 UNL     1      -3.325  -0.841   0.874  1.00  0.00     0.000 C 
HETATM   30  C29 UNL     1      -2.501  -4.746  -2.013  1.00  0.00     0.010 C 
HETATM   31  O5  UNL     1      -4.303  -2.850  -2.898  1.00  0.00    -0.223 OA
ENDROOT
BRANCH   3  32
HETATM   32  C30 UNL     1      -0.654  -3.171  -2.487  1.00  0.00     0.209 C 
HETATM   33  O4  UNL     1       0.013  -4.146  -2.743  1.00  0.00    -0.288 OA
ENDBRANCH   3  32
BRANCH  16  34
HETATM   34  C25 UNL     1       3.126   1.454   2.796  1.00  0.00     0.187 C 
HETATM   35  O3  UNL     1       3.875   0.879   3.848  1.00  0.00    -0.221 OA
ENDBRANCH  16  34
TORSDOF 2
