REMARK  3 active torsions:
REMARK  status: ('A' for Active; 'I' for Inactive)
REMARK    1  A    between atoms: C7_7  and  C8_8 
REMARK    2  A    between atoms: C8_8  and  C9_9 
REMARK    3  A    between atoms: C9_9  and  C10_10 
ROOT
HETATM    1  C1  UNL     1      -3.109   3.499   0.848  1.00  0.00     0.001 C 
HETATM    2  C2  UNL     1      -1.706   3.517   0.208  1.00  0.00     0.007 C 
HETATM    3  C3  UNL     1      -1.242   2.051   0.355  1.00  0.00     0.051 C 
HETATM    4  C4  UNL     1      -0.996   1.906   1.857  1.00  0.00     0.150 C 
HETATM    5  C5  UNL     1      -2.358   1.843   2.526  1.00  0.00     0.065 C 
HETATM    6  C6  UNL     1      -3.259   2.022   1.285  1.00  0.00     0.008 C 
HETATM    7  C7  UNL     1      -2.535   1.215   0.168  1.00  0.00     0.007 C 
HETATM    8  C14 UNL     1      -3.217   1.369  -1.205  1.00  0.00     0.000 C 
HETATM    9  O1  UNL     1       0.073   1.857   2.417  1.00  0.00    -0.296 OA
HETATM   10  C15 UNL     1      -0.026   1.694  -0.495  1.00  0.00     0.007 C 
ENDROOT
BRANCH   7  11
HETATM   11  C8  UNL     1      -2.401  -0.291   0.523  1.00  0.00     0.005 C 
BRANCH  11  12
HETATM   12  C9  UNL     1      -2.060  -1.258  -0.628  1.00  0.00     0.025 C 
BRANCH  12  13
HETATM   13  C10 UNL     1      -1.857  -2.673  -0.140  1.00  0.00    -0.035 C 
HETATM   14  C11 UNL     1      -2.118  -3.808  -0.813  1.00  0.00    -0.048 C 
HETATM   15  C12 UNL     1      -1.864  -5.145  -0.156  1.00  0.00     0.026 C 
HETATM   16  C13 UNL     1      -2.660  -3.872  -2.220  1.00  0.00     0.026 C 
ENDBRANCH  12  13
ENDBRANCH  11  12
ENDBRANCH   7  11
TORSDOF 3
