REMARK  7 active torsions:
REMARK  status: ('A' for Active; 'I' for Inactive)
REMARK    1  A    between atoms: C1_1  and  C15_15 
REMARK    2  A    between atoms: C5_5  and  C7_7 
REMARK    3  A    between atoms: C7_7  and  C8_8 
REMARK    4  A    between atoms: C8_8  and  C9_9 
REMARK    5  A    between atoms: C9_9  and  C10_10 
REMARK    6  A    between atoms: C15_15  and  C16_16 
REMARK    7  A    between atoms: C16_16  and  C17_17 
ROOT
HETATM    1  C1  UNL     1       1.197   2.775  -0.711  1.00  0.00    -0.048 C 
HETATM    2  C2  UNL     1       0.453   3.862  -0.440  1.00  0.00    -0.034 C 
HETATM    3  C3  UNL     1      -1.028   3.831  -0.169  1.00  0.00     0.026 C 
HETATM    4  C4  UNL     1      -1.667   2.525  -0.663  1.00  0.00     0.009 C 
HETATM    5  C5  UNL     1      -0.834   1.342  -0.156  1.00  0.00     0.023 C 
HETATM    6  C6  UNL     1       0.577   1.397  -0.766  1.00  0.00     0.026 C 
ENDROOT
BRANCH   5   7
HETATM    7  C7  UNL     1      -1.491  -0.006  -0.401  1.00  0.00    -0.044 C 
HETATM    8  C14 UNL     1      -1.827  -0.399  -1.641  1.00  0.00    -0.009 C 
BRANCH   7   9
HETATM    9  C8  UNL     1      -1.713  -0.851   0.838  1.00  0.00     0.026 C 
BRANCH   9  10
HETATM   10  C9  UNL     1      -2.317  -2.250   0.635  1.00  0.00     0.029 C 
BRANCH  10  11
HETATM   11  C10 UNL     1      -2.503  -2.984   1.943  1.00  0.00    -0.034 C 
HETATM   12  C11 UNL     1      -2.873  -4.271   2.071  1.00  0.00    -0.048 C 
HETATM   13  C12 UNL     1      -3.040  -4.911   3.429  1.00  0.00     0.026 C 
HETATM   14  C13 UNL     1      -3.159  -5.184   0.903  1.00  0.00     0.026 C 
ENDBRANCH  10  11
ENDBRANCH   9  10
ENDBRANCH   7   9
ENDBRANCH   5   7
BRANCH   1  15
HETATM   15  C15 UNL     1       2.657   2.913  -1.103  1.00  0.00     0.026 C 
BRANCH  15  16
HETATM   16  C16 UNL     1       3.593   1.858  -0.489  1.00  0.00     0.029 C 
BRANCH  16  17
HETATM   17  C17 UNL     1       5.042   2.103  -0.838  1.00  0.00    -0.034 C 
HETATM   18  C18 UNL     1       6.003   1.170  -0.968  1.00  0.00    -0.048 C 
HETATM   19  C19 UNL     1       7.420   1.554  -1.330  1.00  0.00     0.026 C 
HETATM   20  C20 UNL     1       5.795  -0.313  -0.771  1.00  0.00     0.026 C 
ENDBRANCH  16  17
ENDBRANCH  15  16
ENDBRANCH   1  15
TORSDOF 7
