REMARK  7 active torsions:
REMARK  status: ('A' for Active; 'I' for Inactive)
REMARK    1  A    between atoms: C3_3  and  C15_15 
REMARK    2  A    between atoms: C6_6  and  C7_7 
REMARK    3  A    between atoms: C7_7  and  C9_9 
REMARK    4  A    between atoms: C9_9  and  C10_10 
REMARK    5  A    between atoms: C10_10  and  C11_11 
REMARK    6  A    between atoms: C15_15  and  C16_16 
REMARK    7  A    between atoms: C16_16  and  C17_17 
ROOT
HETATM    1  C1  UNL     1       2.874   2.049  -0.592  1.00  0.00     0.029 C 
HETATM    2  C2  UNL     1       4.372   2.090  -0.765  1.00  0.00    -0.034 C 
HETATM    3  C3  UNL     1       5.198   1.080  -0.443  1.00  0.00    -0.048 C 
HETATM    4  C4  UNL     1       4.672  -0.220   0.120  1.00  0.00     0.022 C 
HETATM    5  C5  UNL     1       3.242  -0.084   0.663  1.00  0.00     0.009 C 
HETATM    6  C6  UNL     1       2.353   0.621  -0.371  1.00  0.00     0.023 C 
ENDROOT
BRANCH   6   7
HETATM    7  C7  UNL     1       0.868   0.603  -0.034  1.00  0.00    -0.044 C 
HETATM    8  C8  UNL     1      -0.025   0.293  -0.989  1.00  0.00    -0.009 C 
BRANCH   7   9
HETATM    9  C9  UNL     1       0.462   0.998   1.374  1.00  0.00     0.026 C 
BRANCH   9  10
HETATM   10  C10 UNL     1      -1.016   0.810   1.762  1.00  0.00     0.029 C 
BRANCH  10  11
HETATM   11  C11 UNL     1      -1.443  -0.638   1.746  1.00  0.00    -0.034 C 
HETATM   12  C12 UNL     1      -2.696  -1.087   1.941  1.00  0.00    -0.048 C 
HETATM   13  C13 UNL     1      -3.018  -2.562   1.891  1.00  0.00     0.026 C 
HETATM   14  C14 UNL     1      -3.875  -0.189   2.226  1.00  0.00     0.026 C 
ENDBRANCH  10  11
ENDBRANCH   9  10
ENDBRANCH   7   9
ENDBRANCH   6   7
BRANCH   3  15
HETATM   15  C15 UNL     1       6.698   1.182  -0.634  1.00  0.00     0.026 C 
BRANCH  15  16
HETATM   16  C16 UNL     1       7.239   0.186  -1.673  1.00  0.00     0.029 C 
BRANCH  16  17
HETATM   17  C17 UNL     1       8.733   0.339  -1.835  1.00  0.00    -0.034 C 
HETATM   18  C18 UNL     1       9.676  -0.620  -1.772  1.00  0.00    -0.048 C 
HETATM   19  C19 UNL     1      11.141  -0.276  -1.931  1.00  0.00     0.026 C 
HETATM   20  C20 UNL     1       9.415  -2.089  -1.540  1.00  0.00     0.026 C 
ENDBRANCH  16  17
ENDBRANCH  15  16
ENDBRANCH   3  15
TORSDOF 7
