REMARK  2 active torsions:
REMARK  status: ('A' for Active; 'I' for Inactive)
REMARK    1  A    between atoms: C3_3  and  C19_24 
REMARK    2  A    between atoms: C9_9  and  C10_10 
ROOT
HETATM    1  C1  UNL     1      -2.783   1.323   0.049  1.00  0.00    -0.028 C 
HETATM    2  C2  UNL     1      -3.093   0.088   0.486  1.00  0.00    -0.019 C 
HETATM    3  C3  UNL     1      -2.142  -1.074   0.268  1.00  0.00     0.129 C 
HETATM    4  C4  UNL     1      -0.736  -0.488   0.396  1.00  0.00     0.051 C 
HETATM    5  C5  UNL     1      -0.711   0.331  -0.900  1.00  0.00     0.106 C 
HETATM    6  C6  UNL     1      -1.473   1.634  -0.650  1.00  0.00     0.053 C 
HETATM    7  C7  UNL     1       0.764   0.376  -1.313  1.00  0.00     0.027 C 
HETATM    8  C8  UNL     1       1.549  -0.301  -0.160  1.00  0.00     0.018 C 
HETATM    9  C9  UNL     1       0.532  -1.357   0.325  1.00  0.00     0.091 C 
HETATM   10  C11 UNL     1       2.891  -0.765  -0.751  1.00  0.00     0.035 C 
HETATM   11  C12 UNL     1       3.555   0.602  -0.976  1.00  0.00     0.142 C 
HETATM   12  C13 UNL     1       2.892   1.407  -2.101  1.00  0.00     0.035 C 
HETATM   13  C14 UNL     1       1.402   1.680  -1.799  1.00  0.00     0.005 C 
HETATM   14  C15 UNL     1       3.274   1.296   0.329  1.00  0.00    -0.017 C 
HETATM   15  C16 UNL     1       2.027   0.697   0.923  1.00  0.00     0.025 C 
HETATM   16  C17 UNL     1       3.976   2.305   0.859  1.00  0.00    -0.007 C 
HETATM   17  O3  UNL     1       4.933   0.446  -1.209  1.00  0.00    -0.222 OA
HETATM   18  O4  UNL     1      -1.429  -0.424  -1.836  1.00  0.00    -0.306 OA
HETATM   19  C18 UNL     1      -2.217  -1.340  -1.223  1.00  0.00     0.277 C 
HETATM   20  O5  UNL     1      -2.883  -2.185  -1.778  1.00  0.00    -0.264 OA
ENDROOT
BRANCH   9  21
HETATM   21  C10 UNL     1       0.868  -2.148   1.576  1.00  0.00     0.185 C 
HETATM   22  O1  UNL     1       1.189  -3.313   1.601  1.00  0.00    -0.647 OA
HETATM   23  O2  UNL     1       0.692  -1.452   2.713  1.00  0.00    -0.647 OA
ENDBRANCH   9  21
BRANCH   3  24
HETATM   24  C19 UNL     1      -2.439  -2.313   1.100  1.00  0.00     0.196 C 
HETATM   25  O6  UNL     1      -2.225  -2.037   2.468  1.00  0.00    -0.220 OA
ENDBRANCH   3  24
TORSDOF 2
