REMARK  6 active torsions:
REMARK  status: ('A' for Active; 'I' for Inactive)
REMARK    1  A    between atoms: C1_1  and  C19_21 
REMARK    2  A    between atoms: C2_2  and  C3_3 
REMARK    3  A    between atoms: C6_7  and  C9_11 
REMARK    4  A    between atoms: C9_11  and  C10_12 
REMARK    5  A    between atoms: C10_12  and  C11_13 
REMARK    6  A    between atoms: C11_13  and  C12_14 
ROOT
HETATM    1  C3  UNL     1       4.554  -0.054  -0.095  1.00  0.00     0.033 A 
HETATM    2  C4  UNL     1       4.019   1.238   0.033  1.00  0.00     0.129 A 
HETATM    3  O1  UNL     1       4.812   2.342   0.091  1.00  0.00    -0.190 OA
HETATM    4  C5  UNL     1       2.632   1.403   0.100  1.00  0.00     0.023 A 
HETATM    5  C6  UNL     1       1.748   0.323   0.050  1.00  0.00    -0.018 A 
HETATM    6  C7  UNL     1       2.313  -0.949  -0.084  1.00  0.00     0.023 A 
HETATM    7  C8  UNL     1       3.692  -1.161  -0.159  1.00  0.00     0.129 A 
HETATM    8  O2  UNL     1       4.163  -2.431  -0.302  1.00  0.00    -0.190 OA
ENDROOT
BRANCH   1   9
HETATM    9  C2  UNL     1       6.063  -0.241  -0.158  1.00  0.00     0.051 C 
HETATM   10  C1  UNL     1       6.599  -0.955   1.098  1.00  0.00     0.027 C 
HETATM   11  C17 UNL     1       8.071  -1.329   0.878  1.00  0.00     0.009 C 
HETATM   12  C16 UNL     1       8.191  -2.324  -0.286  1.00  0.00     0.022 C 
HETATM   13  C15 UNL     1       7.399  -1.897  -1.499  1.00  0.00    -0.048 C 
HETATM   14  C14 UNL     1       6.445  -0.955  -1.431  1.00  0.00    -0.030 C 
HETATM   15  C18 UNL     1       7.720  -2.614  -2.787  1.00  0.00     0.026 C 
BRANCH  10  16
HETATM   16  C19 UNL     1       6.370  -0.142   2.360  1.00  0.00    -0.044 C 
HETATM   17  C20 UNL     1       5.441  -0.511   3.258  1.00  0.00    -0.009 C 
HETATM   18  C21 UNL     1       7.197   1.103   2.578  1.00  0.00     0.026 C 
ENDBRANCH  10  16
ENDBRANCH   1   9
BRANCH   5  19
HETATM   19  C9  UNL     1       0.241   0.458   0.126  1.00  0.00     0.026 C 
BRANCH  19  20
HETATM   20  C10 UNL     1      -0.327   1.885   0.194  1.00  0.00     0.005 C 
BRANCH  20  21
HETATM   21  C11 UNL     1      -1.866   1.935   0.273  1.00  0.00     0.000 C 
BRANCH  21  22
HETATM   22  C12 UNL     1      -2.586   2.128  -1.074  1.00  0.00     0.000 C 
HETATM   23  C13 UNL     1      -2.370   0.992  -2.080  1.00  0.00     0.000 C 
ENDBRANCH  21  22
ENDBRANCH  20  21
ENDBRANCH  19  20
ENDBRANCH   5  19
TORSDOF 6
