REMARK  9 active torsions:
REMARK  status: ('A' for Active; 'I' for Inactive)
REMARK    1  A    between atoms: C2_2  and  C12_13 
REMARK    2  A    between atoms: C5_5  and  C7_7 
REMARK    3  A    between atoms: C7_7  and  C8_8 
REMARK    4  A    between atoms: C8_8  and  C9_9 
REMARK    5  A    between atoms: C9_9  and  C10_10 
REMARK    6  A    between atoms: C12_13  and  C13_14 
REMARK    7  A    between atoms: C14_15  and  C15_16 
REMARK    8  A    between atoms: C15_16  and  C16_17 
REMARK    9  A    between atoms: C16_17  and  C17_18 
ROOT
HETATM    1  C1  UNL     1       2.763   2.102  -1.454  1.00  0.00     0.129 A 
HETATM    2  C2  UNL     1       3.276   1.236  -0.475  1.00  0.00     0.033 A 
HETATM    3  C3  UNL     1       2.407   0.585   0.415  1.00  0.00     0.129 A 
HETATM    4  C4  UNL     1       1.032   0.810   0.306  1.00  0.00     0.023 A 
HETATM    5  C5  UNL     1       0.491   1.658  -0.662  1.00  0.00    -0.018 A 
HETATM    6  C6  UNL     1       1.380   2.292  -1.532  1.00  0.00     0.023 A 
HETATM    7  O1  UNL     1       2.867  -0.243   1.392  1.00  0.00    -0.190 OA
HETATM    8  O2  UNL     1       3.572   2.772  -2.317  1.00  0.00    -0.190 OA
ENDROOT
BRANCH   2   9
HETATM    9  C12 UNL     1       4.775   1.030  -0.354  1.00  0.00     0.056 C 
BRANCH   9  10
HETATM   10  C13 UNL     1       5.157  -0.426  -0.244  1.00  0.00    -0.030 C 
HETATM   11  C14 UNL     1       6.152  -0.934   0.505  1.00  0.00    -0.048 C 
HETATM   12  C21 UNL     1       7.105  -0.083   1.316  1.00  0.00     0.026 C 
BRANCH  11  13
HETATM   13  C15 UNL     1       6.435  -2.421   0.624  1.00  0.00     0.026 C 
BRANCH  13  14
HETATM   14  C16 UNL     1       5.384  -3.386   0.053  1.00  0.00     0.030 C 
BRANCH  14  15
HETATM   15  C17 UNL     1       5.760  -4.818   0.358  1.00  0.00    -0.034 C 
HETATM   16  C18 UNL     1       5.003  -5.766   0.942  1.00  0.00    -0.048 C 
HETATM   17  C19 UNL     1       5.561  -7.147   1.205  1.00  0.00     0.026 C 
HETATM   18  C20 UNL     1       3.575  -5.587   1.397  1.00  0.00     0.026 C 
ENDBRANCH  14  15
ENDBRANCH  13  14
ENDBRANCH  11  13
ENDBRANCH   9  10
ENDBRANCH   2   9
BRANCH   5  19
HETATM   19  C7  UNL     1      -1.000   1.891  -0.764  1.00  0.00     0.026 C 
BRANCH  19  20
HETATM   20  C8  UNL     1      -1.385   3.353  -0.484  1.00  0.00     0.005 C 
BRANCH  20  21
HETATM   21  C9  UNL     1      -2.909   3.554  -0.490  1.00  0.00     0.000 C 
BRANCH  21  22
HETATM   22  C10 UNL     1      -3.341   5.012  -0.258  1.00  0.00     0.000 C 
HETATM   23  C11 UNL     1      -3.037   5.935  -1.446  1.00  0.00     0.000 C 
ENDBRANCH  21  22
ENDBRANCH  20  21
ENDBRANCH  19  20
ENDBRANCH   5  19
TORSDOF 9
