REMARK  4 active torsions:
REMARK  status: ('A' for Active; 'I' for Inactive)
REMARK    1  A    between atoms: O1_2  and  C2_3 
REMARK    2  A    between atoms: C3_4  and  O2_5 
REMARK    3  A    between atoms: C16_19  and  O4_25 
REMARK    4  A    between atoms: C17_20  and  O3_23 
ROOT
HETATM    1  C2  UNL     1      -2.038   2.089   0.417  1.00  0.00     0.118 A 
HETATM    2  C3  UNL     1      -1.940   0.873  -0.291  1.00  0.00     0.141 A 
HETATM    3  C5  UNL     1      -0.678   0.268  -0.464  1.00  0.00     0.153 A 
HETATM    4  C6  UNL     1       0.495   0.875   0.022  1.00  0.00     0.033 A 
HETATM    5  C7  UNL     1       0.399   2.127   0.633  1.00  0.00    -0.018 A 
HETATM    6  C8  UNL     1      -0.853   2.708   0.827  1.00  0.00     0.022 A 
HETATM    7  C9  UNL     1       1.635   2.883   1.035  1.00  0.00     0.062 C 
HETATM    8  C10 UNL     1       2.828   2.393   0.209  1.00  0.00     0.256 C 
HETATM    9  N1  UNL     1       2.965   0.964   0.410  1.00  0.00     0.144 N 
HETATM   10  C11 UNL     1       1.856   0.203  -0.159  1.00  0.00     0.248 C 
HETATM   11  C12 UNL     1       1.927  -1.182   0.511  1.00  0.00     0.064 C 
HETATM   12  C13 UNL     1       3.293  -1.800   0.355  1.00  0.00    -0.020 C 
HETATM   13  C14 UNL     1       4.410  -1.008   0.064  1.00  0.00     0.031 C 
HETATM   14  C15 UNL     1       4.240   0.488  -0.110  1.00  0.00     0.279 C 
HETATM   15  C16 UNL     1       5.692  -1.580  -0.046  1.00  0.00     0.114 C 
HETATM   16  C17 UNL     1       5.817  -2.983  -0.075  1.00  0.00     0.116 C 
HETATM   17  C18 UNL     1       4.712  -3.751   0.308  1.00  0.00     0.026 C 
HETATM   18  C19 UNL     1       3.459  -3.177   0.509  1.00  0.00    -0.002 C 
HETATM   19  O5  UNL     1      -0.558  -0.886  -1.173  1.00  0.00    -0.188 OA
ENDROOT
BRANCH   1  20
HETATM   20  O1  UNL     1      -3.287   2.643   0.579  1.00  0.00    -0.326 OA
HETATM   21  C1  UNL     1      -3.386   3.978   1.017  1.00  0.00     0.181 C 
ENDBRANCH   1  20
BRANCH   2  22
HETATM   22  O2  UNL     1      -3.139   0.327  -0.697  1.00  0.00    -0.324 OA
HETATM   23  C4  UNL     1      -3.264  -1.061  -0.893  1.00  0.00     0.182 C 
ENDBRANCH   2  22
BRANCH  15  24
HETATM   24  O4  UNL     1       6.772  -0.799  -0.376  1.00  0.00    -0.326 OA
HETATM   25  C21 UNL     1       7.598  -0.481   0.722  1.00  0.00     0.181 C 
ENDBRANCH  15  24
BRANCH  16  26
HETATM   26  O3  UNL     1       7.043  -3.579  -0.216  1.00  0.00    -0.326 OA
HETATM   27  C20 UNL     1       7.389  -3.842  -1.557  1.00  0.00     0.181 C 
ENDBRANCH  16  26
TORSDOF 4
