REMARK  8 active torsions:
REMARK  status: ('A' for Active; 'I' for Inactive)
REMARK    1  A    between atoms: C2_2  and  C15_19 
REMARK    2  A    between atoms: C4_4  and  C10_12 
REMARK    3  A    between atoms: C6_6  and  C7_7 
REMARK    4  A    between atoms: C7_7  and  C8_8 
REMARK    5  A    between atoms: C8_8  and  C9_9 
REMARK    6  A    between atoms: C10_12  and  C11_13 
REMARK    7  A    between atoms: C12_14  and  C14_16 
REMARK    8  A    between atoms: C15_19  and  C16_20 
ROOT
HETATM    1  C1  UNL     1       3.132   1.652  -0.119  1.00  0.00    -0.002 A 
HETATM    2  C2  UNL     1       3.552   0.346   0.163  1.00  0.00     0.025 A 
HETATM    3  C3  UNL     1       2.569  -0.633   0.399  1.00  0.00     0.127 A 
HETATM    4  C4  UNL     1       1.202  -0.292   0.340  1.00  0.00     0.007 A 
HETATM    5  C5  UNL     1       0.834   1.033   0.086  1.00  0.00    -0.006 A 
HETATM    6  C6  UNL     1       1.787   2.022  -0.158  1.00  0.00    -0.022 A 
HETATM    7  O4  UNL     1       2.893  -1.919   0.692  1.00  0.00    -0.191 OA
ENDROOT
BRANCH   4   8
HETATM    8  C10 UNL     1       0.178  -1.389   0.583  1.00  0.00     0.054 C 
BRANCH   8   9
HETATM    9  C11 UNL     1      -1.288  -1.142   0.325  1.00  0.00    -0.027 C 
HETATM   10  C12 UNL     1      -2.277  -1.989   0.668  1.00  0.00    -0.015 C 
HETATM   11  C13 UNL     1      -2.041  -3.324   1.338  1.00  0.00     0.029 C 
BRANCH  10  12
HETATM   12  C14 UNL     1      -3.735  -1.702   0.381  1.00  0.00     0.204 C 
HETATM   13  O3  UNL     1      -3.985  -0.371  -0.050  1.00  0.00    -0.216 OA
ENDBRANCH  10  12
ENDBRANCH   8   9
ENDBRANCH   4   8
BRANCH   2  14
HETATM   14  C15 UNL     1       5.061   0.141   0.170  1.00  0.00     0.001 C 
BRANCH  14  15
HETATM   15  C16 UNL     1       5.729  -1.170   0.499  1.00  0.00    -0.008 C 
HETATM   16  C17 UNL     1       7.058  -1.348   0.626  1.00  0.00    -0.044 C 
HETATM   17  C18 UNL     1       7.643  -2.705   0.946  1.00  0.00     0.026 C 
HETATM   18  C19 UNL     1       8.083  -0.253   0.454  1.00  0.00     0.026 C 
ENDBRANCH  14  15
ENDBRANCH   2  14
BRANCH   6  19
HETATM   19  C7  UNL     1       1.383   3.448  -0.462  1.00  0.00     0.038 C 
BRANCH  19  20
HETATM   20  C8  UNL     1       1.377   3.699  -1.978  1.00  0.00     0.102 C 
BRANCH  20  21
HETATM   21  C9  UNL     1       0.951   5.106  -2.357  1.00  0.00     0.186 C 
HETATM   22  O1  UNL     1       0.587   5.964  -1.584  1.00  0.00    -0.647 OA
HETATM   23  O2  UNL     1       1.037   5.278  -3.693  1.00  0.00    -0.647 OA
ENDBRANCH  20  21
ENDBRANCH  19  20
ENDBRANCH   6  19
TORSDOF 8
