REMARK  9 active torsions:
REMARK  status: ('A' for Active; 'I' for Inactive)
REMARK    1  A    between atoms: C2_2  and  O4_27 
REMARK    2  A    between atoms: C15_15  and  C18_18 
REMARK    3  A    between atoms: O4_27  and  C24_28 
REMARK    4  A    between atoms: C26_31  and  O7_35 
REMARK    5  A    between atoms: O7_35  and  C29_36 
REMARK    6  A    between atoms: C31_39  and  O10_43 
REMARK    7  A    between atoms: O10_43  and  C34_44 
REMARK    8  A    between atoms: C37_48  and  O12_50 
REMARK    9  A    between atoms: O12_50  and  C39_51 
ROOT
HETATM    1  C24 UNL     1       0.617   1.746  -0.742  1.00  0.00     0.238 C 
HETATM    2  O5  UNL     1       0.512   0.480  -0.103  1.00  0.00    -0.331 OA
HETATM    3  C25 UNL     1       1.029  -0.613  -0.852  1.00  0.00     0.148 C 
HETATM    4  C26 UNL     1       2.535  -0.391  -1.119  1.00  0.00     0.175 C 
HETATM    5  C27 UNL     1       2.789   0.977  -1.793  1.00  0.00     0.187 C 
HETATM    6  C28 UNL     1       2.102   2.088  -0.988  1.00  0.00     0.097 C 
HETATM    7  O6  UNL     1       4.178   1.248  -1.857  1.00  0.00    -0.221 OA
HETATM    8  C43 UNL     1       0.748  -1.881  -0.037  1.00  0.00     0.035 C 
ENDROOT
BRANCH   1   9
HETATM    9  O4  UNL     1       0.039   2.740   0.076  1.00  0.00    -0.333 OA
BRANCH   9  10
HETATM   10  C2  UNL     1      -1.320   2.990  -0.227  1.00  0.00     0.118 C 
HETATM   11  C1  UNL     1      -2.150   1.736   0.092  1.00  0.00     0.030 C 
HETATM   12  C6  UNL     1      -3.654   1.994  -0.090  1.00  0.00     0.003 C 
HETATM   13  C5  UNL     1      -4.164   3.209   0.725  1.00  0.00     0.000 C 
HETATM   14  C4  UNL     1      -3.309   4.449   0.346  1.00  0.00     0.002 C 
HETATM   15  C7  UNL     1      -5.660   3.510   0.408  1.00  0.00     0.002 C 
HETATM   16  C23 UNL     1      -4.008   2.898   2.223  1.00  0.00     0.000 C 
HETATM   17  C3  UNL     1      -1.807   4.207   0.576  1.00  0.00     0.030 C 
HETATM   18  C10 UNL     1      -3.791   5.725   1.057  1.00  0.00     0.000 C 
HETATM   19  C9  UNL     1      -5.271   5.994   0.773  1.00  0.00     0.002 C 
HETATM   20  C8  UNL     1      -6.150   4.783   1.147  1.00  0.00     0.028 C 
HETATM   21  C11 UNL     1      -7.654   5.076   0.914  1.00  0.00     0.127 C 
HETATM   22  C12 UNL     1      -8.572   3.846   1.129  1.00  0.00     0.029 C 
HETATM   23  C17 UNL     1      -8.033   5.512  -0.510  1.00  0.00     0.031 C 
HETATM   24  O3  UNL     1      -8.035   6.121   1.805  1.00  0.00    -0.226 OA
HETATM   25  C13 UNL     1      -8.047   2.633   0.336  1.00  0.00     0.003 C 
HETATM   26  C15 UNL     1      -9.912   4.344   0.555  1.00  0.00     0.023 C 
HETATM   27  C22 UNL     1      -8.742   3.484   2.609  1.00  0.00     0.003 C 
HETATM   28  C14 UNL     1      -6.594   2.318   0.701  1.00  0.00     0.000 C 
HETATM   29  C16 UNL     1      -9.506   5.131  -0.695  1.00  0.00     0.007 C 
BRANCH  26  30
HETATM   30  C18 UNL     1     -10.941   3.277   0.293  1.00  0.00    -0.009 A 
HETATM   31  C19 UNL     1     -11.537   3.027  -0.871  1.00  0.00     0.062 A 
HETATM   32  C20 UNL     1     -12.449   1.914  -0.654  1.00  0.00     0.296 A 
HETATM   33  O1  UNL     1     -12.400   1.502   0.619  1.00  0.00    -0.294 OA
HETATM   34  O2  UNL     1     -13.145   1.445  -1.525  1.00  0.00    -0.259 OA
HETATM   35  C21 UNL     1     -11.453   2.316   1.334  1.00  0.00     0.175 A 
ENDBRANCH  26  30
ENDBRANCH   9  10
ENDBRANCH   1   9
BRANCH   4  36
HETATM   36  O7  UNL     1       3.010  -1.434  -1.955  1.00  0.00    -0.328 OA
BRANCH  36  37
HETATM   37  C29 UNL     1       3.723  -2.428  -1.252  1.00  0.00     0.238 C 
HETATM   38  O8  UNL     1       5.000  -1.928  -0.879  1.00  0.00    -0.331 OA
HETATM   39  C30 UNL     1       5.801  -2.830  -0.125  1.00  0.00     0.148 C 
HETATM   40  C31 UNL     1       6.067  -4.106  -0.961  1.00  0.00     0.175 C 
HETATM   41  C42 UNL     1       7.086  -2.080   0.246  1.00  0.00     0.035 C 
HETATM   42  C32 UNL     1       4.746  -4.736  -1.455  1.00  0.00     0.187 C 
HETATM   43  C33 UNL     1       3.889  -3.668  -2.150  1.00  0.00     0.097 C 
HETATM   44  O9  UNL     1       5.006  -5.785  -2.369  1.00  0.00    -0.221 OA
BRANCH  40  45
HETATM   45  O10 UNL     1       6.774  -5.035  -0.160  1.00  0.00    -0.328 OA
BRANCH  45  46
HETATM   46  C34 UNL     1       8.157  -5.072  -0.439  1.00  0.00     0.238 C 
HETATM   47  O11 UNL     1       8.375  -5.725  -1.686  1.00  0.00    -0.331 OA
HETATM   48  C35 UNL     1       9.737  -5.799  -2.090  1.00  0.00     0.151 C 
HETATM   49  C36 UNL     1      10.541  -6.592  -1.035  1.00  0.00     0.207 C 
HETATM   50  C41 UNL     1       9.754  -6.459  -3.473  1.00  0.00     0.035 C 
HETATM   51  C37 UNL     1      10.375  -5.986   0.367  1.00  0.00     0.162 C 
HETATM   52  O14 UNL     1      11.912  -6.584  -1.387  1.00  0.00    -0.218 OA
HETATM   53  C38 UNL     1       8.885  -5.830   0.688  1.00  0.00     0.094 C 
BRANCH  51  54
HETATM   54  O12 UNL     1      10.983  -6.826   1.340  1.00  0.00    -0.301 OA
BRANCH  54  55
HETATM   55  C39 UNL     1      11.086  -6.234   2.527  1.00  0.00     0.272 C 
HETATM   56  C40 UNL     1      11.477  -7.143   3.662  1.00  0.00     0.106 C 
HETATM   57  O13 UNL     1      10.887  -5.057   2.713  1.00  0.00    -0.264 OA
ENDBRANCH  54  55
ENDBRANCH  51  54
ENDBRANCH  45  46
ENDBRANCH  40  45
ENDBRANCH  36  37
ENDBRANCH   4  36
TORSDOF 9
