REMARK  3 active torsions:
REMARK  status: ('A' for Active; 'I' for Inactive)
REMARK    1  A    between atoms: C5_5  and  C7_7 
REMARK    2  A    between atoms: C7_7  and  C8_8 
REMARK    3  A    between atoms: C9_9  and  C10_10 
ROOT
HETATM    1  C7  UNL     1      -1.318  -1.540   0.410  1.00  0.00     0.196 C 
HETATM    2  O1  UNL     1      -2.177  -2.394   0.637  1.00  0.00    -0.287 OA
ENDROOT
BRANCH   1   3
HETATM    3  C5  UNL     1       0.117  -1.956   0.523  1.00  0.00     0.039 A 
HETATM    4  C4  UNL     1       0.366  -3.296   0.877  1.00  0.00     0.003 A 
HETATM    5  C3  UNL     1       1.661  -3.800   1.013  1.00  0.00     0.000 A 
HETATM    6  C2  UNL     1       2.759  -2.970   0.796  1.00  0.00     0.000 A 
HETATM    7  C1  UNL     1       2.540  -1.638   0.444  1.00  0.00     0.000 A 
HETATM    8  C6  UNL     1       1.241  -1.143   0.312  1.00  0.00     0.003 A 
ENDBRANCH   1   3
BRANCH   1   9
HETATM    9  C8  UNL     1      -1.877  -0.202   0.054  1.00  0.00     0.042 C 
HETATM   10  C9  UNL     1      -1.284   0.970  -0.265  1.00  0.00     0.003 C 
BRANCH  10  11
HETATM   11  C10 UNL     1      -2.076   2.166  -0.580  1.00  0.00    -0.004 C 
HETATM   12  C11 UNL     1      -1.496   3.341  -0.896  1.00  0.00    -0.026 C 
HETATM   13  C12 UNL     1      -2.285   4.580  -1.224  1.00  0.00     0.031 C 
ENDBRANCH  10  11
ENDBRANCH   1   9
TORSDOF 3
