REMARK  9 active torsions:
REMARK  status: ('A' for Active; 'I' for Inactive)
REMARK    1  A    between atoms: C1_1  and  C2_2 
REMARK    2  A    between atoms: C1_1  and  C9_9 
REMARK    3  A    between atoms: C2_2  and  C3_3 
REMARK    4  A    between atoms: C3_3  and  C4_4 
REMARK    5  A    between atoms: C5_5  and  C6_6 
REMARK    6  A    between atoms: C9_9  and  C10_10 
REMARK       I    between atoms: C10_10  and  N1_11 
REMARK    7  A    between atoms: N1_11  and  C11_12 
REMARK    8  A    between atoms: C11_12  and  C12_13 
REMARK    9  A    between atoms: C16_17  and  O1_19 
ROOT
HETATM    1  C10 UNL     1       2.251  -1.537  -0.968  1.00  0.00     0.252 C 
HETATM    2  N1  UNL     1       1.549  -2.698  -0.783  1.00  0.00    -0.233 NA
HETATM    3  O3  UNL     1       3.250  -1.489  -1.646  1.00  0.00    -0.271 OA
ENDROOT
BRANCH   1   4
HETATM    4  C9  UNL     1       1.668  -0.323  -0.259  1.00  0.00     0.090 C 
BRANCH   4   5
HETATM    5  C1  UNL     1       2.494   0.954  -0.490  1.00  0.00     0.010 C 
BRANCH   5   6
HETATM    6  C2  UNL     1       1.914   2.184   0.229  1.00  0.00     0.005 C 
BRANCH   6   7
HETATM    7  C3  UNL     1       2.780   3.433  -0.007  1.00  0.00     0.026 C 
BRANCH   7   8
HETATM    8  C4  UNL     1       2.261   4.662   0.698  1.00  0.00    -0.031 C 
HETATM    9  C5  UNL     1       2.820   5.873   0.539  1.00  0.00    -0.031 C 
BRANCH   9  10
HETATM   10  C6  UNL     1       2.397   7.161   1.212  1.00  0.00     0.022 C 
HETATM   11  C7  UNL     1       1.075   7.082   1.991  1.00  0.00     0.005 C 
HETATM   12  C8  UNL     1       3.527   7.653   2.132  1.00  0.00     0.005 C 
ENDBRANCH   9  10
ENDBRANCH   7   8
ENDBRANCH   6   7
ENDBRANCH   5   6
ENDBRANCH   4   5
ENDBRANCH   1   4
BRANCH   2  13
HETATM   13  C11 UNL     1       1.962  -3.954  -1.408  1.00  0.00     0.155 C 
BRANCH  13  14
HETATM   14  C12 UNL     1       0.998  -5.051  -1.026  1.00  0.00     0.004 A 
HETATM   15  C13 UNL     1       1.470  -6.306  -0.635  1.00  0.00    -0.000 A 
HETATM   16  C14 UNL     1       0.570  -7.321  -0.316  1.00  0.00     0.029 A 
HETATM   17  C15 UNL     1      -0.809  -7.109  -0.373  1.00  0.00     0.153 A 
HETATM   18  C16 UNL     1      -1.313  -5.853  -0.750  1.00  0.00     0.119 A 
HETATM   19  O2  UNL     1      -1.677  -8.111  -0.070  1.00  0.00    -0.188 OA
HETATM   20  C17 UNL     1      -0.386  -4.848  -1.071  1.00  0.00     0.024 A 
BRANCH  18  21
HETATM   21  O1  UNL     1      -2.678  -5.709  -0.780  1.00  0.00    -0.326 OA
HETATM   22  C18 UNL     1      -3.224  -4.462  -1.137  1.00  0.00     0.181 C 
ENDBRANCH  18  21
ENDBRANCH  13  14
ENDBRANCH   2  13
TORSDOF 9
