REMARK  11 active torsions:
REMARK  status: ('A' for Active; 'I' for Inactive)
REMARK    1  A    between atoms: C5_5  and  C9_9 
REMARK    2  A    between atoms: C10_10  and  C11_11 
REMARK    3  A    between atoms: C12_12  and  C13_13 
REMARK    4  A    between atoms: C14_14  and  C15_15 
REMARK    5  A    between atoms: C16_16  and  C17_17 
REMARK    6  A    between atoms: C18_18  and  C19_19 
REMARK    7  A    between atoms: C20_20  and  C21_21 
REMARK    8  A    between atoms: C22_22  and  C23_23 
REMARK    9  A    between atoms: C24_24  and  C26_26 
REMARK   10  A    between atoms: C27_27  and  C28_28 
REMARK   11  A    between atoms: C28_28  and  C29_29 
ROOT
HETATM    1  C17 UNL     1       1.331  -0.603  -1.112  1.00  0.00    -0.000 C 
HETATM    2  C18 UNL     1       0.278  -0.699  -0.260  1.00  0.00    -0.000 C 
ENDROOT
BRANCH   2   3
HETATM    3  C19 UNL     1       0.400  -0.468   1.181  1.00  0.00    -0.004 C 
HETATM    4  C20 UNL     1      -0.650  -0.476   2.050  1.00  0.00    -0.022 C 
HETATM    5  C37 UNL     1      -2.050  -0.755   1.544  1.00  0.00     0.031 C 
BRANCH   4   6
HETATM    6  C21 UNL     1      -0.365  -0.162   3.460  1.00  0.00    -0.004 C 
HETATM    7  C22 UNL     1      -1.275  -0.063   4.462  1.00  0.00    -0.001 C 
BRANCH   7   8
HETATM    8  C23 UNL     1      -0.892   0.354   5.814  1.00  0.00    -0.004 C 
HETATM    9  C24 UNL     1      -1.765   0.581   6.833  1.00  0.00    -0.022 C 
HETATM   10  C25 UNL     1      -3.243   0.299   6.691  1.00  0.00     0.031 C 
BRANCH   9  11
HETATM   11  C26 UNL     1      -1.213   1.151   8.076  1.00  0.00    -0.001 C 
HETATM   12  C27 UNL     1      -1.950   1.838   8.979  1.00  0.00     0.037 C 
BRANCH  12  13
HETATM   13  C28 UNL     1      -1.479   2.531  10.210  1.00  0.00     0.172 C 
HETATM   14  O2  UNL     1      -2.373   2.872  10.979  1.00  0.00    -0.291 OA
BRANCH  13  15
HETATM   15  C29 UNL     1      -0.025   2.912  10.536  1.00  0.00     0.058 C 
HETATM   16  C30 UNL     1       0.001   4.156  11.475  1.00  0.00     0.040 C 
HETATM   17  C31 UNL     1       1.285   4.056  12.302  1.00  0.00     0.153 C 
HETATM   18  C32 UNL     1       1.853   2.662  12.045  1.00  0.00     0.033 C 
HETATM   19  O1  UNL     1       2.208   5.042  11.906  1.00  0.00    -0.223 OA
HETATM   20  C33 UNL     1       0.697   1.852  11.419  1.00  0.00     0.009 C 
HETATM   21  C34 UNL     1       1.250   0.626  10.668  1.00  0.00     0.001 C 
HETATM   22  C35 UNL     1      -0.206   1.312  12.554  1.00  0.00     0.001 C 
HETATM   23  C36 UNL     1       0.750   3.361   9.274  1.00  0.00     0.008 C 
ENDBRANCH  13  15
ENDBRANCH  12  13
ENDBRANCH   9  11
ENDBRANCH   7   8
ENDBRANCH   4   6
ENDBRANCH   2   3
BRANCH   1  24
HETATM   24  C16 UNL     1       1.135  -0.775  -2.553  1.00  0.00    -0.004 C 
HETATM   25  C15 UNL     1       2.052  -0.619  -3.545  1.00  0.00    -0.022 C 
HETATM   26  C38 UNL     1       1.546  -0.767  -4.967  1.00  0.00     0.031 C 
BRANCH  25  27
HETATM   27  C14 UNL     1       3.417  -0.135  -3.267  1.00  0.00    -0.004 C 
HETATM   28  C13 UNL     1       4.509  -0.214  -4.070  1.00  0.00    -0.001 C 
BRANCH  28  29
HETATM   29  C12 UNL     1       4.600  -0.978  -5.316  1.00  0.00    -0.004 C 
HETATM   30  C11 UNL     1       5.512  -0.779  -6.304  1.00  0.00    -0.022 C 
HETATM   31  C39 UNL     1       6.605   0.256  -6.184  1.00  0.00     0.031 C 
BRANCH  30  32
HETATM   32  C10 UNL     1       5.316  -1.563  -7.539  1.00  0.00    -0.005 C 
HETATM   33  C9  UNL     1       5.736  -1.179  -8.763  1.00  0.00    -0.005 C 
BRANCH  33  34
HETATM   34  C5  UNL     1       5.405  -1.865 -10.040  1.00  0.00    -0.030 C 
HETATM   35  C4  UNL     1       6.371  -1.942 -10.987  1.00  0.00    -0.045 C 
HETATM   36  C3  UNL     1       6.126  -2.425 -12.401  1.00  0.00     0.055 C 
HETATM   37  C40 UNL     1       7.803  -1.490 -10.779  1.00  0.00     0.026 C 
HETATM   38  C2  UNL     1       4.759  -3.050 -12.633  1.00  0.00     0.157 C 
HETATM   39  C1  UNL     1       3.705  -2.287 -11.847  1.00  0.00     0.037 C 
HETATM   40  O3  UNL     1       4.447  -3.010 -14.006  1.00  0.00    -0.223 OA
HETATM   41  C6  UNL     1       3.979  -2.345 -10.325  1.00  0.00     0.021 C 
HETATM   42  C7  UNL     1       3.786  -3.790  -9.818  1.00  0.00     0.004 C 
HETATM   43  C8  UNL     1       2.918  -1.432  -9.666  1.00  0.00     0.004 C 
ENDBRANCH  33  34
ENDBRANCH  30  32
ENDBRANCH  28  29
ENDBRANCH  25  27
ENDBRANCH   1  24
TORSDOF 11
