REMARK  3 active torsions:
REMARK  status: ('A' for Active; 'I' for Inactive)
REMARK    1  A    between atoms: C9_10  and  C12_14 
REMARK    2  A    between atoms: C12_14  and  O1_15 
REMARK    3  A    between atoms: O1_15  and  C13_16 
ROOT
HETATM    1  C1  UNL     1      -2.724   2.370  -0.136  1.00  0.00     0.000 A 
HETATM    2  C2  UNL     1      -3.257   1.060  -0.048  1.00  0.00     0.002 A 
HETATM    3  C3  UNL     1      -2.432  -0.052   0.013  1.00  0.00     0.019 A 
HETATM    4  C4  UNL     1      -1.038   0.167  -0.014  1.00  0.00     0.081 A 
HETATM    5  C5  UNL     1      -0.513   1.464  -0.101  1.00  0.00     0.019 A 
HETATM    6  C6  UNL     1      -1.357   2.591  -0.164  1.00  0.00     0.002 A 
HETATM    7  C7  UNL     1       0.919   1.335  -0.108  1.00  0.00     0.022 A 
HETATM    8  C8  UNL     1       1.233  -0.036  -0.027  1.00  0.00     0.104 A 
HETATM    9  N1  UNL     1       0.024  -0.726   0.031  1.00  0.00    -0.244 NA
HETATM   10  C9  UNL     1       2.573  -0.482  -0.014  1.00  0.00     0.162 A 
HETATM   11  N2  UNL     1       3.537   0.444  -0.085  1.00  0.00    -0.237 NA
HETATM   12  C10 UNL     1       3.237   1.754  -0.164  1.00  0.00     0.099 A 
HETATM   13  C11 UNL     1       1.948   2.280  -0.181  1.00  0.00     0.022 A 
ENDROOT
BRANCH  10  14
HETATM   14  C12 UNL     1       2.862  -1.951   0.077  1.00  0.00     0.315 C 
HETATM   15  O2  UNL     1       1.874  -2.686   0.111  1.00  0.00    -0.257 OA
BRANCH  14  16
HETATM   16  O1  UNL     1       4.091  -2.556   0.124  1.00  0.00    -0.297 OA
BRANCH  16  17
HETATM   17  C13 UNL     1       5.273  -1.806   0.097  1.00  0.00     0.152 C 
HETATM   18  C14 UNL     1       6.464  -2.757   0.191  1.00  0.00     0.035 C 
ENDBRANCH  16  17
ENDBRANCH  14  16
ENDBRANCH  10  14
TORSDOF 3
