REMARK  10 active torsions:
REMARK  status: ('A' for Active; 'I' for Inactive)
REMARK    1  A    between atoms: C1_1  and  O5_19 
REMARK    2  A    between atoms: C4_4  and  C9_11 
REMARK    3  A    between atoms: C6_6  and  C7_7 
REMARK    4  A    between atoms: C9_11  and  C10_12 
REMARK    5  A    between atoms: C10_12  and  C11_13 
REMARK    6  A    between atoms: O5_19  and  C15_20 
REMARK    7  A    between atoms: C15_20  and  C16_21 
REMARK    8  A    between atoms: C17_22  and  C18_23 
REMARK    9  A    between atoms: C18_23  and  C19_24 
REMARK   10  A    between atoms: C19_24  and  C20_25 
ROOT
HETATM    1  C1  UNL     1       0.340   0.024   1.305  1.00  0.00     0.097 A 
HETATM    2  C2  UNL     1       1.746   0.070   1.305  1.00  0.00     0.026 A 
HETATM    3  C3  UNL     1       2.498  -1.121   1.305  1.00  0.00     0.134 A 
HETATM    4  C4  UNL     1       1.836  -2.363   1.305  1.00  0.00     0.085 A 
HETATM    5  C5  UNL     1       0.428  -2.418   1.305  1.00  0.00     0.140 A 
HETATM    6  C6  UNL     1      -0.318  -1.223   1.305  1.00  0.00     0.082 A 
HETATM    7  O2  UNL     1      -0.189  -3.584   1.305  1.00  0.00    -0.190 OA
HETATM    8  O4  UNL     1       3.816  -1.068   1.305  1.00  0.00    -0.190 OA
HETATM    9  C14 UNL     1       2.443   1.387   1.305  1.00  0.00     0.035 C 
ENDROOT
BRANCH   1  10
HETATM   10  O5  UNL     1      -0.357   1.143   1.305  1.00  0.00    -0.326 OA
BRANCH  10  11
HETATM   11  C15 UNL     1      -0.160   2.051   0.230  1.00  0.00     0.174 C 
BRANCH  11  12
HETATM   12  C16 UNL     1      -1.473   2.692  -0.131  1.00  0.00    -0.002 C 
HETATM   13  C17 UNL     1      -2.248   2.090  -1.051  1.00  0.00    -0.045 C 
HETATM   14  C24 UNL     1      -1.762   0.809  -1.670  1.00  0.00     0.026 C 
BRANCH  13  15
HETATM   15  C18 UNL     1      -3.584   2.596  -1.525  1.00  0.00     0.026 C 
BRANCH  15  16
HETATM   16  C19 UNL     1      -3.592   2.906  -3.022  1.00  0.00     0.030 C 
BRANCH  16  17
HETATM   17  C20 UNL     1      -2.607   3.985  -3.391  1.00  0.00    -0.034 C 
HETATM   18  C21 UNL     1      -1.980   3.901  -4.574  1.00  0.00    -0.048 C 
HETATM   19  C22 UNL     1      -2.221   2.838  -5.613  1.00  0.00     0.026 C 
HETATM   20  C23 UNL     1      -0.949   4.944  -4.916  1.00  0.00     0.026 C 
ENDBRANCH  16  17
ENDBRANCH  15  16
ENDBRANCH  13  15
ENDBRANCH  11  12
ENDBRANCH  10  11
ENDBRANCH   1  10
BRANCH   6  21
HETATM   21  C7  UNL     1      -1.813  -1.275   1.305  1.00  0.00     0.177 C 
HETATM   22  C8  UNL     1      -2.563  -0.170   1.996  1.00  0.00     0.077 C 
HETATM   23  O1  UNL     1      -2.402  -2.184   0.764  1.00  0.00    -0.291 OA
ENDBRANCH   6  21
BRANCH   4  24
HETATM   24  C9  UNL     1       2.631  -3.631   1.305  1.00  0.00     0.177 C 
HETATM   25  O3  UNL     1       2.711  -4.314   0.311  1.00  0.00    -0.291 OA
BRANCH  24  26
HETATM   26  C10 UNL     1       3.328  -4.029   2.578  1.00  0.00     0.062 C 
HETATM   27  C13 UNL     1       4.481  -5.006   2.330  1.00  0.00     0.008 C 
BRANCH  26  28
HETATM   28  C11 UNL     1       2.354  -4.525   3.647  1.00  0.00     0.008 C 
HETATM   29  C12 UNL     1       1.723  -3.385   4.443  1.00  0.00     0.001 C 
ENDBRANCH  26  28
ENDBRANCH  24  26
ENDBRANCH   4  24
TORSDOF 10
