REMARK  4 active torsions:
REMARK  status: ('A' for Active; 'I' for Inactive)
REMARK    1  A    between atoms: C1_1  and  O4_11 
REMARK    2  A    between atoms: C5_5  and  C7_7 
REMARK    3  A    between atoms: O4_11  and  C8_12 
REMARK    4  A    between atoms: C9_14  and  C13_21 
ROOT
HETATM    1  C8  UNL     1       0.875   0.497  -0.071  1.00  0.00     0.274 C 
HETATM    2  O5  UNL     1       1.271   0.867  -1.375  1.00  0.00    -0.326 OA
HETATM    3  C9  UNL     1       0.910   2.185  -1.699  1.00  0.00     0.184 C 
HETATM    4  C10 UNL     1       1.572   3.156  -0.727  1.00  0.00     0.215 C 
HETATM    5  C11 UNL     1       1.172   2.821   0.695  1.00  0.00     0.220 C 
HETATM    6  C12 UNL     1       1.543   1.379   0.958  1.00  0.00     0.241 C 
HETATM    7  O6  UNL     1       1.097   0.998   2.234  1.00  0.00    -0.215 OA
HETATM    8  O7  UNL     1       1.857   3.663   1.587  1.00  0.00    -0.218 OA
HETATM    9  O8  UNL     1       1.174   4.481  -0.983  1.00  0.00    -0.218 OA
ENDROOT
BRANCH   1  10
HETATM   10  O4  UNL     1       1.370  -0.817   0.083  1.00  0.00    -0.304 OA
BRANCH  10  11
HETATM   11  C1  UNL     1       0.562  -1.868   0.437  1.00  0.00     0.097 A 
HETATM   12  C2  UNL     1       1.188  -3.041   0.883  1.00  0.00     0.026 A 
HETATM   13  C3  UNL     1       0.475  -4.171   1.273  1.00  0.00     0.030 A 
HETATM   14  C4  UNL     1      -0.923  -4.203   1.271  1.00  0.00     0.137 A 
HETATM   15  C5  UNL     1      -1.578  -3.027   0.864  1.00  0.00     0.092 A 
HETATM   16  O3  UNL     1      -1.556  -5.345   1.654  1.00  0.00    -0.190 OA
HETATM   17  C6  UNL     1      -0.838  -1.897   0.465  1.00  0.00     0.032 A 
BRANCH  15  18
HETATM   18  C7  UNL     1      -3.065  -2.924   0.840  1.00  0.00     0.213 C 
HETATM   19  O1  UNL     1      -3.712  -1.793   0.485  1.00  0.00    -0.644 OA
HETATM   20  O2  UNL     1      -3.779  -3.866   1.153  1.00  0.00    -0.644 OA
ENDBRANCH  15  18
ENDBRANCH  10  11
ENDBRANCH   1  10
BRANCH   3  21
HETATM   21  C13 UNL     1       1.330   2.456  -3.137  1.00  0.00     0.214 C 
HETATM   22  O9  UNL     1       0.568   1.652  -4.017  1.00  0.00    -0.218 OA
ENDBRANCH   3  21
TORSDOF 4
