REMARK  7 active torsions:
REMARK  status: ('A' for Active; 'I' for Inactive)
REMARK    1  A    between atoms: C6_6  and  O1_7 
REMARK    2  A    between atoms: C10_11  and  O5_30 
REMARK    3  A    between atoms: N1_15  and  C14_16 
REMARK    4  A    between atoms: C18_20  and  O4_28 
REMARK    5  A    between atoms: C20_22  and  O2_23 
REMARK    6  A    between atoms: O2_23  and  C21_24 
REMARK    7  A    between atoms: O5_30  and  C25_31 
ROOT
HETATM    1  C1  UNL     1      -2.977   1.172   0.879  1.00  0.00     0.030 C 
HETATM    2  C2  UNL     1      -3.023  -0.303   1.325  1.00  0.00     0.004 C 
HETATM    3  C3  UNL     1      -1.910  -1.167   0.606  1.00  0.00     0.022 C 
HETATM    4  C4  UNL     1      -0.537  -0.597   0.988  1.00  0.00     0.006 C 
HETATM    5  C5  UNL     1      -0.422   0.906   0.511  1.00  0.00     0.044 C 
HETATM    6  C6  UNL     1      -1.593   1.796   1.133  1.00  0.00     0.117 C 
HETATM    7  C8  UNL     1       0.960   1.621   1.020  1.00  0.00     0.009 C 
HETATM    8  C9  UNL     1       2.176   0.797   0.811  1.00  0.00     0.054 C 
HETATM    9  C10 UNL     1       2.310   0.355  -0.598  1.00  0.00     0.107 C 
HETATM   10  C11 UNL     1       0.920  -0.385  -1.053  1.00  0.00     0.046 C 
HETATM   11  C12 UNL     1       0.471  -1.468   0.041  1.00  0.00     0.004 C 
HETATM   12  C13 UNL     1      -0.358   0.633  -1.069  1.00  0.00     0.081 C 
HETATM   13  N1  UNL     1      -1.564  -0.078  -1.710  1.00  0.00    -0.370 N 
HETATM   14  C16 UNL     1      -1.947  -1.279  -0.971  1.00  0.00     0.097 C 
HETATM   15  C17 UNL     1       2.374   1.631  -1.534  1.00  0.00     0.058 C 
HETATM   16  C18 UNL     1       3.254   2.847  -1.061  1.00  0.00     0.120 C 
HETATM   17  C19 UNL     1       2.894   3.041   0.444  1.00  0.00     0.055 C 
HETATM   18  C20 UNL     1       3.250   1.784   1.363  1.00  0.00     0.129 C 
HETATM   19  C23 UNL     1       1.312   3.072   0.451  1.00  0.00     0.005 C 
ENDROOT
BRANCH   9  20
HETATM   20  O5  UNL     1       3.518  -0.543  -0.758  1.00  0.00    -0.306 OA
BRANCH  20  21
HETATM   21  C25 UNL     1       3.921  -1.803   0.019  1.00  0.00     0.272 C 
HETATM   22  C26 UNL     1       3.298  -2.401   1.280  1.00  0.00     0.106 C 
HETATM   23  O6  UNL     1       4.941  -2.376  -0.376  1.00  0.00    -0.264 OA
ENDBRANCH  20  21
ENDBRANCH   9  20
BRANCH  18  24
HETATM   24  O2  UNL     1       4.755   1.335   1.583  1.00  0.00    -0.304 OA
BRANCH  24  25
HETATM   25  C21 UNL     1       5.946   0.823   0.765  1.00  0.00     0.272 C 
HETATM   26  O3  UNL     1       6.964   0.581   1.419  1.00  0.00    -0.264 OA
HETATM   27  C22 UNL     1       6.097   0.541  -0.725  1.00  0.00     0.106 C 
ENDBRANCH  24  25
ENDBRANCH  18  24
BRANCH  16  28
HETATM   28  O4  UNL     1       4.639   2.755  -1.268  1.00  0.00    -0.354 OA
HETATM   29  C24 UNL     1       5.309   4.015  -0.945  1.00  0.00     0.174 C 
ENDBRANCH  16  28
BRANCH  13  30
HETATM   30  C14 UNL     1      -2.702   0.756  -2.215  1.00  0.00     0.097 C 
HETATM   31  C15 UNL     1      -3.696  -0.137  -2.990  1.00  0.00     0.026 C 
ENDBRANCH  13  30
BRANCH   6  32
HETATM   32  O1  UNL     1      -1.579   3.134   0.600  1.00  0.00    -0.354 OA
HETATM   33  C7  UNL     1      -2.625   3.929   1.173  1.00  0.00     0.174 C 
ENDBRANCH   6  32
TORSDOF 7
