REMARK  0 active torsions:
REMARK  status: ('A' for Active; 'I' for Inactive)
ROOT
HETATM    1  C1  UNL     1      -1.628  -1.157   0.088  1.00  0.00     0.119 A 
HETATM    2  C2  UNL     1      -1.471  -2.530   0.235  1.00  0.00     0.119 A 
HETATM    3  C3  UNL     1      -0.213  -3.097   0.408  1.00  0.00     0.024 A 
HETATM    4  C4  UNL     1       0.894  -2.237   0.417  1.00  0.00     0.009 A 
HETATM    5  C5  UNL     1       0.743  -0.847   0.252  1.00  0.00    -0.018 A 
HETATM    6  C6  UNL     1      -0.537  -0.293   0.089  1.00  0.00     0.022 A 
HETATM    7  C7  UNL     1       2.027  -0.041   0.215  1.00  0.00     0.092 C 
HETATM    8  C8  UNL     1       2.996  -0.832  -0.672  1.00  0.00     0.246 C 
HETATM    9  N1  UNL     1       3.256  -2.201  -0.257  1.00  0.00     0.147 N 
HETATM   10  C9  UNL     1       2.285  -2.777   0.660  1.00  0.00     0.277 C 
HETATM   11  C10 UNL     1       4.615  -2.223   0.276  1.00  0.00     0.288 C 
HETATM   12  C11 UNL     1       5.399  -1.177  -0.520  1.00  0.00     0.205 C 
HETATM   13  C12 UNL     1       4.323  -0.140  -0.648  1.00  0.00     0.014 C 
HETATM   14  C13 UNL     1       4.438   1.191  -0.670  1.00  0.00    -0.029 C 
HETATM   15  C14 UNL     1       3.212   2.056  -0.814  1.00  0.00     0.056 C 
HETATM   16  C15 UNL     1       1.905   1.420  -0.272  1.00  0.00     0.267 C 
HETATM   17  N2  UNL     1       1.365   2.211   0.836  1.00  0.00     0.338 N 
HETATM   18  C16 UNL     1       1.029   3.589   0.484  1.00  0.00     0.290 C 
HETATM   19  C17 UNL     1       2.128   4.261  -0.353  1.00  0.00     0.038 C 
HETATM   20  C18 UNL     1       3.439   3.470  -0.253  1.00  0.00     0.009 C 
HETATM   21  O1  UNL     1       6.529  -0.729   0.201  1.00  0.00    -0.217 OA
HETATM   22  O2  UNL     1      -2.712  -3.135   0.192  1.00  0.00    -0.300 OA
HETATM   23  C19 UNL     1      -3.692  -2.104   0.007  1.00  0.00     0.304 A 
HETATM   24  O3  UNL     1      -2.971  -0.868  -0.058  1.00  0.00    -0.300 OA
ENDROOT
TORSDOF 0
