REMARK  3 active torsions:
REMARK  status: ('A' for Active; 'I' for Inactive)
REMARK    1  A    between atoms: C2_2  and  C3_3 
REMARK    2  A    between atoms: C3_3  and  C4_4 
REMARK    3  A    between atoms: C4_4  and  C5_5 
ROOT
HETATM    1  C5  UNL     1      -0.557   0.015  -0.619  1.00  0.00    -0.048 C 
HETATM    2  C6  UNL     1      -1.087  -0.767   0.327  1.00  0.00    -0.035 C 
HETATM    3  C7  UNL     1      -0.576  -0.747   1.734  1.00  0.00     0.028 C 
HETATM    4  C8  UNL     1       0.921  -1.025   1.734  1.00  0.00     0.042 C 
HETATM    5  C9  UNL     1       1.683   0.294   1.734  1.00  0.00     0.125 C 
HETATM    6  C10 UNL     1       0.809   1.384   1.127  1.00  0.00     0.034 C 
HETATM    7  C11 UNL     1       0.573   0.948  -0.315  1.00  0.00     0.020 C 
HETATM    8  C12 UNL     1       0.337   2.213  -1.129  1.00  0.00     0.004 C 
HETATM    9  O1  UNL     1       1.845   0.591   3.094  1.00  0.00    -0.304 OA
HETATM   10  C13 UNL     1       1.946  -0.557   3.841  1.00  0.00     0.271 C 
HETATM   11  C14 UNL     1       1.316  -1.679   3.051  1.00  0.00     0.089 C 
HETATM   12  C15 UNL     1       0.091  -2.226   3.772  1.00  0.00     0.011 C 
HETATM   13  O2  UNL     1       2.449  -0.653   4.935  1.00  0.00    -0.264 OA
ENDROOT
BRANCH   1  14
HETATM   14  C4  UNL     1      -1.105  -0.043  -2.010  1.00  0.00     0.029 C 
BRANCH  14  15
HETATM   15  C3  UNL     1      -0.343   0.932  -2.898  1.00  0.00     0.069 C 
BRANCH  15  16
HETATM   16  C2  UNL     1      -0.895   0.873  -4.301  1.00  0.00     0.151 C 
HETATM   17  C1  UNL     1      -2.034  -0.062  -4.625  1.00  0.00     0.072 C 
HETATM   18  O3  UNL     1      -0.425   1.574  -5.165  1.00  0.00    -0.296 OA
ENDBRANCH  15  16
ENDBRANCH  14  15
ENDBRANCH   1  14
TORSDOF 3
