REMARK  5 active torsions:
REMARK  status: ('A' for Active; 'I' for Inactive)
REMARK    1  A    between atoms: C4_4  and  O6_25 
REMARK    2  A    between atoms: C13_14  and  C14_15 
REMARK    3  A    between atoms: O6_25  and  C20_26 
REMARK    4  A    between atoms: C25_33  and  O9_34 
REMARK    5  A    between atoms: O9_34  and  C26_35 
ROOT
HETATM    1  C1  UNL     1       0.042  -0.319   0.854  1.00  0.00     0.031 C 
HETATM    2  C2  UNL     1      -0.428  -2.029   0.528  1.00  0.00     0.030 C 
HETATM    3  C3  UNL     1       0.306  -2.927  -0.928  1.00  0.00     0.033 C 
HETATM    4  C4  UNL     1       2.104  -2.148  -1.390  1.00  0.00     0.127 C 
HETATM    5  C5  UNL     1       2.830  -0.939  -0.137  1.00  0.00     0.054 C 
HETATM    6  C6  UNL     1       1.722   0.103   0.712  1.00  0.00     0.037 C 
HETATM    7  C7  UNL     1       2.419   0.921   1.850  1.00  0.00     0.152 C 
HETATM    8  C8  UNL     1       3.906   1.257   1.552  1.00  0.00     0.038 C 
HETATM    9  C9  UNL     1       4.475   1.069   0.107  1.00  0.00     0.058 C 
HETATM   10  C10 UNL     1       4.126  -0.230  -0.619  1.00  0.00     0.132 A 
HETATM   11  C11 UNL     1       5.080  -0.492  -1.684  1.00  0.00     0.226 A 
HETATM   12  C12 UNL     1       6.490  -0.186  -1.509  1.00  0.00     0.302 C 
HETATM   13  O1  UNL     1       6.761   0.972  -0.909  1.00  0.00    -0.298 OA
HETATM   14  C13 UNL     1       5.998   1.297   0.214  1.00  0.00     0.151 C 
HETATM   15  O3  UNL     1       7.366  -0.878  -2.003  1.00  0.00    -0.261 OA
HETATM   16  O4  UNL     1       4.981  -1.601  -0.858  1.00  0.00    -0.346 OA
HETATM   17  C18 UNL     1       3.773   2.102  -0.811  1.00  0.00     0.005 C 
HETATM   18  O5  UNL     1       2.362   0.485   3.212  1.00  0.00    -0.224 OA
HETATM   19  C19 UNL     1       3.525  -1.655   1.102  1.00  0.00     0.005 C 
HETATM   20  C22 UNL     1       0.640  -2.768   1.215  1.00  0.00     0.102 C 
HETATM   21  O8  UNL     1       1.222  -1.986   0.209  1.00  0.00    -0.307 OA
HETATM   22  C23 UNL     1       0.529  -1.182  -1.209  1.00  0.00     0.274 C 
HETATM   23  C24 UNL     1       0.001   0.176  -1.482  1.00  0.00     0.126 C 
HETATM   24  C25 UNL     1      -0.791   0.369  -0.260  1.00  0.00     0.134 C 
HETATM   25  O11 UNL     1       0.295  -1.608  -2.374  1.00  0.00    -0.264 OA
HETATM   26  C28 UNL     1       1.042  -2.389   2.613  1.00  0.00     0.030 C 
HETATM   27  C29 UNL     1       0.872  -4.319   1.166  1.00  0.00     0.030 C 
HETATM   28  C30 UNL     1      -0.703   0.324   2.060  1.00  0.00     0.003 C 
ENDROOT
BRANCH  14  29
HETATM   29  C14 UNL     1       6.458   2.677   0.559  1.00  0.00     0.032 A 
HETATM   30  C15 UNL     1       7.271   3.022   1.593  1.00  0.00     0.121 A 
HETATM   31  O2  UNL     1       7.545   4.357   1.553  1.00  0.00    -0.303 OA
HETATM   32  C16 UNL     1       6.947   4.839   0.424  1.00  0.00     0.122 A 
HETATM   33  C17 UNL     1       6.274   3.857  -0.229  1.00  0.00     0.027 A 
ENDBRANCH  14  29
BRANCH   4  34
HETATM   34  O6  UNL     1       2.338  -1.105  -2.490  1.00  0.00    -0.304 OA
BRANCH  34  35
HETATM   35  C20 UNL     1       2.853  -1.252  -3.721  1.00  0.00     0.272 C 
HETATM   36  O7  UNL     1       2.811  -0.347  -4.552  1.00  0.00    -0.264 OA
HETATM   37  C21 UNL     1       3.621  -2.507  -3.990  1.00  0.00     0.106 C 
ENDBRANCH  34  35
ENDBRANCH   4  34
BRANCH  24  38
HETATM   38  O9  UNL     1      -0.934   1.747  -0.299  1.00  0.00    -0.304 OA
BRANCH  38  39
HETATM   39  C26 UNL     1      -2.201   2.196  -0.477  1.00  0.00     0.272 C 
HETATM   40  C27 UNL     1      -2.253   3.700  -0.389  1.00  0.00     0.106 C 
HETATM   41  O10 UNL     1      -3.176   1.504  -0.670  1.00  0.00    -0.264 OA
ENDBRANCH  38  39
ENDBRANCH  24  38
TORSDOF 5
