REMARK  1 active torsions:
REMARK  status: ('A' for Active; 'I' for Inactive)
REMARK    1  A    between atoms: C12_13  and  C15_17 
ROOT
HETATM    1  C1  UNL     1       7.038   0.465   0.900  1.00  0.00     0.001 C 
HETATM    2  C2  UNL     1       7.205  -0.971   0.392  1.00  0.00     0.004 C 
HETATM    3  C3  UNL     1       6.542  -1.213  -0.979  1.00  0.00     0.015 C 
HETATM    4  C4  UNL     1       5.052  -0.886  -0.884  1.00  0.00    -0.042 C 
HETATM    5  C5  UNL     1       4.580   0.017   0.255  1.00  0.00     0.021 C 
HETATM    6  C6  UNL     1       5.671   1.068   0.541  1.00  0.00     0.004 C 
HETATM    7  C7  UNL     1       3.151   0.617   0.014  1.00  0.00     0.038 C 
HETATM    8  C8  UNL     1       2.237  -0.569  -0.398  1.00  0.00     0.065 C 
HETATM    9  C9  UNL     1       2.727  -1.202  -1.689  1.00  0.00     0.172 C 
HETATM   10  C10 UNL     1       4.189  -1.397  -1.784  1.00  0.00     0.029 C 
HETATM   11  O1  UNL     1       1.973  -1.604  -2.566  1.00  0.00    -0.291 OA
HETATM   12  C11 UNL     1       0.733  -0.248  -0.465  1.00  0.00     0.012 C 
HETATM   13  C12 UNL     1       0.170   0.376   0.828  1.00  0.00     0.021 C 
HETATM   14  C13 UNL     1       1.060   1.577   1.198  1.00  0.00     0.037 C 
HETATM   15  C14 UNL     1       2.550   1.243   1.297  1.00  0.00     0.153 C 
HETATM   16  O2  UNL     1       3.206   2.438   1.660  1.00  0.00    -0.223 OA
HETATM   17  C17 UNL     1       0.152  -0.657   1.974  1.00  0.00     0.004 C 
HETATM   18  C18 UNL     1       3.196   1.661  -1.129  1.00  0.00     0.003 C 
HETATM   19  C19 UNL     1       6.781  -2.703  -1.325  1.00  0.00     0.004 C 
HETATM   20  C20 UNL     1       7.201  -0.356  -2.078  1.00  0.00     0.004 C 
ENDROOT
BRANCH  13  21
HETATM   21  C15 UNL     1      -1.230   0.903   0.527  1.00  0.00    -0.027 C 
HETATM   22  C16 UNL     1      -2.368   0.595   1.166  1.00  0.00    -0.005 C 
ENDBRANCH  13  21
TORSDOF 1
