REMARK  3 active torsions:
REMARK  status: ('A' for Active; 'I' for Inactive)
REMARK    1  A    between atoms: C7_7  and  C10_13 
REMARK    2  A    between atoms: C15_19  and  O7_32 
REMARK    3  A    between atoms: O7_32  and  C26_33 
ROOT
HETATM    1  C1  UNL     1       1.593   1.137   1.820  1.00  0.00     0.153 C 
HETATM    2  C2  UNL     1       1.532   0.042   0.750  1.00  0.00     0.039 C 
HETATM    3  C3  UNL     1       2.884  -0.744   0.652  1.00  0.00     0.054 C 
HETATM    4  C4  UNL     1       4.049   0.285   0.824  1.00  0.00     0.132 A 
HETATM    5  C5  UNL     1       3.808   1.782   0.594  1.00  0.00     0.058 C 
HETATM    6  C6  UNL     1       2.558   2.252   1.392  1.00  0.00     0.038 C 
HETATM    7  C7  UNL     1       5.025   2.605   1.079  1.00  0.00     0.151 C 
HETATM    8  O1  UNL     1       6.227   2.083   0.576  1.00  0.00    -0.298 OA
HETATM    9  C8  UNL     1       6.417   0.753   0.362  1.00  0.00     0.302 C 
HETATM   10  C9  UNL     1       5.402  -0.199   0.828  1.00  0.00     0.226 A 
HETATM   11  O2  UNL     1       4.955   0.061   2.134  1.00  0.00    -0.346 OA
HETATM   12  O3  UNL     1       7.415   0.336  -0.190  1.00  0.00    -0.261 OA
HETATM   13  C14 UNL     1       3.648   2.068  -0.923  1.00  0.00     0.005 C 
HETATM   14  C15 UNL     1       2.905  -1.500  -0.713  1.00  0.00     0.127 C 
HETATM   15  C16 UNL     1       1.594  -1.436  -1.504  1.00  0.00     0.033 C 
HETATM   16  C17 UNL     1       0.248  -1.562  -0.735  1.00  0.00     0.032 C 
HETATM   17  C18 UNL     1       0.215  -0.775   0.612  1.00  0.00     0.024 C 
HETATM   18  C19 UNL     1      -0.995   0.124   0.393  1.00  0.00    -0.021 C 
HETATM   19  C20 UNL     1      -2.224  -0.353   0.123  1.00  0.00     0.064 C 
HETATM   20  C21 UNL     1      -2.588  -1.796  -0.006  1.00  0.00     0.295 C 
HETATM   21  O5  UNL     1      -1.817  -2.883  -0.318  1.00  0.00    -0.303 OA
HETATM   22  C22 UNL     1      -0.510  -2.902  -0.822  1.00  0.00     0.102 C 
HETATM   23  C23 UNL     1       0.252  -4.038  -0.124  1.00  0.00     0.030 C 
HETATM   24  C24 UNL     1      -0.686  -3.355  -2.295  1.00  0.00     0.030 C 
HETATM   25  O6  UNL     1      -3.782  -1.999   0.215  1.00  0.00    -0.259 OA
HETATM   26  C25 UNL     1      -0.141  -1.473   1.946  1.00  0.00     0.004 C 
HETATM   27  C28 UNL     1       3.017  -1.880   1.709  1.00  0.00     0.005 C 
HETATM   28  O9  UNL     1       2.008   0.624   3.062  1.00  0.00    -0.223 OA
ENDROOT
BRANCH   7  29
HETATM   29  C10 UNL     1       4.949   4.073   0.732  1.00  0.00     0.032 A 
HETATM   30  C11 UNL     1       4.364   5.071   1.454  1.00  0.00     0.121 A 
HETATM   31  O4  UNL     1       4.492   6.275   0.826  1.00  0.00    -0.303 OA
HETATM   32  C12 UNL     1       5.187   6.034  -0.321  1.00  0.00     0.122 A 
HETATM   33  C13 UNL     1       5.496   4.713  -0.430  1.00  0.00     0.027 A 
ENDBRANCH   7  29
BRANCH  14  34
HETATM   34  O7  UNL     1       3.957  -1.015  -1.501  1.00  0.00    -0.304 OA
BRANCH  34  35
HETATM   35  C26 UNL     1       4.438  -1.785  -2.515  1.00  0.00     0.272 C 
HETATM   36  C27 UNL     1       5.593  -1.080  -3.196  1.00  0.00     0.106 C 
HETATM   37  O8  UNL     1       4.018  -2.877  -2.824  1.00  0.00    -0.264 OA
ENDBRANCH  34  35
ENDBRANCH  14  34
TORSDOF 3
