REMARK  9 active torsions:
REMARK  status: ('A' for Active; 'I' for Inactive)
REMARK    1  A    between atoms: C3_3  and  C4_4 
REMARK    2  A    between atoms: C5_5  and  C6_6 
REMARK    3  A    between atoms: C7_7  and  C8_8 
REMARK    4  A    between atoms: C8_8  and  C9_9 
REMARK    5  A    between atoms: C9_9  and  C10_10 
REMARK    6  A    between atoms: C11_11  and  C12_12 
REMARK    7  A    between atoms: C12_12  and  C13_13 
REMARK    8  A    between atoms: C13_13  and  C14_14 
REMARK    9  A    between atoms: C15_15  and  C16_16 
ROOT
HETATM    1  C9  UNL     1       6.964  -0.453   0.315  1.00  0.00     0.026 C 
ENDROOT
BRANCH   1   2
HETATM    2  C8  UNL     1       5.898   0.338  -0.462  1.00  0.00     0.030 C 
BRANCH   2   3
HETATM    3  C7  UNL     1       4.531  -0.297  -0.358  1.00  0.00    -0.030 C 
HETATM    4  C6  UNL     1       3.342   0.349  -0.291  1.00  0.00    -0.026 C 
HETATM    5  C19 UNL     1       3.260   1.859  -0.349  1.00  0.00     0.031 C 
BRANCH   4   6
HETATM    6  C5  UNL     1       2.124  -0.478  -0.210  1.00  0.00    -0.005 C 
HETATM    7  C4  UNL     1       0.864  -0.003  -0.055  1.00  0.00    -0.001 C 
BRANCH   7   8
HETATM    8  C3  UNL     1      -0.294  -0.903  -0.003  1.00  0.00    -0.009 C 
HETATM    9  C2  UNL     1      -1.593  -0.538   0.088  1.00  0.00    -0.044 C 
HETATM   10  C1  UNL     1      -2.690  -1.579   0.119  1.00  0.00     0.026 C 
HETATM   11  C20 UNL     1      -2.100   0.883   0.150  1.00  0.00     0.026 C 
ENDBRANCH   7   8
ENDBRANCH   4   6
ENDBRANCH   2   3
ENDBRANCH   1   2
BRANCH   1  12
HETATM   12  C10 UNL     1       8.359   0.115   0.134  1.00  0.00    -0.048 C 
HETATM   13  C11 UNL     1       9.322  -0.602  -0.476  1.00  0.00    -0.034 C 
HETATM   14  C18 UNL     1       8.575   1.506   0.682  1.00  0.00     0.026 C 
BRANCH  13  15
HETATM   15  C12 UNL     1      10.742  -0.160  -0.733  1.00  0.00     0.030 C 
BRANCH  15  16
HETATM   16  C13 UNL     1      11.660  -0.581   0.424  1.00  0.00     0.026 C 
BRANCH  16  17
HETATM   17  C14 UNL     1      13.106  -0.188   0.194  1.00  0.00    -0.045 C 
HETATM   18  C15 UNL     1      14.058  -1.122   0.018  1.00  0.00     0.001 C 
HETATM   19  C17 UNL     1      13.390   1.296   0.193  1.00  0.00     0.026 C 
BRANCH  18  20
HETATM   20  C16 UNL     1      15.520  -0.858  -0.224  1.00  0.00     0.208 C 
HETATM   21  O1  UNL     1      16.196  -0.616   1.003  1.00  0.00    -0.215 OA
ENDBRANCH  18  20
ENDBRANCH  16  17
ENDBRANCH  15  16
ENDBRANCH  13  15
ENDBRANCH   1  12
TORSDOF 9
