REMARK  4 active torsions:
REMARK  status: ('A' for Active; 'I' for Inactive)
REMARK    1  A    between atoms: C3_3  and  C20_23 
REMARK    2  A    between atoms: C7_7  and  C12_12 
REMARK    3  A    between atoms: C12_12  and  C13_13 
REMARK    4  A    between atoms: C13_13  and  C14_14 
ROOT
HETATM    1  C1  UNL     1       0.783  -0.012  -1.624  1.00  0.00     0.026 C 
HETATM    2  C2  UNL     1       0.951  -1.476  -1.891  1.00  0.00    -0.024 C 
HETATM    3  C3  UNL     1       0.021  -2.362  -1.521  1.00  0.00     0.037 C 
HETATM    4  C4  UNL     1      -1.231  -1.934  -0.822  1.00  0.00     0.024 C 
HETATM    5  C5  UNL     1      -1.245  -0.416  -0.690  1.00  0.00     0.004 C 
HETATM    6  C6  UNL     1      -0.599   0.206  -1.921  1.00  0.00     0.005 C 
HETATM    7  C7  UNL     1      -0.467  -0.007   0.553  1.00  0.00     0.001 C 
HETATM    8  C8  UNL     1      -1.245  -0.416   1.797  1.00  0.00     0.000 C 
HETATM    9  C9  UNL     1      -2.063  -1.659   1.506  1.00  0.00     0.000 C 
HETATM   10  C10 UNL     1      -1.280  -2.564   0.564  1.00  0.00     0.004 C 
HETATM   11  C11 UNL     1      -0.270  -0.708   2.930  1.00  0.00     0.000 C 
HETATM   12  C18 UNL     1       0.890  -0.699   0.553  1.00  0.00     0.000 C 
HETATM   13  C19 UNL     1      -2.442  -2.385  -1.627  1.00  0.00     0.005 C 
ENDROOT
BRANCH   7  14
HETATM   14  C12 UNL     1      -0.268   1.502   0.553  1.00  0.00     0.004 C 
BRANCH  14  15
HETATM   15  C13 UNL     1       1.222   1.819   0.553  1.00  0.00     0.027 C 
BRANCH  15  16
HETATM   16  C14 UNL     1       1.417   3.303   0.553  1.00  0.00     0.020 A 
HETATM   17  C15 UNL     1       2.751   3.983   0.553  1.00  0.00     0.295 A 
HETATM   18  O1  UNL     1       2.436   5.349   0.553  1.00  0.00    -0.266 OA
HETATM   19  O3  UNL     1       3.484   3.641  -0.592  1.00  0.00    -0.185 OA
HETATM   20  C16 UNL     1       0.908   5.459   0.553  1.00  0.00     0.298 A 
HETATM   21  C17 UNL     1       0.424   4.198   0.553  1.00  0.00     0.065 A 
HETATM   22  O2  UNL     1       0.260   6.479   0.553  1.00  0.00    -0.259 OA
ENDBRANCH  15  16
ENDBRANCH  14  15
ENDBRANCH   7  14
BRANCH   3  23
HETATM   23  C20 UNL     1       0.217  -3.673  -1.784  1.00  0.00     0.206 C 
HETATM   24  O4  UNL     1      -0.704  -4.573  -1.419  1.00  0.00    -0.644 OA
HETATM   25  O5  UNL     1       1.223  -4.033  -2.347  1.00  0.00    -0.644 OA
ENDBRANCH   3  23
TORSDOF 4
