REMARK  7 active torsions:
REMARK  status: ('A' for Active; 'I' for Inactive)
REMARK    1  A    between atoms: C3_3  and  C27_30 
REMARK    2  A    between atoms: C7_7  and  C12_12 
REMARK    3  A    between atoms: C12_12  and  C13_13 
REMARK    4  A    between atoms: C13_13  and  C14_14 
REMARK    5  A    between atoms: C13_13  and  O2_19 
REMARK    6  A    between atoms: O2_19  and  C18_20 
REMARK    7  A    between atoms: C18_20  and  C19_21 
ROOT
HETATM    1  C1  UNL     1      -1.697  -2.524  -2.058  1.00  0.00     0.005 C 
HETATM    2  C2  UNL     1      -2.968  -3.150  -1.492  1.00  0.00     0.014 C 
HETATM    3  C3  UNL     1      -2.865  -3.449   0.020  1.00  0.00     0.093 C 
HETATM    4  C4  UNL     1      -1.937  -2.502   0.787  1.00  0.00    -0.043 C 
HETATM    5  C5  UNL     1      -1.241  -1.501   0.203  1.00  0.00    -0.052 C 
HETATM    6  C6  UNL     1      -1.406  -1.239  -1.280  1.00  0.00     0.021 C 
HETATM    7  C7  UNL     1      -0.387  -0.481   0.987  1.00  0.00     0.017 C 
HETATM    8  C8  UNL     1      -0.139  -0.963   2.450  1.00  0.00     0.004 C 
HETATM    9  C9  UNL     1      -1.391  -1.581   3.077  1.00  0.00     0.005 C 
HETATM   10  C10 UNL     1      -1.800  -2.806   2.263  1.00  0.00     0.022 C 
HETATM   11  C11 UNL     1       0.431   0.109   3.401  1.00  0.00     0.000 C 
HETATM   12  C25 UNL     1      -1.239   0.812   0.999  1.00  0.00     0.004 C 
HETATM   13  C26 UNL     1      -4.311  -3.350   0.568  1.00  0.00     0.015 C 
ENDROOT
BRANCH   7  14
HETATM   14  C12 UNL     1       1.028  -0.295   0.340  1.00  0.00     0.039 C 
BRANCH  14  15
HETATM   15  C13 UNL     1       1.420   1.079  -0.239  1.00  0.00     0.149 C 
BRANCH  15  16
HETATM   16  C14 UNL     1       2.925   1.157  -0.322  1.00  0.00     0.032 A 
HETATM   17  C15 UNL     1       3.767   1.576   0.633  1.00  0.00     0.027 A 
HETATM   18  C16 UNL     1       4.979   1.452   0.078  1.00  0.00     0.122 A 
HETATM   19  O1  UNL     1       4.913   1.011  -1.068  1.00  0.00    -0.303 OA
HETATM   20  C17 UNL     1       3.728   0.821  -1.340  1.00  0.00     0.121 A 
ENDBRANCH  15  16
BRANCH  15  21
HETATM   21  O2  UNL     1       0.827   1.218  -1.500  1.00  0.00    -0.296 OA
BRANCH  21  22
HETATM   22  C18 UNL     1       0.843   2.316  -2.327  1.00  0.00     0.296 C 
HETATM   23  O3  UNL     1       0.326   2.100  -3.409  1.00  0.00    -0.259 OA
BRANCH  22  24
HETATM   24  C19 UNL     1       1.322   3.592  -2.156  1.00  0.00     0.063 A 
HETATM   25  C20 UNL     1       1.229   4.472  -3.180  1.00  0.00     0.005 A 
HETATM   26  C21 UNL     1       1.674   5.736  -3.089  1.00  0.00     0.000 A 
HETATM   27  C22 UNL     1       2.231   6.173  -1.953  1.00  0.00     0.000 A 
HETATM   28  C23 UNL     1       2.333   5.327  -0.920  1.00  0.00     0.000 A 
HETATM   29  C24 UNL     1       1.885   4.066  -1.028  1.00  0.00     0.005 A 
ENDBRANCH  22  24
ENDBRANCH  21  22
ENDBRANCH  15  21
ENDBRANCH  14  15
ENDBRANCH   7  14
BRANCH   3  30
HETATM   30  C27 UNL     1      -2.377  -4.886   0.205  1.00  0.00     0.188 C 
HETATM   31  O4  UNL     1      -1.104  -5.054  -0.197  1.00  0.00    -0.647 OA
HETATM   32  O5  UNL     1      -2.999  -5.807   0.680  1.00  0.00    -0.647 OA
ENDBRANCH   3  30
TORSDOF 7
