REMARK  0 active torsions:
REMARK  status: ('A' for Active; 'I' for Inactive)
ROOT
HETATM    1  C1  UNL     1      -2.127  -0.044  -0.922  1.00  0.00     0.026 A 
HETATM    2  C2  UNL     1      -2.141  -1.399  -0.611  1.00  0.00     0.119 A 
HETATM    3  C3  UNL     1      -0.968  -2.071  -0.292  1.00  0.00     0.117 A 
HETATM    4  C4  UNL     1       0.274  -1.435  -0.269  1.00  0.00     0.031 A 
HETATM    5  C5  UNL     1       0.318  -0.075  -0.609  1.00  0.00    -0.018 A 
HETATM    6  C6  UNL     1      -0.883   0.595  -0.910  1.00  0.00    -0.002 A 
HETATM    7  C7  UNL     1       1.649   0.672  -0.577  1.00  0.00     0.083 C 
HETATM    8  C8  UNL     1       2.849  -0.302  -0.427  1.00  0.00     0.248 C 
HETATM    9  N1  UNL     1       2.552  -1.310   0.594  1.00  0.00     0.146 N 
HETATM   10  C9  UNL     1       1.506  -2.204   0.119  1.00  0.00     0.279 C 
HETATM   11  C10 UNL     1       3.692  -2.100   1.034  1.00  0.00     0.286 C 
HETATM   12  C11 UNL     1       4.137   0.450  -0.121  1.00  0.00     0.009 A 
HETATM   13  C12 UNL     1       4.135   1.710   0.511  1.00  0.00     0.010 A 
HETATM   14  C13 UNL     1       2.852   2.447   0.808  1.00  0.00     0.205 C 
HETATM   15  C14 UNL     1       1.603   1.606   0.641  1.00  0.00     0.192 C 
HETATM   16  O1  UNL     1       1.450   0.844   1.817  1.00  0.00    -0.220 OA
HETATM   17  O2  UNL     1       2.854   2.928   2.141  1.00  0.00    -0.216 OA
HETATM   18  C15 UNL     1       5.342   2.363   0.811  1.00  0.00     0.024 A 
HETATM   19  C16 UNL     1       6.539   1.744   0.471  1.00  0.00     0.119 A 
HETATM   20  C17 UNL     1       6.545   0.529  -0.201  1.00  0.00     0.119 A 
HETATM   21  C18 UNL     1       5.359  -0.118  -0.526  1.00  0.00     0.024 A 
HETATM   22  O3  UNL     1       7.851   0.157  -0.455  1.00  0.00    -0.300 OA
HETATM   23  C19 UNL     1       8.704   1.168   0.096  1.00  0.00     0.304 A 
HETATM   24  O4  UNL     1       7.840   2.169   0.651  1.00  0.00    -0.300 OA
HETATM   25  C20 UNL     1       1.825   1.475  -1.886  1.00  0.00     0.009 C 
HETATM   26  O5  UNL     1      -1.273  -3.391  -0.016  1.00  0.00    -0.300 OA
HETATM   27  C21 UNL     1      -2.687  -3.559  -0.175  1.00  0.00     0.304 A 
HETATM   28  O6  UNL     1      -3.206  -2.276  -0.542  1.00  0.00    -0.300 OA
ENDROOT
TORSDOF 0
