REMARK  4 active torsions:
REMARK  status: ('A' for Active; 'I' for Inactive)
REMARK    1  A    between atoms: C4_4  and  C18_20 
REMARK    2  A    between atoms: C5_5  and  C7_7 
REMARK    3  A    between atoms: C8_8  and  C16_17 
REMARK    4  A    between atoms: C10_10  and  C13_14 
ROOT
HETATM    1  C7  UNL     1       1.084  -0.465  -0.665  1.00  0.00    -0.017 A 
HETATM    2  C8  UNL     1       0.648   0.561  -1.542  1.00  0.00     0.038 A 
HETATM    3  C9  UNL     1       1.576   1.466  -2.080  1.00  0.00     0.001 A 
HETATM    4  C10 UNL     1       2.949   1.429  -1.815  1.00  0.00     0.003 A 
HETATM    5  C11 UNL     1       3.403   0.418  -0.963  1.00  0.00     0.127 A 
HETATM    6  C12 UNL     1       2.468  -0.491  -0.449  1.00  0.00     0.023 A 
HETATM    7  O1  UNL     1       4.709   0.278  -0.612  1.00  0.00    -0.191 OA
ENDROOT
BRANCH   1   8
HETATM    8  C5  UNL     1       0.179  -1.533  -0.003  1.00  0.00     0.026 C 
HETATM    9  C4  UNL     1      -0.974  -0.896   0.838  1.00  0.00     0.069 C 
HETATM   10  C3  UNL     1      -0.588  -0.332   2.235  1.00  0.00     0.007 C 
HETATM   11  C2  UNL     1       0.152  -1.399   3.065  1.00  0.00     0.000 C 
HETATM   12  C19 UNL     1      -1.855   0.096   3.017  1.00  0.00     0.000 C 
HETATM   13  C20 UNL     1       0.280   0.942   2.106  1.00  0.00     0.000 C 
HETATM   14  C1  UNL     1       1.345  -1.984   2.307  1.00  0.00     0.000 C 
HETATM   15  C6  UNL     1       0.903  -2.537   0.945  1.00  0.00     0.004 C 
HETATM   16  C17 UNL     1      -0.316  -2.436  -1.169  1.00  0.00     0.005 C 
BRANCH   9  17
HETATM   17  C18 UNL     1      -2.170  -1.839   0.922  1.00  0.00     0.207 C 
HETATM   18  O3  UNL     1      -3.186  -1.636   0.298  1.00  0.00    -0.288 OA
ENDBRANCH   9  17
ENDBRANCH   1   8
BRANCH   2  19
HETATM   19  C16 UNL     1      -0.756   0.769  -1.991  1.00  0.00     0.234 C 
HETATM   20  O2  UNL     1      -1.119   1.730  -2.657  1.00  0.00    -0.283 OA
ENDBRANCH   2  19
BRANCH   4  21
HETATM   21  C13 UNL     1       3.838   2.485  -2.459  1.00  0.00     0.024 C 
HETATM   22  C14 UNL     1       3.759   3.787  -1.644  1.00  0.00     0.005 C 
HETATM   23  C15 UNL     1       5.303   2.097  -2.711  1.00  0.00     0.005 C 
ENDBRANCH   4  21
TORSDOF 4
