REMARK  2 active torsions:
REMARK  status: ('A' for Active; 'I' for Inactive)
REMARK    1  A    between atoms: C13_13  and  C17_18 
REMARK    2  A    between atoms: C14_14  and  O1_16 
ROOT
HETATM    1  C1  UNL     1       4.442  -0.468  -0.021  1.00  0.00     0.003 C 
HETATM    2  C2  UNL     1       4.289  -1.935  -0.425  1.00  0.00     0.000 C 
HETATM    3  C3  UNL     1       2.901  -2.257  -1.027  1.00  0.00     0.002 C 
HETATM    4  C4  UNL     1       1.768  -1.769  -0.063  1.00  0.00     0.029 C 
HETATM    5  C5  UNL     1       1.942  -0.336   0.492  1.00  0.00     0.131 C 
HETATM    6  C6  UNL     1       3.370  -0.110   1.010  1.00  0.00     0.031 C 
HETATM    7  C7  UNL     1       0.972  -0.004   1.643  1.00  0.00     0.057 C 
HETATM    8  C8  UNL     1      -0.381   0.433   1.129  1.00  0.00    -0.022 A 
HETATM    9  C9  UNL     1      -1.197  -0.437   0.513  1.00  0.00    -0.026 A 
HETATM   10  C10 UNL     1      -0.809  -1.888   0.350  1.00  0.00     0.026 C 
HETATM   11  C11 UNL     1       0.358  -2.037  -0.638  1.00  0.00     0.007 C 
HETATM   12  C12 UNL     1      -2.348   0.026  -0.002  1.00  0.00    -0.007 A 
HETATM   13  C13 UNL     1      -2.734   1.314   0.074  1.00  0.00    -0.001 A 
HETATM   14  C14 UNL     1      -1.946   2.180   0.749  1.00  0.00     0.090 A 
HETATM   15  C15 UNL     1      -0.768   1.716   1.210  1.00  0.00     0.019 A 
HETATM   16  O2  UNL     1       1.700   0.599  -0.527  1.00  0.00    -0.226 OA
HETATM   17  C20 UNL     1       2.804  -1.661  -2.450  1.00  0.00     0.000 C 
HETATM   18  C21 UNL     1       2.863  -3.800  -1.197  1.00  0.00     0.000 C 
ENDROOT
BRANCH  13  19
HETATM   19  C17 UNL     1      -4.058   1.684  -0.597  1.00  0.00     0.024 C 
HETATM   20  C18 UNL     1      -5.224   1.456   0.379  1.00  0.00     0.005 C 
HETATM   21  C19 UNL     1      -4.157   3.072  -1.253  1.00  0.00     0.005 C 
ENDBRANCH  13  19
BRANCH  14  22
HETATM   22  O1  UNL     1      -2.221   3.519   0.852  1.00  0.00    -0.328 OA
HETATM   23  C16 UNL     1      -2.651   3.930   2.131  1.00  0.00     0.181 C 
ENDBRANCH  14  22
TORSDOF 2
