REMARK  6 active torsions:
REMARK  status: ('A' for Active; 'I' for Inactive)
REMARK    1  A    between atoms: C3_5  and  C4_6 
REMARK    2  A    between atoms: C4_6  and  C5_7 
REMARK    3  A    between atoms: C5_7  and  C6_8 
REMARK    4  A    between atoms: C5_7  and  C7_11 
REMARK    5  A    between atoms: C7_11  and  C8_12 
REMARK       I    between atoms: C8_12  and  N3_14 
REMARK    6  A    between atoms: N3_14  and  C9_15 
ROOT
HETATM    1  C5  UNL     1      -1.079  -0.227   0.040  1.00  0.00     0.102 C 
ENDROOT
BRANCH   1   2
HETATM    2  C4  UNL     1      -1.648  -0.570   1.439  1.00  0.00     0.053 C 
HETATM    3  C10 UNL     1      -2.751   0.393   1.915  1.00  0.00     0.007 C 
BRANCH   2   4
HETATM    4  C3  UNL     1      -2.220  -1.964   1.441  1.00  0.00     0.080 A 
HETATM    5  C1  UNL     1      -1.842  -3.036   2.219  1.00  0.00     0.115 A 
HETATM    6  N1  UNL     1      -2.671  -4.072   1.842  1.00  0.00    -0.221 NA
HETATM    7  C2  UNL     1      -3.488  -3.585   0.876  1.00  0.00     0.199 A 
HETATM    8  N2  UNL     1      -3.240  -2.312   0.612  1.00  0.00    -0.227 NA
ENDBRANCH   2   4
ENDBRANCH   1   2
BRANCH   1   9
HETATM    9  C6  UNL     1      -0.092  -1.304  -0.417  1.00  0.00     0.185 C 
HETATM   10  O1  UNL     1       0.480  -2.066   0.332  1.00  0.00    -0.647 OA
HETATM   11  O2  UNL     1      -0.001  -1.370  -1.762  1.00  0.00    -0.647 OA
ENDBRANCH   1   9
BRANCH   1  12
HETATM   12  C7  UNL     1      -0.409   1.162  -0.008  1.00  0.00     0.101 C 
BRANCH  12  13
HETATM   13  C8  UNL     1      -0.133   1.610  -1.437  1.00  0.00     0.254 C 
HETATM   14  O3  UNL     1       0.867   1.286  -2.028  1.00  0.00    -0.271 OA
HETATM   15  N3  UNL     1      -1.099   2.338  -2.072  1.00  0.00    -0.199 NA
BRANCH  15  16
HETATM   16  C9  UNL     1      -2.378   2.749  -1.494  1.00  0.00     0.469 C 
HETATM   17  N4  UNL     1      -3.111   3.458  -2.551  1.00  0.00     0.648 N 
ENDBRANCH  15  16
ENDBRANCH  12  13
ENDBRANCH   1  12
TORSDOF 6
