REMARK  10 active torsions:
REMARK  status: ('A' for Active; 'I' for Inactive)
REMARK    1  A    between atoms: C5_5  and  C9_9 
REMARK    2  A    between atoms: C10_10  and  C11_11 
REMARK    3  A    between atoms: C12_12  and  C13_13 
REMARK    4  A    between atoms: C14_14  and  C15_15 
REMARK    5  A    between atoms: C16_16  and  C17_17 
REMARK    6  A    between atoms: C18_18  and  C19_19 
REMARK    7  A    between atoms: C20_20  and  C21_21 
REMARK    8  A    between atoms: C22_22  and  C23_23 
REMARK    9  A    between atoms: C24_24  and  C25_25 
REMARK   10  A    between atoms: C26_26  and  C27_27 
ROOT
HETATM    1  C17 UNL     1       8.350   0.258   0.356  1.00  0.00    -0.000 C 
HETATM    2  C18 UNL     1       8.772  -0.737  -0.466  1.00  0.00    -0.000 C 
ENDROOT
BRANCH   1   3
HETATM    3  C16 UNL     1       6.946   0.370   0.758  1.00  0.00    -0.004 C 
HETATM    4  C15 UNL     1       6.442   1.227   1.690  1.00  0.00    -0.022 C 
HETATM    5  C38 UNL     1       7.354   2.100   2.519  1.00  0.00     0.031 C 
BRANCH   4   6
HETATM    6  C14 UNL     1       4.989   1.159   1.925  1.00  0.00    -0.004 C 
HETATM    7  C13 UNL     1       4.148   2.010   2.567  1.00  0.00    -0.001 C 
BRANCH   7   8
HETATM    8  C12 UNL     1       4.439   3.317   3.160  1.00  0.00    -0.004 C 
HETATM    9  C11 UNL     1       3.576   4.115   3.850  1.00  0.00    -0.022 C 
HETATM   10  C39 UNL     1       4.091   5.426   4.413  1.00  0.00     0.031 C 
BRANCH   9  11
HETATM   11  C10 UNL     1       2.166   3.749   4.061  1.00  0.00    -0.004 C 
HETATM   12  C9  UNL     1       1.262   4.495   4.737  1.00  0.00    -0.005 C 
BRANCH  12  13
HETATM   13  C5  UNL     1      -0.173   4.150   4.918  1.00  0.00    -0.030 C 
HETATM   14  C4  UNL     1      -1.078   5.156   4.836  1.00  0.00    -0.048 C 
HETATM   15  C3  UNL     1      -2.547   4.997   5.167  1.00  0.00     0.022 C 
HETATM   16  C40 UNL     1      -0.730   6.587   4.473  1.00  0.00     0.026 C 
HETATM   17  C2  UNL     1      -3.009   3.551   5.346  1.00  0.00     0.004 C 
HETATM   18  C1  UNL     1      -1.926   2.767   6.085  1.00  0.00     0.004 C 
HETATM   19  C6  UNL     1      -0.605   2.726   5.281  1.00  0.00     0.018 C 
HETATM   20  C7  UNL     1      -0.808   1.877   4.006  1.00  0.00     0.004 C 
HETATM   21  C8  UNL     1       0.431   2.030   6.193  1.00  0.00     0.004 C 
ENDBRANCH  12  13
ENDBRANCH   9  11
ENDBRANCH   7   8
ENDBRANCH   4   6
ENDBRANCH   1   3
BRANCH   2  22
HETATM   22  C19 UNL     1      10.171  -0.856  -0.879  1.00  0.00    -0.004 C 
HETATM   23  C20 UNL     1      10.723  -1.867  -1.604  1.00  0.00    -0.022 C 
HETATM   24  C37 UNL     1       9.947  -3.078  -2.076  1.00  0.00     0.031 C 
BRANCH  23  25
HETATM   25  C21 UNL     1      12.154  -1.751  -1.933  1.00  0.00    -0.004 C 
HETATM   26  C22 UNL     1      12.871  -2.691  -2.599  1.00  0.00    -0.001 C 
BRANCH  26  27
HETATM   27  C23 UNL     1      14.290  -2.495  -2.907  1.00  0.00    -0.004 C 
HETATM   28  C24 UNL     1      15.112  -3.365  -3.554  1.00  0.00    -0.022 C 
HETATM   29  C36 UNL     1      14.658  -4.712  -4.073  1.00  0.00     0.031 C 
BRANCH  28  30
HETATM   30  C25 UNL     1      16.509  -2.940  -3.765  1.00  0.00    -0.008 C 
HETATM   31  C26 UNL     1      17.467  -3.715  -4.313  1.00  0.00    -0.023 C 
BRANCH  31  32
HETATM   32  C27 UNL     1      18.890  -3.256  -4.549  1.00  0.00     0.040 C 
HETATM   33  C28 UNL     1      19.193  -3.005  -6.046  1.00  0.00     0.007 C 
HETATM   34  C29 UNL     1      19.322  -4.360  -6.770  1.00  0.00     0.005 C 
HETATM   35  C34 UNL     1      18.066  -2.180  -6.706  1.00  0.00     0.001 C 
HETATM   36  C35 UNL     1      20.502  -2.195  -6.186  1.00  0.00     0.001 C 
HETATM   37  C30 UNL     1      20.433  -5.236  -6.179  1.00  0.00     0.025 C 
HETATM   38  C31 UNL     1      20.480  -5.181  -4.676  1.00  0.00    -0.034 C 
HETATM   39  C32 UNL     1      19.810  -4.286  -3.932  1.00  0.00    -0.044 C 
HETATM   40  C33 UNL     1      19.900  -4.279  -2.425  1.00  0.00     0.026 C 
ENDBRANCH  31  32
ENDBRANCH  28  30
ENDBRANCH  26  27
ENDBRANCH  23  25
ENDBRANCH   2  22
TORSDOF 10
