REMARK  8 active torsions:
REMARK  status: ('A' for Active; 'I' for Inactive)
REMARK    1  A    between atoms: C5_5  and  C9_9 
REMARK    2  A    between atoms: C10_10  and  C11_11 
REMARK    3  A    between atoms: C12_12  and  C13_13 
REMARK    4  A    between atoms: C14_14  and  C15_15 
REMARK    5  A    between atoms: C16_16  and  C17_17 
REMARK    6  A    between atoms: C18_18  and  C19_19 
REMARK    7  A    between atoms: C20_20  and  C22_22 
REMARK    8  A    between atoms: C23_23  and  C24_24 
ROOT
HETATM    1  C15 UNL     1       1.104  -0.717  -0.131  1.00  0.00    -0.004 C 
HETATM    2  C16 UNL     1       0.630   0.524  -0.433  1.00  0.00    -0.022 C 
HETATM    3  C33 UNL     1      -0.291   0.727  -1.619  1.00  0.00     0.031 C 
ENDROOT
BRANCH   1   4
HETATM    4  C14 UNL     1       0.810  -1.917  -0.915  1.00  0.00    -0.000 C 
HETATM    5  C13 UNL     1       1.196  -3.164  -0.544  1.00  0.00    -0.000 C 
BRANCH   5   6
HETATM    6  C12 UNL     1       0.747  -4.327  -1.312  1.00  0.00    -0.004 C 
HETATM    7  C11 UNL     1       0.876  -5.623  -0.929  1.00  0.00    -0.022 C 
HETATM    8  C34 UNL     1       1.626  -6.026   0.317  1.00  0.00     0.031 C 
BRANCH   7   9
HETATM    9  C10 UNL     1       0.143  -6.613  -1.741  1.00  0.00    -0.006 C 
HETATM   10  C9  UNL     1      -0.418  -7.722  -1.220  1.00  0.00     0.002 C 
BRANCH  10  11
HETATM   11  C5  UNL     1      -1.323  -8.547  -2.002  1.00  0.00     0.134 A 
HETATM   12  C4  UNL     1      -1.046 -10.008  -2.067  1.00  0.00     0.119 A 
HETATM   13  C3  UNL     1      -2.186 -10.982  -2.319  1.00  0.00     0.030 C 
HETATM   14  O1  UNL     1      -0.737  -9.153  -3.176  1.00  0.00    -0.355 OA
HETATM   15  C35 UNL     1       0.190 -10.600  -1.406  1.00  0.00     0.033 C 
HETATM   16  C2  UNL     1      -3.456 -10.367  -2.914  1.00  0.00     0.003 C 
HETATM   17  C1  UNL     1      -3.826  -9.130  -2.092  1.00  0.00     0.003 C 
HETATM   18  C6  UNL     1      -2.760  -8.014  -2.199  1.00  0.00     0.029 C 
HETATM   19  C7  UNL     1      -3.129  -6.969  -1.111  1.00  0.00     0.003 C 
HETATM   20  C8  UNL     1      -2.913  -7.286  -3.558  1.00  0.00     0.003 C 
ENDBRANCH  10  11
ENDBRANCH   7   9
ENDBRANCH   5   6
ENDBRANCH   1   4
BRANCH   2  21
HETATM   21  C17 UNL     1       1.008   1.639   0.451  1.00  0.00    -0.004 C 
HETATM   22  C18 UNL     1       0.824   2.952   0.163  1.00  0.00    -0.001 C 
BRANCH  22  23
HETATM   23  C19 UNL     1       1.254   4.027   1.060  1.00  0.00    -0.004 C 
HETATM   24  C20 UNL     1       1.182   5.348   0.754  1.00  0.00    -0.022 C 
HETATM   25  C21 UNL     1       0.557   5.840  -0.533  1.00  0.00     0.031 C 
BRANCH  24  26
HETATM   26  C22 UNL     1       1.738   6.316   1.724  1.00  0.00    -0.005 C 
HETATM   27  C23 UNL     1       2.266   7.496   1.343  1.00  0.00    -0.005 C 
BRANCH  27  28
HETATM   28  C24 UNL     1       2.851   8.517   2.250  1.00  0.00    -0.031 C 
HETATM   29  C25 UNL     1       2.474   9.971   1.962  1.00  0.00     0.018 C 
HETATM   30  C26 UNL     1       2.795  10.891   3.158  1.00  0.00     0.004 C 
HETATM   31  C31 UNL     1       3.229  10.447   0.701  1.00  0.00     0.004 C 
HETATM   32  C32 UNL     1       0.954  10.085   1.696  1.00  0.00     0.004 C 
HETATM   33  C27 UNL     1       4.205  10.645   3.691  1.00  0.00     0.005 C 
HETATM   34  C28 UNL     1       4.299   9.203   4.192  1.00  0.00     0.022 C 
HETATM   35  C29 UNL     1       3.735   8.188   3.219  1.00  0.00    -0.048 C 
HETATM   36  C30 UNL     1       4.235   6.785   3.494  1.00  0.00     0.026 C 
ENDBRANCH  27  28
ENDBRANCH  24  26
ENDBRANCH  22  23
ENDBRANCH   2  21
TORSDOF 8
