REMARK  3 active torsions:
REMARK  status: ('A' for Active; 'I' for Inactive)
REMARK    1  A    between atoms: C2_2  and  O3_33 
REMARK    2  A    between atoms: C15_15  and  C18_18 
REMARK    3  A    between atoms: O3_33  and  C31_34 
ROOT
HETATM    1  C1  UNL     1       3.918  -1.512  -1.178  1.00  0.00     0.030 C 
HETATM    2  C2  UNL     1       5.086  -0.533  -0.936  1.00  0.00     0.124 C 
HETATM    3  C3  UNL     1       4.877   0.394   0.287  1.00  0.00     0.026 C 
HETATM    4  C4  UNL     1       3.385   0.816   0.377  1.00  0.00     0.002 C 
HETATM    5  C5  UNL     1       2.414  -0.398   0.596  1.00  0.00     0.000 C 
HETATM    6  C6  UNL     1       3.057  -1.717   0.072  1.00  0.00     0.003 C 
HETATM    7  C7  UNL     1       1.033  -0.162  -0.107  1.00  0.00     0.000 C 
HETATM    8  C8  UNL     1       0.547   1.318  -0.006  1.00  0.00     0.000 C 
HETATM    9  C9  UNL     1       1.578   2.309  -0.609  1.00  0.00     0.000 C 
HETATM   10  C10 UNL     1       2.959   1.684  -0.824  1.00  0.00     0.000 C 
HETATM   11  C11 UNL     1      -0.789   1.432  -0.793  1.00  0.00     0.000 C 
HETATM   12  C12 UNL     1      -1.846   0.480  -0.213  1.00  0.00     0.002 C 
HETATM   13  C13 UNL     1      -1.406  -0.973  -0.389  1.00  0.00     0.000 C 
HETATM   14  C14 UNL     1      -0.070  -1.156   0.352  1.00  0.00     0.000 C 
HETATM   15  C15 UNL     1      -3.131   0.883  -0.936  1.00  0.00     0.025 C 
HETATM   16  C16 UNL     1      -3.016   2.412  -1.002  1.00  0.00     0.002 C 
HETATM   17  C17 UNL     1      -1.557   2.754  -0.674  1.00  0.00     0.000 C 
HETATM   18  C26 UNL     1      -0.600   1.166  -2.297  1.00  0.00     0.000 C 
HETATM   19  C27 UNL     1       0.293   1.686   1.467  1.00  0.00     0.000 C 
HETATM   20  C28 UNL     1       2.193  -0.568   2.111  1.00  0.00     0.000 C 
HETATM   21  C29 UNL     1       5.785   1.625   0.152  1.00  0.00     0.002 C 
HETATM   22  C30 UNL     1       5.291  -0.307   1.588  1.00  0.00     0.002 C 
ENDROOT
BRANCH  15  23
HETATM   23  C18 UNL     1      -4.377   0.416  -0.189  1.00  0.00     0.093 C 
HETATM   24  O1  UNL     1      -4.235  -0.984   0.039  1.00  0.00    -0.361 OA
HETATM   25  C19 UNL     1      -5.332  -1.654   0.666  1.00  0.00     0.121 C 
HETATM   26  C20 UNL     1      -6.012  -0.772   1.764  1.00  0.00     0.177 C 
HETATM   27  C23 UNL     1      -4.692  -2.889   1.309  1.00  0.00     0.032 C 
HETATM   28  C24 UNL     1      -6.283  -2.129  -0.447  1.00  0.00     0.032 C 
HETATM   29  C21 UNL     1      -5.069   0.314   2.303  1.00  0.00     0.038 C 
HETATM   30  O2  UNL     1      -7.180  -0.135   1.277  1.00  0.00    -0.221 OA
HETATM   31  C22 UNL     1      -4.488   1.172   1.160  1.00  0.00     0.030 C 
HETATM   32  C25 UNL     1      -5.541   0.680  -1.154  1.00  0.00     0.030 C 
ENDBRANCH  15  23
BRANCH   2  33
HETATM   33  O3  UNL     1       6.293  -1.268  -0.781  1.00  0.00    -0.304 OA
BRANCH  33  34
HETATM   34  C31 UNL     1       6.721  -1.789  -1.928  1.00  0.00     0.272 C 
HETATM   35  C32 UNL     1       7.986  -2.600  -1.830  1.00  0.00     0.106 C 
HETATM   36  O4  UNL     1       6.156  -1.643  -2.984  1.00  0.00    -0.264 OA
ENDBRANCH  33  34
ENDBRANCH   2  33
TORSDOF 3
