REMARK  5 active torsions:
REMARK  status: ('A' for Active; 'I' for Inactive)
REMARK    1  A    between atoms: C2_2  and  O3_14 
REMARK    2  A    between atoms: C3_3  and  O1_10 
REMARK    3  A    between atoms: C6_6  and  C7_7 
REMARK    4  A    between atoms: C7_7  and  C8_8 
REMARK    5  A    between atoms: O1_10  and  C10_11 
ROOT
HETATM    1  C1  UNL     1      -1.104  -0.340   0.199  1.00  0.00     0.022 A 
HETATM    2  C2  UNL     1      -0.449   0.904   0.199  1.00  0.00     0.117 A 
HETATM    3  C3  UNL     1       0.959   0.955   0.199  1.00  0.00     0.125 A 
HETATM    4  C4  UNL     1       1.701  -0.238   0.199  1.00  0.00     0.026 A 
HETATM    5  C5  UNL     1       1.045  -1.481   0.199  1.00  0.00    -0.002 A 
HETATM    6  C6  UNL     1      -0.359  -1.533   0.199  1.00  0.00    -0.016 A 
ENDROOT
BRANCH   3   7
HETATM    7  O1  UNL     1       1.580   2.117   0.199  1.00  0.00    -0.274 OA
BRANCH   7   8
HETATM    8  C10 UNL     1       2.693   2.252   0.914  1.00  0.00     0.277 C 
HETATM    9  C11 UNL     1       3.602   3.373   0.482  1.00  0.00     0.107 C 
HETATM   10  O2  UNL     1       2.982   1.543   1.850  1.00  0.00    -0.264 OA
ENDBRANCH   7   8
ENDBRANCH   3   7
BRANCH   2  11
HETATM   11  O3  UNL     1      -1.154   2.018   0.199  1.00  0.00    -0.326 OA
HETATM   12  C12 UNL     1      -2.568   1.912   0.129  1.00  0.00     0.181 C 
ENDBRANCH   2  11
BRANCH   6  13
HETATM   13  C7  UNL     1      -1.057  -2.846   0.199  1.00  0.00     0.052 C 
BRANCH  13  14
HETATM   14  C8  UNL     1      -1.324  -3.344  -1.195  1.00  0.00    -0.021 C 
HETATM   15  C9  UNL     1      -2.473  -2.990  -1.793  1.00  0.00    -0.005 C 
ENDBRANCH  13  14
ENDBRANCH   6  13
TORSDOF 5
