REMARK  8 active torsions:
REMARK  status: ('A' for Active; 'I' for Inactive)
REMARK    1  A    between atoms: C2_2  and  O8_32 
REMARK    2  A    between atoms: C4_4  and  C21_25 
REMARK    3  A    between atoms: C7_7  and  C14_16 
REMARK    4  A    between atoms: C10_10  and  O1_11 
REMARK    5  A    between atoms: O1_11  and  C11_12 
REMARK    6  A    between atoms: C21_25  and  O5_26 
REMARK    7  A    between atoms: O5_26  and  C22_27 
REMARK    8  A    between atoms: O8_32  and  C25_33 
ROOT
HETATM    1  C1  UNL     1      -1.279   0.397   0.895  1.00  0.00     0.033 C 
HETATM    2  C2  UNL     1      -1.544  -0.921   0.176  1.00  0.00     0.151 C 
HETATM    3  C3  UNL     1      -0.271  -1.783   0.089  1.00  0.00     0.150 A 
HETATM    4  C4  UNL     1       1.108  -1.107  -0.311  1.00  0.00     0.081 C 
HETATM    5  C5  UNL     1       1.235   0.217   0.529  1.00  0.00     0.009 C 
HETATM    6  C6  UNL     1      -0.029   1.088   0.336  1.00  0.00     0.003 C 
HETATM    7  C7  UNL     1       2.582   1.036   0.592  1.00  0.00     0.025 C 
HETATM    8  C8  UNL     1       3.842   0.167   0.255  1.00  0.00     0.005 C 
HETATM    9  C9  UNL     1       3.659  -1.343   0.482  1.00  0.00     0.030 C 
HETATM   10  C10 UNL     1       2.327  -1.988   0.081  1.00  0.00     0.129 C 
HETATM   11  C13 UNL     1       4.677   0.481  -1.003  1.00  0.00     0.000 C 
HETATM   12  C20 UNL     1       2.533   2.299  -0.305  1.00  0.00     0.002 C 
HETATM   13  C24 UNL     1      -0.394  -3.127   0.607  1.00  0.00     0.172 A 
HETATM   14  O7  UNL     1      -0.565  -3.103  -0.786  1.00  0.00    -0.351 OA
ENDROOT
BRANCH   7  15
HETATM   15  C14 UNL     1       2.813   1.537   2.065  1.00  0.00     0.118 C 
HETATM   16  C15 UNL     1       1.720   2.309   2.803  1.00  0.00     0.039 C 
HETATM   17  C16 UNL     1       2.495   2.935   3.965  1.00  0.00     0.083 A 
HETATM   18  C17 UNL     1       3.932   2.986   3.426  1.00  0.00     0.244 A 
HETATM   19  C19 UNL     1       2.680   2.033   5.154  1.00  0.00     0.005 A 
HETATM   20  O3  UNL     1       3.923   2.394   2.150  1.00  0.00    -0.333 OA
HETATM   21  O4  UNL     1       4.759   2.270   4.342  1.00  0.00    -0.304 OA
HETATM   22  C18 UNL     1       3.967   1.707   5.319  1.00  0.00     0.115 A 
ENDBRANCH   7  15
BRANCH   4  23
HETATM   23  C21 UNL     1       0.974  -0.900  -1.845  1.00  0.00     0.157 C 
BRANCH  23  24
HETATM   24  O5  UNL     1       1.976  -0.128  -2.427  1.00  0.00    -0.302 OA
BRANCH  24  25
HETATM   25  C22 UNL     1       1.780   0.255  -3.723  1.00  0.00     0.272 C 
HETATM   26  C23 UNL     1       2.964   1.041  -4.247  1.00  0.00     0.106 C 
HETATM   27  O6  UNL     1       0.797  -0.005  -4.381  1.00  0.00    -0.264 OA
ENDBRANCH  24  25
ENDBRANCH  23  24
ENDBRANCH   4  23
BRANCH  10  28
HETATM   28  O1  UNL     1       2.387  -3.201  -0.629  1.00  0.00    -0.304 OA
BRANCH  28  29
HETATM   29  C11 UNL     1       3.501  -3.736  -1.200  1.00  0.00     0.272 C 
HETATM   30  O2  UNL     1       3.784  -4.912  -1.101  1.00  0.00    -0.264 OA
HETATM   31  C12 UNL     1       4.219  -2.858  -2.207  1.00  0.00     0.106 C 
ENDBRANCH  28  29
ENDBRANCH  10  28
BRANCH   2  32
HETATM   32  O8  UNL     1      -2.078  -0.649  -1.101  1.00  0.00    -0.302 OA
BRANCH  32  33
HETATM   33  C25 UNL     1      -3.211  -1.276  -1.514  1.00  0.00     0.272 C 
HETATM   34  C26 UNL     1      -3.515  -0.917  -2.957  1.00  0.00     0.106 C 
HETATM   35  O9  UNL     1      -3.883  -2.028  -0.845  1.00  0.00    -0.264 OA
ENDBRANCH  32  33
ENDBRANCH   2  32
TORSDOF 8
