REMARK  5 active torsions:
REMARK  status: ('A' for Active; 'I' for Inactive)
REMARK    1  A    between atoms: C3_3  and  O4_11 
REMARK    2  A    between atoms: C5_6  and  C6_7 
REMARK    3  A    between atoms: C6_7  and  O3_9 
REMARK    4  A    between atoms: O4_11  and  C8_12 
REMARK    5  A    between atoms: C9_14  and  C13_21 
ROOT
HETATM    1  C1  UNL     1      -1.214   2.650   1.204  1.00  0.00     0.040 C 
HETATM    2  C2  UNL     1      -1.176   1.123   1.216  1.00  0.00     0.092 C 
HETATM    3  C3  UNL     1      -0.529   0.632  -0.052  1.00  0.00     0.244 C 
HETATM    4  O1  UNL     1       0.808   1.088  -0.099  1.00  0.00    -0.304 OA
HETATM    5  C4  UNL     1       1.086   2.335   0.397  1.00  0.00     0.120 C 
HETATM    6  C5  UNL     1       0.200   3.133   1.029  1.00  0.00     0.065 C 
HETATM    7  C14 UNL     1      -2.613   0.732   1.540  1.00  0.00     0.160 C 
HETATM    8  C15 UNL     1      -2.968   1.748   2.629  1.00  0.00     0.180 C 
HETATM    9  C16 UNL     1      -1.972   2.918   2.511  1.00  0.00     0.040 C 
HETATM   10  O10 UNL     1      -2.823   1.131   3.889  1.00  0.00    -0.221 OA
HETATM   11  O11 UNL     1      -2.633  -0.569   2.062  1.00  0.00    -0.223 OA
HETATM   12  C17 UNL     1      -3.579   0.766   0.356  1.00  0.00     0.036 C 
ENDROOT
BRANCH   3  13
HETATM   13  O4  UNL     1      -0.444  -0.770   0.035  1.00  0.00    -0.304 OA
BRANCH  13  14
HETATM   14  C8  UNL     1       0.074  -1.386  -1.126  1.00  0.00     0.272 C 
HETATM   15  O5  UNL     1      -0.997  -2.146  -1.641  1.00  0.00    -0.326 OA
HETATM   16  C9  UNL     1      -0.628  -2.877  -2.783  1.00  0.00     0.184 C 
HETATM   17  C10 UNL     1       0.493  -3.851  -2.431  1.00  0.00     0.215 C 
HETATM   18  C11 UNL     1       1.684  -3.098  -1.876  1.00  0.00     0.220 C 
HETATM   19  O8  UNL     1       0.927  -4.558  -3.566  1.00  0.00    -0.218 OA
HETATM   20  C12 UNL     1       1.220  -2.272  -0.701  1.00  0.00     0.241 C 
HETATM   21  O7  UNL     1       2.664  -4.012  -1.455  1.00  0.00    -0.218 OA
HETATM   22  O6  UNL     1       2.279  -1.460  -0.257  1.00  0.00    -0.215 OA
BRANCH  16  23
HETATM   23  C13 UNL     1      -1.856  -3.601  -3.316  1.00  0.00     0.214 C 
HETATM   24  O9  UNL     1      -2.837  -2.659  -3.701  1.00  0.00    -0.218 OA
ENDBRANCH  16  23
ENDBRANCH  13  14
ENDBRANCH   3  13
BRANCH   6  25
HETATM   25  C6  UNL     1       0.555   4.520   1.477  1.00  0.00     0.294 C 
HETATM   26  O2  UNL     1      -0.381   5.315   1.425  1.00  0.00    -0.259 OA
BRANCH  25  27
HETATM   27  O3  UNL     1       1.755   4.975   1.949  1.00  0.00    -0.296 OA
HETATM   28  C7  UNL     1       2.817   4.091   2.214  1.00  0.00     0.185 C 
ENDBRANCH  25  27
ENDBRANCH   6  25
TORSDOF 5
