REMARK  2 active torsions:
REMARK  status: ('A' for Active; 'I' for Inactive)
REMARK    1  A    between atoms: C6_6  and  O1_7 
REMARK    2  A    between atoms: O1_7  and  C7_8 
ROOT
HETATM    1  C1  UNL     1      -1.764   0.742   0.267  1.00  0.00     0.022 A 
HETATM    2  C2  UNL     1      -1.857   1.795  -0.625  1.00  0.00     0.076 A 
HETATM    3  C3  UNL     1      -0.769   2.207  -1.598  1.00  0.00     0.051 C 
HETATM    4  C4  UNL     1       0.578   1.541  -1.219  1.00  0.00     0.009 C 
HETATM    5  C5  UNL     1       0.418   0.025  -0.871  1.00  0.00     0.032 C 
HETATM    6  C6  UNL     1      -0.514  -0.129   0.375  1.00  0.00     0.148 C 
HETATM    7  C9  UNL     1       1.817  -0.633  -0.598  1.00  0.00     0.033 C 
HETATM    8  C10 UNL     1       2.916   0.396  -0.231  1.00  0.00     0.152 C 
HETATM    9  C11 UNL     1       2.381   1.541   0.637  1.00  0.00     0.033 C 
HETATM   10  C12 UNL     1       1.283   2.332  -0.090  1.00  0.00     0.003 C 
HETATM   11  O3  UNL     1       3.969  -0.252   0.457  1.00  0.00    -0.224 OA
HETATM   12  C13 UNL     1       2.319  -1.512  -1.756  1.00  0.00     0.003 C 
HETATM   13  C14 UNL     1      -0.271  -0.674  -2.063  1.00  0.00     0.003 C 
HETATM   14  O4  UNL     1      -3.109   2.389  -0.473  1.00  0.00    -0.310 OA
HETATM   15  C15 UNL     1      -3.775   1.678   0.531  1.00  0.00     0.118 A 
HETATM   16  C16 UNL     1      -2.928   0.668   0.975  1.00  0.00     0.003 A 
HETATM   17  C17 UNL     1      -3.250  -0.338   2.059  1.00  0.00     0.033 C 
ENDROOT
BRANCH   6  18
HETATM   18  O1  UNL     1      -0.885  -1.494   0.537  1.00  0.00    -0.300 OA
BRANCH  18  19
HETATM   19  C7  UNL     1      -0.373  -2.029   1.641  1.00  0.00     0.273 C 
HETATM   20  C8  UNL     1      -1.012  -3.320   2.082  1.00  0.00     0.106 C 
HETATM   21  O2  UNL     1       0.539  -1.541   2.268  1.00  0.00    -0.264 OA
ENDBRANCH  18  19
ENDBRANCH   6  18
TORSDOF 2
