REMARK  2 active torsions:
REMARK  status: ('A' for Active; 'I' for Inactive)
REMARK    1  A    between atoms: C1_1  and  O5_24 
REMARK    2  A    between atoms: C14_15  and  O3_21 
ROOT
HETATM    1  C1  UNL     1      -2.392  -0.699  -0.138  1.00  0.00     0.119 A 
HETATM    2  C2  UNL     1      -2.327  -2.080  -0.391  1.00  0.00     0.153 A 
HETATM    3  C3  UNL     1      -1.083  -2.709  -0.493  1.00  0.00     0.025 A 
HETATM    4  C4  UNL     1       0.116  -2.003  -0.391  1.00  0.00    -0.018 A 
HETATM    5  C5  UNL     1       0.077  -0.617  -0.190  1.00  0.00    -0.000 A 
HETATM    6  C6  UNL     1      -1.176  -0.002  -0.058  1.00  0.00     0.026 A 
HETATM    7  C7  UNL     1       1.358   0.114  -0.099  1.00  0.00     0.022 A 
HETATM    8  C8  UNL     1       2.541  -0.576   0.232  1.00  0.00     0.011 A 
HETATM    9  C9  UNL     1       2.431  -2.063   0.491  1.00  0.00     0.283 C 
HETATM   10  C10 UNL     1       1.444  -2.708  -0.488  1.00  0.00     0.067 C 
HETATM   11  N1  UNL     1       3.724  -2.736   0.383  1.00  0.00     0.342 N 
HETATM   12  C11 UNL     1       4.738  -2.099   1.212  1.00  0.00     0.295 C 
HETATM   13  C12 UNL     1       5.024  -0.694   0.678  1.00  0.00     0.066 C 
HETATM   14  C13 UNL     1       3.773   0.091   0.342  1.00  0.00     0.002 A 
HETATM   15  C14 UNL     1       3.908   1.480   0.122  1.00  0.00     0.114 A 
HETATM   16  C15 UNL     1       2.721   2.137  -0.222  1.00  0.00     0.141 A 
HETATM   17  C16 UNL     1       1.497   1.481  -0.346  1.00  0.00     0.121 A 
HETATM   18  O1  UNL     1       0.532   2.394  -0.737  1.00  0.00    -0.299 OA
HETATM   19  C17 UNL     1       1.145   3.680  -0.825  1.00  0.00     0.304 A 
HETATM   20  O2  UNL     1       2.523   3.476  -0.514  1.00  0.00    -0.298 OA
HETATM   21  O4  UNL     1      -3.463  -2.819  -0.506  1.00  0.00    -0.188 OA
ENDROOT
BRANCH   1  22
HETATM   22  O5  UNL     1      -3.631  -0.111  -0.064  1.00  0.00    -0.326 OA
HETATM   23  C19 UNL     1      -3.723   1.284  -0.244  1.00  0.00     0.181 C 
ENDBRANCH   1  22
BRANCH  15  24
HETATM   24  O3  UNL     1       5.145   2.060   0.255  1.00  0.00    -0.326 OA
HETATM   25  C18 UNL     1       5.282   3.450   0.091  1.00  0.00     0.181 C 
ENDBRANCH  15  24
TORSDOF 2
