REMARK  2 active torsions:
REMARK  status: ('A' for Active; 'I' for Inactive)
REMARK    1  A    between atoms: C3_3  and  N1_10 
REMARK    2  A    between atoms: C5_6  and  C6_7 
REMARK       I    between atoms: N1_10  and  C7_11 
ROOT
HETATM    1  C1  UNL     1      -1.297   0.797  -0.809  1.00  0.00     0.214 C 
HETATM    2  C2  UNL     1       0.170   1.287  -0.701  1.00  0.00     0.212 C 
HETATM    3  C3  UNL     1       1.168   0.096  -0.617  1.00  0.00     0.198 C 
HETATM    4  C4  UNL     1       0.568  -1.201  -1.225  1.00  0.00     0.295 C 
HETATM    5  O1  UNL     1      -0.687  -1.578  -0.652  1.00  0.00    -0.325 OA
HETATM    6  C5  UNL     1      -1.484  -0.545  -0.066  1.00  0.00     0.184 C 
HETATM    7  O3  UNL     1       0.414  -1.037  -2.621  1.00  0.00    -0.188 OA
HETATM    8  O5  UNL     1       0.469   2.074  -1.842  1.00  0.00    -0.218 OA
HETATM    9  O6  UNL     1      -2.158   1.772  -0.248  1.00  0.00    -0.218 OA
ENDROOT
BRANCH   3  10
HETATM   10  N1  UNL     1       1.600  -0.141   0.779  1.00  0.00    -0.232 NA
HETATM   11  C7  UNL     1       2.473   0.729   1.367  1.00  0.00     0.252 C 
HETATM   12  C8  UNL     1       2.903   0.473   2.787  1.00  0.00     0.100 C 
HETATM   13  O4  UNL     1       2.891   1.684   0.754  1.00  0.00    -0.271 OA
ENDBRANCH   3  10
BRANCH   6  14
HETATM   14  C6  UNL     1      -2.930  -1.057  -0.070  1.00  0.00     0.214 C 
HETATM   15  O2  UNL     1      -3.004  -2.176   0.785  1.00  0.00    -0.218 OA
ENDBRANCH   6  14
TORSDOF 2
