REMARK  3 active torsions:
REMARK  status: ('A' for Active; 'I' for Inactive)
REMARK    1  A    between atoms: C2_2  and  O3_17 
REMARK    2  A    between atoms: C5_5  and  C7_8 
REMARK    3  A    between atoms: C7_8  and  C8_9 
ROOT
HETATM    1  C1  UNL     1       3.463   1.742   0.024  1.00  0.00     0.054 A 
HETATM    2  C2  UNL     1       4.019   0.468  -0.154  1.00  0.00     0.121 A 
HETATM    3  C3  UNL     1       3.113  -0.590  -0.359  1.00  0.00     0.153 A 
HETATM    4  C4  UNL     1       1.746  -0.307  -0.411  1.00  0.00     0.032 A 
HETATM    5  C5  UNL     1       1.213   0.978  -0.254  1.00  0.00     0.028 A 
HETATM    6  C6  UNL     1       2.097   2.038  -0.017  1.00  0.00     0.133 A 
HETATM    7  O1  UNL     1       1.682   3.312   0.206  1.00  0.00    -0.190 OA
HETATM    8  O2  UNL     1       3.489  -1.887  -0.515  1.00  0.00    -0.188 OA
ENDROOT
BRANCH   5   9
HETATM    9  C7  UNL     1      -0.259   1.146  -0.350  1.00  0.00     0.002 C 
HETATM   10  C14 UNL     1      -0.809   2.195  -0.991  1.00  0.00     0.000 C 
BRANCH   9  11
HETATM   11  C8  UNL     1      -1.128   0.061   0.182  1.00  0.00     0.000 A 
HETATM   12  C9  UNL     1      -2.165  -0.474  -0.594  1.00  0.00     0.000 A 
HETATM   13  C10 UNL     1      -2.929  -1.542  -0.119  1.00  0.00     0.000 A 
HETATM   14  C11 UNL     1      -2.667  -2.088   1.138  1.00  0.00     0.000 A 
HETATM   15  C12 UNL     1      -1.638  -1.560   1.920  1.00  0.00     0.000 A 
HETATM   16  C13 UNL     1      -0.872  -0.494   1.443  1.00  0.00     0.000 A 
ENDBRANCH   9  11
ENDBRANCH   5   9
BRANCH   2  17
HETATM   17  O3  UNL     1       5.390   0.378  -0.102  1.00  0.00    -0.326 OA
HETATM   18  C15 UNL     1       6.030  -0.861  -0.284  1.00  0.00     0.181 C 
ENDBRANCH   2  17
TORSDOF 3
