REMARK  2 active torsions:
REMARK  status: ('A' for Active; 'I' for Inactive)
REMARK       I    between atoms: N1_1  and  C17_21 
REMARK    1  A    between atoms: C6_8  and  C11_14 
REMARK    2  A    between atoms: C17_21  and  C18_22 
ROOT
HETATM    1  N1  UNL     1       1.593   0.771  -0.174  1.00  0.00    -0.328 N 
HETATM    2  C1  UNL     1       2.615   1.778  -0.480  1.00  0.00     0.105 C 
HETATM    3  C2  UNL     1       3.249   1.597  -1.873  1.00  0.00     0.051 C 
HETATM    4  C3  UNL     1       4.556   2.389  -2.059  1.00  0.00     0.131 C 
HETATM    5  N2  UNL     1       5.709   1.655  -1.524  1.00  0.00    -0.238 NA
HETATM    6  C4  UNL     1       6.861   2.278  -1.122  1.00  0.00     0.254 C 
HETATM    7  C5  UNL     1       8.024   1.336  -0.841  1.00  0.00     0.130 C 
HETATM    8  C6  UNL     1       7.857   0.440   0.400  1.00  0.00     0.288 C 
HETATM    9  N3  UNL     1       6.631  -0.354   0.310  1.00  0.00     0.342 N 
HETATM   10  C7  UNL     1       5.599   0.033   1.270  1.00  0.00     0.291 C 
HETATM   11  C8  UNL     1       4.271  -0.656   0.926  1.00  0.00     0.040 C 
HETATM   12  C9  UNL     1       3.105  -0.100   1.761  1.00  0.00     0.026 C 
HETATM   13  C10 UNL     1       1.766  -0.095   1.002  1.00  0.00     0.103 C 
HETATM   14  O1  UNL     1       6.967   3.479  -1.052  1.00  0.00    -0.271 OA
HETATM   15  C17 UNL     1       0.443   0.707  -0.927  1.00  0.00     0.190 C 
HETATM   16  O2  UNL     1       0.209   1.501  -1.946  1.00  0.00    -0.171 OA
ENDROOT
BRANCH  15  17
HETATM   17  C18 UNL     1      -0.608  -0.318  -0.524  1.00  0.00     0.037 C 
HETATM   18  C19 UNL     1      -0.558  -1.567  -1.052  1.00  0.00    -0.022 C 
HETATM   19  C20 UNL     1      -1.574  -2.579  -0.625  1.00  0.00     0.031 C 
HETATM   20  C21 UNL     1      -2.826  -2.041   0.017  1.00  0.00     0.031 C 
HETATM   21  C22 UNL     1      -2.714  -0.716   0.699  1.00  0.00    -0.026 C 
HETATM   22  C23 UNL     1      -1.669   0.098   0.413  1.00  0.00    -0.001 C 
ENDBRANCH  15  17
BRANCH   8  23
HETATM   23  C11 UNL     1       9.026  -0.509   0.563  1.00  0.00     0.012 A 
HETATM   24  C12 UNL     1       9.890  -0.413   1.661  1.00  0.00    -0.002 A 
HETATM   25  C13 UNL     1      10.961  -1.296   1.812  1.00  0.00    -0.000 A 
HETATM   26  C14 UNL     1      11.184  -2.294   0.862  1.00  0.00    -0.000 A 
HETATM   27  C15 UNL     1      10.329  -2.404  -0.235  1.00  0.00    -0.000 A 
HETATM   28  C16 UNL     1       9.258  -1.520  -0.378  1.00  0.00    -0.002 A 
ENDBRANCH   8  23
TORSDOF 2
