REMARK  2 active torsions:
REMARK  status: ('A' for Active; 'I' for Inactive)
REMARK       I    between atoms: N1_1  and  C17_21 
REMARK    1  A    between atoms: C6_8  and  C11_14 
REMARK    2  A    between atoms: C17_21  and  C18_22 
ROOT
HETATM    1  N1  UNL     1       3.128  -0.855  -1.897  1.00  0.00    -0.317 N 
HETATM    2  C1  UNL     1       1.731  -1.253  -2.093  1.00  0.00     0.106 C 
HETATM    3  C2  UNL     1       0.900  -0.161  -2.788  1.00  0.00     0.051 C 
HETATM    4  C3  UNL     1      -0.613  -0.446  -2.764  1.00  0.00     0.131 C 
HETATM    5  N2  UNL     1      -1.221  -0.079  -1.478  1.00  0.00    -0.238 NA
HETATM    6  C4  UNL     1      -2.363  -0.672  -1.005  1.00  0.00     0.254 C 
HETATM    7  C5  UNL     1      -2.976   0.006   0.214  1.00  0.00     0.118 C 
HETATM    8  C6  UNL     1      -2.168  -0.136   1.517  1.00  0.00     0.130 C 
HETATM    9  N3  UNL     1      -0.832   0.432   1.346  1.00  0.00    -0.293 NA
HETATM   10  C7  UNL     1       0.256  -0.545   1.356  1.00  0.00     0.120 C 
HETATM   11  C8  UNL     1       1.537   0.136   0.857  1.00  0.00     0.028 C 
HETATM   12  C9  UNL     1       2.708  -0.843   0.670  1.00  0.00     0.026 C 
HETATM   13  C10 UNL     1       3.586  -0.493  -0.546  1.00  0.00     0.104 C 
HETATM   14  O1  UNL     1      -2.877  -1.623  -1.543  1.00  0.00    -0.271 OA
HETATM   15  C17 UNL     1       3.986  -0.815  -2.972  1.00  0.00     0.259 C 
HETATM   16  O3  UNL     1       3.656  -1.179  -4.091  1.00  0.00    -0.267 OA
ENDROOT
BRANCH  15  17
HETATM   17  C18 UNL     1       5.400  -0.378  -2.740  1.00  0.00     0.083 A 
HETATM   18  C19 UNL     1       6.510  -1.153  -2.889  1.00  0.00     0.127 A 
HETATM   19  O2  UNL     1       7.622  -0.433  -2.574  1.00  0.00    -0.303 OA
HETATM   20  C20 UNL     1       7.193   0.821  -2.241  1.00  0.00     0.123 A 
HETATM   21  C21 UNL     1       5.837   0.920  -2.328  1.00  0.00     0.034 A 
ENDBRANCH  15  17
BRANCH   8  22
HETATM   22  C11 UNL     1      -2.831   0.579   2.676  1.00  0.00    -0.000 A 
HETATM   23  C12 UNL     1      -3.271  -0.120   3.807  1.00  0.00    -0.002 A 
HETATM   24  C13 UNL     1      -3.856   0.550   4.884  1.00  0.00    -0.000 A 
HETATM   25  C14 UNL     1      -4.010   1.937   4.846  1.00  0.00    -0.000 A 
HETATM   26  C15 UNL     1      -3.572   2.647   3.728  1.00  0.00    -0.000 A 
HETATM   27  C16 UNL     1      -2.984   1.971   2.657  1.00  0.00    -0.002 A 
ENDBRANCH   8  22
TORSDOF 2
