REMARK  4 active torsions:
REMARK  status: ('A' for Active; 'I' for Inactive)
REMARK    1  A    between atoms: C2_2  and  C12_16 
REMARK    2  A    between atoms: C12_16  and  O5_19 
REMARK    3  A    between atoms: O5_19  and  C15_20 
REMARK    4  A    between atoms: C16_22  and  C20_29 
ROOT
HETATM    1  C1  UNL     1      -1.554   0.362  -2.689  1.00  0.00     0.063 C 
HETATM    2  C2  UNL     1      -0.472   0.073  -1.613  1.00  0.00     0.150 C 
HETATM    3  O1  UNL     1      -0.334   1.258  -0.821  1.00  0.00    -0.331 OA
HETATM    4  C3  UNL     1      -0.980   2.297  -1.447  1.00  0.00     0.094 A 
HETATM    5  C4  UNL     1      -1.706   1.850  -2.543  1.00  0.00     0.028 A 
HETATM    6  C5  UNL     1      -2.445   2.735  -3.322  1.00  0.00     0.131 A 
HETATM    7  C6  UNL     1      -2.405   4.098  -2.955  1.00  0.00     0.048 A 
HETATM    8  C7  UNL     1      -1.664   4.576  -1.850  1.00  0.00     0.107 A 
HETATM    9  C8  UNL     1      -0.951   3.642  -1.088  1.00  0.00     0.049 A 
HETATM   10  O2  UNL     1      -1.609   5.894  -1.487  1.00  0.00    -0.273 OA
HETATM   11  C9  UNL     1      -2.305   6.788  -2.243  1.00  0.00     0.300 A 
HETATM   12  C10 UNL     1      -3.116   6.376  -3.409  1.00  0.00     0.069 A 
HETATM   13  C11 UNL     1      -3.160   5.069  -3.745  1.00  0.00     0.009 A 
HETATM   14  O3  UNL     1      -2.273   7.985  -1.964  1.00  0.00    -0.259 OA
HETATM   15  O4  UNL     1      -3.166   2.282  -4.380  1.00  0.00    -0.190 OA
ENDROOT
BRANCH   2  16
HETATM   16  C12 UNL     1      -0.630  -1.182  -0.725  1.00  0.00     0.121 C 
HETATM   17  C13 UNL     1      -0.561  -2.423  -1.626  1.00  0.00     0.032 C 
HETATM   18  C14 UNL     1      -1.958  -1.143   0.042  1.00  0.00     0.032 C 
BRANCH  16  19
HETATM   19  O5  UNL     1       0.478  -1.134   0.135  1.00  0.00    -0.331 OA
BRANCH  19  20
HETATM   20  C15 UNL     1       0.574  -2.087   1.170  1.00  0.00     0.270 C 
HETATM   21  O6  UNL     1      -0.181  -1.591   2.256  1.00  0.00    -0.326 OA
HETATM   22  C16 UNL     1      -0.154  -2.448   3.366  1.00  0.00     0.184 C 
HETATM   23  C17 UNL     1       1.275  -2.554   3.884  1.00  0.00     0.215 C 
HETATM   24  C18 UNL     1       2.187  -3.051   2.780  1.00  0.00     0.220 C 
HETATM   25  O9  UNL     1       1.365  -3.461   4.954  1.00  0.00    -0.218 OA
HETATM   26  C19 UNL     1       2.030  -2.145   1.581  1.00  0.00     0.241 C 
HETATM   27  O8  UNL     1       3.519  -3.024   3.225  1.00  0.00    -0.218 OA
HETATM   28  O7  UNL     1       2.799  -2.648   0.518  1.00  0.00    -0.215 OA
BRANCH  22  29
HETATM   29  C20 UNL     1      -1.109  -1.900   4.417  1.00  0.00     0.214 C 
HETATM   30  O10 UNL     1      -2.435  -1.939   3.925  1.00  0.00    -0.218 OA
ENDBRANCH  22  29
ENDBRANCH  19  20
ENDBRANCH  16  19
ENDBRANCH   2  16
TORSDOF 4
