REMARK  3 active torsions:
REMARK  status: ('A' for Active; 'I' for Inactive)
REMARK    1  A    between atoms: C1_2  and  C11_21 
REMARK    2  A    between atoms: C2_3  and  O5_10 
REMARK    3  A    between atoms: O5_10  and  C6_11 
ROOT
HETATM    1  O1  UNL     1      -0.626   2.518  -2.103  1.00  0.00    -0.324 OA
HETATM    2  C1  UNL     1       0.199   1.839  -1.196  1.00  0.00     0.181 C 
HETATM    3  C2  UNL     1      -0.407   0.472  -0.837  1.00  0.00     0.181 C 
HETATM    4  C3  UNL     1      -1.784   0.710  -0.224  1.00  0.00     0.217 C 
HETATM    5  C4  UNL     1      -2.611   1.529  -1.196  1.00  0.00     0.244 C 
HETATM    6  C5  UNL     1      -1.882   2.798  -1.536  1.00  0.00     0.303 C 
HETATM    7  O2  UNL     1      -2.518   3.457  -2.613  1.00  0.00    -0.187 OA
HETATM    8  O3  UNL     1      -3.847   1.835  -0.603  1.00  0.00    -0.215 OA
HETATM    9  O4  UNL     1      -2.487  -0.486   0.003  1.00  0.00    -0.218 OA
ENDROOT
BRANCH   3  10
HETATM   10  O5  UNL     1       0.482  -0.142   0.048  1.00  0.00    -0.326 OA
BRANCH  10  11
HETATM   11  C6  UNL     1       0.283  -1.513   0.313  1.00  0.00     0.272 C 
HETATM   12  C7  UNL     1       1.512  -2.314  -0.054  1.00  0.00     0.241 C 
HETATM   13  C8  UNL     1       2.699  -1.966   0.820  1.00  0.00     0.223 C 
HETATM   14  O10 UNL     1       1.226  -3.691   0.061  1.00  0.00    -0.215 OA
HETATM   15  C9  UNL     1       2.300  -2.078   2.278  1.00  0.00     0.244 C 
HETATM   16  O9  UNL     1       3.129  -0.655   0.526  1.00  0.00    -0.218 OA
HETATM   17  C10 UNL     1       1.026  -1.329   2.576  1.00  0.00     0.304 C 
HETATM   18  O8  UNL     1       2.093  -3.435   2.595  1.00  0.00    -0.215 OA
HETATM   19  O6  UNL     1      -0.038  -1.589   1.688  1.00  0.00    -0.300 OA
HETATM   20  O7  UNL     1       1.223   0.069   2.497  1.00  0.00    -0.187 OA
ENDBRANCH  10  11
ENDBRANCH   3  10
BRANCH   2  21
HETATM   21  C11 UNL     1       1.601   1.724  -1.786  1.00  0.00     0.214 C 
HETATM   22  O11 UNL     1       2.545   1.558  -0.742  1.00  0.00    -0.218 OA
ENDBRANCH   2  21
TORSDOF 3
