REMARK  1 active torsions:
REMARK  status: ('A' for Active; 'I' for Inactive)
REMARK    1  A    between atoms: C12_13  and  O1_15 
ROOT
HETATM    1  C1  UNL     1      -1.619  -1.894   1.075  1.00  0.00     0.119 A 
HETATM    2  C2  UNL     1      -1.701  -0.515   0.946  1.00  0.00     0.119 A 
HETATM    3  C3  UNL     1      -0.557   0.264   0.811  1.00  0.00     0.022 A 
HETATM    4  C4  UNL     1       0.685  -0.382   0.817  1.00  0.00    -0.019 A 
HETATM    5  C5  UNL     1       0.787  -1.786   0.974  1.00  0.00    -0.022 A 
HETATM    6  C6  UNL     1      -0.389  -2.546   1.098  1.00  0.00     0.022 A 
HETATM    7  C7  UNL     1       2.129  -2.519   1.067  1.00  0.00     0.061 C 
HETATM    8  C8  UNL     1       3.299  -2.137   0.122  1.00  0.00     0.255 C 
HETATM    9  N1  UNL     1       2.821  -1.328  -0.969  1.00  0.00     0.138 N 
HETATM   10  C9  UNL     1       2.652   0.083  -0.684  1.00  0.00     0.219 C 
HETATM   11  C10 UNL     1       1.966   0.379   0.656  1.00  0.00     0.092 C 
HETATM   12  C11 UNL     1       2.178   1.879   0.875  1.00  0.00     0.202 C 
HETATM   13  C12 UNL     1       3.606   1.970   0.358  1.00  0.00     0.100 C 
HETATM   14  C13 UNL     1       3.885   0.933  -0.452  1.00  0.00     0.027 C 
HETATM   15  O2  UNL     1       1.299   2.665   0.098  1.00  0.00    -0.216 OA
HETATM   16  C15 UNL     1       2.032   0.546  -2.013  1.00  0.00     0.038 C 
HETATM   17  C16 UNL     1       2.864  -0.253  -3.044  1.00  0.00     0.038 C 
HETATM   18  C17 UNL     1       3.527  -1.386  -2.229  1.00  0.00     0.251 C 
HETATM   19  O3  UNL     1      -3.027  -0.131   0.975  1.00  0.00    -0.300 OA
HETATM   20  C18 UNL     1      -3.816  -1.317   1.133  1.00  0.00     0.304 A 
HETATM   21  O4  UNL     1      -2.894  -2.413   1.190  1.00  0.00    -0.300 OA
ENDROOT
BRANCH  13  22
HETATM   22  O1  UNL     1       4.478   2.964   0.692  1.00  0.00    -0.330 OA
HETATM   23  C14 UNL     1       3.950   4.269   0.625  1.00  0.00     0.181 C 
ENDBRANCH  13  22
TORSDOF 1
