REMARK  2 active torsions:
REMARK  status: ('A' for Active; 'I' for Inactive)
REMARK    1  A    between atoms: C2_2  and  O3_22 
REMARK    2  A    between atoms: C13_13  and  O2_16 
ROOT
HETATM    1  C1  UNL     1      -0.856   1.133   1.276  1.00  0.00     0.195 C 
HETATM    2  C2  UNL     1      -1.541  -0.151   0.981  1.00  0.00     0.126 C 
HETATM    3  C3  UNL     1      -0.810  -1.142   0.431  1.00  0.00     0.032 C 
HETATM    4  C4  UNL     1       0.655  -1.092   0.028  1.00  0.00     0.217 C 
HETATM    5  C5  UNL     1       1.239   0.349   0.043  1.00  0.00     0.061 C 
HETATM    6  C6  UNL     1       0.657   1.134   1.232  1.00  0.00     0.078 C 
HETATM    7  C7  UNL     1       2.777   0.406   0.130  1.00  0.00     0.003 A 
HETATM    8  C8  UNL     1       3.517  -0.760   0.382  1.00  0.00    -0.024 A 
HETATM    9  C9  UNL     1       2.887  -2.114   0.590  1.00  0.00     0.028 C 
HETATM   10  C10 UNL     1       1.418  -2.010   0.994  1.00  0.00     0.041 C 
HETATM   11  C11 UNL     1       4.909  -0.689   0.452  1.00  0.00    -0.002 A 
HETATM   12  C12 UNL     1       5.561   0.524   0.278  1.00  0.00     0.026 A 
HETATM   13  C13 UNL     1       4.868   1.710   0.014  1.00  0.00     0.119 A 
HETATM   14  C14 UNL     1       3.459   1.636  -0.026  1.00  0.00     0.149 A 
HETATM   15  O1  UNL     1       2.744   2.766  -0.273  1.00  0.00    -0.188 OA
HETATM   16  C16 UNL     1       0.778   0.878  -1.343  1.00  0.00     0.042 C 
HETATM   17  C17 UNL     1       0.286  -0.353  -2.119  1.00  0.00     0.251 C 
HETATM   18  N1  UNL     1       0.835  -1.467  -1.375  1.00  0.00     0.139 N 
HETATM   19  C18 UNL     1       0.306  -2.747  -1.810  1.00  0.00     0.286 C 
HETATM   20  O4  UNL     1      -1.470   2.138   1.617  1.00  0.00    -0.289 OA
ENDROOT
BRANCH   2  21
HETATM   21  O3  UNL     1      -2.880  -0.191   1.281  1.00  0.00    -0.326 OA
HETATM   22  C19 UNL     1      -3.639  -1.282   0.815  1.00  0.00     0.181 C 
ENDBRANCH   2  21
BRANCH  13  23
HETATM   23  O2  UNL     1       5.638   2.845  -0.103  1.00  0.00    -0.326 OA
HETATM   24  C15 UNL     1       5.074   4.121   0.087  1.00  0.00     0.181 C 
ENDBRANCH  13  23
TORSDOF 2
