REMARK  5 active torsions:
REMARK  status: ('A' for Active; 'I' for Inactive)
REMARK    1  A    between atoms: C2_2  and  O7_39 
REMARK    2  A    between atoms: C13_13  and  O1_15 
REMARK    3  A    between atoms: O1_15  and  C15_16 
REMARK    4  A    between atoms: C24_28  and  C25_29 
REMARK    5  A    between atoms: O7_39  and  C33_40 
ROOT
HETATM    1  C1  UNL     1      -1.038  -0.891  -2.258  1.00  0.00     0.030 C 
HETATM    2  C2  UNL     1      -1.001  -2.092  -1.290  1.00  0.00     0.118 C 
HETATM    3  C3  UNL     1       0.169  -3.052  -1.614  1.00  0.00     0.025 C 
HETATM    4  C4  UNL     1       1.525  -2.277  -1.515  1.00  0.00     0.002 C 
HETATM    5  C5  UNL     1       1.376  -0.752  -1.569  1.00  0.00     0.000 A 
HETATM    6  C6  UNL     1       0.356  -0.339  -2.623  1.00  0.00     0.003 C 
HETATM    7  C7  UNL     1       2.586   0.089  -1.161  1.00  0.00     0.002 A 
HETATM    8  C8  UNL     1       3.744  -0.557  -0.381  1.00  0.00     0.003 C 
HETATM    9  C9  UNL     1       3.883  -2.059  -0.669  1.00  0.00     0.000 C 
HETATM   10  C10 UNL     1       2.538  -2.774  -0.470  1.00  0.00     0.000 C 
HETATM   11  C11 UNL     1       5.069   0.239  -0.469  1.00  0.00     0.035 C 
HETATM   12  C12 UNL     1       4.777   1.781  -0.355  1.00  0.00     0.033 C 
HETATM   13  C13 UNL     1       4.105   2.203  -1.680  1.00  0.00     0.124 C 
HETATM   14  C14 UNL     1       2.936   1.270  -2.069  1.00  0.00     0.030 C 
HETATM   15  C17 UNL     1       6.197   2.371  -0.069  1.00  0.00     0.057 C 
HETATM   16  C18 UNL     1       6.894   1.257   0.730  1.00  0.00     0.215 C 
HETATM   17  C19 UNL     1       5.993   0.044   0.743  1.00  0.00     0.203 C 
HETATM   18  O3  UNL     1       6.744  -1.146   0.737  1.00  0.00    -0.218 OA
HETATM   19  O4  UNL     1       7.175   1.659   2.039  1.00  0.00    -0.333 OA
HETATM   20  C20 UNL     1       8.289   2.470   1.869  1.00  0.00     0.147 C 
HETATM   21  C21 UNL     1       7.842   3.785   1.212  1.00  0.00     0.033 C 
HETATM   22  C22 UNL     1       6.395   3.717   0.671  1.00  0.00     0.007 C 
HETATM   23  C23 UNL     1       6.105   4.974  -0.165  1.00  0.00     0.000 C 
HETATM   24  C24 UNL     1       9.125   1.592   0.954  1.00  0.00     0.173 C 
HETATM   25  O6  UNL     1       8.154   0.948   0.184  1.00  0.00    -0.330 OA
HETATM   26  C28 UNL     1       3.848   2.168   0.824  1.00  0.00     0.003 C 
HETATM   27  C29 UNL     1       5.834  -0.148  -1.763  1.00  0.00     0.003 C 
HETATM   28  C30 UNL     1       1.306   0.120  -0.345  1.00  0.00     0.000 A 
HETATM   29  C31 UNL     1      -0.041  -3.618  -3.045  1.00  0.00     0.002 C 
HETATM   30  C32 UNL     1       0.111  -4.294  -0.693  1.00  0.00     0.002 C 
ENDROOT
BRANCH   2  31
HETATM   31  O7  UNL     1      -0.860  -1.599   0.017  1.00  0.00    -0.332 OA
BRANCH  31  32
HETATM   32  C33 UNL     1      -1.724  -2.139   0.991  1.00  0.00     0.270 C 
HETATM   33  O8  UNL     1      -2.965  -1.486   0.829  1.00  0.00    -0.326 OA
HETATM   34  C34 UNL     1      -3.908  -1.910   1.787  1.00  0.00     0.181 C 
HETATM   35  C35 UNL     1      -3.421  -1.608   3.196  1.00  0.00     0.215 C 
HETATM   36  C36 UNL     1      -2.076  -2.261   3.431  1.00  0.00     0.220 C 
HETATM   37  O11 UNL     1      -4.322  -2.110   4.152  1.00  0.00    -0.218 OA
HETATM   38  C37 UNL     1      -1.138  -1.795   2.343  1.00  0.00     0.241 C 
HETATM   39  O10 UNL     1      -1.573  -1.879   4.685  1.00  0.00    -0.218 OA
HETATM   40  O9  UNL     1       0.100  -2.438   2.506  1.00  0.00    -0.215 OA
ENDBRANCH  31  32
ENDBRANCH   2  31
BRANCH  13  41
HETATM   41  O1  UNL     1       3.659   3.523  -1.589  1.00  0.00    -0.304 OA
BRANCH  41  42
HETATM   42  C15 UNL     1       3.442   4.329  -2.669  1.00  0.00     0.272 C 
HETATM   43  O2  UNL     1       2.992   5.449  -2.551  1.00  0.00    -0.264 OA
HETATM   44  C16 UNL     1       3.834   3.786  -4.032  1.00  0.00     0.106 C 
ENDBRANCH  41  42
ENDBRANCH  13  41
BRANCH  24  45
HETATM   45  C25 UNL     1      10.019   0.546   1.634  1.00  0.00     0.154 C 
HETATM   46  C26 UNL     1      11.175   1.209   2.391  1.00  0.00     0.036 C 
HETATM   47  C27 UNL     1      10.588  -0.453   0.619  1.00  0.00     0.036 C 
HETATM   48  O5  UNL     1       9.259  -0.191   2.556  1.00  0.00    -0.223 OA
ENDBRANCH  24  45
TORSDOF 5
