REMARK  7 active torsions:
REMARK  status: ('A' for Active; 'I' for Inactive)
REMARK    1  A    between atoms: C13_13  and  O1_15 
REMARK    2  A    between atoms: O1_15  and  C15_16 
REMARK    3  A    between atoms: C17_19  and  C20_22 
REMARK    4  A    between atoms: C20_22  and  C21_23 
REMARK    5  A    between atoms: C21_23  and  C22_24 
REMARK    6  A    between atoms: C22_24  and  C23_25 
REMARK    7  A    between atoms: C24_26  and  C25_27 
ROOT
HETATM    1  C1  UNL     1      -2.634   0.171  -1.718  1.00  0.00     0.065 C 
HETATM    2  C2  UNL     1      -2.694  -0.954  -2.730  1.00  0.00     0.150 C 
HETATM    3  C3  UNL     1      -1.506  -1.921  -2.738  1.00  0.00     0.052 C 
HETATM    4  C4  UNL     1      -1.294  -2.452  -1.284  1.00  0.00     0.010 C 
HETATM    5  C5  UNL     1      -1.279  -1.385  -0.151  1.00  0.00     0.016 C 
HETATM    6  C6  UNL     1      -2.500  -0.443  -0.325  1.00  0.00     0.011 C 
HETATM    7  C7  UNL     1       0.096  -0.709  -0.078  1.00  0.00    -0.047 C 
HETATM    8  C8  UNL     1       1.298  -1.641   0.028  1.00  0.00     0.018 C 
HETATM    9  C9  UNL     1       1.241  -2.789  -0.995  1.00  0.00     0.004 C 
HETATM   10  C10 UNL     1      -0.135  -3.454  -1.096  1.00  0.00     0.001 C 
HETATM   11  C11 UNL     1       2.638  -0.863   0.014  1.00  0.00     0.006 C 
HETATM   12  C12 UNL     1       2.572   0.376   0.966  1.00  0.00     0.030 C 
HETATM   13  C13 UNL     1       1.534   1.348   0.379  1.00  0.00     0.145 C 
HETATM   14  C14 UNL     1       0.240   0.623   0.069  1.00  0.00    -0.005 C 
HETATM   15  C17 UNL     1       4.061   0.834   1.050  1.00  0.00     0.003 C 
HETATM   16  C18 UNL     1       4.806  -0.530   1.032  1.00  0.00     0.000 C 
HETATM   17  C19 UNL     1       3.818  -1.638   0.626  1.00  0.00     0.000 C 
HETATM   18  C28 UNL     1       2.098   0.002   2.401  1.00  0.00     0.003 C 
HETATM   19  C29 UNL     1       3.047  -0.529  -1.447  1.00  0.00     0.000 C 
HETATM   20  C30 UNL     1      -1.524  -2.035   1.242  1.00  0.00     0.004 C 
HETATM   21  C31 UNL     1      -1.838  -3.077  -3.712  1.00  0.00     0.007 C 
HETATM   22  C32 UNL     1      -0.342  -1.125  -3.360  1.00  0.00     0.007 C 
HETATM   23  O5  UNL     1      -3.625  -1.041  -3.499  1.00  0.00    -0.296 OA
ENDROOT
BRANCH  15  24
HETATM   24  C20 UNL     1       4.534   1.817   2.155  1.00  0.00     0.000 C 
HETATM   25  C27 UNL     1       3.643   3.078   2.249  1.00  0.00     0.000 C 
BRANCH  24  26
HETATM   26  C21 UNL     1       5.981   2.355   1.970  1.00  0.00     0.005 C 
BRANCH  26  27
HETATM   27  C22 UNL     1       7.117   1.324   1.956  1.00  0.00     0.026 C 
BRANCH  27  28
HETATM   28  C23 UNL     1       8.502   1.923   1.979  1.00  0.00    -0.024 C 
HETATM   29  C24 UNL     1       9.666   1.251   1.828  1.00  0.00     0.038 C 
HETATM   30  C26 UNL     1      10.990   1.979   1.841  1.00  0.00     0.037 C 
BRANCH  29  31
HETATM   31  C25 UNL     1       9.714  -0.224   1.633  1.00  0.00     0.206 C 
HETATM   32  O3  UNL     1      10.881  -0.867   1.415  1.00  0.00    -0.644 OA
HETATM   33  O4  UNL     1       8.720  -0.936   1.678  1.00  0.00    -0.644 OA
ENDBRANCH  29  31
ENDBRANCH  27  28
ENDBRANCH  26  27
ENDBRANCH  24  26
ENDBRANCH  15  24
BRANCH  13  34
HETATM   34  O1  UNL     1       2.026   2.029  -0.748  1.00  0.00    -0.300 OA
BRANCH  34  35
HETATM   35  C15 UNL     1       1.465   3.220  -1.082  1.00  0.00     0.273 C 
HETATM   36  C16 UNL     1       2.140   3.779  -2.319  1.00  0.00     0.106 C 
HETATM   37  O2  UNL     1       0.561   3.761  -0.486  1.00  0.00    -0.264 OA
ENDBRANCH  34  35
ENDBRANCH  13  34
TORSDOF 7
