REMARK  3 active torsions:
REMARK  status: ('A' for Active; 'I' for Inactive)
REMARK    1  A    between atoms: C15_16  and  C20_24 
REMARK    2  A    between atoms: C16_17  and  O3_20 
REMARK    3  A    between atoms: O3_20  and  C18_21 
ROOT
HETATM    1  C1  UNL     1      -0.864  -1.240  -2.433  1.00  0.00     0.033 C 
HETATM    2  C2  UNL     1      -1.921  -1.932  -1.577  1.00  0.00     0.152 C 
HETATM    3  C3  UNL     1      -1.397  -2.458  -0.237  1.00  0.00     0.033 C 
HETATM    4  C4  UNL     1       0.073  -2.091   0.043  1.00  0.00     0.003 C 
HETATM    5  C5  UNL     1       0.368  -0.591  -0.205  1.00  0.00     0.000 C 
HETATM    6  C6  UNL     1       0.031  -0.237  -1.685  1.00  0.00     0.003 C 
HETATM    7  C7  UNL     1       1.865  -0.274   0.143  1.00  0.00     0.005 C 
HETATM    8  C8  UNL     1       2.812  -1.492   0.054  1.00  0.00     0.028 C 
HETATM    9  C9  UNL     1       2.376  -2.455  -1.052  1.00  0.00     0.002 C 
HETATM   10  C10 UNL     1       1.024  -3.075  -0.676  1.00  0.00     0.000 C 
HETATM   11  C11 UNL     1       4.228  -0.956   0.010  1.00  0.00     0.123 A 
HETATM   12  C12 UNL     1       4.703  -0.022   1.123  1.00  0.00     0.060 C 
HETATM   13  C13 UNL     1       3.546   0.304   2.090  1.00  0.00     0.155 C 
HETATM   14  C14 UNL     1       2.157   0.497   1.456  1.00  0.00     0.033 C 
HETATM   15  O1  UNL     1       3.431  -0.711   3.066  1.00  0.00    -0.223 OA
HETATM   16  C15 UNL     1       5.130   1.220   0.298  1.00  0.00     0.059 C 
HETATM   17  C16 UNL     1       5.668   0.662  -1.034  1.00  0.00     0.158 C 
HETATM   18  C17 UNL     1       4.812  -0.590  -1.254  1.00  0.00     0.168 A 
HETATM   19  O2  UNL     1       5.366  -1.774  -0.734  1.00  0.00    -0.354 OA
HETATM   20  C25 UNL     1       5.863  -0.664   1.914  1.00  0.00     0.005 C 
HETATM   21  C26 UNL     1      -0.583   0.272   0.669  1.00  0.00     0.000 C 
HETATM   22  O7  UNL     1      -2.996  -1.045  -1.365  1.00  0.00    -0.224 OA
ENDROOT
BRANCH  16  23
HETATM   23  C20 UNL     1       5.886   2.351   0.970  1.00  0.00     0.005 A 
HETATM   24  C21 UNL     1       5.263   3.675   1.038  1.00  0.00     0.003 A 
HETATM   25  C22 UNL     1       5.934   4.707   1.593  1.00  0.00     0.068 A 
HETATM   26  C23 UNL     1       7.286   4.448   2.129  1.00  0.00     0.300 A 
HETATM   27  O5  UNL     1       7.844   3.208   2.092  1.00  0.00    -0.271 OA
HETATM   28  O6  UNL     1       7.898   5.388   2.631  1.00  0.00    -0.259 OA
HETATM   29  C24 UNL     1       7.126   2.213   1.493  1.00  0.00     0.122 A 
ENDBRANCH  16  23
BRANCH  17  30
HETATM   30  O3  UNL     1       7.042   0.364  -1.014  1.00  0.00    -0.301 OA
BRANCH  30  31
HETATM   31  C18 UNL     1       7.916   1.345  -1.367  1.00  0.00     0.272 C 
HETATM   32  C19 UNL     1       9.338   0.830  -1.280  1.00  0.00     0.106 C 
HETATM   33  O4  UNL     1       7.605   2.471  -1.681  1.00  0.00    -0.264 OA
ENDBRANCH  30  31
ENDBRANCH  17  30
TORSDOF 3
