REMARK  4 active torsions:
REMARK  status: ('A' for Active; 'I' for Inactive)
REMARK    1  A    between atoms: C7_7  and  C12_12 
REMARK    2  A    between atoms: C12_12  and  C13_13 
REMARK    3  A    between atoms: C13_13  and  C14_14 
REMARK    4  A    between atoms: C14_14  and  C15_15 
ROOT
HETATM    1  C1  UNL     1      -3.075  -0.726  -0.921  1.00  0.00     0.172 C 
HETATM    2  C2  UNL     1      -3.253  -2.094  -0.387  1.00  0.00     0.029 C 
HETATM    3  C3  UNL     1      -2.217  -2.905  -0.096  1.00  0.00    -0.042 C 
HETATM    4  C4  UNL     1      -0.768  -2.471  -0.348  1.00  0.00     0.016 C 
HETATM    5  C5  UNL     1      -0.657  -0.938  -0.108  1.00  0.00     0.011 C 
HETATM    6  C6  UNL     1      -1.668  -0.166  -0.975  1.00  0.00     0.070 C 
HETATM    7  C7  UNL     1       0.766  -0.275  -0.034  1.00  0.00     0.001 C 
HETATM    8  C8  UNL     1       1.677  -1.141   0.895  1.00  0.00     0.000 C 
HETATM    9  C9  UNL     1       1.612  -2.646   0.578  1.00  0.00     0.000 C 
HETATM   10  C10 UNL     1       0.181  -3.183   0.636  1.00  0.00     0.004 C 
HETATM   11  C11 UNL     1       3.168  -0.738   0.920  1.00  0.00     0.000 C 
HETATM   12  C18 UNL     1       1.444  -0.137  -1.415  1.00  0.00     0.000 C 
HETATM   13  C19 UNL     1      -0.479  -2.917  -1.798  1.00  0.00     0.004 C 
HETATM   14  C20 UNL     1      -2.493  -4.315   0.383  1.00  0.00     0.026 C 
HETATM   15  O2  UNL     1      -4.036  -0.064  -1.295  1.00  0.00    -0.291 OA
ENDROOT
BRANCH   7  16
HETATM   16  C12 UNL     1       0.626   1.143   0.626  1.00  0.00     0.003 C 
BRANCH  16  17
HETATM   17  C13 UNL     1       0.602   2.390  -0.282  1.00  0.00     0.035 C 
BRANCH  17  18
HETATM   18  C14 UNL     1       0.196   3.698   0.423  1.00  0.00     0.145 C 
HETATM   19  C17 UNL     1       1.105   4.033   1.609  1.00  0.00     0.038 C 
HETATM   20  O1  UNL     1      -1.124   3.549   0.903  1.00  0.00    -0.222 OA
BRANCH  18  21
HETATM   21  C15 UNL     1       0.214   4.854  -0.559  1.00  0.00     0.003 C 
HETATM   22  C16 UNL     1      -0.291   6.068  -0.294  1.00  0.00    -0.002 C 
ENDBRANCH  18  21
ENDBRANCH  17  18
ENDBRANCH  16  17
ENDBRANCH   7  16
TORSDOF 4
