REMARK  0 active torsions:
REMARK  status: ('A' for Active; 'I' for Inactive)
ROOT
HETATM    1  C1  UNL     1      -1.321   0.794  -0.893  1.00  0.00     0.039 A 
HETATM    2  C2  UNL     1      -1.160  -0.548  -0.946  1.00  0.00     0.009 A 
HETATM    3  C3  UNL     1       0.094  -1.263  -0.788  1.00  0.00    -0.011 C 
HETATM    4  C4  UNL     1       1.188  -0.812  -0.100  1.00  0.00    -0.045 C 
HETATM    5  C5  UNL     1       1.275   0.329   0.775  1.00  0.00     0.019 C 
HETATM    6  C6  UNL     1       0.221   1.207   0.849  1.00  0.00     0.008 C 
HETATM    7  C7  UNL     1      -0.288   1.778  -0.452  1.00  0.00     0.032 C 
HETATM    8  C8  UNL     1      -0.874   0.871   1.851  1.00  0.00     0.001 C 
HETATM    9  C9  UNL     1       2.636   0.909   0.484  1.00  0.00     0.004 C 
HETATM   10  C10 UNL     1       3.545  -0.321   0.229  1.00  0.00     0.004 C 
HETATM   11  C11 UNL     1       2.561  -1.438  -0.227  1.00  0.00     0.022 C 
HETATM   12  C12 UNL     1       4.235  -0.705   1.558  1.00  0.00     0.000 C 
HETATM   13  C13 UNL     1       4.636   0.004  -0.820  1.00  0.00     0.000 C 
HETATM   14  C14 UNL     1      -2.508  -1.183  -1.213  1.00  0.00     0.178 A 
HETATM   15  O1  UNL     1      -3.468  -0.127  -1.233  1.00  0.00    -0.294 OA
HETATM   16  C15 UNL     1      -2.759   1.025  -1.069  1.00  0.00     0.292 A 
HETATM   17  O2  UNL     1      -3.272   2.139  -1.035  1.00  0.00    -0.260 OA
ENDROOT
TORSDOF 0
