REMARK  0 active torsions:
REMARK  status: ('A' for Active; 'I' for Inactive)
ROOT
HETATM    1  C1  UNL     1      -2.191   0.348   0.278  1.00  0.00     0.003 C 
HETATM    2  C2  UNL     1      -2.523  -1.143   0.446  1.00  0.00     0.010 C 
HETATM    3  C3  UNL     1      -1.266  -2.038   0.471  1.00  0.00     0.080 C 
HETATM    4  C4  UNL     1      -0.017  -1.207   0.796  1.00  0.00     0.035 C 
HETATM    5  C5  UNL     1       0.158  -0.463  -0.540  1.00  0.00     0.102 C 
HETATM    6  C6  UNL     1      -0.918   0.650  -0.543  1.00  0.00     0.028 C 
HETATM    7  C7  UNL     1       1.632  -0.011  -0.861  1.00  0.00     0.030 C 
HETATM    8  C8  UNL     1       2.410   0.199   0.478  1.00  0.00     0.060 C 
HETATM    9  C9  UNL     1       2.430  -1.049   1.381  1.00  0.00     0.007 C 
HETATM   10  C10 UNL     1       1.229  -1.992   1.205  1.00  0.00     0.003 C 
HETATM   11  C11 UNL     1       3.853   0.712   0.244  1.00  0.00     0.042 C 
HETATM   12  C12 UNL     1       3.619   2.105  -0.333  1.00  0.00     0.148 C 
HETATM   13  C13 UNL     1       3.062   1.991  -1.749  1.00  0.00     0.035 C 
HETATM   14  C14 UNL     1       1.692   1.281  -1.735  1.00  0.00     0.006 C 
HETATM   15  C15 UNL     1       2.583   2.609   0.631  1.00  0.00     0.040 C 
HETATM   16  C16 UNL     1       1.858   1.445   1.188  1.00  0.00     0.171 C 
HETATM   17  O1  UNL     1       1.012   1.485   2.070  1.00  0.00    -0.292 OA
HETATM   18  C17 UNL     1       2.293   3.888   0.926  1.00  0.00     0.001 C 
HETATM   19  O2  UNL     1       4.796   2.872  -0.298  1.00  0.00    -0.221 OA
HETATM   20  C18 UNL     1       2.380  -1.071  -1.727  1.00  0.00     0.003 C 
HETATM   21  O3  UNL     1      -0.244  -1.393  -1.503  1.00  0.00    -0.307 OA
HETATM   22  C19 UNL     1      -0.992  -2.388  -0.978  1.00  0.00     0.271 C 
HETATM   23  O4  UNL     1      -1.401  -3.351  -1.587  1.00  0.00    -0.264 OA
HETATM   24  C20 UNL     1      -1.480  -3.294   1.323  1.00  0.00     0.010 C 
ENDROOT
TORSDOF 0
