REMARK  3 active torsions:
REMARK  status: ('A' for Active; 'I' for Inactive)
REMARK    1  A    between atoms: C7_7  and  C13_16 
REMARK    2  A    between atoms: C13_16  and  C14_17 
REMARK    3  A    between atoms: C14_17  and  C15_18 
ROOT
HETATM    1  C1  UNL     1      -2.541  -1.431  -0.435  1.00  0.00     0.001 C 
HETATM    2  C2  UNL     1      -2.231  -2.826  -0.987  1.00  0.00     0.009 C 
HETATM    3  C3  UNL     1      -0.833  -3.389  -0.677  1.00  0.00     0.081 C 
HETATM    4  C4  UNL     1       0.274  -2.328  -0.663  1.00  0.00     0.048 C 
HETATM    5  C5  UNL     1      -0.081  -0.994   0.040  1.00  0.00     0.018 C 
HETATM    6  C6  UNL     1      -1.361  -0.470  -0.645  1.00  0.00     0.004 C 
HETATM    7  C7  UNL     1       1.174  -0.132  -0.107  1.00  0.00    -0.046 C 
HETATM    8  C8  UNL     1       2.362  -0.657   0.281  1.00  0.00     0.007 C 
HETATM    9  C9  UNL     1       2.428  -2.097   0.667  1.00  0.00     0.196 C 
HETATM   10  C10 UNL     1       1.375  -3.041   0.100  1.00  0.00     0.186 C 
HETATM   11  O1  UNL     1       0.694  -3.826   1.053  1.00  0.00    -0.296 OA
HETATM   12  C11 UNL     1      -0.618  -3.990   0.704  1.00  0.00     0.271 C 
HETATM   13  O2  UNL     1      -1.450  -4.561   1.372  1.00  0.00    -0.264 OA
HETATM   14  O3  UNL     1       3.374  -2.559   1.293  1.00  0.00    -0.289 OA
HETATM   15  C12 UNL     1       3.659   0.111   0.402  1.00  0.00     0.033 C 
HETATM   16  C19 UNL     1      -0.342  -1.053   1.570  1.00  0.00     0.004 C 
HETATM   17  C20 UNL     1      -0.560  -4.531  -1.685  1.00  0.00     0.010 C 
ENDROOT
BRANCH   7  18
HETATM   18  C13 UNL     1       1.027   1.318  -0.525  1.00  0.00     0.024 C 
BRANCH  18  19
HETATM   19  C14 UNL     1       0.643   2.240   0.644  1.00  0.00     0.038 C 
BRANCH  19  20
HETATM   20  C15 UNL     1       0.767   3.726   0.313  1.00  0.00     0.164 C 
HETATM   21  C16 UNL     1       0.045   4.179  -0.940  1.00  0.00     0.182 C 
HETATM   22  O4  UNL     1      -0.206   5.550  -0.766  1.00  0.00    -0.299 OA
HETATM   23  C17 UNL     1      -0.159   5.891   0.549  1.00  0.00     0.275 C 
HETATM   24  C18 UNL     1       0.155   4.651   1.358  1.00  0.00     0.129 C 
HETATM   25  O5  UNL     1      -0.335   7.006   0.987  1.00  0.00    -0.264 OA
HETATM   26  O6  UNL     1       2.128   4.051   0.182  1.00  0.00    -0.223 OA
ENDBRANCH  19  20
ENDBRANCH  18  19
ENDBRANCH   7  18
TORSDOF 3
