REMARK  0 active torsions:
REMARK  status: ('A' for Active; 'I' for Inactive)
ROOT
HETATM    1  C1  UNL     1      -2.408   1.502  -0.713  1.00  0.00     0.004 C 
HETATM    2  C2  UNL     1      -2.536   0.550   0.486  1.00  0.00     0.033 C 
HETATM    3  C3  UNL     1      -1.403  -0.493   0.576  1.00  0.00     0.221 C 
HETATM    4  N1  UNL     1      -0.085   0.132   0.484  1.00  0.00     0.152 N 
HETATM    5  C4  UNL     1       0.050   0.947  -0.730  1.00  0.00     0.223 C 
HETATM    6  C5  UNL     1      -1.225   1.070  -1.583  1.00  0.00     0.033 C 
HETATM    7  C6  UNL     1       1.227   0.531  -1.627  1.00  0.00     0.056 C 
HETATM    8  C7  UNL     1       2.499   0.546  -0.777  1.00  0.00     0.087 C 
HETATM    9  N2  UNL     1       2.338  -0.183   0.473  1.00  0.00    -0.297 N 
HETATM   10  C8  UNL     1       1.022  -0.818   0.659  1.00  0.00     0.305 C 
HETATM   11  C9  UNL     1       0.860  -1.625   1.963  1.00  0.00     0.057 C 
HETATM   12  C10 UNL     1      -0.492  -2.340   2.026  1.00  0.00     0.006 C 
HETATM   13  C11 UNL     1      -1.588  -1.285   1.883  1.00  0.00     0.033 C 
HETATM   14  C12 UNL     1       3.395  -0.255   1.351  1.00  0.00     0.235 C 
HETATM   15  C13 UNL     1       4.685   0.350   0.818  1.00  0.00     0.088 C 
HETATM   16  C14 UNL     1       4.952  -0.122  -0.620  1.00  0.00     0.012 C 
HETATM   17  C15 UNL     1       3.726   0.029  -1.542  1.00  0.00     0.023 C 
HETATM   18  O1  UNL     1       3.359  -0.754   2.450  1.00  0.00    -0.272 OA
HETATM   19  C16 UNL     1      -3.705   1.589  -1.532  1.00  0.00     0.000 C 
ENDROOT
TORSDOF 0
