REMARK  1 active torsions:
REMARK  status: ('A' for Active; 'I' for Inactive)
REMARK    1  A    between atoms: C4_4  and  C7_7 
ROOT
HETATM    1  C7  UNL     1      -0.717  -0.200   0.452  1.00  0.00     0.018 C 
HETATM    2  C8  UNL     1      -1.761   0.810  -0.137  1.00  0.00     0.004 C 
HETATM    3  C9  UNL     1      -3.171   0.391   0.359  1.00  0.00     0.005 C 
HETATM    4  C10 UNL     1      -3.602  -0.965  -0.192  1.00  0.00     0.025 C 
HETATM    5  C11 UNL     1      -2.485  -1.952  -0.055  1.00  0.00    -0.034 C 
HETATM    6  C12 UNL     1      -1.205  -1.647   0.228  1.00  0.00    -0.048 C 
HETATM    7  C13 UNL     1      -0.271  -2.826   0.424  1.00  0.00     0.026 C 
HETATM    8  C14 UNL     1      -1.600   2.261   0.382  1.00  0.00     0.000 C 
HETATM    9  C15 UNL     1      -1.760   0.814  -1.681  1.00  0.00     0.000 C 
ENDROOT
BRANCH   1  10
HETATM   10  C4  UNL     1       0.787  -0.010   0.070  1.00  0.00     0.008 C 
HETATM   11  C3  UNL     1       1.315   1.413  -0.209  1.00  0.00     0.026 C 
HETATM   12  C2  UNL     1       2.798   1.462  -0.485  1.00  0.00    -0.034 C 
HETATM   13  C1  UNL     1       3.650   0.488  -0.133  1.00  0.00    -0.048 C 
HETATM   14  C6  UNL     1       3.166  -0.732   0.604  1.00  0.00     0.022 C 
HETATM   15  C16 UNL     1       5.119   0.539  -0.471  1.00  0.00     0.026 C 
HETATM   16  C5  UNL     1       1.752  -0.525   1.166  1.00  0.00     0.005 C 
ENDBRANCH   1  10
TORSDOF 1
