REMARK  3 active torsions:
REMARK  status: ('A' for Active; 'I' for Inactive)
REMARK    1  A    between atoms: C2_2  and  C8_10 
REMARK    2  A    between atoms: C5_5  and  O2_8 
REMARK    3  A    between atoms: C8_10  and  C9_11 
ROOT
HETATM    1  C1  UNL     1       0.833   1.097  -0.357  1.00  0.00     0.025 A 
HETATM    2  C2  UNL     1       1.429  -0.028   0.217  1.00  0.00    -0.016 A 
HETATM    3  C3  UNL     1       0.575  -1.004   0.731  1.00  0.00    -0.002 A 
HETATM    4  C4  UNL     1      -0.806  -0.841   0.640  1.00  0.00     0.026 A 
HETATM    5  C5  UNL     1      -1.415   0.286   0.067  1.00  0.00     0.119 A 
HETATM    6  C6  UNL     1      -0.553   1.276  -0.448  1.00  0.00     0.153 A 
HETATM    7  O1  UNL     1      -0.998   2.425  -1.024  1.00  0.00    -0.188 OA
ENDROOT
BRANCH   2   8
HETATM    8  C8  UNL     1       2.931  -0.163   0.309  1.00  0.00     0.052 C 
BRANCH   8   9
HETATM    9  C9  UNL     1       3.396  -1.571   0.042  1.00  0.00    -0.021 C 
HETATM   10  C10 UNL     1       4.069  -2.314   0.932  1.00  0.00    -0.005 C 
ENDBRANCH   8   9
ENDBRANCH   2   8
BRANCH   5  11
HETATM   11  O2  UNL     1      -2.790   0.300   0.051  1.00  0.00    -0.326 OA
HETATM   12  C7  UNL     1      -3.486   1.337  -0.596  1.00  0.00     0.181 C 
ENDBRANCH   5  11
TORSDOF 3
