REMARK  14 active torsions:
REMARK  status: ('A' for Active; 'I' for Inactive)
REMARK    1  A    between atoms: C1_1  and  C34_57 
REMARK    2  A    between atoms: C3_3  and  O19_45 
REMARK    3  A    between atoms: C5_5  and  O2_7 
REMARK    4  A    between atoms: O2_7  and  C6_8 
REMARK    5  A    between atoms: C6_8  and  C7_9 
REMARK    6  A    between atoms: C16_23  and  C21_32 
REMARK    7  A    between atoms: C17_24  and  C19_28 
REMARK    8  A    between atoms: C19_28  and  C20_29 
REMARK    9  A    between atoms: C21_32  and  C22_33 
REMARK   10  A    between atoms: O19_45  and  C27_46 
REMARK   11  A    between atoms: C27_46  and  C28_47 
REMARK   12  A    between atoms: C34_57  and  O24_58 
REMARK   13  A    between atoms: O24_58  and  C35_59 
REMARK   14  A    between atoms: C35_59  and  C36_60 
ROOT
HETATM    1  C1  UNL     1       4.787  -0.309  -0.930  1.00  0.00     0.178 C 
HETATM    2  C2  UNL     1       3.692   0.748  -0.800  1.00  0.00     0.184 C 
HETATM    3  C3  UNL     1       4.085   1.820   0.232  1.00  0.00     0.187 C 
HETATM    4  C4  UNL     1       4.905   1.223   1.382  1.00  0.00     0.211 C 
HETATM    5  C5  UNL     1       6.095   0.435   0.807  1.00  0.00     0.274 C 
HETATM    6  O1  UNL     1       6.026   0.261  -0.596  1.00  0.00    -0.326 OA
HETATM    7  O7  UNL     1       4.233   0.308   2.207  1.00  0.00    -0.293 OA
HETATM    8  C13 UNL     1       2.880   0.192   2.331  1.00  0.00     0.296 C 
HETATM    9  C14 UNL     1       2.321  -1.182   2.118  1.00  0.00     0.064 A 
HETATM   10  C15 UNL     1       1.086  -1.496   1.513  1.00  0.00     0.014 A 
HETATM   11  C16 UNL     1      -0.025  -0.504   1.110  1.00  0.00     0.076 C 
HETATM   12  C17 UNL     1       0.285   0.719   0.195  1.00  0.00     0.104 C 
HETATM   13  C18 UNL     1       1.328   0.449  -0.902  1.00  0.00     0.272 C 
HETATM   14  O8  UNL     1       2.521   0.134  -0.341  1.00  0.00    -0.299 OA
HETATM   15  O9  UNL     1       1.198   0.744  -2.069  1.00  0.00    -0.264 OA
HETATM   16  C23 UNL     1       0.800  -2.873   1.361  1.00  0.00     0.154 A 
HETATM   17  C24 UNL     1       1.714  -3.874   1.706  1.00  0.00     0.181 A 
HETATM   18  C25 UNL     1       2.959  -3.550   2.243  1.00  0.00     0.158 A 
HETATM   19  C26 UNL     1       3.224  -2.205   2.452  1.00  0.00     0.035 A 
HETATM   20  O15 UNL     1       3.857  -4.510   2.589  1.00  0.00    -0.188 OA
HETATM   21  O16 UNL     1       1.406  -5.186   1.533  1.00  0.00    -0.186 OA
HETATM   22  O17 UNL     1      -0.404  -3.297   0.889  1.00  0.00    -0.188 OA
HETATM   23  O18 UNL     1       2.178   1.188   2.447  1.00  0.00    -0.259 OA
ENDROOT
BRANCH   1  24
HETATM   24  C34 UNL     1       4.811  -0.989  -2.295  1.00  0.00     0.183 C 
BRANCH  24  25
HETATM   25  O24 UNL     1       3.728  -1.883  -2.316  1.00  0.00    -0.306 OA
BRANCH  25  26
HETATM   26  C35 UNL     1       3.297  -2.419  -3.487  1.00  0.00     0.229 C 
HETATM   27  O28 UNL     1       2.269  -3.251  -3.472  1.00  0.00    -0.163 OA
BRANCH  26  28
HETATM   28  C36 UNL     1       3.904  -2.141  -4.853  1.00  0.00     0.053 C 
HETATM   29  C37 UNL     1       5.172  -2.538  -5.122  1.00  0.00     0.034 C 
HETATM   30  C38 UNL     1       5.733  -2.305  -6.488  1.00  0.00     0.158 C 
HETATM   31  C39 UNL     1       4.993  -1.314  -7.348  1.00  0.00     0.181 C 
HETATM   32  O27 UNL     1       6.994  -2.660  -6.838  1.00  0.00    -0.188 OA
HETATM   33  C40 UNL     1       3.531  -1.146  -7.087  1.00  0.00     0.158 C 
HETATM   34  O26 UNL     1       5.481  -0.984  -8.568  1.00  0.00    -0.186 OA
HETATM   35  C41 UNL     1       3.044  -1.525  -5.880  1.00  0.00     0.034 C 
HETATM   36  O25 UNL     1       2.741  -0.596  -8.043  1.00  0.00    -0.188 OA
ENDBRANCH  26  28
ENDBRANCH  25  26
ENDBRANCH  24  25
ENDBRANCH   1  24
BRANCH   3  37
HETATM   37  O19 UNL     1       4.862   2.818  -0.383  1.00  0.00    -0.296 OA
BRANCH  37  38
HETATM   38  C27 UNL     1       4.333   4.034  -0.723  1.00  0.00     0.298 C 
HETATM   39  O23 UNL     1       5.040   4.832  -1.331  1.00  0.00    -0.259 OA
BRANCH  38  40
HETATM   40  C28 UNL     1       2.941   4.513  -0.393  1.00  0.00     0.091 A 
HETATM   41  C29 UNL     1       2.099   4.941  -1.428  1.00  0.00     0.163 A 
HETATM   42  C30 UNL     1       0.793   5.339  -1.118  1.00  0.00     0.181 A 
HETATM   43  O22 UNL     1       2.482   4.925  -2.731  1.00  0.00    -0.188 OA
HETATM   44  C31 UNL     1       0.333   5.324   0.201  1.00  0.00     0.158 A 
HETATM   45  O21 UNL     1      -0.055   5.716  -2.109  1.00  0.00    -0.186 OA
HETATM   46  C32 UNL     1       1.193   4.908   1.220  1.00  0.00     0.030 A 
HETATM   47  O20 UNL     1      -0.967   5.616   0.465  1.00  0.00    -0.188 OA
HETATM   48  C33 UNL     1       2.504   4.536   0.934  1.00  0.00     0.010 A 
ENDBRANCH  38  40
ENDBRANCH  37  38
ENDBRANCH   3  37
BRANCH   5  49
HETATM   49  O2  UNL     1       7.343   1.008   1.134  1.00  0.00    -0.270 OA
BRANCH  49  50
HETATM   50  C6  UNL     1       7.988   0.504   2.242  1.00  0.00     0.298 C 
HETATM   51  O6  UNL     1       9.002   1.050   2.663  1.00  0.00    -0.259 OA
BRANCH  50  52
HETATM   52  C7  UNL     1       7.484  -0.687   3.038  1.00  0.00     0.068 A 
HETATM   53  C8  UNL     1       7.471  -1.959   2.458  1.00  0.00     0.035 A 
HETATM   54  C9  UNL     1       6.837  -3.025   3.101  1.00  0.00     0.158 A 
HETATM   55  C10 UNL     1       6.234  -2.804   4.343  1.00  0.00     0.181 A 
HETATM   56  O5  UNL     1       6.703  -4.239   2.508  1.00  0.00    -0.188 OA
HETATM   57  C11 UNL     1       6.303  -1.552   4.964  1.00  0.00     0.158 A 
HETATM   58  O4  UNL     1       5.554  -3.809   4.949  1.00  0.00    -0.186 OA
HETATM   59  C12 UNL     1       6.923  -0.490   4.299  1.00  0.00     0.035 A 
HETATM   60  O3  UNL     1       5.689  -1.369   6.161  1.00  0.00    -0.188 OA
ENDBRANCH  50  52
ENDBRANCH  49  50
ENDBRANCH   5  49
BRANCH  12  61
HETATM   61  C19 UNL     1      -0.945   1.408  -0.460  1.00  0.00     0.108 C 
BRANCH  61  62
HETATM   62  C20 UNL     1      -1.879   2.220   0.416  1.00  0.00     0.186 C 
HETATM   63  O10 UNL     1      -1.229   2.932   1.354  1.00  0.00    -0.647 OA
HETATM   64  O11 UNL     1      -3.086   2.242   0.357  1.00  0.00    -0.647 OA
ENDBRANCH  61  62
ENDBRANCH  12  61
BRANCH  11  65
HETATM   65  C21 UNL     1      -0.828  -0.220   2.398  1.00  0.00     0.243 C 
HETATM   66  O14 UNL     1      -0.741  -1.353   3.252  1.00  0.00    -0.211 OA
BRANCH  65  67
HETATM   67  C22 UNL     1      -2.315   0.020   2.195  1.00  0.00     0.217 C 
HETATM   68  O12 UNL     1      -2.761   1.116   2.840  1.00  0.00    -0.645 OA
HETATM   69  O13 UNL     1      -3.033  -0.657   1.498  1.00  0.00    -0.645 OA
ENDBRANCH  65  67
ENDBRANCH  11  65
TORSDOF 14
