REMARK  1 active torsions:
REMARK  status: ('A' for Active; 'I' for Inactive)
REMARK    1  A    between atoms: C2_2  and  C9_9 
ROOT
HETATM    1  C1  UNL     1      -0.231   0.278   0.949  1.00  0.00     0.051 A 
HETATM    2  C2  UNL     1      -1.392  -0.504   0.398  1.00  0.00     0.013 A 
HETATM    3  C3  UNL     1      -1.195  -0.883  -0.875  1.00  0.00    -0.023 A 
HETATM    4  C4  UNL     1       0.136  -0.421  -1.406  1.00  0.00     0.047 A 
HETATM    5  C5  UNL     1       0.724   0.303  -0.219  1.00  0.00    -0.043 A 
HETATM    6  C6  UNL     1       1.937   0.892  -0.205  1.00  0.00    -0.051 C 
HETATM    7  C7  UNL     1       2.449   1.594   1.026  1.00  0.00     0.026 C 
HETATM    8  C8  UNL     1       2.829   0.872  -1.419  1.00  0.00     0.026 C 
ENDROOT
BRANCH   2   9
HETATM    9  C9  UNL     1      -2.596  -0.808   1.184  1.00  0.00     0.170 C 
HETATM   10  C10 UNL     1      -3.648  -1.697   0.576  1.00  0.00     0.077 C 
HETATM   11  O1  UNL     1      -2.732  -0.352   2.294  1.00  0.00    -0.292 OA
ENDBRANCH   2   9
TORSDOF 1
