REMARK  0 active torsions:
REMARK  status: ('A' for Active; 'I' for Inactive)
ROOT
HETATM    1  C1  UNL     1      -3.565   0.164  -1.081  1.00  0.00     0.026 A 
HETATM    2  C2  UNL     1      -3.609  -1.190  -0.763  1.00  0.00     0.119 A 
HETATM    3  C3  UNL     1      -2.460  -1.882  -0.398  1.00  0.00     0.117 A 
HETATM    4  C4  UNL     1      -1.210  -1.266  -0.322  1.00  0.00     0.031 A 
HETATM    5  C5  UNL     1      -1.151   0.098  -0.637  1.00  0.00    -0.018 A 
HETATM    6  C6  UNL     1      -2.316   0.789  -1.013  1.00  0.00    -0.002 A 
HETATM    7  C7  UNL     1       0.164   0.835  -0.517  1.00  0.00     0.088 C 
HETATM    8  C8  UNL     1       1.364  -0.133  -0.458  1.00  0.00     0.248 C 
HETATM    9  N1  UNL     1       1.091  -1.183   0.528  1.00  0.00     0.146 N 
HETATM   10  C9  UNL     1       0.012  -2.051   0.071  1.00  0.00     0.279 C 
HETATM   11  C10 UNL     1       2.240  -2.000   0.887  1.00  0.00     0.286 C 
HETATM   12  C11 UNL     1       2.649   0.625  -0.158  1.00  0.00     0.007 A 
HETATM   13  C12 UNL     1       2.642   1.865   0.512  1.00  0.00    -0.020 A 
HETATM   14  C13 UNL     1       1.358   2.573   0.873  1.00  0.00     0.059 C 
HETATM   15  C14 UNL     1       0.107   1.718   0.731  1.00  0.00     0.163 C 
HETATM   16  O1  UNL     1      -0.052   0.916   1.878  1.00  0.00    -0.223 OA
HETATM   17  C15 UNL     1       3.845   2.522   0.818  1.00  0.00     0.022 A 
HETATM   18  C16 UNL     1       5.043   1.936   0.429  1.00  0.00     0.119 A 
HETATM   19  C17 UNL     1       5.053   0.746  -0.286  1.00  0.00     0.119 A 
HETATM   20  C18 UNL     1       3.871   0.089  -0.606  1.00  0.00     0.024 A 
HETATM   21  O2  UNL     1       6.359   0.405  -0.580  1.00  0.00    -0.300 OA
HETATM   22  C19 UNL     1       7.207   1.412  -0.015  1.00  0.00     0.304 A 
HETATM   23  O3  UNL     1       6.341   2.375   0.600  1.00  0.00    -0.300 OA
HETATM   24  O4  UNL     1      -2.794  -3.200  -0.147  1.00  0.00    -0.300 OA
HETATM   25  C20 UNL     1      -4.204  -3.343  -0.352  1.00  0.00     0.304 A 
HETATM   26  O5  UNL     1      -4.688  -2.053  -0.743  1.00  0.00    -0.300 OA
ENDROOT
TORSDOF 0
