REMARK  12 active torsions:
REMARK  status: ('A' for Active; 'I' for Inactive)
REMARK    1  A    between atoms: C1_1  and  O1_2 
REMARK    2  A    between atoms: C1_1  and  C15_24 
REMARK    3  A    between atoms: O1_2  and  C2_3 
REMARK    4  A    between atoms: C2_3  and  C3_4 
REMARK    5  A    between atoms: C2_3  and  C4_7 
REMARK    6  A    between atoms: C4_7  and  O4_8 
REMARK    7  A    between atoms: C4_7  and  C14_21 
REMARK    8  A    between atoms: O4_8  and  C5_9 
REMARK    9  A    between atoms: C5_9  and  C6_10 
REMARK   10  A    between atoms: C7_11  and  C8_12 
REMARK   11  A    between atoms: C15_24  and  C16_25 
REMARK   12  A    between atoms: C16_25  and  C17_26 
ROOT
HETATM    1  C2  UNL     1       0.343  -0.492  -1.616  1.00  0.00     0.242 C 
ENDROOT
BRANCH   1   2
HETATM    2  O1  UNL     1      -0.431  -1.578  -1.151  1.00  0.00    -0.317 OA
BRANCH   2   3
HETATM    3  C1  UNL     1       0.208  -2.591  -0.501  1.00  0.00     0.274 C 
HETATM    4  O12 UNL     1       1.518  -2.583  -0.344  1.00  0.00    -0.190 OA
BRANCH   3   5
HETATM    5  C15 UNL     1      -0.573  -3.741   0.124  1.00  0.00     0.090 C 
BRANCH   5   6
HETATM    6  C16 UNL     1      -0.289  -5.162  -0.289  1.00  0.00    -0.025 C 
BRANCH   6   7
HETATM    7  C17 UNL     1      -1.211  -6.298   0.054  1.00  0.00    -0.024 C 
HETATM    8  C18 UNL     1      -0.633  -7.561   0.478  1.00  0.00     0.082 C 
HETATM    9  C19 UNL     1      -1.510  -8.764   0.708  1.00  0.00     0.134 C 
HETATM   10  C20 UNL     1      -2.948  -8.457   1.048  1.00  0.00     0.134 C 
HETATM   11  O11 UNL     1      -0.991  -9.983   0.991  1.00  0.00    -0.193 OA
HETATM   12  C21 UNL     1      -3.486  -7.291   0.252  1.00  0.00     0.082 C 
HETATM   13  O10 UNL     1      -3.747  -9.507   1.368  1.00  0.00    -0.193 OA
HETATM   14  C22 UNL     1      -2.558  -6.162  -0.069  1.00  0.00    -0.023 C 
ENDBRANCH   6   7
ENDBRANCH   5   6
ENDBRANCH   3   5
ENDBRANCH   2   3
ENDBRANCH   1   2
BRANCH   1  15
HETATM   15  C3  UNL     1       1.127  -0.856  -2.878  1.00  0.00     0.217 C 
HETATM   16  O2  UNL     1       2.140   0.002  -3.093  1.00  0.00    -0.646 OA
HETATM   17  O3  UNL     1       0.906  -1.784  -3.619  1.00  0.00    -0.646 OA
ENDBRANCH   1  15
BRANCH   1  18
HETATM   18  C4  UNL     1      -0.561   0.737  -1.836  1.00  0.00     0.248 C 
BRANCH  18  19
HETATM   19  O4  UNL     1      -0.200   1.725  -0.892  1.00  0.00    -0.287 OA
BRANCH  19  20
HETATM   20  C5  UNL     1      -0.687   2.990  -1.060  1.00  0.00     0.296 C 
HETATM   21  O7  UNL     1      -1.369   3.264  -2.044  1.00  0.00    -0.259 OA
BRANCH  20  22
HETATM   22  C6  UNL     1      -0.423   4.026  -0.034  1.00  0.00     0.068 C 
HETATM   23  C7  UNL     1      -0.907   5.290  -0.108  1.00  0.00     0.005 C 
BRANCH  23  24
HETATM   24  C8  UNL     1      -0.678   6.347   0.888  1.00  0.00     0.002 A 
HETATM   25  C9  UNL     1      -1.366   7.565   0.755  1.00  0.00     0.029 A 
HETATM   26  C10 UNL     1      -1.201   8.618   1.657  1.00  0.00     0.156 A 
HETATM   27  C11 UNL     1      -0.315   8.470   2.732  1.00  0.00     0.156 A 
HETATM   28  O6  UNL     1      -1.879   9.788   1.522  1.00  0.00    -0.188 OA
HETATM   29  C12 UNL     1       0.387   7.270   2.868  1.00  0.00     0.029 A 
HETATM   30  O5  UNL     1      -0.144   9.486   3.615  1.00  0.00    -0.188 OA
HETATM   31  C13 UNL     1       0.215   6.222   1.962  1.00  0.00     0.002 A 
ENDBRANCH  23  24
ENDBRANCH  20  22
ENDBRANCH  19  20
ENDBRANCH  18  19
BRANCH  18  32
HETATM   32  C14 UNL     1      -2.052   0.403  -1.738  1.00  0.00     0.218 C 
HETATM   33  O8  UNL     1      -2.523  -0.111  -2.887  1.00  0.00    -0.645 OA
HETATM   34  O9  UNL     1      -2.753   0.551  -0.765  1.00  0.00    -0.645 OA
ENDBRANCH  18  32
ENDBRANCH   1  18
TORSDOF 12
