REMARK  0 active torsions:
REMARK  status: ('A' for Active; 'I' for Inactive)
ROOT
HETATM    1  C1  UNL     1       2.683   0.324   0.056  1.00  0.00    -0.022 A 
HETATM    2  C2  UNL     1       2.702  -1.065  -0.076  1.00  0.00    -0.004 A 
HETATM    3  C3  UNL     1       1.509  -1.795  -0.158  1.00  0.00     0.003 A 
HETATM    4  C4  UNL     1       0.278  -1.138  -0.107  1.00  0.00     0.042 A 
HETATM    5  C5  UNL     1       0.242   0.263   0.026  1.00  0.00     0.041 A 
HETATM    6  C6  UNL     1       1.441   0.977   0.106  1.00  0.00    -0.001 A 
HETATM    7  C7  UNL     1      -1.052   0.990   0.082  1.00  0.00     0.192 A 
HETATM    8  C8  UNL     1      -2.303   0.191  -0.007  1.00  0.00     0.020 A 
HETATM    9  C9  UNL     1      -2.247  -1.152  -0.134  1.00  0.00     0.041 A 
HETATM   10  C10 UNL     1      -0.979  -1.919  -0.194  1.00  0.00     0.196 A 
HETATM   11  O1  UNL     1      -0.994  -3.141  -0.310  1.00  0.00    -0.287 OA
HETATM   12  C11 UNL     1      -3.624   0.920   0.049  1.00  0.00     0.035 C 
HETATM   13  O2  UNL     1      -1.102   2.211   0.198  1.00  0.00    -0.287 OA
HETATM   14  C12 UNL     1       3.960   1.120   0.144  1.00  0.00     0.031 C 
ENDROOT
TORSDOF 0
