REMARK  8 active torsions:
REMARK  status: ('A' for Active; 'I' for Inactive)
REMARK    1  A    between atoms: C2_2  and  O10_43 
REMARK    2  A    between atoms: C23_26  and  O4_28 
REMARK    3  A    between atoms: O4_28  and  C25_29 
REMARK    4  A    between atoms: C26_31  and  C30_38 
REMARK    5  A    between atoms: O10_43  and  C34_44 
REMARK    6  A    between atoms: C35_46  and  C39_53 
REMARK    7  A    between atoms: C39_53  and  O15_54 
REMARK    8  A    between atoms: O15_54  and  C40_55 
ROOT
HETATM    1  C1  UNL     1      -0.882   0.990  -1.595  1.00  0.00     0.030 C 
HETATM    2  C2  UNL     1      -0.771  -0.518  -1.380  1.00  0.00     0.118 C 
HETATM    3  C3  UNL     1      -0.146  -1.135  -2.631  1.00  0.00     0.037 C 
HETATM    4  C4  UNL     1       1.309  -0.641  -2.789  1.00  0.00     0.060 C 
HETATM    5  C5  UNL     1       1.428   0.918  -2.780  1.00  0.00     0.007 C 
HETATM    6  C6  UNL     1       0.525   1.587  -1.711  1.00  0.00     0.003 C 
HETATM    7  C7  UNL     1       2.913   1.336  -2.557  1.00  0.00     0.001 C 
HETATM    8  C8  UNL     1       3.525   0.600  -1.347  1.00  0.00     0.007 C 
HETATM    9  C9  UNL     1       3.658  -0.888  -1.663  1.00  0.00     0.065 C 
HETATM   10  C10 UNL     1       2.237  -1.398  -1.836  1.00  0.00     0.150 C 
HETATM   11  O1  UNL     1       1.878  -2.392  -1.244  1.00  0.00    -0.296 OA
HETATM   12  C11 UNL     1       4.739   1.335  -0.775  1.00  0.00     0.003 C 
HETATM   13  C12 UNL     1       5.600   2.170  -1.737  1.00  0.00     0.003 C 
HETATM   14  C13 UNL     1       4.712   3.144  -2.548  1.00  0.00     0.000 C 
HETATM   15  C14 UNL     1       3.202   2.846  -2.434  1.00  0.00     0.000 C 
HETATM   16  C15 UNL     1       6.604   2.770  -0.707  1.00  0.00     0.032 C 
HETATM   17  C16 UNL     1       6.741   1.717   0.407  1.00  0.00     0.118 C 
HETATM   18  C17 UNL     1       5.745   0.588   0.102  1.00  0.00     0.030 C 
HETATM   19  O2  UNL     1       6.378   2.281   1.632  1.00  0.00    -0.337 OA
HETATM   20  C18 UNL     1       6.232   3.669   1.537  1.00  0.00     0.189 C 
HETATM   21  C19 UNL     1       6.151   4.026   0.053  1.00  0.00     0.054 C 
HETATM   22  C20 UNL     1       6.934   5.282  -0.357  1.00  0.00     0.005 C 
HETATM   23  O3  UNL     1       7.357   4.270   2.126  1.00  0.00    -0.335 OA
HETATM   24  C21 UNL     1       7.480   4.049   3.510  1.00  0.00     0.147 C 
HETATM   25  C22 UNL     1       6.255   4.532   4.293  1.00  0.00     0.057 C 
HETATM   26  C23 UNL     1       5.016   3.808   3.759  1.00  0.00     0.125 C 
HETATM   27  C24 UNL     1       4.956   4.087   2.259  1.00  0.00     0.086 C 
HETATM   28  C31 UNL     1       6.462   4.314   5.800  1.00  0.00     0.005 C 
HETATM   29  C32 UNL     1       6.401   1.301  -2.737  1.00  0.00     0.000 C 
HETATM   30  C33 UNL     1       0.963   1.431  -4.170  1.00  0.00     0.000 C 
ENDROOT
BRANCH   2  31
HETATM   31  O10 UNL     1      -2.047  -1.028  -1.114  1.00  0.00    -0.332 OA
BRANCH  31  32
HETATM   32  C34 UNL     1      -2.041  -2.314  -0.526  1.00  0.00     0.270 C 
HETATM   33  O11 UNL     1      -2.616  -3.174  -1.487  1.00  0.00    -0.326 OA
HETATM   34  C35 UNL     1      -2.720  -4.499  -1.029  1.00  0.00     0.180 C 
HETATM   35  C36 UNL     1      -3.578  -4.556   0.231  1.00  0.00     0.215 C 
HETATM   36  C37 UNL     1      -3.004  -3.649   1.299  1.00  0.00     0.220 C 
HETATM   37  O14 UNL     1      -3.619  -5.858   0.761  1.00  0.00    -0.218 OA
HETATM   38  C38 UNL     1      -2.896  -2.260   0.719  1.00  0.00     0.241 C 
HETATM   39  O13 UNL     1      -3.859  -3.634   2.414  1.00  0.00    -0.218 OA
HETATM   40  O12 UNL     1      -2.296  -1.411   1.666  1.00  0.00    -0.215 OA
BRANCH  34  41
HETATM   41  C39 UNL     1      -3.317  -5.348  -2.147  1.00  0.00     0.177 C 
BRANCH  41  42
HETATM   42  O15 UNL     1      -2.400  -5.418  -3.211  1.00  0.00    -0.326 OA
BRANCH  42  43
HETATM   43  C40 UNL     1      -2.856  -6.196  -4.297  1.00  0.00     0.270 C 
HETATM   44  O16 UNL     1      -2.799  -7.545  -3.886  1.00  0.00    -0.326 OA
HETATM   45  C41 UNL     1      -3.233  -8.424  -4.896  1.00  0.00     0.181 C 
HETATM   46  C42 UNL     1      -2.401  -8.296  -6.163  1.00  0.00     0.215 C 
HETATM   47  C43 UNL     1      -2.305  -6.853  -6.614  1.00  0.00     0.220 C 
HETATM   48  O19 UNL     1      -1.095  -8.771  -5.934  1.00  0.00    -0.218 OA
HETATM   49  C44 UNL     1      -1.901  -5.980  -5.445  1.00  0.00     0.241 C 
HETATM   50  O18 UNL     1      -1.332  -6.743  -7.622  1.00  0.00    -0.218 OA
HETATM   51  O17 UNL     1      -1.941  -4.633  -5.840  1.00  0.00    -0.215 OA
ENDBRANCH  42  43
ENDBRANCH  41  42
ENDBRANCH  34  41
ENDBRANCH  31  32
ENDBRANCH   2  31
BRANCH  26  52
HETATM   52  O4  UNL     1       3.834   4.307   4.324  1.00  0.00    -0.331 OA
BRANCH  52  53
HETATM   53  C25 UNL     1       3.209   3.458   5.261  1.00  0.00     0.270 C 
HETATM   54  O5  UNL     1       2.701   2.352   4.545  1.00  0.00    -0.326 OA
HETATM   55  C26 UNL     1       2.033   1.440   5.378  1.00  0.00     0.184 C 
HETATM   56  C27 UNL     1       0.832   2.122   6.027  1.00  0.00     0.215 C 
HETATM   57  C28 UNL     1       1.279   3.349   6.795  1.00  0.00     0.220 C 
HETATM   58  O8  UNL     1       0.186   1.261   6.933  1.00  0.00    -0.218 OA
HETATM   59  C29 UNL     1       2.063   4.239   5.860  1.00  0.00     0.241 C 
HETATM   60  O7  UNL     1       0.153   4.042   7.270  1.00  0.00    -0.218 OA
HETATM   61  O6  UNL     1       2.568   5.338   6.573  1.00  0.00    -0.215 OA
BRANCH  55  62
HETATM   62  C30 UNL     1       1.622   0.237   4.542  1.00  0.00     0.214 C 
HETATM   63  O9  UNL     1       2.776  -0.425   4.064  1.00  0.00    -0.218 OA
ENDBRANCH  55  62
ENDBRANCH  52  53
ENDBRANCH  26  52
TORSDOF 8
