REMARK  4 active torsions:
REMARK  status: ('A' for Active; 'I' for Inactive)
REMARK    1  A    between atoms: C8_10  and  C15_20 
REMARK    2  A    between atoms: C11_13  and  O3_14 
REMARK    3  A    between atoms: C17_22  and  O7_28 
REMARK    4  A    between atoms: C18_23  and  O6_26 
ROOT
HETATM    1  O1  UNL     1       6.972   2.648   0.771  1.00  0.00    -0.300 OA
HETATM    2  C1  UNL     1       6.386   3.954   0.676  1.00  0.00     0.304 A 
HETATM    3  O2  UNL     1       4.989   3.761   0.414  1.00  0.00    -0.300 OA
HETATM    4  C2  UNL     1       4.756   2.402   0.377  1.00  0.00     0.119 A 
HETATM    5  C3  UNL     1       5.968   1.720   0.583  1.00  0.00     0.119 A 
HETATM    6  C4  UNL     1       6.033   0.350   0.579  1.00  0.00     0.028 A 
HETATM    7  C5  UNL     1       4.855  -0.437   0.349  1.00  0.00     0.024 A 
HETATM    8  C6  UNL     1       3.619   0.278   0.230  1.00  0.00     0.004 A 
HETATM    9  C7  UNL     1       3.589   1.712   0.189  1.00  0.00     0.026 A 
HETATM   10  C8  UNL     1       2.360  -0.403   0.117  1.00  0.00     0.005 A 
HETATM   11  C9  UNL     1       2.443  -1.771   0.055  1.00  0.00     0.064 A 
HETATM   12  C10 UNL     1       3.657  -2.482   0.104  1.00  0.00     0.035 A 
HETATM   13  C11 UNL     1       4.886  -1.888   0.280  1.00  0.00     0.093 A 
HETATM   14  C13 UNL     1       3.350  -3.954  -0.025  1.00  0.00     0.181 A 
HETATM   15  O4  UNL     1       1.928  -4.074  -0.092  1.00  0.00    -0.293 OA
HETATM   16  C14 UNL     1       1.405  -2.811  -0.042  1.00  0.00     0.296 A 
HETATM   17  O5  UNL     1       0.197  -2.595  -0.058  1.00  0.00    -0.259 OA
ENDROOT
BRANCH  10  18
HETATM   18  C15 UNL     1       1.033   0.273   0.098  1.00  0.00     0.002 A 
HETATM   19  C16 UNL     1       0.160   0.099  -0.978  1.00  0.00     0.026 A 
HETATM   20  C17 UNL     1      -1.127   0.655  -1.009  1.00  0.00     0.116 A 
HETATM   21  C18 UNL     1      -1.527   1.485   0.057  1.00  0.00     0.116 A 
HETATM   22  C19 UNL     1      -0.607   1.741   1.082  1.00  0.00     0.026 A 
HETATM   23  C20 UNL     1       0.633   1.106   1.144  1.00  0.00     0.002 A 
BRANCH  20  24
HETATM   24  O7  UNL     1      -1.951   0.461  -2.088  1.00  0.00    -0.326 OA
HETATM   25  C22 UNL     1      -2.359  -0.878  -2.273  1.00  0.00     0.181 C 
ENDBRANCH  20  24
BRANCH  21  26
HETATM   26  O6  UNL     1      -2.701   2.192   0.000  1.00  0.00    -0.326 OA
HETATM   27  C21 UNL     1      -3.800   1.509   0.560  1.00  0.00     0.181 C 
ENDBRANCH  21  26
ENDBRANCH  10  18
BRANCH  13  28
HETATM   28  O3  UNL     1       5.941  -2.772   0.295  1.00  0.00    -0.328 OA
HETATM   29  C12 UNL     1       7.278  -2.380   0.134  1.00  0.00     0.181 C 
ENDBRANCH  13  28
TORSDOF 4
