REMARK  5 active torsions:
REMARK  status: ('A' for Active; 'I' for Inactive)
REMARK    1  A    between atoms: C3_3  and  C22_25 
REMARK    2  A    between atoms: C12_12  and  C16_16 
REMARK    3  A    between atoms: C16_16  and  C17_17 
REMARK    4  A    between atoms: C17_17  and  O1_18 
REMARK    5  A    between atoms: O1_18  and  C18_19 
ROOT
HETATM    1  C1  UNL     1      -3.865   1.498  -0.611  1.00  0.00     0.152 C 
HETATM    2  C2  UNL     1      -4.283   0.266   0.205  1.00  0.00     0.035 C 
HETATM    3  C3  UNL     1      -3.156  -0.756   0.447  1.00  0.00     0.033 C 
HETATM    4  C4  UNL     1      -2.525  -1.178  -0.906  1.00  0.00     0.003 C 
HETATM    5  C5  UNL     1      -2.016   0.002  -1.805  1.00  0.00     0.006 C 
HETATM    6  C6  UNL     1      -3.070   1.146  -1.889  1.00  0.00     0.033 C 
HETATM    7  C7  UNL     1      -0.555   0.482  -1.455  1.00  0.00     0.018 C 
HETATM    8  C8  UNL     1       0.313  -0.641  -0.910  1.00  0.00    -0.049 C 
HETATM    9  C9  UNL     1      -0.096  -2.043  -1.287  1.00  0.00     0.022 C 
HETATM   10  C10 UNL     1      -1.500  -2.340  -0.748  1.00  0.00     0.004 C 
HETATM   11  C11 UNL     1       1.387  -0.422  -0.119  1.00  0.00    -0.033 C 
HETATM   12  C12 UNL     1       1.807   0.953   0.361  1.00  0.00     0.049 C 
HETATM   13  C13 UNL     1       1.100   2.074  -0.424  1.00  0.00     0.007 C 
HETATM   14  C14 UNL     1      -0.387   1.764  -0.617  1.00  0.00     0.004 C 
HETATM   15  C15 UNL     1       1.439   1.049   1.846  1.00  0.00     0.007 C 
HETATM   16  C20 UNL     1      -1.934  -0.566  -3.236  1.00  0.00     0.000 C 
HETATM   17  C21 UNL     1      -2.104  -0.199   1.408  1.00  0.00     0.003 C 
HETATM   18  O5  UNL     1      -3.172   2.412   0.207  1.00  0.00    -0.224 OA
ENDROOT
BRANCH  12  19
HETATM   19  C16 UNL     1       3.324   1.090   0.213  1.00  0.00     0.186 C 
HETATM   20  O3  UNL     1       3.678   2.424   0.506  1.00  0.00    -0.220 OA
BRANCH  19  21
HETATM   21  C17 UNL     1       4.094   0.174   1.164  1.00  0.00     0.185 C 
BRANCH  21  22
HETATM   22  O1  UNL     1       5.483   0.254   0.879  1.00  0.00    -0.299 OA
BRANCH  22  23
HETATM   23  C18 UNL     1       6.209  -0.525   1.676  1.00  0.00     0.273 C 
HETATM   24  C19 UNL     1       7.693  -0.488   1.428  1.00  0.00     0.106 C 
HETATM   25  O2  UNL     1       5.742  -1.223   2.545  1.00  0.00    -0.264 OA
ENDBRANCH  22  23
ENDBRANCH  21  22
ENDBRANCH  19  21
ENDBRANCH  12  19
BRANCH   3  26
HETATM   26  C22 UNL     1      -3.787  -1.981   1.127  1.00  0.00     0.182 C 
HETATM   27  O4  UNL     1      -2.803  -2.598   1.924  1.00  0.00    -0.221 OA
ENDBRANCH   3  26
TORSDOF 5
