REMARK  5 active torsions:
REMARK  status: ('A' for Active; 'I' for Inactive)
REMARK    1  A    between atoms: C3_3  and  C10_11 
REMARK    2  A    between atoms: C4_5  and  C5_6 
REMARK    3  A    between atoms: C6_7  and  C7_8 
REMARK    4  A    between atoms: C11_12  and  C12_13 
REMARK    5  A    between atoms: C12_13  and  C13_14 
ROOT
HETATM    1  C7  UNL     1      -1.532  -2.161  -0.793  1.00  0.00    -0.014 C 
HETATM    2  C8  UNL     1      -2.701  -2.482  -0.816  1.00  0.00    -0.077 C 
HETATM    3  C9  UNL     1      -4.122  -2.859  -0.850  1.00  0.00     0.091 C 
ENDROOT
BRANCH   1   4
HETATM    4  C6  UNL     1      -0.136  -1.770  -0.769  1.00  0.00    -0.009 C 
HETATM    5  C5  UNL     1       1.029  -1.437  -0.753  1.00  0.00    -0.044 C 
BRANCH   5   6
HETATM    6  C4  UNL     1       2.434  -1.030  -0.735  1.00  0.00     0.072 A 
HETATM    7  C1  UNL     1       3.431  -1.580  -1.494  1.00  0.00     0.016 A 
HETATM    8  C2  UNL     1       4.691  -0.963  -1.264  1.00  0.00     0.016 A 
HETATM    9  C3  UNL     1       4.618   0.039  -0.336  1.00  0.00     0.071 A 
HETATM   10  S1  UNL     1       3.023   0.234   0.262  1.00  0.00    -0.070 SA
BRANCH   9  11
HETATM   11  C10 UNL     1       5.734   0.872   0.109  1.00  0.00    -0.055 C 
HETATM   12  C11 UNL     1       6.653   1.571   0.480  1.00  0.00    -0.052 C 
BRANCH  12  13
HETATM   13  C12 UNL     1       7.745   2.450   0.941  1.00  0.00     0.232 C 
HETATM   14  O1  UNL     1       8.887   1.679   1.275  1.00  0.00    -0.208 OA
BRANCH  13  15
HETATM   15  C13 UNL     1       7.364   3.281   2.158  1.00  0.00     0.141 C 
HETATM   16 CL1  UNL     1       8.728   4.325   2.634  1.00  0.00    -0.110 Cl
ENDBRANCH  13  15
ENDBRANCH  12  13
ENDBRANCH   9  11
ENDBRANCH   5   6
ENDBRANCH   1   4
TORSDOF 5
