REMARK  3 active torsions:
REMARK  status: ('A' for Active; 'I' for Inactive)
REMARK    1  A    between atoms: C6_7  and  C7_8 
REMARK    2  A    between atoms: C8_9  and  C9_10 
REMARK    3  A    between atoms: C10_11  and  C11_12 
ROOT
HETATM    1  C11 UNL     1      -1.907  -4.898  -1.136  1.00  0.00    -0.013 C 
HETATM    2  C12 UNL     1      -1.558  -6.019  -1.436  1.00  0.00    -0.077 C 
HETATM    3  C13 UNL     1      -1.114  -7.375  -1.790  1.00  0.00     0.091 C 
ENDROOT
BRANCH   1   4
HETATM    4  C10 UNL     1      -2.312  -3.554  -0.769  1.00  0.00    -0.001 C 
HETATM    5  C9  UNL     1      -2.632  -2.429  -0.456  1.00  0.00    -0.001 C 
BRANCH   5   6
HETATM    6  C8  UNL     1      -2.989  -1.077  -0.070  1.00  0.00    -0.009 C 
HETATM    7  C7  UNL     1      -3.262   0.057   0.258  1.00  0.00    -0.048 C 
BRANCH   7   8
HETATM    8  C6  UNL     1      -3.556   1.446   0.662  1.00  0.00     0.074 C 
HETATM    9  C5  UNL     1      -2.599   2.393   0.559  1.00  0.00     0.102 C 
HETATM   10  C4  UNL     1      -2.934   3.748   1.024  1.00  0.00     0.022 C 
HETATM   11  O1  UNL     1      -1.336   2.082   0.130  1.00  0.00    -0.329 OA
HETATM   12  C3  UNL     1      -1.999   4.708   0.912  1.00  0.00    -0.006 C 
HETATM   13  C2  UNL     1      -0.633   4.381   0.371  1.00  0.00     0.132 C 
HETATM   14  C1  UNL     1      -0.323   2.914   0.634  1.00  0.00     0.170 C 
HETATM   15 CL1  UNL     1       0.610   5.430   1.123  1.00  0.00    -0.108 Cl
ENDBRANCH   7   8
ENDBRANCH   5   6
ENDBRANCH   1   4
TORSDOF 3
