REMARK  0 active torsions:
REMARK  status: ('A' for Active; 'I' for Inactive)
ROOT
HETATM    1  C1  UNL     1       2.635   0.726   0.100  1.00  0.00     0.002 A 
HETATM    2  C2  UNL     1       2.679  -0.657  -0.036  1.00  0.00     0.028 A 
HETATM    3  C3  UNL     1       1.517  -1.440  -0.127  1.00  0.00     0.134 A 
HETATM    4  C4  UNL     1       0.274  -0.782  -0.070  1.00  0.00     0.068 A 
HETATM    5  C5  UNL     1       0.219   0.621   0.065  1.00  0.00     0.044 A 
HETATM    6  C6  UNL     1       1.396   1.370   0.149  1.00  0.00     0.003 A 
HETATM    7  C7  UNL     1      -1.079   1.339   0.122  1.00  0.00     0.193 A 
HETATM    8  C8  UNL     1      -2.339   0.549   0.033  1.00  0.00     0.031 A 
HETATM    9  C9  UNL     1      -2.298  -0.797  -0.096  1.00  0.00     0.096 A 
HETATM   10  C10 UNL     1      -1.002  -1.541  -0.154  1.00  0.00     0.208 A 
HETATM   11  O1  UNL     1      -1.023  -2.762  -0.270  1.00  0.00    -0.286 OA
HETATM   12 CL1  UNL     1      -3.766  -1.719  -0.200  1.00  0.00    -0.079 Cl
HETATM   13  C11 UNL     1      -3.617   1.359   0.097  1.00  0.00     0.035 C 
HETATM   14  O2  UNL     1      -1.126   2.561   0.240  1.00  0.00    -0.287 OA
HETATM   15  O3  UNL     1       1.673  -2.787  -0.256  1.00  0.00    -0.190 OA
ENDROOT
TORSDOF 0
