REMARK  7 active torsions:
REMARK  status: ('A' for Active; 'I' for Inactive)
REMARK    1  A    between atoms: C15_15  and  C18_18 
REMARK    2  A    between atoms: C18_18  and  C19_19 
REMARK    3  A    between atoms: C19_19  and  C20_20 
REMARK    4  A    between atoms: C20_20  and  C21_21 
REMARK    5  A    between atoms: C22_22  and  C24_24 
REMARK    6  A    between atoms: C31_33  and  O3_34 
REMARK    7  A    between atoms: O3_34  and  C32_35 
ROOT
HETATM    1  C1  UNL     1       4.481  -0.814   1.184  1.00  0.00     0.024 C 
HETATM    2  C2  UNL     1       4.225  -1.504  -0.145  1.00  0.00    -0.020 C 
HETATM    3  C3  UNL     1       4.715  -0.746  -1.379  1.00  0.00     0.017 C 
HETATM    4  C4  UNL     1       4.051   0.682  -1.453  1.00  0.00     0.004 C 
HETATM    5  C5  UNL     1       3.449   1.094  -0.080  1.00  0.00     0.001 A 
HETATM    6  C6  UNL     1       4.379   0.717   1.080  1.00  0.00     0.004 C 
HETATM    7  C7  UNL     1       1.926   1.041   0.123  1.00  0.00     0.000 A 
HETATM    8  C8  UNL     1       1.004   0.729  -1.086  1.00  0.00     0.000 C 
HETATM    9  C9  UNL     1       1.738   0.074  -2.264  1.00  0.00     0.000 C 
HETATM   10  C10 UNL     1       3.016   0.840  -2.584  1.00  0.00     0.000 C 
HETATM   11  C11 UNL     1      -0.197  -0.135  -0.666  1.00  0.00     0.000 C 
HETATM   12  C12 UNL     1      -0.951   0.590   0.463  1.00  0.00     0.000 C 
HETATM   13  C13 UNL     1      -0.100   0.633   1.744  1.00  0.00     0.000 C 
HETATM   14  C14 UNL     1       1.422   0.551   1.498  1.00  0.00     0.000 C 
HETATM   15  C15 UNL     1      -2.217  -0.277   0.559  1.00  0.00     0.000 C 
HETATM   16  C16 UNL     1      -2.563  -0.592  -0.906  1.00  0.00     0.000 C 
HETATM   17  C17 UNL     1      -1.297  -0.295  -1.721  1.00  0.00     0.000 C 
HETATM   18  C26 UNL     1      -1.367   2.012   0.051  1.00  0.00     0.000 C 
HETATM   19  C27 UNL     1       0.225  -1.561  -0.268  1.00  0.00     0.000 C 
HETATM   20  C28 UNL     1       2.654   2.375   0.074  1.00  0.00     0.000 A 
HETATM   21  C29 UNL     1       4.559  -1.541  -2.686  1.00  0.00     0.004 C 
HETATM   22  C30 UNL     1       6.229  -0.580  -1.189  1.00  0.00     0.004 C 
HETATM   23  C31 UNL     1       3.584  -2.695  -0.154  1.00  0.00     0.117 C 
ENDROOT
BRANCH  15  24
HETATM   24  C18 UNL     1      -3.375   0.361   1.324  1.00  0.00     0.000 C 
HETATM   25  C25 UNL     1      -2.928   0.684   2.750  1.00  0.00     0.000 C 
BRANCH  24  26
HETATM   26  C19 UNL     1      -4.588  -0.570   1.283  1.00  0.00     0.005 C 
BRANCH  26  27
HETATM   27  C20 UNL     1      -5.891   0.141   1.650  1.00  0.00     0.026 C 
BRANCH  27  28
HETATM   28  C21 UNL     1      -6.205   1.279   0.719  1.00  0.00    -0.024 C 
HETATM   29  C22 UNL     1      -6.707   2.412   1.238  1.00  0.00     0.038 C 
HETATM   30  C23 UNL     1      -7.024   3.553   0.307  1.00  0.00     0.037 C 
BRANCH  29  31
HETATM   31  C24 UNL     1      -6.965   2.590   2.672  1.00  0.00     0.206 C 
HETATM   32  O1  UNL     1      -7.719   1.846   3.256  1.00  0.00    -0.644 OA
HETATM   33  O2  UNL     1      -6.320   3.598   3.254  1.00  0.00    -0.644 OA
ENDBRANCH  29  31
ENDBRANCH  27  28
ENDBRANCH  26  27
ENDBRANCH  24  26
ENDBRANCH  15  24
BRANCH  23  34
HETATM   34  O3  UNL     1       3.283  -3.379  -1.254  1.00  0.00    -0.275 OA
BRANCH  34  35
HETATM   35  C32 UNL     1       3.006  -4.637  -0.930  1.00  0.00     0.277 C 
HETATM   36  C33 UNL     1       2.055  -5.344  -1.859  1.00  0.00     0.107 C 
HETATM   37  O4  UNL     1       3.467  -5.203   0.035  1.00  0.00    -0.264 OA
ENDBRANCH  34  35
ENDBRANCH  23  34
TORSDOF 7
