REMARK  1 active torsions:
REMARK  status: ('A' for Active; 'I' for Inactive)
REMARK    1  A    between atoms: C9_9  and  C11_11 
ROOT
HETATM    1  C1  UNL     1      -0.800  -2.202   2.869  1.00  0.00     0.037 C 
HETATM    2  C2  UNL     1      -2.262  -2.127   2.439  1.00  0.00     0.171 C 
HETATM    3  C3  UNL     1      -2.490  -1.132   1.326  1.00  0.00    -0.015 C 
HETATM    4  C4  UNL     1      -1.246  -0.422   0.828  1.00  0.00     0.021 C 
HETATM    5  C5  UNL     1      -0.176  -1.476   0.453  1.00  0.00     0.004 C 
HETATM    6  C6  UNL     1       0.117  -2.420   1.655  1.00  0.00     0.003 C 
HETATM    7  C7  UNL     1       1.119  -0.726   0.064  1.00  0.00     0.000 C 
HETATM    8  C8  UNL     1       0.916   0.328  -1.034  1.00  0.00     0.003 C 
HETATM    9  C9  UNL     1      -0.160   1.362  -0.652  1.00  0.00     0.028 C 
HETATM   10  C10 UNL     1      -1.467   0.630  -0.277  1.00  0.00     0.006 C 
HETATM   11  C14 UNL     1      -0.656  -2.350  -0.731  1.00  0.00     0.000 C 
HETATM   12  C15 UNL     1      -3.726  -0.943   0.840  1.00  0.00    -0.007 C 
HETATM   13  O2  UNL     1      -3.058  -1.768   3.554  1.00  0.00    -0.219 OA
ENDROOT
BRANCH   9  14
HETATM   14  C11 UNL     1      -0.350   2.477  -1.707  1.00  0.00     0.127 C 
HETATM   15  C12 UNL     1       0.811   3.479  -1.679  1.00  0.00     0.033 C 
HETATM   16  C13 UNL     1      -0.538   1.951  -3.134  1.00  0.00     0.033 C 
HETATM   17  O1  UNL     1      -1.505   3.210  -1.385  1.00  0.00    -0.226 OA
ENDBRANCH   9  14
TORSDOF 1
