REMARK  3 active torsions:
REMARK  status: ('A' for Active; 'I' for Inactive)
REMARK    1  A    between atoms: C3_3  and  O3_17 
REMARK    2  A    between atoms: O3_17  and  C15_18 
REMARK    3  A    between atoms: C16_20  and  C20_27 
ROOT
HETATM    1  C1  UNL     1      -1.365   1.367  -1.705  1.00  0.00     0.006 C 
HETATM    2  C2  UNL     1      -1.062   0.347  -0.797  1.00  0.00     0.149 C 
HETATM    3  C3  UNL     1      -0.006   0.498   0.124  1.00  0.00     0.125 C 
HETATM    4  C4  UNL     1       0.649   1.740   0.223  1.00  0.00     0.066 C 
HETATM    5  C5  UNL     1       0.366   2.758  -0.707  1.00  0.00     0.044 C 
HETATM    6  C6  UNL     1      -0.636   2.561  -1.659  1.00  0.00     0.001 C 
HETATM    7  C7  UNL     1       1.114   4.041  -0.715  1.00  0.00     0.196 C 
HETATM    8  C8  UNL     1       2.294   4.148   0.178  1.00  0.00     0.042 A 
HETATM    9  C9  UNL     1       2.570   3.149   1.128  1.00  0.00     0.042 A 
HETATM   10  C10 UNL     1       1.695   1.956   1.263  1.00  0.00     0.198 C 
HETATM   11  O1  UNL     1       1.866   1.180   2.198  1.00  0.00    -0.286 OA
HETATM   12  C11 UNL     1       3.699   3.268   1.947  1.00  0.00     0.003 A 
HETATM   13  C12 UNL     1       4.553   4.370   1.822  1.00  0.00     0.000 A 
HETATM   14  C13 UNL     1       4.280   5.357   0.878  1.00  0.00     0.000 A 
HETATM   15  C14 UNL     1       3.151   5.247   0.059  1.00  0.00     0.003 A 
HETATM   16  O2  UNL     1       0.801   4.963  -1.464  1.00  0.00    -0.287 OA
HETATM   17  O9  UNL     1      -1.721  -0.844  -0.833  1.00  0.00    -0.188 OA
HETATM   18  C21 UNL     1      -2.446   1.207  -2.748  1.00  0.00     0.033 C 
ENDROOT
BRANCH   3  19
HETATM   19  O3  UNL     1       0.206  -0.517   1.019  1.00  0.00    -0.301 OA
BRANCH  19  20
HETATM   20  C15 UNL     1       1.299  -1.348   0.699  1.00  0.00     0.274 C 
HETATM   21  O4  UNL     1       0.851  -2.145  -0.373  1.00  0.00    -0.326 OA
HETATM   22  C16 UNL     1       1.841  -3.032  -0.820  1.00  0.00     0.184 C 
HETATM   23  C17 UNL     1       2.205  -3.992   0.307  1.00  0.00     0.215 C 
HETATM   24  C18 UNL     1       2.680  -3.213   1.517  1.00  0.00     0.220 C 
HETATM   25  O7  UNL     1       3.245  -4.855  -0.082  1.00  0.00    -0.218 OA
HETATM   26  C19 UNL     1       1.624  -2.199   1.901  1.00  0.00     0.241 C 
HETATM   27  O6  UNL     1       2.900  -4.093   2.589  1.00  0.00    -0.218 OA
HETATM   28  O5  UNL     1       2.131  -1.381   2.929  1.00  0.00    -0.215 OA
BRANCH  22  29
HETATM   29  C20 UNL     1       1.321  -3.752  -2.054  1.00  0.00     0.214 C 
HETATM   30  O8  UNL     1       1.104  -2.809  -3.086  1.00  0.00    -0.218 OA
ENDBRANCH  22  29
ENDBRANCH  19  20
ENDBRANCH   3  19
TORSDOF 3
