REMARK  0 active torsions:
REMARK  status: ('A' for Active; 'I' for Inactive)
ROOT
HETATM    1  C1  UNL     1      -3.401  -0.410  -0.260  1.00  0.00     0.028 A 
HETATM    2  C2  UNL     1      -3.068  -1.755  -0.145  1.00  0.00     0.002 A 
HETATM    3  C3  UNL     1      -1.731  -2.122   0.031  1.00  0.00     0.003 A 
HETATM    4  C4  UNL     1      -0.740  -1.138   0.095  1.00  0.00     0.044 A 
HETATM    5  C5  UNL     1      -1.086   0.223  -0.000  1.00  0.00     0.068 A 
HETATM    6  C6  UNL     1      -2.428   0.599  -0.187  1.00  0.00     0.134 A 
HETATM    7  O1  UNL     1      -2.827   1.893  -0.318  1.00  0.00    -0.190 OA
HETATM    8  C7  UNL     1      -0.029   1.269   0.084  1.00  0.00     0.200 C 
HETATM    9  C8  UNL     1       1.400   0.848   0.095  1.00  0.00     0.067 A 
HETATM   10  C9  UNL     1       1.723  -0.521   0.185  1.00  0.00     0.044 A 
HETATM   11  C10 UNL     1       0.671  -1.565   0.257  1.00  0.00     0.196 C 
HETATM   12  O2  UNL     1       0.959  -2.751   0.407  1.00  0.00    -0.287 OA
HETATM   13  C11 UNL     1       3.057  -0.936   0.197  1.00  0.00    -0.001 A 
HETATM   14  C12 UNL     1       4.098  -0.006   0.112  1.00  0.00    -0.020 A 
HETATM   15  C13 UNL     1       3.760   1.342   0.018  1.00  0.00     0.023 A 
HETATM   16  C14 UNL     1       2.433   1.802   0.018  1.00  0.00     0.134 A 
HETATM   17  O3  UNL     1       2.229   3.143  -0.108  1.00  0.00    -0.190 OA
HETATM   18  C15 UNL     1       5.533  -0.470   0.099  1.00  0.00     0.031 C 
HETATM   19  O4  UNL     1      -0.334   2.454   0.166  1.00  0.00    -0.286 OA
ENDROOT
TORSDOF 0
