REMARK  7 active torsions:
REMARK  status: ('A' for Active; 'I' for Inactive)
REMARK    1  A    between atoms: C1_1  and  O5_22 
REMARK    2  A    between atoms: C4_4  and  C8_9 
REMARK    3  A    between atoms: C6_6  and  O1_7 
REMARK    4  A    between atoms: C8_9  and  C9_10 
REMARK    5  A    between atoms: C9_10  and  C10_11 
REMARK    6  A    between atoms: C12_13  and  O4_20 
REMARK    7  A    between atoms: C14_15  and  O2_17 
ROOT
HETATM    1  C9  UNL     1       1.656  -0.177  -0.013  1.00  0.00     0.031 C 
ENDROOT
BRANCH   1   2
HETATM    2  C8  UNL     1       3.171  -0.388   0.131  1.00  0.00     0.031 C 
BRANCH   2   3
HETATM    3  C4  UNL     1       4.062   0.805  -0.153  1.00  0.00    -0.020 C 
HETATM    4  C3  UNL     1       5.440   0.688   0.056  1.00  0.00    -0.002 C 
HETATM    5  C2  UNL     1       6.296   1.743  -0.254  1.00  0.00     0.026 C 
HETATM    6  C1  UNL     1       5.825   2.943  -0.802  1.00  0.00     0.116 C 
HETATM    7  C6  UNL     1       4.432   3.146  -0.829  1.00  0.00     0.116 C 
HETATM    8  C5  UNL     1       3.595   2.042  -0.608  1.00  0.00     0.022 C 
BRANCH   6   9
HETATM    9  O5  UNL     1       6.691   3.977  -1.043  1.00  0.00    -0.326 OA
HETATM   10  C18 UNL     1       7.121   4.051  -2.383  1.00  0.00     0.181 C 
ENDBRANCH   6   9
BRANCH   7  11
HETATM   11  O1  UNL     1       3.911   4.312  -1.327  1.00  0.00    -0.326 OA
HETATM   12  C7  UNL     1       3.704   5.304  -0.348  1.00  0.00     0.181 C 
ENDBRANCH   7  11
ENDBRANCH   2   3
ENDBRANCH   1   2
BRANCH   1  13
HETATM   13  C10 UNL     1       0.768  -1.363   0.312  1.00  0.00    -0.018 A 
HETATM   14  C11 UNL     1      -0.618  -1.196   0.329  1.00  0.00     0.022 A 
HETATM   15  C12 UNL     1      -1.501  -2.244   0.619  1.00  0.00     0.121 A 
HETATM   16  C13 UNL     1      -0.962  -3.510   0.916  1.00  0.00     0.175 A 
HETATM   17  C14 UNL     1       0.429  -3.733   0.905  1.00  0.00     0.121 A 
HETATM   18  O3  UNL     1      -1.854  -4.500   1.202  1.00  0.00    -0.186 OA
HETATM   19  C15 UNL     1       1.252  -2.639   0.603  1.00  0.00     0.022 A 
BRANCH  15  20
HETATM   20  O4  UNL     1      -2.868  -2.111   0.655  1.00  0.00    -0.326 OA
HETATM   21  C17 UNL     1      -3.434  -0.838   0.458  1.00  0.00     0.181 C 
ENDBRANCH  15  20
BRANCH  17  22
HETATM   22  O2  UNL     1       1.077  -4.916   1.176  1.00  0.00    -0.326 OA
HETATM   23  C16 UNL     1       0.354  -6.062   1.552  1.00  0.00     0.181 C 
ENDBRANCH  17  22
ENDBRANCH   1  13
TORSDOF 7
