REMARK  2 active torsions:
REMARK  status: ('A' for Active; 'I' for Inactive)
REMARK    1  A    between atoms: C3_3  and  C18_20 
REMARK    2  A    between atoms: C12_12  and  O1_15 
ROOT
HETATM    1  C1  UNL     1       2.211   2.985  -0.152  1.00  0.00     0.000 C 
HETATM    2  C2  UNL     1       0.899   2.214  -0.314  1.00  0.00     0.003 C 
HETATM    3  C3  UNL     1       0.835   0.893   0.496  1.00  0.00     0.031 C 
HETATM    4  C4  UNL     1       2.135   0.081   0.203  1.00  0.00     0.006 C 
HETATM    5  C5  UNL     1       3.506   0.812   0.308  1.00  0.00     0.019 C 
HETATM    6  C6  UNL     1       3.413   2.111  -0.527  1.00  0.00     0.004 C 
HETATM    7  C7  UNL     1       4.623  -0.104  -0.220  1.00  0.00    -0.025 A 
HETATM    8  C8  UNL     1       4.493  -1.501  -0.268  1.00  0.00     0.001 A 
HETATM    9  C9  UNL     1       3.214  -2.187   0.153  1.00  0.00     0.028 C 
HETATM   10  C10 UNL     1       2.229  -1.283   0.900  1.00  0.00     0.005 C 
HETATM   11  C11 UNL     1       5.543  -2.314  -0.727  1.00  0.00     0.149 A 
HETATM   12  C12 UNL     1       6.770  -1.769  -1.137  1.00  0.00     0.119 A 
HETATM   13  C13 UNL     1       6.909  -0.381  -1.040  1.00  0.00     0.026 A 
HETATM   14  C14 UNL     1       5.864   0.426  -0.594  1.00  0.00    -0.002 A 
HETATM   15  O2  UNL     1       5.394  -3.666  -0.791  1.00  0.00    -0.188 OA
HETATM   16  C16 UNL     1       3.969   1.157   1.743  1.00  0.00     0.004 C 
HETATM   17  C17 UNL     1       0.600   1.211   1.988  1.00  0.00     0.003 C 
ENDROOT
BRANCH   3  18
HETATM   18  C18 UNL     1      -0.431   0.164  -0.026  1.00  0.00     0.182 C 
HETATM   19  O3  UNL     1      -0.920  -0.814   0.871  1.00  0.00    -0.221 OA
ENDBRANCH   3  18
BRANCH  12  20
HETATM   20  O1  UNL     1       7.754  -2.631  -1.553  1.00  0.00    -0.326 OA
HETATM   21  C15 UNL     1       9.040  -2.116  -1.806  1.00  0.00     0.181 C 
ENDBRANCH  12  20
TORSDOF 2
