REMARK  0 active torsions:
REMARK  status: ('A' for Active; 'I' for Inactive)
ROOT
HETATM    1  C1  UNL     1      -1.937   0.954  -2.043  1.00  0.00     0.004 C 
HETATM    2  C2  UNL     1      -1.789  -0.768  -2.248  1.00  0.00     0.035 C 
HETATM    3  C3  UNL     1      -1.413  -1.562  -1.004  1.00  0.00     0.250 C 
HETATM    4  N1  UNL     1      -1.212  -0.660   0.097  1.00  0.00     0.136 N 
HETATM    5  C4  UNL     1      -0.257   0.331  -0.318  1.00  0.00     0.248 C 
HETATM    6  C5  UNL     1      -0.986   1.492  -0.982  1.00  0.00     0.036 C 
HETATM    7  C6  UNL     1       0.372   0.806   0.985  1.00  0.00     0.148 A 
HETATM    8  C7  UNL     1       1.831   0.473   0.985  1.00  0.00    -0.012 A 
HETATM    9  C8  UNL     1       2.202  -0.978   0.971  1.00  0.00     0.026 C 
HETATM   10  C9  UNL     1       0.825  -1.851   0.626  1.00  0.00     0.038 C 
HETATM   11  C10 UNL     1      -0.532  -1.384   1.137  1.00  0.00     0.222 C 
HETATM   12  C11 UNL     1      -0.336  -0.014   2.056  1.00  0.00     0.067 C 
HETATM   13  C12 UNL     1       2.576   1.583   0.985  1.00  0.00     0.062 A 
HETATM   14  C13 UNL     1       1.799   2.688   1.001  1.00  0.00     0.296 A 
HETATM   15  O1  UNL     1       0.344   2.208   0.981  1.00  0.00    -0.297 OA
HETATM   16  O2  UNL     1       2.178   3.834   1.026  1.00  0.00    -0.259 OA
ENDROOT
TORSDOF 0
