REMARK  5 active torsions:
REMARK  status: ('A' for Active; 'I' for Inactive)
REMARK    1  A    between atoms: C10_10  and  O1_11 
REMARK    2  A    between atoms: O1_11  and  C11_12 
REMARK    3  A    between atoms: C13_15  and  O3_17 
REMARK    4  A    between atoms: N1_22  and  C24_31 
REMARK    5  A    between atoms: C21_27  and  O6_28 
ROOT
HETATM    1  C1  UNL     1       1.699  -0.950   0.877  1.00  0.00     0.081 C 
HETATM    2  C2  UNL     1       2.074  -2.326   0.240  1.00  0.00     0.009 C 
HETATM    3  C3  UNL     1       2.402  -1.929  -1.223  1.00  0.00     0.005 C 
HETATM    4  C4  UNL     1       1.704  -0.580  -1.472  1.00  0.00     0.060 C 
HETATM    5  C5  UNL     1       2.701   0.592  -1.417  1.00  0.00     0.135 C 
HETATM    6  C6  UNL     1       3.651   0.413  -0.230  1.00  0.00     0.084 C 
HETATM    7  C7  UNL     1       2.886   0.021   1.037  1.00  0.00     0.135 C 
HETATM    8  C8  UNL     1       2.525   1.396   1.617  1.00  0.00     0.036 C 
HETATM    9  C9  UNL     1       3.193   2.471   0.728  1.00  0.00     0.058 C 
HETATM   10  C10 UNL     1       4.369   1.712   0.125  1.00  0.00     0.131 C 
HETATM   11  C13 UNL     1       2.236   2.985  -0.358  1.00  0.00     0.120 C 
HETATM   12  C14 UNL     1       1.996   1.963  -1.490  1.00  0.00     0.060 C 
HETATM   13  O4  UNL     1       3.822  -0.594   1.891  1.00  0.00    -0.226 OA
HETATM   14  O5  UNL     1       3.509   0.495  -2.570  1.00  0.00    -0.226 OA
HETATM   15  C16 UNL     1       0.690  -0.571  -0.307  1.00  0.00     0.226 C 
HETATM   16  N1  UNL     1      -0.441  -1.563  -0.497  1.00  0.00     0.135 N 
HETATM   17  C17 UNL     1      -0.090  -3.016  -0.696  1.00  0.00     0.250 C 
HETATM   18  C18 UNL     1       1.152  -3.567   0.175  1.00  0.00     0.032 C 
HETATM   19  C19 UNL     1       0.763  -3.836   1.692  1.00  0.00     0.004 C 
HETATM   20  C20 UNL     1       1.328  -2.765   2.685  1.00  0.00     0.030 C 
HETATM   21  C21 UNL     1       1.056  -1.274   2.307  1.00  0.00     0.119 C 
HETATM   22  C23 UNL     1       1.777  -4.839  -0.418  1.00  0.00     0.002 C 
ENDROOT
BRANCH  10  23
HETATM   23  O1  UNL     1       4.934   2.288  -1.011  1.00  0.00    -0.304 OA
BRANCH  23  24
HETATM   24  C11 UNL     1       5.625   3.448  -0.842  1.00  0.00     0.272 C 
HETATM   25  C12 UNL     1       6.056   3.997  -2.187  1.00  0.00     0.106 C 
HETATM   26  O2  UNL     1       5.843   3.978   0.224  1.00  0.00    -0.264 OA
ENDBRANCH  23  24
ENDBRANCH  10  23
BRANCH  11  27
HETATM   27  O3  UNL     1       2.704   4.171  -0.955  1.00  0.00    -0.354 OA
HETATM   28  C15 UNL     1       2.612   5.327  -0.150  1.00  0.00     0.174 C 
ENDBRANCH  11  27
BRANCH  21  29
HETATM   29  O6  UNL     1      -0.341  -1.124   2.362  1.00  0.00    -0.354 OA
HETATM   30  C22 UNL     1      -0.794   0.170   2.693  1.00  0.00     0.174 C 
ENDBRANCH  21  29
BRANCH  16  31
HETATM   31  C24 UNL     1      -1.374  -1.101  -1.521  1.00  0.00     0.250 C 
HETATM   32  C25 UNL     1      -2.684  -1.904  -1.571  1.00  0.00     0.037 C 
ENDBRANCH  16  31
TORSDOF 5
