REMARK  7 active torsions:
REMARK  status: ('A' for Active; 'I' for Inactive)
REMARK    1  A    between atoms: C1_1  and  C2_2 
REMARK    2  A    between atoms: C4_4  and  C5_5 
REMARK    3  A    between atoms: C8_8  and  C13_14 
REMARK    4  A    between atoms: C11_11  and  O1_12 
REMARK    5  A    between atoms: C13_14  and  O2_15 
REMARK    6  A    between atoms: N1_18  and  C17_21 
REMARK    7  A    between atoms: C22_27  and  O5_29 
ROOT
HETATM    1  C1  UNL     1       2.204  -0.374  -1.163  1.00  0.00     0.117 C 
HETATM    2  C5  UNL     1      -0.164   0.517  -0.209  1.00  0.00     0.081 C 
HETATM    3  C6  UNL     1      -0.079  -1.000  -0.385  1.00  0.00     0.013 C 
HETATM    4  C7  UNL     1       1.132  -1.446  -0.819  1.00  0.00     0.030 C 
HETATM    5  C8  UNL     1      -1.336  -1.536  -1.120  1.00  0.00     0.059 C 
HETATM    6  C9  UNL     1      -2.532  -1.255  -0.192  1.00  0.00     0.007 C 
HETATM    7  C10 UNL     1      -2.825   0.241  -0.143  1.00  0.00     0.030 C 
HETATM    8  C11 UNL     1      -1.574   1.043   0.214  1.00  0.00     0.119 C 
HETATM    9  C15 UNL     1      -1.540  -0.767  -2.503  1.00  0.00     0.256 C 
HETATM   10  N1  UNL     1      -0.983   0.629  -2.559  1.00  0.00     0.162 N 
HETATM   11  C16 UNL     1       0.202   0.703  -1.705  1.00  0.00     0.338 C 
HETATM   12  O3  UNL     1       1.612   0.717  -1.938  1.00  0.00    -0.331 OA
ENDROOT
BRANCH   5  13
HETATM   13  C13 UNL     1      -1.302  -3.053  -1.395  1.00  0.00     0.144 C 
BRANCH  13  14
HETATM   14  O2  UNL     1      -1.044  -3.756  -0.203  1.00  0.00    -0.351 OA
HETATM   15  C14 UNL     1      -0.925  -5.146  -0.420  1.00  0.00     0.174 C 
ENDBRANCH  13  14
ENDBRANCH   5  13
BRANCH   2  16
HETATM   16  C4  UNL     1       0.769   1.312   0.792  1.00  0.00     0.009 C 
HETATM   17  C3  UNL     1       2.238   1.524   0.482  1.00  0.00     0.033 C 
HETATM   18  C2  UNL     1       2.702   0.102   0.196  1.00  0.00     0.032 C 
HETATM   19  C21 UNL     1       2.807   2.015   1.801  1.00  0.00     0.154 C 
HETATM   20  C23 UNL     1       4.056  -0.156   0.852  1.00  0.00     0.032 C 
HETATM   21  C22 UNL     1       3.860   0.103   2.388  1.00  0.00     0.118 C 
HETATM   22  C20 UNL     1       2.496   0.878   2.809  1.00  0.00     0.058 C 
HETATM   23  C19 UNL     1       0.951   0.841   2.269  1.00  0.00     0.005 C 
HETATM   24  O4  UNL     1       2.218   3.226   2.225  1.00  0.00    -0.223 OA
BRANCH  21  25
HETATM   25  O5  UNL     1       4.078  -1.121   3.069  1.00  0.00    -0.354 OA
HETATM   26  C24 UNL     1       4.143  -0.976   4.474  1.00  0.00     0.174 C 
ENDBRANCH  21  25
ENDBRANCH   2  16
BRANCH  10  27
HETATM   27  C17 UNL     1      -0.787   1.118  -3.915  1.00  0.00     0.253 C 
HETATM   28  C18 UNL     1      -0.336   2.586  -3.920  1.00  0.00     0.037 C 
ENDBRANCH  10  27
BRANCH   8  29
HETATM   29  O1  UNL     1      -1.731   2.364  -0.249  1.00  0.00    -0.354 OA
HETATM   30  C12 UNL     1      -2.526   3.171   0.594  1.00  0.00     0.174 C 
ENDBRANCH   8  29
TORSDOF 7
