REMARK  4 active torsions:
REMARK  status: ('A' for Active; 'I' for Inactive)
REMARK    1  A    between atoms: C15_15  and  C18_18 
REMARK    2  A    between atoms: C18_18  and  C19_19 
REMARK    3  A    between atoms: C19_19  and  C20_20 
REMARK    4  A    between atoms: C20_20  and  C21_21 
ROOT
HETATM    1  C1  UNL     1      -3.264  -1.394  -3.300  1.00  0.00     0.033 C 
HETATM    2  C2  UNL     1      -3.136  -2.889  -3.586  1.00  0.00     0.152 C 
HETATM    3  C3  UNL     1      -1.939  -3.557  -2.870  1.00  0.00     0.029 C 
HETATM    4  C4  UNL     1      -1.998  -3.261  -1.338  1.00  0.00     0.007 C 
HETATM    5  C5  UNL     1      -2.186  -1.771  -1.037  1.00  0.00     0.004 A 
HETATM    6  C6  UNL     1      -3.356  -1.148  -1.792  1.00  0.00     0.003 C 
HETATM    7  C7  UNL     1      -0.964  -0.962  -0.635  1.00  0.00     0.015 A 
HETATM    8  C8  UNL     1       0.331  -1.694  -0.514  1.00  0.00    -0.050 C 
HETATM    9  C9  UNL     1       0.370  -3.035  -0.469  1.00  0.00    -0.035 C 
HETATM   10  C10 UNL     1      -0.854  -3.903  -0.528  1.00  0.00     0.025 C 
HETATM   11  C11 UNL     1       1.592  -0.850  -0.450  1.00  0.00     0.015 C 
HETATM   12  C12 UNL     1       1.321   0.483   0.306  1.00  0.00     0.003 C 
HETATM   13  C13 UNL     1       0.325   1.312  -0.530  1.00  0.00     0.001 C 
HETATM   14  C14 UNL     1      -0.844   0.485  -1.110  1.00  0.00     0.004 C 
HETATM   15  C15 UNL     1       2.750   1.077   0.476  1.00  0.00     0.000 C 
HETATM   16  C16 UNL     1       3.606  -0.188   0.744  1.00  0.00     0.000 C 
HETATM   17  C17 UNL     1       2.767  -1.423   0.362  1.00  0.00     0.004 C 
HETATM   18  C26 UNL     1       0.726   0.258   1.721  1.00  0.00     0.000 C 
HETATM   19  C27 UNL     1       2.089  -0.709  -1.911  1.00  0.00     0.004 C 
HETATM   20  C28 UNL     1      -2.035  -1.293   0.386  1.00  0.00     0.004 A 
HETATM   21  C29 UNL     1      -0.625  -3.038  -3.494  1.00  0.00     0.003 C 
HETATM   22  C30 UNL     1      -2.015  -5.077  -3.162  1.00  0.00     0.003 C 
HETATM   23  O1  UNL     1      -4.343  -3.518  -3.216  1.00  0.00    -0.224 OA
ENDROOT
BRANCH  15  24
HETATM   24  C18 UNL     1       2.995   2.205   1.511  1.00  0.00     0.000 C 
HETATM   25  C25 UNL     1       2.153   3.460   1.209  1.00  0.00     0.000 C 
BRANCH  24  26
HETATM   26  C19 UNL     1       4.489   2.609   1.609  1.00  0.00     0.005 C 
BRANCH  26  27
HETATM   27  C20 UNL     1       4.832   3.304   2.941  1.00  0.00     0.025 C 
BRANCH  27  28
HETATM   28  C21 UNL     1       6.280   3.712   3.053  1.00  0.00    -0.035 C 
HETATM   29  C22 UNL     1       6.773   4.609   3.927  1.00  0.00    -0.048 C 
HETATM   30  C23 UNL     1       8.242   4.962   3.950  1.00  0.00     0.026 C 
HETATM   31  C24 UNL     1       5.939   5.342   4.951  1.00  0.00     0.026 C 
ENDBRANCH  27  28
ENDBRANCH  26  27
ENDBRANCH  24  26
ENDBRANCH  15  24
TORSDOF 4
