REMARK  3 active torsions:
REMARK  status: ('A' for Active; 'I' for Inactive)
REMARK    1  A    between atoms: C2_2  and  O5_34 
REMARK    2  A    between atoms: C21_23  and  C22_25 
REMARK    3  A    between atoms: O5_34  and  C30_35 
ROOT
HETATM    1  C1  UNL     1      -3.751  -0.832   1.095  1.00  0.00     0.030 C 
HETATM    2  C2  UNL     1      -3.124  -2.095   1.709  1.00  0.00     0.118 C 
HETATM    3  C3  UNL     1      -2.333  -2.889   0.639  1.00  0.00     0.025 C 
HETATM    4  C4  UNL     1      -1.099  -2.030   0.225  1.00  0.00     0.002 C 
HETATM    5  C5  UNL     1      -1.358  -0.511   0.243  1.00  0.00     0.000 A 
HETATM    6  C6  UNL     1      -2.817  -0.103   0.112  1.00  0.00     0.003 C 
HETATM    7  C7  UNL     1      -0.272   0.434  -0.268  1.00  0.00     0.000 A 
HETATM    8  C8  UNL     1       0.900  -0.284  -0.961  1.00  0.00     0.003 C 
HETATM    9  C9  UNL     1       0.334  -1.435  -1.818  1.00  0.00     0.000 C 
HETATM   10  C10 UNL     1      -0.335  -2.550  -1.006  1.00  0.00     0.000 C 
HETATM   11  C11 UNL     1       1.799   0.687  -1.786  1.00  0.00     0.033 C 
HETATM   12  C12 UNL     1       1.933   2.076  -1.072  1.00  0.00     0.007 C 
HETATM   13  C13 UNL     1       0.555   2.771  -1.117  1.00  0.00     0.000 C 
HETATM   14  C14 UNL     1      -0.627   1.819  -0.816  1.00  0.00     0.000 C 
HETATM   15  C15 UNL     1       3.063   2.831  -1.871  1.00  0.00     0.054 C 
HETATM   16  C16 UNL     1       3.948   1.475  -2.454  1.00  0.00     0.215 C 
HETATM   17  C17 UNL     1       3.277   0.253  -1.884  1.00  0.00     0.203 C 
HETATM   18  O1  UNL     1       3.492  -0.818  -2.764  1.00  0.00    -0.218 OA
HETATM   19  O2  UNL     1       5.561   1.253  -2.610  1.00  0.00    -0.333 OA
HETATM   20  C18 UNL     1       6.333   2.511  -2.138  1.00  0.00     0.147 C 
HETATM   21  C19 UNL     1       5.793   3.520  -0.830  1.00  0.00     0.033 C 
HETATM   22  C20 UNL     1       4.074   3.918  -0.895  1.00  0.00     0.007 C 
HETATM   23  C21 UNL     1       5.183   3.097  -2.767  1.00  0.00     0.173 C 
HETATM   24  O3  UNL     1       4.702   2.093  -1.589  1.00  0.00    -0.330 OA
HETATM   25  C25 UNL     1       2.341   1.935   0.420  1.00  0.00     0.000 C 
HETATM   26  C26 UNL     1       1.214   0.864  -3.215  1.00  0.00     0.003 C 
HETATM   27  C27 UNL     1      -0.508   0.267   1.220  1.00  0.00     0.000 A 
HETATM   28  C28 UNL     1      -1.856  -4.252   1.197  1.00  0.00     0.002 C 
HETATM   29  C29 UNL     1      -3.284  -3.241  -0.533  1.00  0.00     0.002 C 
ENDROOT
BRANCH   2  30
HETATM   30  O5  UNL     1      -2.282  -1.678   2.753  1.00  0.00    -0.332 OA
BRANCH  30  31
HETATM   31  C30 UNL     1      -2.350  -2.441   3.936  1.00  0.00     0.270 C 
HETATM   32  O6  UNL     1      -3.442  -1.932   4.673  1.00  0.00    -0.326 OA
HETATM   33  C31 UNL     1      -3.588  -2.588   5.911  1.00  0.00     0.181 C 
HETATM   34  C32 UNL     1      -2.338  -2.428   6.763  1.00  0.00     0.215 C 
HETATM   35  C33 UNL     1      -1.125  -2.931   6.011  1.00  0.00     0.220 C 
HETATM   36  O9  UNL     1      -2.452  -3.170   7.952  1.00  0.00    -0.218 OA
HETATM   37  C34 UNL     1      -1.062  -2.201   4.691  1.00  0.00     0.241 C 
HETATM   38  O8  UNL     1       0.041  -2.670   6.750  1.00  0.00    -0.218 OA
HETATM   39  O7  UNL     1       0.023  -2.692   3.947  1.00  0.00    -0.215 OA
ENDBRANCH  30  31
ENDBRANCH   2  30
BRANCH  23  40
HETATM   40  C22 UNL     1       5.090   2.923  -4.338  1.00  0.00     0.154 C 
HETATM   41  C23 UNL     1       4.518   4.231  -4.937  1.00  0.00     0.036 C 
HETATM   42  C24 UNL     1       4.331   1.793  -5.055  1.00  0.00     0.036 C 
HETATM   43  O4  UNL     1       6.410   2.863  -4.830  1.00  0.00    -0.223 OA
ENDBRANCH  23  40
TORSDOF 3
