REMARK  2 active torsions:
REMARK  status: ('A' for Active; 'I' for Inactive)
REMARK    1  A    between atoms: C11_11  and  C26_28 
REMARK    2  A    between atoms: C16_16  and  C25_25 
ROOT
HETATM    1  C1  UNL     1       0.040  -2.850  -0.770  1.00  0.00     0.033 C 
HETATM    2  C2  UNL     1      -0.299  -2.897   0.940  1.00  0.00     0.152 C 
HETATM    3  C3  UNL     1      -1.805  -2.363   1.644  1.00  0.00     0.028 C 
HETATM    4  C4  UNL     1      -2.727  -1.242   0.514  1.00  0.00     0.002 A 
HETATM    5  C5  UNL     1      -2.155  -0.797  -1.212  1.00  0.00     0.001 C 
HETATM    6  C6  UNL     1      -0.829  -1.865  -1.919  1.00  0.00     0.003 C 
HETATM    7  C7  UNL     1      -1.205   0.287  -0.988  1.00  0.00     0.005 C 
HETATM    8  C8  UNL     1      -0.743  -0.847  -0.042  1.00  0.00     0.013 C 
HETATM    9  C9  UNL     1      -1.976  -2.443  -0.374  1.00  0.00     0.001 A 
HETATM   10  C10 UNL     1      -3.504  -2.311  -0.116  1.00  0.00     0.000 A 
HETATM   11  C11 UNL     1       0.945  -0.315  -0.380  1.00  0.00     0.093 C 
HETATM   12  C12 UNL     1       1.066   1.288  -0.281  1.00  0.00    -0.039 C 
HETATM   13  C13 UNL     1       0.007   2.135  -0.373  1.00  0.00    -0.034 C 
HETATM   14  C14 UNL     1      -1.434   1.713  -0.555  1.00  0.00     0.025 C 
HETATM   15  C15 UNL     1       2.431   1.980  -0.095  1.00  0.00     0.028 C 
HETATM   16  C16 UNL     1       3.288   1.357   1.023  1.00  0.00     0.082 C 
HETATM   17  C17 UNL     1       3.395  -0.142   0.700  1.00  0.00     0.011 C 
HETATM   18  C18 UNL     1       2.018  -0.822   0.657  1.00  0.00     0.015 C 
HETATM   19  C19 UNL     1       4.703   1.984   1.094  1.00  0.00     0.011 C 
HETATM   20  C20 UNL     1       4.841   3.275   0.280  1.00  0.00     0.001 C 
HETATM   21  C21 UNL     1       4.515   3.062  -1.214  1.00  0.00     0.000 C 
HETATM   22  C22 UNL     1       3.237   2.203  -1.389  1.00  0.00     0.005 C 
HETATM   23  C23 UNL     1       4.321   4.446  -1.873  1.00  0.00     0.000 C 
HETATM   24  C24 UNL     1       5.704   2.372  -1.923  1.00  0.00     0.000 C 
HETATM   25  C27 UNL     1      -0.748  -0.087   1.375  1.00  0.00     0.001 C 
HETATM   26  C28 UNL     1      -3.196  -0.359  -2.259  1.00  0.00     0.000 C 
HETATM   27  C29 UNL     1      -1.756  -1.861   3.145  1.00  0.00     0.003 C 
HETATM   28  C30 UNL     1      -2.546  -3.728   2.054  1.00  0.00     0.003 C 
HETATM   29  O5  UNL     1      -0.027  -4.231   1.322  1.00  0.00    -0.224 OA
ENDROOT
BRANCH  11  30
HETATM   30  C26 UNL     1       1.648  -0.567  -1.749  1.00  0.00     0.188 C 
HETATM   31  O3  UNL     1       2.502  -1.390  -1.985  1.00  0.00    -0.647 OA
HETATM   32  O4  UNL     1       1.372   0.334  -2.720  1.00  0.00    -0.647 OA
ENDBRANCH  11  30
BRANCH  16  33
HETATM   33  C25 UNL     1       2.609   1.597   2.376  1.00  0.00     0.184 C 
HETATM   34  O1  UNL     1       1.754   2.413   2.625  1.00  0.00    -0.647 OA
HETATM   35  O2  UNL     1       3.092   0.803   3.351  1.00  0.00    -0.647 OA
ENDBRANCH  16  33
TORSDOF 2
