REMARK  3 active torsions:
REMARK  status: ('A' for Active; 'I' for Inactive)
REMARK    1  A    between atoms: C7_7  and  C10_11 
REMARK    2  A    between atoms: C10_11  and  C11_12 
REMARK    3  A    between atoms: C13_15  and  C18_20 
ROOT
HETATM    1  C10 UNL     1      -0.592  -0.962   0.330  1.00  0.00     0.206 C 
HETATM    2  O1  UNL     1      -0.567  -1.687   1.549  1.00  0.00    -0.216 OA
ENDROOT
BRANCH   1   3
HETATM    3  C7  UNL     1       0.771  -1.149  -0.310  1.00  0.00     0.013 A 
HETATM    4  C5  UNL     1       1.208  -2.443  -0.755  1.00  0.00     0.016 A 
HETATM    5  C4  UNL     1       2.502  -2.585  -1.304  1.00  0.00     0.081 A 
HETATM    6  C6  UNL     1       0.388  -3.613  -0.668  1.00  0.00     0.001 A 
HETATM    7  C3  UNL     1       2.958  -3.864  -1.747  1.00  0.00     0.019 A 
HETATM    8  N1  UNL     1       3.365  -1.526  -1.425  1.00  0.00    -0.244 NA
HETATM    9  C2  UNL     1       2.149  -4.969  -1.642  1.00  0.00     0.002 A 
HETATM   10  C1  UNL     1       0.846  -4.838  -1.094  1.00  0.00     0.000 A 
HETATM   11  C9  UNL     1       2.957  -0.355  -1.001  1.00  0.00     0.099 A 
HETATM   12  C8  UNL     1       1.679  -0.119  -0.430  1.00  0.00     0.019 A 
ENDBRANCH   1   3
BRANCH   1  13
HETATM   13  C11 UNL     1      -1.056   0.472   0.623  1.00  0.00     0.254 C 
HETATM   14  N2  UNL     1      -1.086   1.322  -0.568  1.00  0.00     0.138 N 
HETATM   15  C12 UNL     1      -1.174   2.722  -0.162  1.00  0.00     0.255 C 
HETATM   16  C17 UNL     1      -2.220   1.008  -1.431  1.00  0.00     0.250 C 
HETATM   17  C13 UNL     1      -2.413   2.971   0.721  1.00  0.00     0.056 C 
HETATM   18  C14 UNL     1      -3.251   1.677   0.735  1.00  0.00     0.010 C 
HETATM   19  C15 UNL     1      -2.433   0.513   1.321  1.00  0.00     0.037 C 
HETATM   20  C16 UNL     1      -3.556   1.308  -0.728  1.00  0.00     0.036 C 
BRANCH  17  21
HETATM   21  C18 UNL     1      -2.046   3.422   2.116  1.00  0.00    -0.024 C 
HETATM   22  C19 UNL     1      -2.561   4.507   2.712  1.00  0.00    -0.005 C 
ENDBRANCH  17  21
ENDBRANCH   1  13
TORSDOF 3
