REMARK  6 active torsions:
REMARK  status: ('A' for Active; 'I' for Inactive)
REMARK    1  A    between atoms: C7_7  and  O2_10 
REMARK    2  A    between atoms: O2_10  and  C9_11 
REMARK    3  A    between atoms: C13_16  and  O4_19 
REMARK    4  A    between atoms: O4_19  and  C16_20 
REMARK    5  A    between atoms: C16_20  and  C17_21 
REMARK    6  A    between atoms: C18_22  and  C19_23 
ROOT
HETATM    1  C1  UNL     1      -0.240  -0.589   0.270  1.00  0.00     0.045 C 
HETATM    2  C2  UNL     1      -1.074  -1.824  -0.257  1.00  0.00     0.032 C 
HETATM    3  C3  UNL     1      -0.056  -2.257  -1.327  1.00  0.00     0.162 C 
HETATM    4  C4  UNL     1       1.347  -2.003  -0.734  1.00  0.00     0.184 C 
HETATM    5  C5  UNL     1       1.272  -1.019   0.457  1.00  0.00     0.053 C 
HETATM    6  C6  UNL     1       1.445  -1.539   1.952  1.00  0.00     0.034 C 
HETATM    7  C7  UNL     1       0.088  -1.215   2.632  1.00  0.00     0.155 C 
HETATM    8  C8  UNL     1      -0.562  -0.184   1.712  1.00  0.00     0.180 C 
HETATM    9  O1  UNL     1      -1.935  -0.087   1.976  1.00  0.00    -0.221 OA
HETATM   10  C11 UNL     1       2.565  -0.798   2.756  1.00  0.00     0.006 C 
HETATM   11  C12 UNL     1       3.952  -0.823   2.097  1.00  0.00     0.035 C 
HETATM   12  C13 UNL     1       3.817  -0.610   0.588  1.00  0.00     0.143 C 
HETATM   13  C14 UNL     1       2.432   0.004   0.405  1.00  0.00    -0.015 C 
HETATM   14  C15 UNL     1       2.321   1.338   0.553  1.00  0.00    -0.007 C 
HETATM   15  C25 UNL     1       1.852  -3.025   2.107  1.00  0.00     0.003 C 
HETATM   16  O6  UNL     1       2.122  -1.470  -1.783  1.00  0.00    -0.221 OA
HETATM   17  C26 UNL     1      -0.351  -1.459  -2.602  1.00  0.00     0.098 C 
HETATM   18  C27 UNL     1      -0.509   0.019  -2.298  1.00  0.00     0.153 C 
HETATM   19  C28 UNL     1      -0.353   0.509  -0.851  1.00  0.00     0.061 C 
HETATM   20  C29 UNL     1      -1.312   1.672  -0.528  1.00  0.00     0.008 C 
HETATM   21  O7  UNL     1      -0.774   0.789  -3.196  1.00  0.00    -0.296 OA
HETATM   22  O8  UNL     1      -0.167  -3.614  -1.659  1.00  0.00    -0.223 OA
HETATM   23  C30 UNL     1      -2.500  -1.470  -0.781  1.00  0.00     0.003 C 
HETATM   24  C31 UNL     1      -1.432  -3.023   0.654  1.00  0.00     0.003 C 
ENDROOT
BRANCH  12  25
HETATM   25  O4  UNL     1       4.900   0.190   0.179  1.00  0.00    -0.297 OA
BRANCH  25  26
HETATM   26  C16 UNL     1       4.956   0.604  -1.117  1.00  0.00     0.296 C 
HETATM   27  O5  UNL     1       4.264   0.057  -1.970  1.00  0.00    -0.259 OA
BRANCH  26  28
HETATM   28  C17 UNL     1       5.705   1.840  -1.444  1.00  0.00     0.068 C 
HETATM   29  C18 UNL     1       5.822   2.355  -2.691  1.00  0.00     0.005 C 
BRANCH  29  30
HETATM   30  C19 UNL     1       6.565   3.590  -2.995  1.00  0.00     0.000 A 
HETATM   31  C20 UNL     1       6.979   3.833  -4.316  1.00  0.00     0.000 A 
HETATM   32  C21 UNL     1       7.674   4.997  -4.649  1.00  0.00     0.000 A 
HETATM   33  C22 UNL     1       7.947   5.955  -3.670  1.00  0.00     0.000 A 
HETATM   34  C23 UNL     1       7.509   5.746  -2.361  1.00  0.00     0.000 A 
HETATM   35  C24 UNL     1       6.818   4.579  -2.031  1.00  0.00     0.000 A 
ENDBRANCH  29  30
ENDBRANCH  26  28
ENDBRANCH  25  26
ENDBRANCH  12  25
BRANCH   7  36
HETATM   36  O2  UNL     1       0.223  -0.690   3.922  1.00  0.00    -0.302 OA
BRANCH  36  37
HETATM   37  C9  UNL     1      -0.671  -0.879   4.934  1.00  0.00     0.272 C 
HETATM   38  O3  UNL     1      -0.572  -0.283   5.987  1.00  0.00    -0.264 OA
HETATM   39  C10 UNL     1      -1.744  -1.934   4.733  1.00  0.00     0.106 C 
ENDBRANCH  36  37
ENDBRANCH   7  36
TORSDOF 6
