REMARK  6 active torsions:
REMARK  status: ('A' for Active; 'I' for Inactive)
REMARK    1  A    between atoms: C8_9  and  O6_33 
REMARK    2  A    between atoms: C15_18  and  O4_21 
REMARK    3  A    between atoms: O4_21  and  C18_22 
REMARK    4  A    between atoms: C18_22  and  C19_24 
REMARK    5  A    between atoms: C20_25  and  C21_26 
REMARK    6  A    between atoms: O6_33  and  C28_34 
ROOT
HETATM    1  C1  UNL     1      -1.280  -0.986   2.920  1.00  0.00    -0.013 C 
HETATM    2  C2  UNL     1      -0.351  -2.170   3.174  1.00  0.00     0.023 C 
HETATM    3  C3  UNL     1      -0.232  -2.787   1.766  1.00  0.00     0.056 C 
HETATM    4  C4  UNL     1      -1.566  -3.523   1.508  1.00  0.00     0.075 C 
HETATM    5  C5  UNL     1      -2.759  -2.632   1.832  1.00  0.00     0.169 C 
HETATM    6  C6  UNL     1      -2.480  -1.250   2.337  1.00  0.00     0.007 C 
HETATM    7  C7  UNL     1      -3.592  -0.263   2.054  1.00  0.00     0.033 C 
HETATM    8  O1  UNL     1      -3.892  -3.008   1.563  1.00  0.00    -0.292 OA
HETATM    9  C8  UNL     1       0.115  -1.800   0.603  1.00  0.00     0.077 C 
HETATM   10  C9  UNL     1       1.162  -0.636   0.651  1.00  0.00    -0.003 C 
HETATM   11  C10 UNL     1       1.218   0.655   1.552  1.00  0.00     0.051 C 
HETATM   12  C11 UNL     1      -0.114   1.172   2.149  1.00  0.00     0.190 C 
HETATM   13  C12 UNL     1      -0.857   0.422   3.261  1.00  0.00     0.201 C 
HETATM   14  O2  UNL     1      -0.209   0.499   4.513  1.00  0.00    -0.216 OA
HETATM   15  O3  UNL     1      -1.023   1.426   1.101  1.00  0.00    -0.220 OA
HETATM   16  C13 UNL     1       1.767   1.763   0.571  1.00  0.00     0.009 C 
HETATM   17  C14 UNL     1       3.160   1.443  -0.014  1.00  0.00     0.035 C 
HETATM   18  C15 UNL     1       3.239   0.065  -0.685  1.00  0.00     0.147 C 
HETATM   19  C16 UNL     1       2.566  -0.988   0.188  1.00  0.00     0.003 C 
HETATM   20  C17 UNL     1       3.179  -2.137   0.510  1.00  0.00    -0.002 C 
HETATM   21  C27 UNL     1       2.306   0.681   2.666  1.00  0.00     0.007 C 
HETATM   22  C30 UNL     1      -1.027  -3.040   4.272  1.00  0.00     0.004 C 
HETATM   23  C31 UNL     1       1.091  -2.055   3.704  1.00  0.00     0.004 C 
ENDROOT
BRANCH  18  24
HETATM   24  O4  UNL     1       2.624   0.103  -1.953  1.00  0.00    -0.296 OA
BRANCH  24  25
HETATM   25  C18 UNL     1       3.212   0.767  -2.999  1.00  0.00     0.296 C 
HETATM   26  O5  UNL     1       2.609   0.801  -4.070  1.00  0.00    -0.259 OA
BRANCH  25  27
HETATM   27  C19 UNL     1       4.568   1.382  -2.973  1.00  0.00     0.068 C 
HETATM   28  C20 UNL     1       5.051   2.291  -3.852  1.00  0.00     0.005 C 
BRANCH  28  29
HETATM   29  C21 UNL     1       4.336   2.954  -4.961  1.00  0.00     0.000 A 
HETATM   30  C22 UNL     1       5.018   3.184  -6.166  1.00  0.00     0.000 A 
HETATM   31  C23 UNL     1       4.406   3.874  -7.213  1.00  0.00     0.000 A 
HETATM   32  C24 UNL     1       3.111   4.374  -7.057  1.00  0.00     0.000 A 
HETATM   33  C25 UNL     1       2.442   4.195  -5.846  1.00  0.00     0.000 A 
HETATM   34  C26 UNL     1       3.057   3.502  -4.800  1.00  0.00     0.000 A 
ENDBRANCH  28  29
ENDBRANCH  25  27
ENDBRANCH  24  25
ENDBRANCH  18  24
BRANCH   9  35
HETATM   35  O6  UNL     1      -1.077  -1.336   0.013  1.00  0.00    -0.281 OA
BRANCH  35  36
HETATM   36  C28 UNL     1      -1.197  -1.297  -1.344  1.00  0.00     0.276 C 
HETATM   37  C29 UNL     1      -2.571  -0.790  -1.730  1.00  0.00     0.107 C 
HETATM   38  O7  UNL     1      -0.342  -1.628  -2.134  1.00  0.00    -0.264 OA
ENDBRANCH  35  36
ENDBRANCH   9  35
TORSDOF 6
