REMARK  5 active torsions:
REMARK  status: ('A' for Active; 'I' for Inactive)
REMARK    1  A    between atoms: C6_6  and  C7_7 
REMARK    2  A    between atoms: C12_13  and  C17_20 
REMARK    3  A    between atoms: C15_16  and  O2_17 
REMARK    4  A    between atoms: C17_20  and  C18_21 
REMARK    5  A    between atoms: C19_22  and  C20_23 
ROOT
HETATM    1  C1  UNL     1      -1.424   1.814   2.038  1.00  0.00     0.003 C 
HETATM    2  C2  UNL     1      -1.675   0.303   1.931  1.00  0.00     0.033 C 
HETATM    3  C3  UNL     1      -2.372  -0.103   0.634  1.00  0.00     0.152 C 
HETATM    4  C4  UNL     1      -1.478   0.266  -0.557  1.00  0.00     0.153 C 
HETATM    5  C5  UNL     1      -0.684   1.595  -0.409  1.00  0.00     0.056 C 
HETATM    6  C6  UNL     1      -1.185   2.546   0.698  1.00  0.00     0.007 C 
HETATM    7  C10 UNL     1       0.720   1.064  -0.198  1.00  0.00     0.025 C 
HETATM    8  C11 UNL     1       0.726  -0.321  -0.333  1.00  0.00     0.097 C 
HETATM    9  O1  UNL     1      -0.514  -0.775  -0.728  1.00  0.00    -0.331 OA
HETATM   10  C12 UNL     1       1.857  -1.105  -0.070  1.00  0.00     0.086 C 
HETATM   11  C13 UNL     1       3.031  -0.441   0.327  1.00  0.00     0.138 C 
HETATM   12  C14 UNL     1       3.012   0.957   0.376  1.00  0.00     0.051 C 
HETATM   13  C15 UNL     1       1.913   1.760   0.028  1.00  0.00     0.094 C 
HETATM   14  O3  UNL     1       4.137  -1.097   0.769  1.00  0.00    -0.190 OA
HETATM   15  C26 UNL     1      -2.720  -1.596   0.651  1.00  0.00     0.036 C 
HETATM   16  O5  UNL     1      -3.592   0.579   0.523  1.00  0.00    -0.224 OA
ENDROOT
BRANCH  10  17
HETATM   17  C17 UNL     1       1.720  -2.592  -0.067  1.00  0.00     0.200 C 
HETATM   18  O4  UNL     1       0.659  -3.099   0.282  1.00  0.00    -0.286 OA
BRANCH  17  19
HETATM   19  C18 UNL     1       2.889  -3.486  -0.307  1.00  0.00     0.042 C 
HETATM   20  C19 UNL     1       3.953  -3.191  -1.083  1.00  0.00     0.003 C 
BRANCH  20  21
HETATM   21  C20 UNL     1       5.131  -4.061  -1.247  1.00  0.00     0.000 A 
HETATM   22  C21 UNL     1       6.304  -3.513  -1.794  1.00  0.00     0.000 A 
HETATM   23  C22 UNL     1       7.461  -4.278  -1.936  1.00  0.00     0.000 A 
HETATM   24  C23 UNL     1       7.466  -5.620  -1.546  1.00  0.00     0.000 A 
HETATM   25  C24 UNL     1       6.302  -6.189  -1.031  1.00  0.00     0.000 A 
HETATM   26  C25 UNL     1       5.145  -5.419  -0.888  1.00  0.00     0.000 A 
ENDBRANCH  20  21
ENDBRANCH  17  19
ENDBRANCH  10  17
BRANCH  13  27
HETATM   27  O2  UNL     1       1.971   3.118   0.192  1.00  0.00    -0.328 OA
HETATM   28  C16 UNL     1       2.108   3.840  -1.009  1.00  0.00     0.181 C 
ENDBRANCH  13  27
BRANCH   6  29
HETATM   29  C7  UNL     1      -2.353   3.505   0.330  1.00  0.00     0.000 C 
HETATM   30  C8  UNL     1      -2.353   4.757   1.235  1.00  0.00     0.000 C 
HETATM   31  C9  UNL     1      -2.351   3.973  -1.137  1.00  0.00     0.000 C 
ENDBRANCH   6  29
TORSDOF 5
