REMARK  7 active torsions:
REMARK  status: ('A' for Active; 'I' for Inactive)
REMARK    1  A    between atoms: C6_6  and  O1_7 
REMARK    2  A    between atoms: O1_7  and  C7_8 
REMARK    3  A    between atoms: C7_8  and  C8_10 
REMARK    4  A    between atoms: C9_11  and  C10_12 
REMARK    5  A    between atoms: C32_40  and  C34_43 
REMARK    6  A    between atoms: C32_40  and  O12_47 
REMARK    7  A    between atoms: C34_43  and  O11_45 
ROOT
HETATM    1  C1  UNL     1      -1.951   0.303   0.918  1.00  0.00     0.063 C 
HETATM    2  C2  UNL     1      -2.367   1.295  -0.190  1.00  0.00     0.157 C 
HETATM    3  C3  UNL     1      -1.238   2.248  -0.583  1.00  0.00     0.058 C 
HETATM    4  C4  UNL     1       0.062   1.459  -0.792  1.00  0.00     0.039 C 
HETATM    5  C5  UNL     1       0.198  -0.016  -0.421  1.00  0.00     0.061 C 
HETATM    6  C6  UNL     1      -0.468  -0.130   0.972  1.00  0.00     0.130 C 
HETATM    7  C16 UNL     1       1.695  -0.460  -0.523  1.00  0.00     0.071 C 
HETATM    8  C17 UNL     1       2.664   0.487  -1.366  1.00  0.00     0.063 C 
HETATM    9  C18 UNL     1       1.990   1.482  -2.368  1.00  0.00     0.145 C 
HETATM   10  C19 UNL     1       0.492   1.723  -2.206  1.00  0.00     0.143 C 
HETATM   11  O3  UNL     1      -0.006   3.000  -2.471  1.00  0.00    -0.354 OA
HETATM   12  C20 UNL     1      -1.319   2.984  -1.937  1.00  0.00     0.145 C 
HETATM   13  O4  UNL     1       2.782   2.637  -2.435  1.00  0.00    -0.356 OA
HETATM   14  C21 UNL     1       3.438   2.848  -1.230  1.00  0.00     0.124 C 
HETATM   15  C22 UNL     1       3.490   1.506  -0.479  1.00  0.00     0.176 C 
HETATM   16  C23 UNL     1       4.984   1.356  -0.106  1.00  0.00     0.148 C 
HETATM   17  C24 UNL     1       5.494   2.792  -0.021  1.00  0.00     0.038 C 
HETATM   18  C25 UNL     1       4.920   3.289  -1.360  1.00  0.00     0.067 C 
HETATM   19  C26 UNL     1       5.816   2.662  -2.429  1.00  0.00     0.201 C 
HETATM   20  C27 UNL     1       6.412   1.301  -2.038  1.00  0.00     0.273 C 
HETATM   21  O5  UNL     1       5.785   0.614  -0.976  1.00  0.00    -0.329 OA
HETATM   22  O6  UNL     1       7.808   1.494  -1.798  1.00  0.00    -0.302 OA
HETATM   23  C28 UNL     1       8.163   2.764  -2.191  1.00  0.00     0.117 C 
HETATM   24  C29 UNL     1       7.090   3.466  -2.569  1.00  0.00     0.035 C 
HETATM   25  O7  UNL     1       5.208   2.614  -3.697  1.00  0.00    -0.216 OA
HETATM   26  O8  UNL     1       2.863   1.742   0.763  1.00  0.00    -0.221 OA
HETATM   27  C30 UNL     1       2.717   4.032  -0.550  1.00  0.00     0.032 C 
HETATM   28  C31 UNL     1       3.573  -0.334  -2.311  1.00  0.00     0.005 C 
HETATM   29  C32 UNL     1       1.591  -2.023  -0.676  1.00  0.00     0.268 C 
HETATM   30  O9  UNL     1       0.219  -2.273  -0.867  1.00  0.00    -0.327 OA
HETATM   31  C33 UNL     1      -0.371  -1.100  -1.338  1.00  0.00     0.148 C 
HETATM   32  C37 UNL     1      -1.136   3.325   0.526  1.00  0.00     0.005 C 
HETATM   33  O13 UNL     1      -2.830   0.605  -1.326  1.00  0.00    -0.223 OA
ENDROOT
BRANCH   6  34
HETATM   34  O1  UNL     1       0.247   0.673   1.872  1.00  0.00    -0.301 OA
BRANCH  34  35
HETATM   35  C7  UNL     1       1.082   0.143   2.816  1.00  0.00     0.296 C 
HETATM   36  O2  UNL     1       2.061   0.811   3.150  1.00  0.00    -0.259 OA
BRANCH  35  37
HETATM   37  C8  UNL     1       1.008  -1.208   3.447  1.00  0.00     0.068 C 
HETATM   38  C9  UNL     1      -0.133  -1.907   3.639  1.00  0.00     0.005 C 
BRANCH  38  39
HETATM   39  C10 UNL     1      -0.209  -3.263   4.208  1.00  0.00     0.000 A 
HETATM   40  C11 UNL     1      -1.413  -3.978   4.083  1.00  0.00     0.000 A 
HETATM   41  C12 UNL     1      -1.535  -5.278   4.574  1.00  0.00     0.000 A 
HETATM   42  C13 UNL     1      -0.455  -5.888   5.215  1.00  0.00     0.000 A 
HETATM   43  C14 UNL     1       0.739  -5.183   5.372  1.00  0.00     0.000 A 
HETATM   44  C15 UNL     1       0.858  -3.882   4.877  1.00  0.00     0.000 A 
ENDBRANCH  38  39
ENDBRANCH  35  37
ENDBRANCH  34  35
ENDBRANCH   6  34
BRANCH  29  45
HETATM   45  C34 UNL     1       2.210  -2.688   0.584  1.00  0.00     0.324 C 
HETATM   46  O10 UNL     1       3.298  -2.303   0.966  1.00  0.00    -0.259 OA
BRANCH  45  47
HETATM   47  O11 UNL     1       1.523  -3.620   1.309  1.00  0.00    -0.295 OA
HETATM   48  C35 UNL     1       0.332  -4.258   0.925  1.00  0.00     0.185 C 
ENDBRANCH  45  47
ENDBRANCH  29  45
BRANCH  29  49
HETATM   49  O12 UNL     1       2.198  -2.519  -1.854  1.00  0.00    -0.325 OA
HETATM   50  C36 UNL     1       2.171  -3.917  -2.039  1.00  0.00     0.177 C 
ENDBRANCH  29  49
TORSDOF 7
