REMARK  9 active torsions:
REMARK  status: ('A' for Active; 'I' for Inactive)
REMARK    1  A    between atoms: C13_13  and  O1_15 
REMARK    2  A    between atoms: O1_15  and  C15_16 
REMARK    3  A    between atoms: C15_16  and  C16_17 
REMARK    4  A    between atoms: C17_18  and  C18_19 
REMARK    5  A    between atoms: C24_26  and  C27_29 
REMARK    6  A    between atoms: C27_29  and  O3_31 
REMARK    7  A    between atoms: O3_31  and  C29_32 
REMARK    8  A    between atoms: C29_32  and  C30_34 
REMARK    9  A    between atoms: C31_35  and  C33_37 
ROOT
HETATM    1  C1  UNL     1      -3.079  -1.692  -0.146  1.00  0.00     0.034 C 
HETATM    2  C2  UNL     1      -3.594  -2.953   0.555  1.00  0.00     0.156 C 
HETATM    3  C3  UNL     1      -2.992  -3.142   1.948  1.00  0.00     0.055 C 
HETATM    4  C4  UNL     1      -1.525  -2.763   1.900  1.00  0.00    -0.046 C 
HETATM    5  C5  UNL     1      -1.285  -1.256   1.679  1.00  0.00     0.018 C 
HETATM    6  C6  UNL     1      -2.485  -0.692   0.859  1.00  0.00     0.006 C 
HETATM    7  C7  UNL     1       0.057  -1.128   0.867  1.00  0.00     0.037 C 
HETATM    8  C8  UNL     1       1.385  -2.163   1.675  1.00  0.00     0.157 C 
HETATM    9  C9  UNL     1       0.909  -3.649   1.840  1.00  0.00     0.058 C 
HETATM   10  C10 UNL     1      -0.596  -3.737   1.975  1.00  0.00    -0.032 C 
HETATM   11  C11 UNL     1       3.122  -1.780   1.292  1.00  0.00     0.157 C 
HETATM   12  C12 UNL     1       3.609  -0.469   0.116  1.00  0.00     0.082 C 
HETATM   13  C13 UNL     1       2.362   0.756  -0.467  1.00  0.00     0.129 C 
HETATM   14  C14 UNL     1       0.500   0.347  -0.226  1.00  0.00     0.033 C 
HETATM   15  C24 UNL     1       4.378  -1.330  -1.077  1.00  0.00     0.157 C 
HETATM   16  C25 UNL     1       5.213  -2.231  -0.112  1.00  0.00     0.036 C 
HETATM   17  C26 UNL     1       4.222  -2.847   0.907  1.00  0.00     0.036 C 
HETATM   18  O5  UNL     1       5.119  -0.419  -1.855  1.00  0.00    -0.223 OA
HETATM   19  C36 UNL     1       4.869   0.374   0.635  1.00  0.00     0.008 C 
HETATM   20  O6  UNL     1       3.625  -1.623   2.610  1.00  0.00    -0.223 OA
HETATM   21  O7  UNL     1       1.312  -1.990   3.107  1.00  0.00    -0.223 OA
HETATM   22  C37 UNL     1      -1.376  -0.594   3.081  1.00  0.00     0.004 C 
HETATM   23  O8  UNL     1      -4.997  -2.897   0.673  1.00  0.00    -0.223 OA
ENDROOT
BRANCH  15  24
HETATM   24  C27 UNL     1       4.026  -2.451  -2.143  1.00  0.00     0.153 C 
HETATM   25  C28 UNL     1       5.250  -2.794  -3.045  1.00  0.00     0.035 C 
BRANCH  24  26
HETATM   26  O3  UNL     1       3.037  -2.310  -3.120  1.00  0.00    -0.298 OA
BRANCH  26  27
HETATM   27  C29 UNL     1       1.886  -1.649  -2.940  1.00  0.00     0.296 C 
HETATM   28  O4  UNL     1       1.077  -1.582  -3.865  1.00  0.00    -0.259 OA
BRANCH  27  29
HETATM   29  C30 UNL     1       1.599  -0.877  -1.695  1.00  0.00     0.063 C 
HETATM   30  C31 UNL     1       1.750  -1.149  -0.319  1.00  0.00    -0.024 C 
HETATM   31  C32 UNL     1       1.568  -2.732  -0.536  1.00  0.00     0.030 C 
BRANCH  30  32
HETATM   32  C33 UNL     1       1.722   0.064   1.303  1.00  0.00    -0.047 C 
HETATM   33  C34 UNL     1       0.703   1.357   1.739  1.00  0.00     0.026 C 
HETATM   34  C35 UNL     1       2.821   0.784   2.271  1.00  0.00     0.026 C 
ENDBRANCH  30  32
ENDBRANCH  27  29
ENDBRANCH  26  27
ENDBRANCH  24  26
ENDBRANCH  15  24
BRANCH  13  35
HETATM   35  O1  UNL     1       2.600   2.112  -0.174  1.00  0.00    -0.301 OA
BRANCH  35  36
HETATM   36  C15 UNL     1       3.470   2.858  -0.932  1.00  0.00     0.296 C 
HETATM   37  O2  UNL     1       4.334   2.316  -1.622  1.00  0.00    -0.259 OA
BRANCH  36  38
HETATM   38  C16 UNL     1       3.243   4.316  -1.073  1.00  0.00     0.068 C 
HETATM   39  C17 UNL     1       3.890   5.083  -1.984  1.00  0.00     0.005 C 
BRANCH  39  40
HETATM   40  C18 UNL     1       3.642   6.518  -2.199  1.00  0.00     0.000 A 
HETATM   41  C19 UNL     1       4.084   7.108  -3.396  1.00  0.00     0.000 A 
HETATM   42  C20 UNL     1       3.863   8.461  -3.657  1.00  0.00     0.000 A 
HETATM   43  C21 UNL     1       3.211   9.258  -2.714  1.00  0.00     0.000 A 
HETATM   44  C22 UNL     1       2.793   8.695  -1.508  1.00  0.00     0.000 A 
HETATM   45  C23 UNL     1       3.010   7.338  -1.251  1.00  0.00     0.000 A 
ENDBRANCH  39  40
ENDBRANCH  36  38
ENDBRANCH  35  36
ENDBRANCH  13  35
TORSDOF 9
