REMARK  5 active torsions:
REMARK  status: ('A' for Active; 'I' for Inactive)
REMARK    1  A    between atoms: C7_8  and  C18_26 
REMARK    2  A    between atoms: C8_9  and  O3_12 
REMARK    3  A    between atoms: O3_12  and  C10_13 
REMARK    4  A    between atoms: C14_18  and  O5_19 
REMARK    5  A    between atoms: O5_19  and  C15_20 
ROOT
HETATM    1  C1  UNL     1      -0.656   1.155   0.752  1.00  0.00     0.052 A 
HETATM    2  C2  UNL     1      -1.403   2.334   0.689  1.00  0.00     0.135 A 
HETATM    3  C3  UNL     1      -0.713   3.545   0.764  1.00  0.00     0.055 A 
HETATM    4  C4  UNL     1       0.679   3.619   0.891  1.00  0.00     0.138 A 
HETATM    5  C5  UNL     1       1.383   2.405   0.937  1.00  0.00     0.089 A 
HETATM    6  C6  UNL     1       0.735   1.163   0.866  1.00  0.00     0.107 A 
HETATM    7  O1  UNL     1       1.440   0.001   0.950  1.00  0.00    -0.305 OA
HETATM    8  C7  UNL     1       2.666   0.026   0.346  1.00  0.00     0.125 C 
HETATM    9  C8  UNL     1       3.470   1.121   0.405  1.00  0.00     0.158 C 
HETATM   10  C9  UNL     1       2.868   2.357   0.992  1.00  0.00     0.224 C 
HETATM   11  O2  UNL     1       3.549   3.331   1.300  1.00  0.00    -0.284 OA
HETATM   12  O11 UNL     1       1.281   4.838   0.936  1.00  0.00    -0.190 OA
HETATM   13  O12 UNL     1      -2.756   2.312   0.559  1.00  0.00    -0.190 OA
ENDROOT
BRANCH   9  14
HETATM   14  O3  UNL     1       4.726   1.256  -0.131  1.00  0.00    -0.298 OA
BRANCH  14  15
HETATM   15  C10 UNL     1       5.721   0.330   0.241  1.00  0.00     0.272 C 
HETATM   16  O4  UNL     1       6.185   0.700   1.515  1.00  0.00    -0.329 OA
HETATM   17  C11 UNL     1       7.101  -0.226   2.040  1.00  0.00     0.151 C 
HETATM   18  C12 UNL     1       8.265  -0.506   1.087  1.00  0.00     0.212 C 
HETATM   19  C17 UNL     1       6.403  -1.492   2.550  1.00  0.00     0.035 C 
HETATM   20  C13 UNL     1       7.863  -0.688  -0.370  1.00  0.00     0.217 C 
HETATM   21  O8  UNL     1       9.168   0.576   1.150  1.00  0.00    -0.218 OA
HETATM   22  C14 UNL     1       6.854   0.377  -0.764  1.00  0.00     0.213 C 
HETATM   23  O7  UNL     1       7.275  -1.955  -0.571  1.00  0.00    -0.218 OA
BRANCH  22  24
HETATM   24  O5  UNL     1       6.364   0.080  -2.042  1.00  0.00    -0.296 OA
BRANCH  24  25
HETATM   25  C15 UNL     1       6.426   1.026  -3.019  1.00  0.00     0.273 C 
HETATM   26  C16 UNL     1       5.696   0.543  -4.256  1.00  0.00     0.106 C 
HETATM   27  O6  UNL     1       6.960   2.107  -2.920  1.00  0.00    -0.264 OA
ENDBRANCH  24  25
ENDBRANCH  22  24
ENDBRANCH  14  15
ENDBRANCH   9  14
BRANCH   8  28
HETATM   28  C18 UNL     1       3.169  -1.242  -0.329  1.00  0.00     0.027 C 
HETATM   29  C19 UNL     1       3.132  -2.249   0.642  1.00  0.00     0.032 C 
HETATM   30  C20 UNL     1       3.761  -3.473   0.447  1.00  0.00     0.156 C 
HETATM   31  C21 UNL     1       4.462  -3.509  -0.737  1.00  0.00     0.156 C 
HETATM   32  O10 UNL     1       3.861  -4.460   1.369  1.00  0.00    -0.188 OA
HETATM   33  C22 UNL     1       4.309  -2.426  -1.618  1.00  0.00     0.030 C 
HETATM   34  O9  UNL     1       5.284  -4.555  -1.007  1.00  0.00    -0.188 OA
HETATM   35  C23 UNL     1       3.597  -1.233  -1.734  1.00  0.00     0.004 C 
ENDBRANCH   8  28
TORSDOF 5
