REMARK  6 active torsions:
REMARK  status: ('A' for Active; 'I' for Inactive)
REMARK    1  A    between atoms: C5_5  and  C7_7 
REMARK    2  A    between atoms: C8_8  and  C9_9 
REMARK    3  A    between atoms: C9_9  and  O1_10 
REMARK    4  A    between atoms: O1_10  and  C10_11 
REMARK    5  A    between atoms: C10_11  and  C11_12 
REMARK    6  A    between atoms: C12_13  and  C13_14 
ROOT
HETATM    1  C9  UNL     1       1.869  -1.732   0.450  1.00  0.00     0.296 C 
HETATM    2  O2  UNL     1       1.122  -2.670   0.715  1.00  0.00    -0.259 OA
ENDROOT
BRANCH   1   3
HETATM    3  C8  UNL     1       3.341  -1.907   0.501  1.00  0.00     0.068 C 
HETATM    4  C7  UNL     1       3.965  -3.067   0.819  1.00  0.00     0.005 C 
BRANCH   4   5
HETATM    5  C5  UNL     1       5.425  -3.247   0.871  1.00  0.00     0.000 A 
HETATM    6  C4  UNL     1       5.935  -4.513   1.210  1.00  0.00     0.000 A 
HETATM    7  C3  UNL     1       7.309  -4.746   1.275  1.00  0.00     0.000 A 
HETATM    8  C2  UNL     1       8.210  -3.715   1.002  1.00  0.00     0.000 A 
HETATM    9  C1  UNL     1       7.724  -2.452   0.664  1.00  0.00     0.000 A 
HETATM   10  C6  UNL     1       6.347  -2.222   0.600  1.00  0.00     0.000 A 
ENDBRANCH   4   5
ENDBRANCH   1   3
BRANCH   1  11
HETATM   11  O1  UNL     1       1.370  -0.510   0.114  1.00  0.00    -0.294 OA
BRANCH  11  12
HETATM   12  C10 UNL     1      -0.029  -0.318   0.088  1.00  0.00     0.178 C 
BRANCH  12  13
HETATM   13  C11 UNL     1      -0.314   1.116  -0.290  1.00  0.00     0.006 C 
HETATM   14  C12 UNL     1      -1.553   1.623  -0.444  1.00  0.00    -0.002 C 
BRANCH  14  15
HETATM   15  C13 UNL     1      -1.859   3.017  -0.811  1.00  0.00    -0.000 A 
HETATM   16  C14 UNL     1      -3.206   3.403  -0.916  1.00  0.00    -0.000 A 
HETATM   17  C15 UNL     1      -3.560   4.707  -1.262  1.00  0.00    -0.000 A 
HETATM   18  C16 UNL     1      -2.570   5.660  -1.513  1.00  0.00    -0.000 A 
HETATM   19  C17 UNL     1      -1.227   5.295  -1.415  1.00  0.00    -0.000 A 
HETATM   20  C18 UNL     1      -0.877   3.988  -1.069  1.00  0.00    -0.000 A 
ENDBRANCH  14  15
ENDBRANCH  12  13
ENDBRANCH  11  12
ENDBRANCH   1  11
TORSDOF 6
