REMARK  12 active torsions:
REMARK  status: ('A' for Active; 'I' for Inactive)
REMARK    1  A    between atoms: C2_2  and  O6_32 
REMARK    2  A    between atoms: C15_15  and  C20_23 
REMARK    3  A    between atoms: C16_16  and  O2_19 
REMARK    4  A    between atoms: O2_19  and  C18_20 
REMARK    5  A    between atoms: O6_32  and  C27_33 
REMARK    6  A    between atoms: C27_33  and  C28_35 
REMARK    7  A    between atoms: C28_35  and  C29_36 
REMARK    8  A    between atoms: C29_36  and  C30_37 
REMARK    9  A    between atoms: C30_37  and  C31_38 
REMARK   10  A    between atoms: C31_38  and  C32_39 
REMARK   11  A    between atoms: C32_39  and  C33_40 
REMARK   12  A    between atoms: C33_40  and  C34_41 
ROOT
HETATM    1  C1  UNL     1       1.468  -1.893  -1.024  1.00  0.00     0.030 C 
HETATM    2  C2  UNL     1       0.446  -2.407  -0.009  1.00  0.00     0.124 C 
HETATM    3  C3  UNL     1       1.133  -2.839   1.302  1.00  0.00     0.030 C 
HETATM    4  C4  UNL     1       2.604  -2.386   1.448  1.00  0.00     0.002 C 
HETATM    5  C5  UNL     1       2.841  -0.926   0.988  1.00  0.00     0.000 C 
HETATM    6  C6  UNL     1       2.403  -0.791  -0.498  1.00  0.00     0.003 C 
HETATM    7  C7  UNL     1       4.346  -0.526   1.182  1.00  0.00     0.002 C 
HETATM    8  C8  UNL     1       5.332  -1.715   1.211  1.00  0.00     0.028 C 
HETATM    9  C9  UNL     1       4.865  -2.843   0.289  1.00  0.00     0.002 C 
HETATM   10  C10 UNL     1       3.557  -3.435   0.827  1.00  0.00     0.000 C 
HETATM   11  C11 UNL     1       6.723  -1.154   0.982  1.00  0.00     0.120 A 
HETATM   12  C12 UNL     1       7.237  -0.047   1.899  1.00  0.00     0.031 C 
HETATM   13  C13 UNL     1       6.132   0.363   2.896  1.00  0.00     0.003 C 
HETATM   14  C14 UNL     1       4.695   0.444   2.340  1.00  0.00     0.000 C 
HETATM   15  C15 UNL     1       7.568   1.065   0.876  1.00  0.00     0.057 C 
HETATM   16  C16 UNL     1       8.045   0.323  -0.389  1.00  0.00     0.158 C 
HETATM   17  C17 UNL     1       7.215  -0.969  -0.358  1.00  0.00     0.168 A 
HETATM   18  O1  UNL     1       7.836  -2.050   0.295  1.00  0.00    -0.354 OA
HETATM   19  C25 UNL     1       8.451  -0.518   2.727  1.00  0.00     0.003 C 
HETATM   20  C26 UNL     1       1.931   0.029   1.808  1.00  0.00     0.000 C 
ENDROOT
BRANCH   2  21
HETATM   21  O6  UNL     1      -0.490  -1.405   0.270  1.00  0.00    -0.304 OA
BRANCH  21  22
HETATM   22  C27 UNL     1      -1.787  -1.358  -0.143  1.00  0.00     0.272 C 
HETATM   23  O7  UNL     1      -2.527  -0.467   0.222  1.00  0.00    -0.264 OA
BRANCH  22  24
HETATM   24  C28 UNL     1      -2.293  -2.410  -1.119  1.00  0.00     0.096 C 
BRANCH  24  25
HETATM   25  C29 UNL     1      -1.958  -2.139  -2.596  1.00  0.00     0.010 C 
BRANCH  25  26
HETATM   26  C30 UNL     1      -2.287  -0.710  -3.069  1.00  0.00     0.001 C 
BRANCH  26  27
HETATM   27  C31 UNL     1      -1.143   0.298  -2.863  1.00  0.00     0.001 C 
BRANCH  27  28
HETATM   28  C32 UNL     1      -1.587   1.745  -3.129  1.00  0.00     0.011 C 
BRANCH  28  29
HETATM   29  C33 UNL     1      -0.429   2.751  -3.034  1.00  0.00     0.098 C 
BRANCH  29  30
HETATM   30  C34 UNL     1       0.353   2.716  -1.732  1.00  0.00     0.185 C 
HETATM   31  O8  UNL     1       1.556   2.595  -1.657  1.00  0.00    -0.647 OA
HETATM   32  O9  UNL     1      -0.457   2.892  -0.668  1.00  0.00    -0.647 OA
ENDBRANCH  29  30
ENDBRANCH  28  29
ENDBRANCH  27  28
ENDBRANCH  26  27
ENDBRANCH  25  26
ENDBRANCH  24  25
ENDBRANCH  22  24
ENDBRANCH  21  22
ENDBRANCH   2  21
BRANCH  15  33
HETATM   33  C20 UNL     1       8.317   2.295   1.355  1.00  0.00     0.005 A 
HETATM   34  C21 UNL     1       7.610   3.576   1.404  1.00  0.00     0.003 A 
HETATM   35  C22 UNL     1       8.257   4.686   1.818  1.00  0.00     0.068 A 
HETATM   36  C23 UNL     1       9.674   4.556   2.215  1.00  0.00     0.300 A 
HETATM   37  O4  UNL     1      10.322   3.361   2.172  1.00  0.00    -0.271 OA
HETATM   38  O5  UNL     1      10.263   5.569   2.588  1.00  0.00    -0.259 OA
HETATM   39  C24 UNL     1       9.614   2.276   1.741  1.00  0.00     0.122 A 
ENDBRANCH  15  33
BRANCH  16  40
HETATM   40  O2  UNL     1       9.423   0.044  -0.400  1.00  0.00    -0.301 OA
BRANCH  40  41
HETATM   41  C18 UNL     1      10.347   0.789  -1.073  1.00  0.00     0.272 C 
HETATM   42  O3  UNL     1      11.528   0.513  -1.057  1.00  0.00    -0.264 OA
HETATM   43  C19 UNL     1       9.840   2.000  -1.836  1.00  0.00     0.106 C 
ENDBRANCH  40  41
ENDBRANCH  16  40
TORSDOF 12
