REMARK  9 active torsions:
REMARK  status: ('A' for Active; 'I' for Inactive)
REMARK    1  A    between atoms: C2_2  and  C15_16 
REMARK    2  A    between atoms: C3_3  and  C4_4 
REMARK    3  A    between atoms: C5_5  and  C6_6 
REMARK    4  A    between atoms: C7_7  and  C8_8 
REMARK    5  A    between atoms: C9_9  and  C10_10 
REMARK    6  A    between atoms: C11_11  and  C12_12 
REMARK    7  A    between atoms: C16_17  and  C17_18 
REMARK    8  A    between atoms: C18_19  and  C20_21 
REMARK    9  A    between atoms: C21_22  and  C22_23 
ROOT
HETATM    1  C15 UNL     1       4.685  -2.158  -1.607  1.00  0.00    -0.004 C 
HETATM    2  C16 UNL     1       4.790  -1.925  -0.276  1.00  0.00    -0.001 C 
ENDROOT
BRANCH   1   3
HETATM    3  C2  UNL     1       4.269  -1.201  -2.655  1.00  0.00    -0.022 C 
HETATM    4  C1  UNL     1       5.027  -1.251  -3.960  1.00  0.00     0.031 C 
HETATM    5  C3  UNL     1       3.206  -0.390  -2.426  1.00  0.00    -0.004 C 
BRANCH   5   6
HETATM    6  C4  UNL     1       2.668   0.645  -3.312  1.00  0.00    -0.000 C 
HETATM    7  C5  UNL     1       1.739   1.520  -2.851  1.00  0.00    -0.000 C 
BRANCH   7   8
HETATM    8  C6  UNL     1       1.196   2.607  -3.666  1.00  0.00    -0.004 C 
HETATM    9  C7  UNL     1       0.407   3.609  -3.189  1.00  0.00    -0.022 C 
HETATM   10  C14 UNL     1       0.108   3.735  -1.710  1.00  0.00     0.031 C 
BRANCH   9  11
HETATM   11  C8  UNL     1      -0.111   4.590  -4.157  1.00  0.00    -0.004 C 
HETATM   12  C9  UNL     1      -1.005   5.570  -3.868  1.00  0.00    -0.001 C 
BRANCH  12  13
HETATM   13  C10 UNL     1      -1.500   6.495  -4.889  1.00  0.00    -0.001 C 
HETATM   14  C11 UNL     1      -2.357   7.528  -4.678  1.00  0.00     0.020 C 
HETATM   15  C13 UNL     1      -2.927   7.929  -3.338  1.00  0.00     0.035 C 
BRANCH  14  16
HETATM   16  C12 UNL     1      -2.774   8.342  -5.847  1.00  0.00     0.230 C 
HETATM   17  O1  UNL     1      -3.543   9.289  -5.753  1.00  0.00    -0.283 OA
ENDBRANCH  14  16
ENDBRANCH  12  13
ENDBRANCH   9  11
ENDBRANCH   7   8
ENDBRANCH   5   6
ENDBRANCH   1   3
BRANCH   2  18
HETATM   18  C17 UNL     1       4.641  -0.626   0.385  1.00  0.00    -0.004 C 
HETATM   19  C18 UNL     1       4.747  -0.357   1.710  1.00  0.00    -0.022 C 
HETATM   20  C19 UNL     1       4.376   1.025   2.211  1.00  0.00     0.031 C 
BRANCH  19  21
HETATM   21  C20 UNL     1       5.183  -1.317   2.745  1.00  0.00    -0.009 C 
HETATM   22  C21 UNL     1       6.202  -2.186   2.609  1.00  0.00    -0.023 C 
BRANCH  22  23
HETATM   23  C22 UNL     1       6.718  -3.070   3.724  1.00  0.00     0.040 C 
HETATM   24  C23 UNL     1       8.229  -2.957   3.811  1.00  0.00    -0.042 C 
HETATM   25  C24 UNL     1       8.814  -1.563   3.760  1.00  0.00     0.026 C 
HETATM   26  C25 UNL     1       9.020  -4.026   3.998  1.00  0.00    -0.002 C 
HETATM   27  C26 UNL     1       8.498  -5.426   4.146  1.00  0.00     0.174 C 
HETATM   28  C27 UNL     1       7.030  -5.423   4.555  1.00  0.00     0.038 C 
HETATM   29  O2  UNL     1       9.255  -6.111   5.128  1.00  0.00    -0.219 OA
HETATM   30  C28 UNL     1       6.183  -4.522   3.632  1.00  0.00     0.010 C 
HETATM   31  C29 UNL     1       4.716  -4.570   4.118  1.00  0.00     0.001 C 
HETATM   32  C30 UNL     1       6.222  -5.069   2.190  1.00  0.00     0.001 C 
ENDBRANCH  22  23
ENDBRANCH  19  21
ENDBRANCH   2  18
TORSDOF 9
