REMARK  5 active torsions:
REMARK  status: ('A' for Active; 'I' for Inactive)
REMARK    1  A    between atoms: C1_1  and  C2_3 
REMARK    2  A    between atoms: C2_3  and  C3_4 
REMARK    3  A    between atoms: C3_4  and  C4_6 
REMARK    4  A    between atoms: C3_4  and  C6_10 
REMARK    5  A    between atoms: C4_6  and  C5_7 
ROOT
HETATM    1  C3  UNL     1      -1.213   0.279  -0.486  1.00  0.00     0.224 C 
HETATM    2  O2  UNL     1      -0.643   0.622  -1.734  1.00  0.00    -0.214 OA
ENDROOT
BRANCH   1   3
HETATM    3  C2  UNL     1      -1.237  -1.251  -0.384  1.00  0.00     0.139 C 
BRANCH   3   4
HETATM    4  C1  UNL     1       0.071  -2.029  -0.466  1.00  0.00     0.188 C 
HETATM    5  O1  UNL     1       0.122  -3.237  -0.387  1.00  0.00    -0.647 OA
HETATM    6  O7  UNL     1       1.165  -1.248  -0.586  1.00  0.00    -0.647 OA
ENDBRANCH   3   4
ENDBRANCH   1   3
BRANCH   1   7
HETATM    7  C4  UNL     1      -2.614   0.903  -0.433  1.00  0.00     0.139 C 
BRANCH   7   8
HETATM    8  C5  UNL     1      -3.272   0.850   0.934  1.00  0.00     0.188 C 
HETATM    9  O3  UNL     1      -3.126   1.661   1.817  1.00  0.00    -0.647 OA
HETATM   10  O4  UNL     1      -4.054  -0.233   1.083  1.00  0.00    -0.647 OA
ENDBRANCH   7   8
ENDBRANCH   1   7
BRANCH   1  11
HETATM   11  C6  UNL     1      -0.313   0.940   0.544  1.00  0.00     0.215 C 
HETATM   12  O5  UNL     1      -0.336   0.359   1.751  1.00  0.00    -0.646 OA
HETATM   13  O6  UNL     1       0.387   1.879   0.251  1.00  0.00    -0.646 OA
ENDBRANCH   1  11
TORSDOF 5
