REMARK  5 active torsions:
REMARK  status: ('A' for Active; 'I' for Inactive)
REMARK       I    between atoms: C1_2  and  N2_3 
REMARK    1  A    between atoms: N2_3  and  C2_4 
REMARK    2  A    between atoms: C2_4  and  C3_5 
REMARK    3  A    between atoms: C3_5  and  C4_6 
REMARK    4  A    between atoms: C4_6  and  C5_7 
REMARK    5  A    between atoms: C5_7  and  C6_8 
ROOT
HETATM    1  C3  UNL     1       1.189  -0.098   0.243  1.00  0.00     0.029 C 
ENDROOT
BRANCH   1   2
HETATM    2  C2  UNL     1       0.032   0.912   0.272  1.00  0.00     0.131 C 
BRANCH   2   3
HETATM    3  N2  UNL     1      -1.246   0.195   0.295  1.00  0.00    -0.216 NA
HETATM    4  C1  UNL     1      -2.448   0.849   0.316  1.00  0.00     0.382 C 
HETATM    5  N1  UNL     1      -3.589   0.106   0.282  1.00  0.00    -0.084 N 
HETATM    6  O3  UNL     1      -2.528   2.051   0.351  1.00  0.00    -0.241 OA
ENDBRANCH   2   3
ENDBRANCH   1   2
BRANCH   1   7
HETATM    7  C4  UNL     1       2.557   0.596   0.131  1.00  0.00     0.053 C 
BRANCH   7   8
HETATM    8  C5  UNL     1       3.733  -0.393   0.080  1.00  0.00     0.387 C 
HETATM    9  N3  UNL     1       5.003   0.347   0.155  1.00  0.00     0.628 N 
BRANCH   8  10
HETATM   10  C6  UNL     1       3.754  -1.261  -1.164  1.00  0.00     0.224 C 
HETATM   11  O1  UNL     1       4.688  -2.225  -1.063  1.00  0.00    -0.646 OA
HETATM   12  O2  UNL     1       3.063  -1.160  -2.149  1.00  0.00    -0.646 OA
ENDBRANCH   8  10
ENDBRANCH   7   8
ENDBRANCH   1   7
TORSDOF 5
