REMARK  4 active torsions:
REMARK  status: ('A' for Active; 'I' for Inactive)
REMARK    1  A    between atoms: C9_10  and  C10_11 
REMARK    2  A    between atoms: C10_11  and  C11_12 
REMARK    3  A    between atoms: C16_18  and  C18_20 
REMARK    4  A    between atoms: C18_20  and  C19_21 
ROOT
HETATM    1  C1  UNL     1       5.919  -0.817   0.205  1.00  0.00     0.001 C 
HETATM    2  C2  UNL     1       5.791   0.677   0.348  1.00  0.00     0.117 C 
HETATM    3  O1  UNL     1       4.627   1.156  -0.266  1.00  0.00    -0.332 OA
HETATM    4  C3  UNL     1       3.465   0.448  -0.126  1.00  0.00     0.094 A 
HETATM    5  C4  UNL     1       3.509  -0.940   0.111  1.00  0.00     0.047 A 
HETATM    6  C5  UNL     1       4.824  -1.590   0.129  1.00  0.00     0.002 C 
HETATM    7  C6  UNL     1       2.352  -1.715   0.234  1.00  0.00     0.135 A 
HETATM    8  C7  UNL     1       1.119  -1.063   0.087  1.00  0.00     0.048 A 
HETATM    9  C8  UNL     1       1.030   0.325  -0.099  1.00  0.00     0.103 A 
HETATM   10  C9  UNL     1       2.214   1.098  -0.151  1.00  0.00     0.026 A 
HETATM   11  O2  UNL     1      -0.188   0.928  -0.228  1.00  0.00    -0.273 OA
HETATM   12  C15 UNL     1      -1.314   0.167  -0.310  1.00  0.00     0.296 A 
HETATM   13  C16 UNL     1      -1.323  -1.309  -0.140  1.00  0.00     0.045 A 
HETATM   14  C17 UNL     1      -0.109  -1.859   0.100  1.00  0.00     0.005 A 
HETATM   15  O3  UNL     1      -2.380   0.747  -0.504  1.00  0.00    -0.259 OA
HETATM   16  O4  UNL     1       2.421  -3.059   0.432  1.00  0.00    -0.190 OA
HETATM   17  C23 UNL     1       6.974   1.374  -0.331  1.00  0.00     0.035 C 
HETATM   18  C24 UNL     1       5.751   1.041   1.837  1.00  0.00     0.035 C 
ENDROOT
BRANCH  10  19
HETATM   19  C10 UNL     1       2.077   2.624  -0.355  1.00  0.00     0.041 C 
HETATM   20  C13 UNL     1       1.756   2.872  -1.845  1.00  0.00     0.009 C 
HETATM   21  C14 UNL     1       3.283   3.527   0.002  1.00  0.00     0.009 C 
BRANCH  19  22
HETATM   22  C11 UNL     1       0.968   3.162   0.538  1.00  0.00    -0.023 C 
HETATM   23  C12 UNL     1       0.927   2.978   1.865  1.00  0.00    -0.005 C 
ENDBRANCH  19  22
ENDBRANCH  10  19
BRANCH  13  24
HETATM   24  C18 UNL     1      -2.610  -2.133  -0.192  1.00  0.00     0.043 C 
HETATM   25  C21 UNL     1      -3.426  -1.841  -1.471  1.00  0.00     0.009 C 
HETATM   26  C22 UNL     1      -3.469  -1.793   1.046  1.00  0.00     0.009 C 
BRANCH  24  27
HETATM   27  C19 UNL     1      -2.322  -3.629  -0.172  1.00  0.00    -0.022 C 
HETATM   28  C20 UNL     1      -1.773  -4.319  -1.183  1.00  0.00    -0.005 C 
ENDBRANCH  24  27
ENDBRANCH  13  24
TORSDOF 4
