REMARK  3 active torsions:
REMARK  status: ('A' for Active; 'I' for Inactive)
REMARK    1  A    between atoms: C1_1  and  O4_19 
REMARK    2  A    between atoms: C3_3  and  O3_17 
REMARK    3  A    between atoms: C11_12  and  C13_14 
ROOT
HETATM    1  C1  UNL     1      -1.722  -2.412  -0.537  1.00  0.00     0.096 A 
HETATM    2  C2  UNL     1      -2.772  -1.714   0.120  1.00  0.00     0.050 A 
HETATM    3  C3  UNL     1      -2.703  -0.438   0.671  1.00  0.00     0.114 A 
HETATM    4  C4  UNL     1      -1.438   0.189   0.535  1.00  0.00     0.104 A 
HETATM    5  C5  UNL     1      -0.371  -0.463  -0.102  1.00  0.00     0.023 A 
HETATM    6  C6  UNL     1      -0.501  -1.757  -0.639  1.00  0.00     0.026 A 
HETATM    7  C7  UNL     1       0.767   0.421  -0.087  1.00  0.00     0.019 A 
HETATM    8  C8  UNL     1       0.361   1.595   0.552  1.00  0.00     0.084 A 
HETATM    9  N1  UNL     1      -0.962   1.445   0.927  1.00  0.00    -0.243 NA
HETATM   10  C9  UNL     1       1.252   2.677   0.719  1.00  0.00     0.047 A 
HETATM   11  C10 UNL     1       2.548   2.579   0.236  1.00  0.00     0.136 A 
HETATM   12  C11 UNL     1       2.959   1.364  -0.398  1.00  0.00     0.068 A 
HETATM   13  C12 UNL     1       2.082   0.292  -0.569  1.00  0.00     0.007 A 
HETATM   14  O2  UNL     1       3.399   3.625   0.422  1.00  0.00    -0.190 OA
ENDROOT
BRANCH   1  15
HETATM   15  O4  UNL     1      -1.984  -3.667  -1.029  1.00  0.00    -0.328 OA
HETATM   16  C15 UNL     1      -0.957  -4.348  -1.712  1.00  0.00     0.181 C 
ENDBRANCH   1  15
BRANCH   3  17
HETATM   17  O3  UNL     1      -3.821   0.080   1.275  1.00  0.00    -0.327 OA
HETATM   18  C14 UNL     1      -3.755   1.365   1.842  1.00  0.00     0.181 C 
ENDBRANCH   3  17
BRANCH  12  19
HETATM   19  C13 UNL     1       4.338   1.218  -0.919  1.00  0.00     0.236 C 
HETATM   20  O1  UNL     1       4.761   0.193  -1.439  1.00  0.00    -0.283 OA
ENDBRANCH  12  19
TORSDOF 3
