REMARK  3 active torsions:
REMARK  status: ('A' for Active; 'I' for Inactive)
REMARK    1  A    between atoms: C2_2  and  C18_20 
REMARK    2  A    between atoms: C3_3  and  C13_15 
REMARK    3  A    between atoms: C13_15  and  C14_16 
ROOT
HETATM    1  C1  UNL     1       1.828   3.347   0.781  1.00  0.00     0.032 A 
HETATM    2  C2  UNL     1       2.295   2.265  -0.019  1.00  0.00     0.041 A 
HETATM    3  C3  UNL     1       1.485   1.151  -0.279  1.00  0.00    -0.013 A 
HETATM    4  C4  UNL     1       0.149   1.227   0.193  1.00  0.00     0.018 A 
HETATM    5  C5  UNL     1      -0.278   2.307   0.982  1.00  0.00     0.106 A 
HETATM    6  C6  UNL     1       0.556   3.397   1.316  1.00  0.00     0.149 A 
HETATM    7  O1  UNL     1       0.126   4.443   2.067  1.00  0.00    -0.189 OA
HETATM    8  N1  UNL     1      -1.594   2.109   1.360  1.00  0.00    -0.243 NA
HETATM    9  C7  UNL     1      -2.050   0.924   0.807  1.00  0.00     0.081 A 
HETATM   10  C8  UNL     1      -1.004   0.358   0.062  1.00  0.00     0.019 A 
HETATM   11  C9  UNL     1      -1.252  -0.831  -0.660  1.00  0.00     0.002 A 
HETATM   12  C10 UNL     1      -2.498  -1.429  -0.560  1.00  0.00     0.000 A 
HETATM   13  C11 UNL     1      -3.527  -0.865   0.230  1.00  0.00     0.002 A 
HETATM   14  C12 UNL     1      -3.321   0.322   0.912  1.00  0.00     0.019 A 
ENDROOT
BRANCH   3  15
HETATM   15  C13 UNL     1       1.964  -0.107  -0.974  1.00  0.00     0.052 C 
BRANCH  15  16
HETATM   16  C14 UNL     1       1.788  -1.330  -0.104  1.00  0.00    -0.030 C 
HETATM   17  C15 UNL     1       1.875  -2.604  -0.526  1.00  0.00    -0.048 C 
HETATM   18  C16 UNL     1       1.654  -3.763   0.417  1.00  0.00     0.026 C 
HETATM   19  C17 UNL     1       2.187  -2.999  -1.949  1.00  0.00     0.026 C 
ENDBRANCH  15  16
ENDBRANCH   3  15
BRANCH   2  20
HETATM   20  C18 UNL     1       3.695   2.389  -0.504  1.00  0.00     0.234 C 
HETATM   21  O2  UNL     1       4.206   1.764  -1.422  1.00  0.00    -0.283 OA
ENDBRANCH   2  20
TORSDOF 3
