REMARK  2 active torsions:
REMARK  status: ('A' for Active; 'I' for Inactive)
REMARK    1  A    between atoms: C11_12  and  C13_14 
REMARK    2  A    between atoms: C13_14  and  O1_15 
ROOT
HETATM    1  C1  UNL     1      -2.558  -2.653  -0.279  1.00  0.00     0.000 A 
HETATM    2  C2  UNL     1      -3.622  -1.991   0.381  1.00  0.00     0.002 A 
HETATM    3  C3  UNL     1      -3.462  -0.719   0.910  1.00  0.00     0.019 A 
HETATM    4  C4  UNL     1      -2.200  -0.107   0.768  1.00  0.00     0.081 A 
HETATM    5  C5  UNL     1      -1.148  -0.763   0.115  1.00  0.00     0.019 A 
HETATM    6  C6  UNL     1      -1.316  -2.055  -0.421  1.00  0.00     0.002 A 
HETATM    7  C7  UNL     1      -0.012   0.123   0.142  1.00  0.00     0.021 A 
HETATM    8  C8  UNL     1      -0.411   1.289   0.809  1.00  0.00     0.107 A 
HETATM    9  N1  UNL     1      -1.739   1.140   1.185  1.00  0.00    -0.243 NA
HETATM   10  C9  UNL     1       0.482   2.362   1.003  1.00  0.00     0.149 A 
HETATM   11  C10 UNL     1       1.762   2.186   0.497  1.00  0.00     0.034 A 
HETATM   12  C11 UNL     1       2.204   1.012  -0.188  1.00  0.00     0.065 A 
HETATM   13  C12 UNL     1       1.291  -0.027  -0.361  1.00  0.00     0.007 A 
HETATM   14  O3  UNL     1       0.117   3.501   1.647  1.00  0.00    -0.189 OA
ENDROOT
BRANCH  12  15
HETATM   15  C13 UNL     1       3.622   0.981  -0.673  1.00  0.00     0.296 C 
HETATM   16  O2  UNL     1       4.267   1.999  -0.416  1.00  0.00    -0.259 OA
BRANCH  15  17
HETATM   17  O1  UNL     1       4.312   0.011  -1.351  1.00  0.00    -0.296 OA
HETATM   18  C14 UNL     1       3.764  -1.219  -1.739  1.00  0.00     0.185 C 
ENDBRANCH  15  17
ENDBRANCH  12  15
TORSDOF 2
