REMARK  4 active torsions:
REMARK  status: ('A' for Active; 'I' for Inactive)
REMARK    1  A    between atoms: C2_2  and  C18_20 
REMARK    2  A    between atoms: C3_3  and  C13_15 
REMARK    3  A    between atoms: C13_15  and  C14_16 
REMARK    4  A    between atoms: C18_20  and  O2_21 
ROOT
HETATM    1  C1  UNL     1       1.804   3.115   1.018  1.00  0.00     0.034 A 
HETATM    2  C2  UNL     1       2.243   1.974   0.309  1.00  0.00     0.062 A 
HETATM    3  C3  UNL     1       1.444   0.856   0.101  1.00  0.00    -0.011 A 
HETATM    4  C4  UNL     1       0.101   0.963   0.546  1.00  0.00     0.018 A 
HETATM    5  C5  UNL     1      -0.325   2.108   1.242  1.00  0.00     0.106 A 
HETATM    6  C6  UNL     1       0.511   3.218   1.504  1.00  0.00     0.149 A 
HETATM    7  O1  UNL     1       0.079   4.324   2.158  1.00  0.00    -0.189 OA
HETATM    8  N1  UNL     1      -1.649   1.940   1.620  1.00  0.00    -0.243 NA
HETATM    9  C7  UNL     1      -2.098   0.708   1.175  1.00  0.00     0.081 A 
HETATM   10  C8  UNL     1      -1.051   0.087   0.477  1.00  0.00     0.019 A 
HETATM   11  C9  UNL     1      -1.295  -1.158  -0.144  1.00  0.00     0.002 A 
HETATM   12  C10 UNL     1      -2.511  -1.784   0.064  1.00  0.00     0.000 A 
HETATM   13  C11 UNL     1      -3.539  -1.168   0.819  1.00  0.00     0.002 A 
HETATM   14  C12 UNL     1      -3.358   0.098   1.351  1.00  0.00     0.019 A 
ENDROOT
BRANCH   3  15
HETATM   15  C13 UNL     1       1.991  -0.386  -0.570  1.00  0.00     0.052 C 
BRANCH  15  16
HETATM   16  C14 UNL     1       1.708  -1.670   0.161  1.00  0.00    -0.030 C 
HETATM   17  C15 UNL     1       1.912  -2.889  -0.372  1.00  0.00    -0.048 C 
HETATM   18  C16 UNL     1       1.364  -4.130   0.289  1.00  0.00     0.026 C 
HETATM   19  C17 UNL     1       2.628  -3.122  -1.681  1.00  0.00     0.026 C 
ENDBRANCH  15  16
ENDBRANCH   3  15
BRANCH   2  20
HETATM   20  C18 UNL     1       3.671   1.998  -0.218  1.00  0.00     0.296 C 
HETATM   21  O3  UNL     1       4.559   1.881   0.607  1.00  0.00    -0.259 OA
BRANCH  20  22
HETATM   22  O2  UNL     1       3.973   2.123  -1.548  1.00  0.00    -0.296 OA
HETATM   23  C19 UNL     1       2.909   2.411  -2.424  1.00  0.00     0.185 C 
ENDBRANCH  20  22
ENDBRANCH   2  20
TORSDOF 4
