REMARK  0 active torsions:
REMARK  status: ('A' for Active; 'I' for Inactive)
ROOT
HETATM    1  C1  UNL     1      -0.174  -0.393  -1.665  1.00  0.00     0.203 C 
HETATM    2  C2  UNL     1      -0.407  -1.654  -0.933  1.00  0.00     0.032 C 
HETATM    3  C3  UNL     1       0.557  -2.206  -0.171  1.00  0.00    -0.041 C 
HETATM    4  C4  UNL     1       1.932  -1.567  -0.088  1.00  0.00     0.024 C 
HETATM    5  C5  UNL     1       1.876  -0.013  -0.152  1.00  0.00     0.042 C 
HETATM    6  C6  UNL     1       1.143   0.335  -1.469  1.00  0.00     0.213 C 
HETATM    7  O1  UNL     1       0.809   1.711  -1.544  1.00  0.00    -0.215 OA
HETATM    8  C7  UNL     1       3.353   0.523  -0.182  1.00  0.00     0.041 C 
HETATM    9  C8  UNL     1       4.361   0.031   0.907  1.00  0.00     0.057 C 
HETATM   10  C9  UNL     1       4.243  -1.512   1.004  1.00  0.00     0.127 C 
HETATM   11  C10 UNL     1       2.805  -2.041   1.088  1.00  0.00     0.034 C 
HETATM   12  O2  UNL     1       4.835  -2.171  -0.079  1.00  0.00    -0.302 OA
HETATM   13  C11 UNL     1       6.089  -1.863  -0.481  1.00  0.00     0.305 C 
HETATM   14  C12 UNL     1       6.747  -0.792   0.362  1.00  0.00     0.265 C 
HETATM   15  C13 UNL     1       5.850   0.423   0.582  1.00  0.00     0.169 C 
HETATM   16  C14 UNL     1       6.026   1.461  -0.554  1.00  0.00     0.064 C 
HETATM   17  C15 UNL     1       4.948   2.526  -0.387  1.00  0.00     0.185 C 
HETATM   18  C16 UNL     1       3.555   1.984  -0.628  1.00  0.00     0.183 C 
HETATM   19  O3  UNL     1       2.673   2.879   0.001  1.00  0.00    -0.221 OA
HETATM   20  O4  UNL     1       5.168   3.622  -1.245  1.00  0.00    -0.221 OA
HETATM   21  C17 UNL     1       6.142   0.933  -1.998  1.00  0.00     0.005 C 
HETATM   22  O5  UNL     1       6.444   1.029   1.712  1.00  0.00    -0.223 OA
HETATM   23  O6  UNL     1       7.140  -1.330   1.615  1.00  0.00    -0.210 OA
HETATM   24  O7  UNL     1       6.633  -2.399  -1.423  1.00  0.00    -0.261 OA
HETATM   25  C18 UNL     1       3.959   0.622   2.283  1.00  0.00     0.005 C 
HETATM   26  C19 UNL     1       0.988   0.509   1.008  1.00  0.00     0.003 C 
HETATM   27  C20 UNL     1       0.320  -3.534   0.507  1.00  0.00     0.026 C 
HETATM   28  O8  UNL     1      -1.003   0.155  -2.380  1.00  0.00    -0.289 OA
ENDROOT
TORSDOF 0
