REMARK  0 active torsions:
REMARK  status: ('A' for Active; 'I' for Inactive)
ROOT
HETATM    1  C1  UNL     1      -2.064  -0.395  -2.081  1.00  0.00     0.000 C 
HETATM    2  C2  UNL     1      -2.746  -1.582  -1.401  1.00  0.00     0.000 C 
HETATM    3  C3  UNL     1      -1.718  -2.550  -0.764  1.00  0.00     0.003 C 
HETATM    4  C4  UNL     1      -0.405  -1.798  -0.323  1.00  0.00     0.040 C 
HETATM    5  C5  UNL     1      -0.600  -0.289   0.063  1.00  0.00     0.026 C 
HETATM    6  C6  UNL     1      -1.378   0.491  -1.035  1.00  0.00     0.002 C 
HETATM    7  C7  UNL     1       0.761   0.427   0.387  1.00  0.00     0.099 C 
HETATM    8  C8  UNL     1       1.823   0.271  -0.729  1.00  0.00     0.085 C 
HETATM    9  C9  UNL     1       2.021  -1.200  -1.003  1.00  0.00     0.183 C 
HETATM   10  C10 UNL     1       0.793  -2.043  -1.262  1.00  0.00     0.209 C 
HETATM   11  O1  UNL     1       1.254  -3.385  -1.175  1.00  0.00    -0.215 OA
HETATM   12  O2  UNL     1       3.107  -1.729  -1.074  1.00  0.00    -0.293 OA
HETATM   13  C11 UNL     1       1.664   1.019  -2.064  1.00  0.00     0.010 C 
HETATM   14  O3  UNL     1       0.535   1.792   0.586  1.00  0.00    -0.361 OA
HETATM   15  C12 UNL     1       1.371   2.303   1.583  1.00  0.00     0.125 C 
HETATM   16  C13 UNL     1       2.218   1.172   2.146  1.00  0.00     0.032 C 
HETATM   17  C14 UNL     1       1.408  -0.046   1.705  1.00  0.00     0.030 C 
HETATM   18  C15 UNL     1       2.148   3.491   1.042  1.00  0.00     0.172 C 
HETATM   19  O4  UNL     1       1.242   4.564   0.973  1.00  0.00    -0.326 OA
HETATM   20  C16 UNL     1       0.211   4.324   1.903  1.00  0.00     0.272 C 
HETATM   21  C17 UNL     1       0.526   3.033   2.627  1.00  0.00     0.094 C 
HETATM   22  O5  UNL     1      -0.900   4.142   1.041  1.00  0.00    -0.190 OA
HETATM   23  C18 UNL     1      -1.510  -0.209   1.329  1.00  0.00     0.002 C 
HETATM   24  C19 UNL     1      -2.379  -3.269   0.442  1.00  0.00     0.000 C 
HETATM   25  C20 UNL     1      -1.494  -3.695  -1.789  1.00  0.00     0.000 C 
ENDROOT
TORSDOF 0
