REMARK  0 active torsions:
REMARK  status: ('A' for Active; 'I' for Inactive)
ROOT
HETATM    1  C1  UNL     1      -2.058  -1.048  -1.873  1.00  0.00     0.000 C 
HETATM    2  C2  UNL     1      -2.723  -1.975  -0.845  1.00  0.00     0.000 C 
HETATM    3  C3  UNL     1      -1.685  -2.676   0.068  1.00  0.00     0.001 C 
HETATM    4  C4  UNL     1      -0.394  -1.813   0.159  1.00  0.00     0.009 C 
HETATM    5  C5  UNL     1      -0.555  -0.265   0.133  1.00  0.00     0.024 C 
HETATM    6  C6  UNL     1      -1.189   0.066  -1.253  1.00  0.00     0.002 C 
HETATM    7  C7  UNL     1       0.824   0.476   0.360  1.00  0.00     0.099 C 
HETATM    8  C8  UNL     1       2.031  -0.420  -0.027  1.00  0.00     0.083 C 
HETATM    9  C9  UNL     1       2.011  -1.733   0.752  1.00  0.00     0.152 C 
HETATM   10  C10 UNL     1       0.650  -2.249   1.193  1.00  0.00     0.065 C 
HETATM   11  O1  UNL     1       3.028  -2.341   1.001  1.00  0.00    -0.296 OA
HETATM   12  C11 UNL     1       2.293  -0.636  -1.530  1.00  0.00     0.010 C 
HETATM   13  O2  UNL     1       0.852   1.634  -0.426  1.00  0.00    -0.361 OA
HETATM   14  C12 UNL     1       1.415   2.716   0.250  1.00  0.00     0.125 C 
HETATM   15  C13 UNL     1       2.018   2.204   1.546  1.00  0.00     0.032 C 
HETATM   16  C14 UNL     1       1.115   0.994   1.790  1.00  0.00     0.030 C 
HETATM   17  C15 UNL     1       2.380   3.455  -0.660  1.00  0.00     0.172 C 
HETATM   18  O3  UNL     1       1.605   4.232  -1.540  1.00  0.00    -0.326 OA
HETATM   19  C16 UNL     1       0.360   4.474  -0.928  1.00  0.00     0.272 C 
HETATM   20  C17 UNL     1       0.359   3.806   0.431  1.00  0.00     0.094 C 
HETATM   21  O4  UNL     1      -0.522   3.817  -1.823  1.00  0.00    -0.190 OA
HETATM   22  C18 UNL     1      -1.566   0.223   1.200  1.00  0.00     0.002 C 
HETATM   23  C19 UNL     1      -2.303  -3.004   1.443  1.00  0.00     0.000 C 
HETATM   24  C20 UNL     1      -1.348  -4.045  -0.587  1.00  0.00     0.000 C 
ENDROOT
TORSDOF 0
