REMARK  7 active torsions:
REMARK  status: ('A' for Active; 'I' for Inactive)
REMARK    1  A    between atoms: C3_3  and  C21_28 
REMARK    2  A    between atoms: C7_7  and  O4_17 
REMARK    3  A    between atoms: C8_8  and  O2_13 
REMARK    4  A    between atoms: C9_9  and  C11_11 
REMARK    5  A    between atoms: O2_13  and  C12_14 
REMARK    6  A    between atoms: O4_17  and  C14_18 
REMARK    7  A    between atoms: C14_18  and  C15_19 
ROOT
HETATM    1  C1  UNL     1      -1.253   3.401  -0.696  1.00  0.00     0.030 C 
HETATM    2  C2  UNL     1      -2.316   2.696  -1.558  1.00  0.00     0.029 C 
HETATM    3  C3  UNL     1      -2.106   1.210  -1.381  1.00  0.00    -0.013 C 
HETATM    4  C4  UNL     1      -1.239   0.588  -2.196  1.00  0.00    -0.002 C 
HETATM    5  C5  UNL     1      -0.632  -0.770  -1.988  1.00  0.00     0.153 C 
HETATM    6  C6  UNL     1       0.882  -0.606  -1.730  1.00  0.00     0.090 C 
HETATM    7  C7  UNL     1       1.312  -0.214  -0.307  1.00  0.00     0.163 C 
HETATM    8  C8  UNL     1       0.949   1.214   0.181  1.00  0.00     0.177 C 
HETATM    9  C9  UNL     1       1.108   2.322  -0.861  1.00  0.00     0.046 C 
HETATM   10  C10 UNL     1       0.159   3.223  -1.215  1.00  0.00    -0.024 C 
HETATM   11  C18 UNL     1       1.375  -1.931  -2.254  1.00  0.00     0.046 C 
HETATM   12  C19 UNL     1       0.323  -2.371  -3.191  1.00  0.00     0.292 C 
HETATM   13  O6  UNL     1      -0.815  -1.634  -3.095  1.00  0.00    -0.296 OA
HETATM   14  O7  UNL     1       0.464  -3.284  -3.999  1.00  0.00    -0.259 OA
HETATM   15  C20 UNL     1       2.514  -2.598  -2.006  1.00  0.00     0.001 C 
ENDROOT
BRANCH   7  16
HETATM   16  O4  UNL     1       0.777  -1.154   0.586  1.00  0.00    -0.301 OA
BRANCH  16  17
HETATM   17  C14 UNL     1       1.596  -1.847   1.424  1.00  0.00     0.271 C 
HETATM   18  O5  UNL     1       2.795  -1.703   1.505  1.00  0.00    -0.264 OA
BRANCH  17  19
HETATM   19  C15 UNL     1       0.790  -2.874   2.211  1.00  0.00     0.086 C 
HETATM   20  C16 UNL     1       1.702  -3.868   2.949  1.00  0.00     0.010 C 
HETATM   21  C17 UNL     1      -0.168  -2.183   3.195  1.00  0.00     0.010 C 
ENDBRANCH  17  19
ENDBRANCH  16  17
ENDBRANCH   7  16
BRANCH   8  22
HETATM   22  O2  UNL     1       1.799   1.481   1.281  1.00  0.00    -0.297 OA
BRANCH  22  23
HETATM   23  C12 UNL     1       1.428   1.949   2.505  1.00  0.00     0.273 C 
HETATM   24  O3  UNL     1       2.236   2.132   3.392  1.00  0.00    -0.264 OA
HETATM   25  C13 UNL     1      -0.037   2.260   2.732  1.00  0.00     0.106 C 
ENDBRANCH  22  23
ENDBRANCH   8  22
BRANCH   9  26
HETATM   26  C11 UNL     1       2.428   2.460  -1.541  1.00  0.00     0.232 C 
HETATM   27  O1  UNL     1       3.366   1.706  -1.333  1.00  0.00    -0.283 OA
ENDBRANCH   9  26
BRANCH   3  28
HETATM   28  C21 UNL     1      -2.786   0.589  -0.182  1.00  0.00     0.204 C 
HETATM   29  O8  UNL     1      -4.084   0.141  -0.549  1.00  0.00    -0.216 OA
ENDBRANCH   3  28
TORSDOF 7
