REMARK  8 active torsions:
REMARK  status: ('A' for Active; 'I' for Inactive)
REMARK    1  A    between atoms: C1_1  and  C20_24 
REMARK    2  A    between atoms: C7_7  and  C9_11 
REMARK    3  A    between atoms: C9_11  and  C10_12 
REMARK    4  A    between atoms: C12_15  and  C15_18 
REMARK    5  A    between atoms: C15_18  and  O4_21 
REMARK    6  A    between atoms: C21_25  and  C22_26 
REMARK    7  A    between atoms: C22_26  and  C23_27 
REMARK    8  A    between atoms: C23_27  and  C24_28 
ROOT
HETATM    1  C1  UNL     1       0.434  -0.526   0.650  1.00  0.00     0.042 C 
HETATM    2  C2  UNL     1       0.626  -2.070   0.812  1.00  0.00     0.008 C 
HETATM    3  C3  UNL     1       2.089  -2.405   1.189  1.00  0.00     0.005 C 
HETATM    4  C4  UNL     1       3.046  -1.847   0.117  1.00  0.00     0.029 C 
HETATM    5  C5  UNL     1       2.898  -0.364   0.279  1.00  0.00     0.035 A 
HETATM    6  C6  UNL     1       1.731   0.229   0.543  1.00  0.00    -0.012 A 
HETATM    7  C7  UNL     1       1.938   1.719   0.677  1.00  0.00     0.150 A 
HETATM    8  O1  UNL     1       3.340   1.868   0.520  1.00  0.00    -0.297 OA
HETATM    9  C8  UNL     1       3.832   0.614   0.294  1.00  0.00     0.291 A 
HETATM   10  O2  UNL     1       5.018   0.403   0.159  1.00  0.00    -0.260 OA
HETATM   11  C12 UNL     1       2.771  -2.472  -1.281  1.00  0.00     0.029 C 
HETATM   12  C13 UNL     1       1.516  -3.378  -1.251  1.00  0.00     0.003 C 
HETATM   13  C14 UNL     1       0.294  -2.812  -0.511  1.00  0.00     0.001 C 
HETATM   14  C19 UNL     1      -0.270  -2.648   1.934  1.00  0.00     0.001 C 
ENDROOT
BRANCH   1  15
HETATM   15  C20 UNL     1      -0.495   0.099   1.661  1.00  0.00    -0.026 C 
HETATM   16  C21 UNL     1      -1.825   0.137   1.478  1.00  0.00    -0.022 C 
BRANCH  16  17
HETATM   17  C22 UNL     1      -2.809   0.763   2.432  1.00  0.00     0.095 C 
BRANCH  17  18
HETATM   18  C23 UNL     1      -3.892   1.573   1.715  1.00  0.00     0.177 C 
HETATM   19  O5  UNL     1      -3.901   1.619   0.507  1.00  0.00    -0.291 OA
BRANCH  18  20
HETATM   20  C24 UNL     1      -4.809   2.177   2.516  1.00  0.00     0.029 C 
HETATM   21  C25 UNL     1      -5.866   2.926   2.146  1.00  0.00    -0.041 C 
HETATM   22  C26 UNL     1      -6.795   3.501   3.194  1.00  0.00     0.026 C 
HETATM   23  C27 UNL     1      -6.285   3.281   0.737  1.00  0.00     0.026 C 
ENDBRANCH  18  20
ENDBRANCH  17  18
ENDBRANCH  16  17
ENDBRANCH   1  15
BRANCH   7  24
HETATM   24  C9  UNL     1       1.223   2.562  -0.380  1.00  0.00     0.099 C 
BRANCH  24  25
HETATM   25  C10 UNL     1      -0.258   2.790  -0.115  1.00  0.00     0.154 C 
HETATM   26  C11 UNL     1      -1.189   2.720  -1.309  1.00  0.00     0.072 C 
HETATM   27  O3  UNL     1      -0.660   3.041   0.998  1.00  0.00    -0.296 OA
ENDBRANCH  24  25
ENDBRANCH   7  24
BRANCH  11  28
HETATM   28  C15 UNL     1       2.914  -1.611  -2.567  1.00  0.00     0.093 C 
HETATM   29  C16 UNL     1       1.662  -0.764  -2.844  1.00  0.00     0.030 C 
HETATM   30  C17 UNL     1       3.115  -2.483  -3.825  1.00  0.00     0.030 C 
BRANCH  28  31
HETATM   31  O4  UNL     1       3.959  -0.685  -2.457  1.00  0.00    -0.356 OA
HETATM   32  C18 UNL     1       5.269  -1.211  -2.459  1.00  0.00     0.174 C 
ENDBRANCH  28  31
ENDBRANCH  11  28
TORSDOF 8
