REMARK  2 active torsions:
REMARK  status: ('A' for Active; 'I' for Inactive)
REMARK    1  A    between atoms: C1_1  and  O3_17 
REMARK    2  A    between atoms: C11_12  and  C13_14 
ROOT
HETATM    1  C1  UNL     1      -2.354  -2.213  -0.297  1.00  0.00     0.094 A 
HETATM    2  C2  UNL     1      -3.417  -1.526   0.355  1.00  0.00     0.026 A 
HETATM    3  C3  UNL     1      -3.299  -0.256   0.895  1.00  0.00     0.021 A 
HETATM    4  C4  UNL     1      -2.051   0.383   0.781  1.00  0.00     0.082 A 
HETATM    5  C5  UNL     1      -0.983  -0.264   0.150  1.00  0.00     0.021 A 
HETATM    6  C6  UNL     1      -1.128  -1.558  -0.388  1.00  0.00     0.026 A 
HETATM    7  C7  UNL     1       0.136   0.643   0.190  1.00  0.00     0.019 A 
HETATM    8  C8  UNL     1      -0.294   1.808   0.835  1.00  0.00     0.083 A 
HETATM    9  N1  UNL     1      -1.623   1.641   1.198  1.00  0.00    -0.245 NA
HETATM   10  C9  UNL     1       0.582   2.900   1.017  1.00  0.00     0.047 A 
HETATM   11  C10 UNL     1       1.882   2.825   0.542  1.00  0.00     0.136 A 
HETATM   12  C11 UNL     1       2.316   1.621  -0.098  1.00  0.00     0.068 A 
HETATM   13  C12 UNL     1       1.457   0.537  -0.281  1.00  0.00     0.007 A 
HETATM   14  O2  UNL     1       2.716   3.882   0.741  1.00  0.00    -0.190 OA
ENDROOT
BRANCH   1  15
HETATM   15  O3  UNL     1      -2.610  -3.467  -0.797  1.00  0.00    -0.328 OA
HETATM   16  C14 UNL     1      -1.573  -4.151  -1.462  1.00  0.00     0.181 C 
ENDBRANCH   1  15
BRANCH  12  17
HETATM   17  C13 UNL     1       3.699   1.500  -0.614  1.00  0.00     0.236 C 
HETATM   18  O1  UNL     1       4.150   0.477  -1.114  1.00  0.00    -0.283 OA
ENDBRANCH  12  17
TORSDOF 2
