REMARK  13 active torsions:
REMARK  status: ('A' for Active; 'I' for Inactive)
REMARK    1  A    between atoms: C3_3  and  O4_12 
REMARK    2  A    between atoms: C5_6  and  C6_7 
REMARK    3  A    between atoms: C6_7  and  O2_8 
REMARK    4  A    between atoms: O2_8  and  C7_9 
REMARK    5  A    between atoms: O4_12  and  C9_13 
REMARK    6  A    between atoms: C9_13  and  C10_14 
REMARK    7  A    between atoms: C10_14  and  C11_15 
REMARK    8  A    between atoms: C11_15  and  O5_17 
REMARK    9  A    between atoms: O5_17  and  C13_18 
REMARK   10  A    between atoms: C17_24  and  O8_26 
REMARK   11  A    between atoms: O8_26  and  C19_27 
REMARK   12  A    between atoms: C19_27  and  C20_29 
REMARK   13  A    between atoms: C20_29  and  C21_30 
ROOT
HETATM    1  C1  UNL     1       0.902   1.150   1.512  1.00  0.00    -0.017 C 
HETATM    2  C2  UNL     1       0.621  -0.320   1.490  1.00  0.00     0.109 C 
HETATM    3  C3  UNL     1       1.703  -0.963   0.609  1.00  0.00     0.253 C 
HETATM    4  O1  UNL     1       3.018  -0.623   1.088  1.00  0.00    -0.303 OA
HETATM    5  C4  UNL     1       3.270   0.666   1.410  1.00  0.00     0.117 C 
HETATM    6  C5  UNL     1       2.301   1.586   1.607  1.00  0.00     0.028 C 
HETATM    7  C16 UNL     1      -0.867  -0.336   1.135  1.00  0.00     0.158 A 
HETATM    8  C17 UNL     1      -1.445   1.082   1.203  1.00  0.00     0.173 C 
HETATM    9  C18 UNL     1      -0.199   1.912   1.402  1.00  0.00     0.002 C 
HETATM   10  O10 UNL     1      -1.100  -0.910  -0.117  1.00  0.00    -0.351 OA
HETATM   11  C24 UNL     1      -1.715  -1.633   0.900  1.00  0.00     0.173 A 
ENDROOT
BRANCH   3  12
HETATM   12  O4  UNL     1       1.551  -2.375   0.611  1.00  0.00    -0.275 OA
BRANCH  12  13
HETATM   13  C9  UNL     1       2.383  -2.973  -0.236  1.00  0.00     0.276 C 
HETATM   14  O7  UNL     1       3.193  -2.385  -0.914  1.00  0.00    -0.264 OA
BRANCH  13  15
HETATM   15  C10 UNL     1       2.254  -4.471  -0.311  1.00  0.00     0.124 C 
BRANCH  15  16
HETATM   16  C11 UNL     1       1.402  -4.928  -1.496  1.00  0.00     0.111 C 
HETATM   17  C12 UNL     1       1.318  -6.449  -1.611  1.00  0.00     0.031 C 
HETATM   18  C15 UNL     1       0.029  -4.256  -1.529  1.00  0.00     0.031 C 
BRANCH  16  19
HETATM   19  O5  UNL     1       2.205  -4.416  -2.551  1.00  0.00    -0.306 OA
BRANCH  19  20
HETATM   20  C13 UNL     1       1.668  -4.635  -3.746  1.00  0.00     0.272 C 
HETATM   21  O6  UNL     1       0.721  -5.361  -3.938  1.00  0.00    -0.264 OA
HETATM   22  C14 UNL     1       2.324  -3.904  -4.887  1.00  0.00     0.106 C 
ENDBRANCH  19  20
ENDBRANCH  16  19
ENDBRANCH  15  16
ENDBRANCH  13  15
ENDBRANCH  12  13
ENDBRANCH   3  12
BRANCH   6  23
HETATM   23  C6  UNL     1       2.647   3.020   1.920  1.00  0.00     0.180 C 
BRANCH  23  24
HETATM   24  O2  UNL     1       2.848   3.733   0.709  1.00  0.00    -0.297 OA
BRANCH  24  25
HETATM   25  C7  UNL     1       3.162   5.008   0.918  1.00  0.00     0.273 C 
HETATM   26  O3  UNL     1       3.252   5.508   2.016  1.00  0.00    -0.264 OA
HETATM   27  C8  UNL     1       3.406   5.820  -0.326  1.00  0.00     0.106 C 
ENDBRANCH  24  25
ENDBRANCH  23  24
ENDBRANCH   6  23
BRANCH   8  28
HETATM   28  O8  UNL     1      -2.301   1.205   2.330  1.00  0.00    -0.297 OA
BRANCH  28  29
HETATM   29  C19 UNL     1      -2.930   2.377   2.361  1.00  0.00     0.272 C 
HETATM   30  O9  UNL     1      -2.408   3.412   2.703  1.00  0.00    -0.264 OA
BRANCH  29  31
HETATM   31  C20 UNL     1      -4.373   2.340   1.936  1.00  0.00     0.096 C 
BRANCH  31  32
HETATM   32  C21 UNL     1      -4.770   3.563   1.109  1.00  0.00     0.010 C 
HETATM   33  C22 UNL     1      -3.984   3.670  -0.199  1.00  0.00     0.001 C 
HETATM   34  C23 UNL     1      -6.279   3.672   0.900  1.00  0.00     0.001 C 
ENDBRANCH  31  32
ENDBRANCH  29  31
ENDBRANCH  28  29
ENDBRANCH   8  28
TORSDOF 13
