REMARK  2 active torsions:
REMARK  status: ('A' for Active; 'I' for Inactive)
REMARK    1  A    between atoms: C4_4  and  C19_22 
REMARK    2  A    between atoms: C7_7  and  C12_13 
ROOT
HETATM    1  C1  UNL     1      -3.569  -0.526   0.721  1.00  0.00     0.003 C 
HETATM    2  C2  UNL     1      -3.506  -1.189  -0.663  1.00  0.00     0.030 C 
HETATM    3  C3  UNL     1      -2.449  -2.282  -0.666  1.00  0.00     0.125 A 
HETATM    4  C4  UNL     1      -1.000  -1.928  -0.183  1.00  0.00     0.084 C 
HETATM    5  C5  UNL     1      -1.040  -0.417   0.275  1.00  0.00     0.009 C 
HETATM    6  C6  UNL     1      -2.172  -0.247   1.313  1.00  0.00     0.000 C 
HETATM    7  C7  UNL     1       0.280   0.399   0.525  1.00  0.00     0.025 C 
HETATM    8  C8  UNL     1       1.397  -0.073  -0.472  1.00  0.00     0.005 C 
HETATM    9  C9  UNL     1       0.810  -0.806  -1.691  1.00  0.00     0.033 C 
HETATM   10  C10 UNL     1      -0.006  -2.054  -1.367  1.00  0.00     0.157 C 
HETATM   11  O1  UNL     1       0.882  -3.135  -1.201  1.00  0.00    -0.223 OA
HETATM   12  C11 UNL     1       2.668  -0.734   0.090  1.00  0.00     0.000 C 
HETATM   13  C18 UNL     1       0.713   0.328   2.007  1.00  0.00     0.002 C 
HETATM   14  C20 UNL     1      -2.689  -3.498  -1.397  1.00  0.00     0.169 A 
HETATM   15  O5  UNL     1      -3.109  -3.619  -0.060  1.00  0.00    -0.354 OA
ENDROOT
BRANCH   7  16
HETATM   16  C12 UNL     1       0.065   1.918   0.178  1.00  0.00     0.118 C 
HETATM   17  C13 UNL     1      -1.053   2.734   0.823  1.00  0.00     0.039 C 
HETATM   18  C14 UNL     1      -0.619   4.171   0.529  1.00  0.00     0.083 A 
HETATM   19  C15 UNL     1       0.896   4.034   0.325  1.00  0.00     0.244 A 
HETATM   20  C17 UNL     1      -1.036   4.679  -0.824  1.00  0.00     0.005 A 
HETATM   21  O2  UNL     1       1.216   2.671   0.466  1.00  0.00    -0.333 OA
HETATM   22  O3  UNL     1       1.197   4.522  -0.982  1.00  0.00    -0.304 OA
HETATM   23  C16 UNL     1       0.024   4.864  -1.619  1.00  0.00     0.115 A 
ENDBRANCH   7  16
BRANCH   4  24
HETATM   24  C19 UNL     1      -0.658  -2.936   0.946  1.00  0.00     0.187 C 
HETATM   25  O4  UNL     1       0.677  -2.858   1.375  1.00  0.00    -0.221 OA
ENDBRANCH   4  24
TORSDOF 2
