REMARK  3 active torsions:
REMARK  status: ('A' for Active; 'I' for Inactive)
REMARK    1  A    between atoms: C7_7  and  C9_11 
REMARK    2  A    between atoms: C9_11  and  C10_12 
REMARK    3  A    between atoms: C10_12  and  C11_13 
ROOT
HETATM    1  C1  UNL     1      -3.610  -0.768   0.495  1.00  0.00     0.025 C 
HETATM    2  C2  UNL     1      -3.615  -2.285   0.748  1.00  0.00     0.005 C 
HETATM    3  C3  UNL     1      -2.437  -2.968   0.035  1.00  0.00     0.014 C 
HETATM    4  C4  UNL     1      -1.138  -2.411   0.620  1.00  0.00     0.107 C 
HETATM    5  C5  UNL     1      -1.121  -0.917   0.561  1.00  0.00    -0.012 C 
HETATM    6  C6  UNL     1      -2.228  -0.165   0.521  1.00  0.00    -0.032 C 
HETATM    7  C7  UNL     1       0.321  -0.515   0.439  1.00  0.00     0.143 C 
HETATM    8  O1  UNL     1       0.930  -1.633  -0.175  1.00  0.00    -0.300 OA
HETATM    9  C8  UNL     1       0.141  -2.744  -0.121  1.00  0.00     0.276 C 
HETATM   10  O2  UNL     1       0.419  -3.816  -0.610  1.00  0.00    -0.264 OA
ENDROOT
BRANCH   7  11
HETATM   11  C9  UNL     1       0.599   0.736  -0.397  1.00  0.00     0.035 C 
BRANCH  11  12
HETATM   12  C10 UNL     1       0.557   2.043   0.413  1.00  0.00     0.003 C 
BRANCH  12  13
HETATM   13  C11 UNL     1       0.746   3.297  -0.459  1.00  0.00     0.000 C 
HETATM   14  C12 UNL     1      -0.479   3.623  -1.324  1.00  0.00     0.000 C 
ENDBRANCH  12  13
ENDBRANCH  11  12
ENDBRANCH   7  11
TORSDOF 3
