REMARK  5 active torsions:
REMARK  status: ('A' for Active; 'I' for Inactive)
REMARK    1  A    between atoms: C6_6  and  C7_7 
REMARK    2  A    between atoms: C7_7  and  O1_8 
REMARK    3  A    between atoms: O1_8  and  C8_9 
REMARK    4  A    between atoms: C9_10  and  C10_11 
REMARK    5  A    between atoms: C10_11  and  O2_12 
ROOT
HETATM    1  C8  UNL     1      -0.544   0.206  -0.148  1.00  0.00     0.138 C 
HETATM    2  C9  UNL     1      -1.380   0.085  -1.435  1.00  0.00     0.145 C 
HETATM    3  C12 UNL     1      -2.402   1.246  -1.526  1.00  0.00     0.231 C 
HETATM    4  N1  UNL     1      -1.697   2.520  -1.521  1.00  0.00     0.136 N 
HETATM    5  C13 UNL     1      -1.285   2.640  -0.130  1.00  0.00     0.222 C 
HETATM    6  C14 UNL     1      -2.540   2.254   0.677  1.00  0.00     0.035 C 
HETATM    7  C15 UNL     1      -3.303   1.310  -0.274  1.00  0.00     0.036 C 
HETATM    8  C16 UNL     1      -0.121   1.656   0.108  1.00  0.00     0.064 C 
HETATM    9  C17 UNL     1      -2.518   3.631  -1.971  1.00  0.00     0.285 C 
ENDROOT
BRANCH   1  10
HETATM   10  O1  UNL     1       0.580  -0.625  -0.212  1.00  0.00    -0.300 OA
BRANCH  10  11
HETATM   11  C7  UNL     1       0.821  -1.562   0.755  1.00  0.00     0.296 C 
HETATM   12  O4  UNL     1       1.898  -2.153   0.749  1.00  0.00    -0.259 OA
BRANCH  11  13
HETATM   13  C6  UNL     1      -0.128  -1.982   1.844  1.00  0.00     0.063 A 
HETATM   14  C1  UNL     1      -1.440  -2.368   1.542  1.00  0.00     0.005 A 
HETATM   15  C2  UNL     1      -2.309  -2.747   2.566  1.00  0.00     0.000 A 
HETATM   16  C3  UNL     1      -1.868  -2.753   3.892  1.00  0.00     0.000 A 
HETATM   17  C4  UNL     1      -0.553  -2.393   4.191  1.00  0.00     0.000 A 
HETATM   18  C5  UNL     1       0.321  -2.017   3.168  1.00  0.00     0.005 A 
ENDBRANCH  11  13
ENDBRANCH  10  11
ENDBRANCH   1  10
BRANCH   2  19
HETATM   19  C10 UNL     1      -0.500   0.034  -2.693  1.00  0.00     0.276 C 
HETATM   20  O3  UNL     1       0.252   0.947  -2.966  1.00  0.00    -0.264 OA
BRANCH  19  21
HETATM   21  O2  UNL     1      -0.599  -1.055  -3.510  1.00  0.00    -0.299 OA
HETATM   22  C11 UNL     1      -1.383  -2.180  -3.197  1.00  0.00     0.184 C 
ENDBRANCH  19  21
ENDBRANCH   2  19
TORSDOF 5
