REMARK  2 active torsions:
REMARK  status: ('A' for Active; 'I' for Inactive)
REMARK    1  A    between atoms: C2_2  and  O2_20 
REMARK    2  A    between atoms: C15_16  and  O1_18 
ROOT
HETATM    1  C1  UNL     1      -1.237  -0.757   0.388  1.00  0.00     0.041 C 
HETATM    2  C2  UNL     1      -1.409  -1.639   1.634  1.00  0.00     0.137 C 
HETATM    3  C3  UNL     1      -0.075  -2.320   1.824  1.00  0.00    -0.004 C 
HETATM    4  C4  UNL     1       1.030  -1.582   1.684  1.00  0.00    -0.013 C 
HETATM    5  C5  UNL     1       0.993  -0.098   1.462  1.00  0.00     0.241 C 
HETATM    6  C6  UNL     1      -0.190   0.368   0.578  1.00  0.00     0.060 C 
HETATM    7  C7  UNL     1       0.244   1.095  -0.694  1.00  0.00    -0.022 A 
HETATM    8  C8  UNL     1       1.140   2.175  -0.618  1.00  0.00    -0.024 A 
HETATM    9  C9  UNL     1       1.693   2.624   0.714  1.00  0.00     0.061 C 
HETATM   10  C10 UNL     1       2.729   1.614   1.224  1.00  0.00     0.255 C 
HETATM   11  N1  UNL     1       2.328   0.234   1.002  1.00  0.00     0.140 N 
HETATM   12  C11 UNL     1       3.207  -0.715   1.678  1.00  0.00     0.255 C 
HETATM   13  C12 UNL     1       2.454  -2.058   1.663  1.00  0.00     0.059 C 
HETATM   14  C13 UNL     1       1.511   2.852  -1.784  1.00  0.00    -0.003 A 
HETATM   15  C14 UNL     1       1.020   2.460  -3.028  1.00  0.00     0.024 A 
HETATM   16  C15 UNL     1       0.187   1.345  -3.154  1.00  0.00     0.094 A 
HETATM   17  C16 UNL     1      -0.244   0.749  -1.962  1.00  0.00     0.020 A 
ENDROOT
BRANCH   2  18
HETATM   18  O2  UNL     1      -2.423  -2.602   1.437  1.00  0.00    -0.350 OA
HETATM   19  C18 UNL     1      -3.704  -2.139   1.809  1.00  0.00     0.175 C 
ENDBRANCH   2  18
BRANCH  16  20
HETATM   20  O1  UNL     1      -0.364   1.007  -4.362  1.00  0.00    -0.328 OA
HETATM   21  C17 UNL     1       0.250  -0.111  -4.963  1.00  0.00     0.181 C 
ENDBRANCH  16  20
TORSDOF 2
