REMARK  8 active torsions:
REMARK  status: ('A' for Active; 'I' for Inactive)
REMARK    1  A    between atoms: C3_3  and  C31_38 
REMARK    2  A    between atoms: C6_6  and  O1_7 
REMARK    3  A    between atoms: C10_11  and  O2_19 
REMARK    4  A    between atoms: N1_15  and  C14_16 
REMARK    5  A    between atoms: O2_19  and  C17_20 
REMARK    6  A    between atoms: C19_23  and  O4_28 
REMARK    7  A    between atoms: O4_28  and  C24_29 
REMARK    8  A    between atoms: C24_29  and  C25_30 
ROOT
HETATM    1  C1  UNL     1       0.950   0.246  -1.522  1.00  0.00     0.062 C 
HETATM    2  C2  UNL     1       0.422   1.536  -0.826  1.00  0.00     0.156 C 
HETATM    3  C3  UNL     1       0.310   1.118   0.583  1.00  0.00     0.049 C 
HETATM    4  C4  UNL     1      -1.040  -0.111   0.378  1.00  0.00     0.011 C 
HETATM    5  C5  UNL     1      -0.960  -1.226  -0.839  1.00  0.00     0.070 A 
HETATM    6  C6  UNL     1       0.582  -1.254  -0.733  1.00  0.00     0.116 A 
HETATM    7  C8  UNL     1      -2.710  -2.239  -0.835  1.00  0.00     0.135 C 
HETATM    8  C9  UNL     1      -3.187  -2.991   0.610  1.00  0.00     0.077 C 
HETATM    9  C10 UNL     1      -1.881  -3.759   1.234  1.00  0.00     0.131 C 
HETATM   10  C11 UNL     1      -0.694  -2.795   1.170  1.00  0.00     0.049 C 
HETATM   11  C12 UNL     1      -1.190  -1.127   1.763  1.00  0.00     0.005 C 
HETATM   12  C13 UNL     1       0.130  -2.270  -0.150  1.00  0.00     0.090 A 
HETATM   13  N1  UNL     1       2.422  -1.011   0.357  1.00  0.00    -0.369 N 
HETATM   14  C16 UNL     1       2.005   0.620   1.158  1.00  0.00     0.099 C 
HETATM   15  C19 UNL     1      -4.527  -3.678   0.364  1.00  0.00     0.129 C 
HETATM   16  C20 UNL     1      -5.177  -2.272  -0.111  1.00  0.00     0.030 C 
HETATM   17  C21 UNL     1      -4.129  -1.590  -1.200  1.00  0.00     0.033 C 
HETATM   18  C22 UNL     1      -5.097  -1.514   1.167  1.00  0.00     0.003 C 
HETATM   19  C23 UNL     1      -3.900  -2.062   1.737  1.00  0.00     0.007 C 
HETATM   20  O6  UNL     1      -2.544  -3.231  -1.862  1.00  0.00    -0.226 OA
HETATM   21  O7  UNL     1       1.415   2.584  -0.947  1.00  0.00    -0.223 OA
ENDROOT
BRANCH  15  22
HETATM   22  O4  UNL     1      -4.715  -4.762  -0.514  1.00  0.00    -0.301 OA
BRANCH  22  23
HETATM   23  C24 UNL     1      -6.126  -5.063  -0.115  1.00  0.00     0.296 C 
HETATM   24  O5  UNL     1      -6.745  -4.333   0.674  1.00  0.00    -0.259 OA
BRANCH  23  25
HETATM   25  C25 UNL     1      -6.879  -6.212  -0.415  1.00  0.00     0.063 A 
HETATM   26  C26 UNL     1      -8.125  -6.183   0.057  1.00  0.00     0.005 A 
HETATM   27  C27 UNL     1      -9.000  -7.309  -0.080  1.00  0.00     0.000 A 
HETATM   28  C28 UNL     1      -8.538  -8.413  -0.654  1.00  0.00     0.000 A 
HETATM   29  C29 UNL     1      -7.150  -8.459  -1.161  1.00  0.00     0.000 A 
HETATM   30  C30 UNL     1      -6.354  -7.393  -1.056  1.00  0.00     0.005 A 
ENDBRANCH  23  25
ENDBRANCH  22  23
ENDBRANCH  15  22
BRANCH   9  31
HETATM   31  O2  UNL     1      -1.205  -4.807   0.391  1.00  0.00    -0.304 OA
BRANCH  31  32
HETATM   32  C17 UNL     1      -1.587  -6.139   0.361  1.00  0.00     0.272 C 
HETATM   33  O3  UNL     1      -0.983  -6.903  -0.408  1.00  0.00    -0.264 OA
HETATM   34  C18 UNL     1      -2.578  -6.696   1.317  1.00  0.00     0.106 C 
ENDBRANCH  31  32
ENDBRANCH   9  31
BRANCH   6  35
HETATM   35  O1  UNL     1       1.788  -2.415  -1.505  1.00  0.00    -0.354 OA
HETATM   36  C7  UNL     1       2.589  -3.792  -0.824  1.00  0.00     0.174 C 
ENDBRANCH   6  35
BRANCH   3  37
HETATM   37  C31 UNL     1      -0.175   2.211   1.592  1.00  0.00     0.004 C 
HETATM   38  C32 UNL     1      -1.546   2.838   1.192  1.00  0.00     0.000 C 
ENDBRANCH   3  37
BRANCH  13  39
HETATM   39  C14 UNL     1       3.758  -0.672  -0.522  1.00  0.00     0.097 C 
HETATM   40  C15 UNL     1       4.766   0.096   0.370  1.00  0.00     0.026 C 
ENDBRANCH  13  39
TORSDOF 8
