REMARK WARNING: 32 MAX_TORS EXCEEDED!!!
REMARK  33 active torsions:
REMARK  status: ('A' for Active; 'I' for Inactive)
REMARK    1  A    between atoms: C1_1  and  C2_2 
REMARK    2  A    between atoms: C1_1  and  C35_39 
REMARK    3  A    between atoms: C2_2  and  C3_3 
REMARK    4  A    between atoms: C4_4  and  C5_5 
REMARK    5  A    between atoms: C5_5  and  C6_6 
REMARK    6  A    between atoms: C6_6  and  C7_7 
REMARK    7  A    between atoms: C7_7  and  C8_8 
REMARK    8  A    between atoms: C8_8  and  C9_9 
REMARK    9  A    between atoms: C9_9  and  C10_10 
REMARK   10  A    between atoms: C10_10  and  C11_11 
REMARK   11  A    between atoms: C11_11  and  C12_12 
REMARK   12  A    between atoms: C12_12  and  C13_13 
REMARK   13  A    between atoms: C13_13  and  C14_14 
REMARK   14  A    between atoms: C14_14  and  O1_15 
REMARK   15  A    between atoms: O1_15  and  C15_16 
REMARK   16  A    between atoms: C15_16  and  C16_17 
REMARK   17  A    between atoms: C16_17  and  O2_19 
REMARK   18  A    between atoms: O2_19  and  C18_20 
REMARK   19  A    between atoms: C18_20  and  C19_21 
REMARK   20  A    between atoms: C19_21  and  C20_22 
REMARK   21  A    between atoms: C20_22  and  C21_23 
REMARK   22  A    between atoms: C21_23  and  C22_24 
REMARK   23  A    between atoms: C22_24  and  C23_25 
REMARK   24  A    between atoms: C23_25  and  C24_26 
REMARK   25  A    between atoms: C24_26  and  C25_27 
REMARK   26  A    between atoms: C25_27  and  C26_28 
REMARK   27  A    between atoms: C27_29  and  C28_30 
REMARK   28  A    between atoms: C28_30  and  C29_31 
REMARK   29  A    between atoms: C29_31  and  C30_32 
REMARK   30  A    between atoms: C30_32  and  C31_33 
REMARK   31  A    between atoms: C31_33  and  C32_34 
REMARK   32  A    between atoms: C35_39  and  C36_40 
REMARK   33  A    between atoms: C36_40  and  C37_41 
ROOT
HETATM    1  C15 UNL     1       4.024  -5.551  -0.302  1.00  0.00     0.152 C 
HETATM    2  C34 UNL     1       3.198  -6.824  -0.514  1.00  0.00     0.035 C 
ENDROOT
BRANCH   1   3
HETATM    3  O1  UNL     1       3.810  -4.700  -1.397  1.00  0.00    -0.302 OA
BRANCH   3   4
HETATM    4  C14 UNL     1       4.884  -4.123  -2.001  1.00  0.00     0.272 C 
HETATM    5  O4  UNL     1       6.042  -4.342  -1.725  1.00  0.00    -0.264 OA
BRANCH   4   6
HETATM    6  C13 UNL     1       4.427  -3.128  -3.054  1.00  0.00     0.096 C 
BRANCH   6   7
HETATM    7  C12 UNL     1       4.260  -1.708  -2.487  1.00  0.00     0.010 C 
BRANCH   7   8
HETATM    8  C11 UNL     1       5.536  -1.103  -1.876  1.00  0.00     0.001 C 
BRANCH   8   9
HETATM    9  C10 UNL     1       6.765  -1.064  -2.802  1.00  0.00     0.000 C 
BRANCH   9  10
HETATM   10  C9  UNL     1       6.583  -0.419  -4.190  1.00  0.00     0.000 C 
BRANCH  10  11
HETATM   11  C8  UNL     1       6.731   1.114  -4.259  1.00  0.00     0.000 C 
BRANCH  11  12
HETATM   12  C7  UNL     1       5.441   1.922  -4.506  1.00  0.00     0.000 C 
BRANCH  12  13
HETATM   13  C6  UNL     1       4.667   2.384  -3.260  1.00  0.00     0.005 C 
BRANCH  13  14
HETATM   14  C5  UNL     1       5.231   3.645  -2.580  1.00  0.00     0.026 C 
BRANCH  14  15
HETATM   15  C4  UNL     1       6.629   3.458  -2.050  1.00  0.00    -0.031 C 
HETATM   16  C3  UNL     1       7.703   4.095  -2.542  1.00  0.00    -0.031 C 
BRANCH  16  17
HETATM   17  C2  UNL     1       9.117   3.870  -2.065  1.00  0.00     0.026 C 
BRANCH  17  18
HETATM   18  C1  UNL     1      10.015   3.392  -3.217  1.00  0.00     0.005 C 
BRANCH  18  19
HETATM   19  C35 UNL     1      11.468   3.167  -2.767  1.00  0.00     0.000 C 
BRANCH  19  20
HETATM   20  C36 UNL     1      12.369   2.724  -3.932  1.00  0.00     0.000 C 
BRANCH  20  21
HETATM   21  C37 UNL     1      13.823   2.503  -3.486  1.00  0.00     0.000 C 
HETATM   22  C38 UNL     1      14.723   2.080  -4.655  1.00  0.00     0.000 C 
ENDBRANCH  20  21
ENDBRANCH  19  20
ENDBRANCH  18  19
ENDBRANCH  17  18
ENDBRANCH  16  17
ENDBRANCH  14  15
ENDBRANCH  13  14
ENDBRANCH  12  13
ENDBRANCH  11  12
ENDBRANCH  10  11
ENDBRANCH   9  10
ENDBRANCH   8   9
ENDBRANCH   7   8
ENDBRANCH   6   7
ENDBRANCH   4   6
ENDBRANCH   3   4
ENDBRANCH   1   3
BRANCH   1  23
HETATM   23  C16 UNL     1       3.669  -4.786   0.979  1.00  0.00     0.152 C 
HETATM   24  C17 UNL     1       4.059  -5.542   2.251  1.00  0.00     0.035 C 
BRANCH  23  25
HETATM   25  O2  UNL     1       2.290  -4.541   1.000  1.00  0.00    -0.302 OA
BRANCH  25  26
HETATM   26  C18 UNL     1       1.827  -3.263   1.017  1.00  0.00     0.272 C 
HETATM   27  O3  UNL     1       2.510  -2.266   1.070  1.00  0.00    -0.264 OA
BRANCH  26  28
HETATM   28  C19 UNL     1       0.310  -3.265   0.899  1.00  0.00     0.096 C 
BRANCH  28  29
HETATM   29  C20 UNL     1      -0.399  -3.884   2.118  1.00  0.00     0.010 C 
BRANCH  29  30
HETATM   30  C21 UNL     1      -0.166  -3.094   3.417  1.00  0.00     0.001 C 
BRANCH  30  31
HETATM   31  C22 UNL     1      -1.029  -1.823   3.506  1.00  0.00     0.000 C 
BRANCH  31  32
HETATM   32  C23 UNL     1      -0.510  -0.792   4.523  1.00  0.00     0.000 C 
BRANCH  32  33
HETATM   33  C24 UNL     1       0.827  -0.124   4.148  1.00  0.00     0.005 C 
BRANCH  33  34
HETATM   34  C25 UNL     1       0.784   0.646   2.819  1.00  0.00     0.026 C 
BRANCH  34  35
HETATM   35  C26 UNL     1       2.108   1.309   2.521  1.00  0.00    -0.031 C 
HETATM   36  C27 UNL     1       2.382   2.622   2.589  1.00  0.00    -0.031 C 
BRANCH  36  37
HETATM   37  C28 UNL     1       1.420   3.707   3.004  1.00  0.00     0.026 C 
BRANCH  37  38
HETATM   38  C29 UNL     1       1.535   3.967   4.514  1.00  0.00     0.005 C 
BRANCH  38  39
HETATM   39  C30 UNL     1       0.405   4.850   5.069  1.00  0.00     0.000 C 
BRANCH  39  40
HETATM   40  C31 UNL     1      -0.925   4.090   5.219  1.00  0.00     0.000 C 
BRANCH  40  41
HETATM   41  C32 UNL     1      -2.031   4.971   5.819  1.00  0.00     0.000 C 
HETATM   42  C33 UNL     1      -3.342   4.193   5.998  1.00  0.00     0.000 C 
ENDBRANCH  40  41
ENDBRANCH  39  40
ENDBRANCH  38  39
ENDBRANCH  37  38
ENDBRANCH  36  37
ENDBRANCH  34  35
ENDBRANCH  33  34
ENDBRANCH  32  33
ENDBRANCH  31  32
ENDBRANCH  30  31
ENDBRANCH  29  30
ENDBRANCH  28  29
ENDBRANCH  26  28
ENDBRANCH  25  26
ENDBRANCH  23  25
ENDBRANCH   1  23
TORSDOF 33
