REMARK  5 active torsions:
REMARK  status: ('A' for Active; 'I' for Inactive)
REMARK    1  A    between atoms: O1_2  and  C2_3 
REMARK    2  A    between atoms: C3_4  and  O2_5 
REMARK    3  A    between atoms: C5_7  and  O5_26 
REMARK    4  A    between atoms: C11_13  and  N1_24 
REMARK    5  A    between atoms: C16_18  and  O4_22 
ROOT
HETATM    1  C2  UNL     1      -2.014  -1.479   0.164  1.00  0.00     0.118 C 
HETATM    2  C3  UNL     1      -1.747  -0.504  -0.824  1.00  0.00     0.138 C 
HETATM    3  C5  UNL     1      -0.532   0.226  -0.790  1.00  0.00     0.118 C 
HETATM    4  C6  UNL     1       0.348  -0.003   0.291  1.00  0.00     0.020 C 
HETATM    5  C7  UNL     1       0.037  -0.885   1.329  1.00  0.00    -0.018 C 
HETATM    6  C8  UNL     1      -1.155  -1.601   1.256  1.00  0.00     0.022 C 
HETATM    7  C9  UNL     1       0.960  -1.027   2.516  1.00  0.00     0.029 C 
HETATM    8  C10 UNL     1       2.254  -1.765   2.146  1.00  0.00     0.033 C 
HETATM    9  C11 UNL     1       2.803  -1.499   0.727  1.00  0.00     0.121 C 
HETATM   10  C12 UNL     1       2.895   0.003   0.446  1.00  0.00     0.003 C 
HETATM   11  C13 UNL     1       1.634   0.754   0.485  1.00  0.00    -0.000 C 
HETATM   12  C14 UNL     1       1.493   2.056   0.827  1.00  0.00     0.002 C 
HETATM   13  C15 UNL     1       2.520   3.064   1.018  1.00  0.00     0.028 C 
HETATM   14  C16 UNL     1       3.761   3.111   0.484  1.00  0.00     0.133 C 
HETATM   15  C17 UNL     1       4.285   1.996  -0.351  1.00  0.00     0.217 C 
HETATM   16  C18 UNL     1       4.047   0.583   0.036  1.00  0.00     0.042 C 
HETATM   17  O3  UNL     1       5.185   2.214  -1.160  1.00  0.00    -0.284 OA
ENDROOT
BRANCH   1  18
HETATM   18  O1  UNL     1      -3.216  -2.143   0.192  1.00  0.00    -0.326 OA
HETATM   19  C1  UNL     1      -3.262  -3.289  -0.628  1.00  0.00     0.181 C 
ENDBRANCH   1  18
BRANCH   2  20
HETATM   20  O2  UNL     1      -2.735  -0.397  -1.783  1.00  0.00    -0.324 OA
HETATM   21  C4  UNL     1      -2.633   0.459  -2.893  1.00  0.00     0.182 C 
ENDBRANCH   2  20
BRANCH   3  22
HETATM   22  O5  UNL     1      -0.259   1.067  -1.843  1.00  0.00    -0.326 OA
HETATM   23  C21 UNL     1       1.051   1.437  -2.196  1.00  0.00     0.181 C 
ENDBRANCH   3  22
BRANCH   9  24
HETATM   24  N1  UNL     1       4.096  -2.194   0.648  1.00  0.00    -0.291 NA
HETATM   25  C20 UNL     1       4.457  -2.681  -0.683  1.00  0.00     0.146 C 
ENDBRANCH   9  24
BRANCH  14  26
HETATM   26  O4  UNL     1       4.541   4.229   0.674  1.00  0.00    -0.325 OA
HETATM   27  C19 UNL     1       5.851   4.015   1.146  1.00  0.00     0.181 C 
ENDBRANCH  14  26
TORSDOF 5
