REMARK  2 active torsions:
REMARK  status: ('A' for Active; 'I' for Inactive)
REMARK    1  A    between atoms: C13_13  and  C21_22 
REMARK    2  A    between atoms: C26_29  and  C27_30 
ROOT
HETATM    1  C1  UNL     1      -1.682  -0.639  -0.274  1.00  0.00     0.018 C 
HETATM    2  C2  UNL     1      -1.557  -2.173  -0.464  1.00  0.00     0.007 C 
HETATM    3  C3  UNL     1      -1.011  -2.851   0.788  1.00  0.00     0.001 C 
HETATM    4  C4  UNL     1       0.442  -2.374   0.971  1.00  0.00     0.000 C 
HETATM    5  C5  UNL     1       0.703  -0.835   0.874  1.00  0.00     0.004 C 
HETATM    6  C6  UNL     1      -0.222  -0.118  -0.169  1.00  0.00     0.008 C 
HETATM    7  C7  UNL     1      -0.054   1.401  -0.029  1.00  0.00     0.026 C 
HETATM    8  C8  UNL     1       1.378   1.818   0.167  1.00  0.00    -0.031 C 
HETATM    9  C9  UNL     1       2.421   0.999   0.402  1.00  0.00    -0.032 C 
HETATM   10  C10 UNL     1       2.209  -0.518   0.470  1.00  0.00     0.018 C 
HETATM   11  C11 UNL     1       3.174  -1.149   1.507  1.00  0.00     0.005 C 
HETATM   12  C12 UNL     1       4.610  -0.614   1.471  1.00  0.00     0.014 C 
HETATM   13  C13 UNL     1       4.665   0.918   1.644  1.00  0.00     0.095 C 
HETATM   14  C14 UNL     1       3.809   1.619   0.556  1.00  0.00    -0.012 C 
HETATM   15  C15 UNL     1       4.582   1.994  -0.728  1.00  0.00     0.142 C 
HETATM   16  C16 UNL     1       5.750   2.958  -0.394  1.00  0.00     0.032 C 
HETATM   17  C17 UNL     1       6.243   2.831   1.064  1.00  0.00     0.004 C 
HETATM   18  C18 UNL     1       6.138   1.386   1.560  1.00  0.00     0.014 C 
HETATM   19  C19 UNL     1       6.939   2.849  -1.371  1.00  0.00     0.003 C 
HETATM   20  C20 UNL     1       3.690   2.630  -1.803  1.00  0.00     0.037 C 
HETATM   21  O1  UNL     1       5.103   0.832  -1.309  1.00  0.00    -0.222 OA
HETATM   22  C22 UNL     1       2.586  -1.067  -0.934  1.00  0.00     0.004 C 
HETATM   23  C23 UNL     1       0.418  -0.273   2.299  1.00  0.00     0.000 C 
HETATM   24  C24 UNL     1      -2.813  -2.699  -1.189  1.00  0.00     0.018 C 
HETATM   25  C25 UNL     1      -3.142  -1.439  -1.961  1.00  0.00    -0.033 C 
HETATM   26  C26 UNL     1      -2.481  -0.349  -1.537  1.00  0.00    -0.016 C 
HETATM   27  C28 UNL     1      -2.490  -3.841  -2.174  1.00  0.00     0.004 C 
HETATM   28  C29 UNL     1      -3.942  -3.154  -0.254  1.00  0.00     0.004 C 
HETATM   29  C30 UNL     1      -2.633  -0.178   0.856  1.00  0.00     0.004 C 
ENDROOT
BRANCH  13  30
HETATM   30  C21 UNL     1       4.114   1.302   3.026  1.00  0.00     0.188 C 
HETATM   31  O2  UNL     1       3.292   2.153   3.274  1.00  0.00    -0.647 OA
HETATM   32  O3  UNL     1       4.655   0.586   4.029  1.00  0.00    -0.647 OA
ENDBRANCH  13  30
BRANCH  26  33
HETATM   33  C27 UNL     1      -2.647   1.029  -2.113  1.00  0.00     0.204 C 
HETATM   34  O4  UNL     1      -3.774   1.128  -2.975  1.00  0.00    -0.216 OA
ENDBRANCH  26  33
TORSDOF 2
