REMARK  0 active torsions:
REMARK  status: ('A' for Active; 'I' for Inactive)
ROOT
HETATM    1  C1  UNL     1      -2.884   1.609  -1.229  1.00  0.00     0.156 C 
HETATM    2  C2  UNL     1      -3.294   0.142  -1.230  1.00  0.00     0.055 C 
HETATM    3  C3  UNL     1      -2.127  -0.683  -0.739  1.00  0.00    -0.042 C 
HETATM    4  C4  UNL     1      -1.666  -0.351   0.674  1.00  0.00     0.023 C 
HETATM    5  C5  UNL     1      -1.299   1.158   0.769  1.00  0.00     0.009 C 
HETATM    6  C6  UNL     1      -2.430   2.032   0.164  1.00  0.00     0.034 C 
HETATM    7  C7  UNL     1       0.037   1.416   0.024  1.00  0.00     0.035 C 
HETATM    8  C8  UNL     1       1.173   0.567   0.586  1.00  0.00     0.143 A 
HETATM    9  C9  UNL     1       0.761  -0.881   0.598  1.00  0.00    -0.015 A 
HETATM   10  C10 UNL     1      -0.547  -1.264   1.222  1.00  0.00     0.028 C 
HETATM   11  C11 UNL     1       1.690  -1.642  -0.005  1.00  0.00     0.036 A 
HETATM   12  C12 UNL     1       2.670  -0.653  -0.497  1.00  0.00     0.291 A 
HETATM   13  O1  UNL     1       2.347   0.640  -0.203  1.00  0.00    -0.297 OA
HETATM   14  O2  UNL     1       3.667  -0.967  -1.138  1.00  0.00    -0.260 OA
HETATM   15  C13 UNL     1       1.737  -3.125  -0.196  1.00  0.00     0.036 C 
HETATM   16  C14 UNL     1      -1.175   1.602   2.248  1.00  0.00     0.001 C 
HETATM   17  C15 UNL     1      -1.578  -1.614  -1.536  1.00  0.00    -0.009 C 
HETATM   18  O3  UNL     1      -3.983   2.399  -1.620  1.00  0.00    -0.223 OA
ENDROOT
TORSDOF 0
