REMARK  1 active torsions:
REMARK  status: ('A' for Active; 'I' for Inactive)
REMARK    1  A    between atoms: C13_13  and  O2_20 
ROOT
HETATM    1  C1  UNL     1      -1.784   2.053   0.190  1.00  0.00     0.119 A 
HETATM    2  C2  UNL     1      -1.736   0.681   0.371  1.00  0.00     0.119 A 
HETATM    3  C3  UNL     1      -0.520   0.010   0.376  1.00  0.00     0.022 A 
HETATM    4  C4  UNL     1       0.686   0.717   0.199  1.00  0.00    -0.022 A 
HETATM    5  C5  UNL     1       0.630   2.120  -0.011  1.00  0.00    -0.024 A 
HETATM    6  C6  UNL     1      -0.616   2.779   0.006  1.00  0.00     0.022 A 
HETATM    7  C7  UNL     1       1.816   3.042  -0.267  1.00  0.00     0.026 C 
HETATM    8  C8  UNL     1       2.984   2.480  -1.083  1.00  0.00     0.005 C 
HETATM    9  C9  UNL     1       3.913   1.579  -0.259  1.00  0.00     0.001 C 
HETATM   10  C10 UNL     1       3.148   0.716   0.744  1.00  0.00     0.009 C 
HETATM   11  C11 UNL     1       1.970  -0.134   0.201  1.00  0.00     0.050 C 
HETATM   12  C12 UNL     1       2.125  -0.756  -1.216  1.00  0.00     0.041 C 
HETATM   13  C13 UNL     1       2.614  -2.212  -1.280  1.00  0.00     0.138 C 
HETATM   14  C14 UNL     1       1.778  -3.056  -0.346  1.00  0.00     0.001 C 
HETATM   15  C15 UNL     1       1.440  -2.589   0.862  1.00  0.00     0.001 C 
HETATM   16  C16 UNL     1       1.932  -1.284   1.224  1.00  0.00     0.139 A 
HETATM   17  C17 UNL     1       3.118  -1.327   2.034  1.00  0.00     0.144 A 
HETATM   18  C18 UNL     1       4.047  -0.233   1.552  1.00  0.00     0.033 C 
HETATM   19  O1  UNL     1       2.003  -0.868   2.759  1.00  0.00    -0.352 OA
HETATM   20  O3  UNL     1      -3.021   0.195   0.514  1.00  0.00    -0.300 OA
HETATM   21  C20 UNL     1      -3.917   1.310   0.417  1.00  0.00     0.304 A 
HETATM   22  O4  UNL     1      -3.100   2.471   0.220  1.00  0.00    -0.300 OA
ENDROOT
BRANCH  13  23
HETATM   23  O2  UNL     1       3.984  -2.251  -0.956  1.00  0.00    -0.350 OA
HETATM   24  C19 UNL     1       4.578  -3.504  -1.219  1.00  0.00     0.175 C 
ENDBRANCH  13  23
TORSDOF 1
