REMARK  1 active torsions:
REMARK  status: ('A' for Active; 'I' for Inactive)
REMARK    1  A    between atoms: C2_2  and  N2_23 
ROOT
HETATM    1  C1  UNL     1       0.049  -0.798  -1.624  1.00  0.00     0.034 C 
HETATM    2  C2  UNL     1      -0.611  -1.975  -0.865  1.00  0.00     0.223 C 
HETATM    3  C3  UNL     1      -0.092  -2.046   0.588  1.00  0.00     0.055 C 
HETATM    4  C4  UNL     1       1.325  -1.522   0.622  1.00  0.00    -0.047 C 
HETATM    5  C5  UNL     1       1.482  -0.028   0.380  1.00  0.00     0.015 C 
HETATM    6  C6  UNL     1       0.437   0.367  -0.699  1.00  0.00     0.006 C 
HETATM    7  C7  UNL     1       2.934   0.310  -0.087  1.00  0.00     0.004 C 
HETATM    8  C8  UNL     1       4.000  -0.421   0.754  1.00  0.00     0.005 C 
HETATM    9  C9  UNL     1       3.800  -1.941   0.685  1.00  0.00     0.025 C 
HETATM   10  C10 UNL     1       2.362  -2.357   0.782  1.00  0.00    -0.035 C 
HETATM   11  C11 UNL     1       5.464  -0.043   0.449  1.00  0.00     0.002 C 
HETATM   12  C12 UNL     1       5.735   1.464   0.279  1.00  0.00     0.036 C 
HETATM   13  C13 UNL     1       4.650   2.123  -0.595  1.00  0.00     0.002 C 
HETATM   14  C14 UNL     1       3.239   1.821  -0.081  1.00  0.00     0.000 C 
HETATM   15  C15 UNL     1       7.109   1.546  -0.437  1.00  0.00     0.036 C 
HETATM   16  C16 UNL     1       7.456   0.121  -0.892  1.00  0.00     0.002 C 
HETATM   17  C17 UNL     1       6.124  -0.644  -0.804  1.00  0.00     0.000 C 
HETATM   18  C18 UNL     1       8.045   2.291   0.533  1.00  0.00     0.257 C 
HETATM   19  N1  UNL     1       7.110   3.087   1.331  1.00  0.00     0.337 N 
HETATM   20  C19 UNL     1       5.957   2.231   1.596  1.00  0.00     0.290 C 
HETATM   21  C20 UNL     1       8.919   1.427   1.453  1.00  0.00     0.038 C 
HETATM   22  C21 UNL     1       1.125   0.701   1.699  1.00  0.00     0.004 C 
ENDROOT
BRANCH   2  23
HETATM   23  N2  UNL     1      -2.074  -2.048  -0.918  1.00  0.00     0.140 N 
HETATM   24  C22 UNL     1      -2.559  -2.436  -2.237  1.00  0.00     0.285 C 
HETATM   25  C23 UNL     1      -2.751  -0.832  -0.489  1.00  0.00     0.285 C 
ENDBRANCH   2  23
TORSDOF 1
