REMARK  9 active torsions:
REMARK  status: ('A' for Active; 'I' for Inactive)
REMARK    1  A    between atoms: C3_3  and  C4_4 
REMARK    2  A    between atoms: C4_4  and  O2_6 
REMARK    3  A    between atoms: O2_6  and  C5_7 
REMARK    4  A    between atoms: C8_10  and  C12_15 
REMARK    5  A    between atoms: C10_12  and  O3_13 
REMARK    6  A    between atoms: C13_16  and  C14_17 
REMARK    7  A    between atoms: C14_17  and  O4_18 
REMARK    8  A    between atoms: O4_18  and  C15_19 
REMARK    9  A    between atoms: C15_19  and  C16_20 
ROOT
HETATM    1  C5  UNL     1       4.534   1.030  -1.489  1.00  0.00     0.125 A 
HETATM    2  C6  UNL     1       4.983  -0.242  -1.110  1.00  0.00     0.027 A 
HETATM    3  C7  UNL     1       4.106  -1.271  -0.781  1.00  0.00     0.002 A 
HETATM    4  C8  UNL     1       2.725  -1.047  -0.816  1.00  0.00     0.002 A 
HETATM    5  C9  UNL     1       2.280   0.204  -1.267  1.00  0.00     0.026 A 
HETATM    6  C10 UNL     1       3.147   1.256  -1.608  1.00  0.00     0.117 A 
ENDROOT
BRANCH   4   7
HETATM    7  C12 UNL     1       1.825  -2.153  -0.443  1.00  0.00    -0.002 C 
HETATM    8  C13 UNL     1       0.525  -2.025  -0.114  1.00  0.00     0.006 C 
BRANCH   8   9
HETATM    9  C14 UNL     1      -0.335  -3.184   0.331  1.00  0.00     0.178 C 
BRANCH   9  10
HETATM   10  O4  UNL     1      -0.481  -3.132   1.735  1.00  0.00    -0.294 OA
BRANCH  10  11
HETATM   11  C15 UNL     1      -1.203  -4.112   2.346  1.00  0.00     0.292 C 
HETATM   12  O5  UNL     1      -1.699  -5.010   1.671  1.00  0.00    -0.260 OA
BRANCH  11  13
HETATM   13  C16 UNL     1      -1.470  -4.138   3.815  1.00  0.00     0.037 C 
HETATM   14  C17 UNL     1      -2.399  -5.220   4.323  1.00  0.00     0.036 C 
HETATM   15  C18 UNL     1      -0.940  -3.241   4.676  1.00  0.00    -0.025 C 
HETATM   16  C19 UNL     1       0.007  -2.101   4.408  1.00  0.00     0.030 C 
ENDBRANCH  11  13
ENDBRANCH  10  11
ENDBRANCH   9  10
ENDBRANCH   8   9
ENDBRANCH   4   7
BRANCH   6  17
HETATM   17  O3  UNL     1       2.728   2.480  -2.072  1.00  0.00    -0.326 OA
HETATM   18  C11 UNL     1       1.353   2.714  -2.258  1.00  0.00     0.181 C 
ENDBRANCH   6  17
BRANCH   1  19
HETATM   19  O2  UNL     1       5.462   1.995  -1.782  1.00  0.00    -0.271 OA
BRANCH  19  20
HETATM   20  C4  UNL     1       5.269   3.218  -1.208  1.00  0.00     0.296 C 
HETATM   21  O1  UNL     1       4.948   3.272  -0.023  1.00  0.00    -0.259 OA
BRANCH  20  22
HETATM   22  C3  UNL     1       5.388   4.512  -1.944  1.00  0.00     0.037 C 
HETATM   23  C2  UNL     1       5.980   4.616  -3.154  1.00  0.00    -0.025 C 
HETATM   24  C1  UNL     1       6.677   3.553  -3.960  1.00  0.00     0.030 C 
HETATM   25  C20 UNL     1       4.783   5.729  -1.280  1.00  0.00     0.036 C 
ENDBRANCH  20  22
ENDBRANCH  19  20
ENDBRANCH   1  19
TORSDOF 9
