REMARK  1 active torsions:
REMARK  status: ('A' for Active; 'I' for Inactive)
REMARK    1  A    between atoms: C2_2  and  N2_23 
ROOT
HETATM    1  C1  UNL     1      -0.060  -1.620  -1.925  1.00  0.00     0.025 C 
HETATM    2  C2  UNL     1      -0.869  -2.384  -0.867  1.00  0.00     0.102 C 
HETATM    3  C3  UNL     1       0.076  -2.818   0.271  1.00  0.00     0.045 C 
HETATM    4  C4  UNL     1       1.424  -2.124   0.239  1.00  0.00    -0.047 C 
HETATM    5  C5  UNL     1       1.448  -0.630  -0.065  1.00  0.00     0.015 C 
HETATM    6  C6  UNL     1       0.586  -0.360  -1.330  1.00  0.00     0.006 C 
HETATM    7  C7  UNL     1       2.906  -0.134  -0.325  1.00  0.00     0.004 C 
HETATM    8  C8  UNL     1       3.920  -0.715   0.675  1.00  0.00     0.005 C 
HETATM    9  C9  UNL     1       3.922  -2.246   0.562  1.00  0.00     0.025 C 
HETATM   10  C10 UNL     1       2.535  -2.819   0.533  1.00  0.00    -0.035 C 
HETATM   11  C11 UNL     1       5.349  -0.136   0.603  1.00  0.00     0.002 C 
HETATM   12  C12 UNL     1       5.455   1.379   0.321  1.00  0.00     0.036 C 
HETATM   13  C13 UNL     1       4.441   1.826  -0.744  1.00  0.00     0.002 C 
HETATM   14  C14 UNL     1       3.022   1.401  -0.361  1.00  0.00     0.000 C 
HETATM   15  C15 UNL     1       6.910   1.603  -0.173  1.00  0.00     0.036 C 
HETATM   16  C16 UNL     1       7.529   0.201  -0.299  1.00  0.00     0.002 C 
HETATM   17  C17 UNL     1       6.324  -0.744  -0.416  1.00  0.00     0.000 C 
HETATM   18  C18 UNL     1       7.572   2.498   0.891  1.00  0.00     0.257 C 
HETATM   19  N1  UNL     1       6.745   2.303   2.082  1.00  0.00     0.337 N 
HETATM   20  C19 UNL     1       5.364   2.205   1.617  1.00  0.00     0.290 C 
HETATM   21  C20 UNL     1       7.593   3.977   0.473  1.00  0.00     0.038 C 
HETATM   22  C21 UNL     1       0.824   0.080   1.161  1.00  0.00     0.004 C 
ENDROOT
BRANCH   2  23
HETATM   23  N2  UNL     1      -1.978  -1.598  -0.312  1.00  0.00    -0.295 NA
HETATM   24  C22 UNL     1      -3.022  -1.224  -1.263  1.00  0.00     0.145 C 
ENDBRANCH   2  23
TORSDOF 1
