REMARK  0 active torsions:
REMARK  status: ('A' for Active; 'I' for Inactive)
ROOT
HETATM    1  C1  UNL     1      -2.127  -0.325  -1.598  1.00  0.00     0.203 C 
HETATM    2  C2  UNL     1      -2.349  -1.599  -0.885  1.00  0.00     0.032 C 
HETATM    3  C3  UNL     1      -1.375  -2.165  -0.148  1.00  0.00    -0.041 C 
HETATM    4  C4  UNL     1       0.003  -1.530  -0.074  1.00  0.00     0.024 C 
HETATM    5  C5  UNL     1      -0.055   0.026  -0.112  1.00  0.00     0.042 C 
HETATM    6  C6  UNL     1      -0.808   0.398  -1.409  1.00  0.00     0.213 C 
HETATM    7  O1  UNL     1      -1.139   1.776  -1.459  1.00  0.00    -0.215 OA
HETATM    8  C7  UNL     1       1.420   0.557  -0.160  1.00  0.00     0.039 C 
HETATM    9  C8  UNL     1       2.426   0.046   0.913  1.00  0.00     0.031 C 
HETATM   10  C9  UNL     1       2.322  -1.493   1.007  1.00  0.00     0.125 C 
HETATM   11  C10 UNL     1       0.888  -2.029   1.083  1.00  0.00     0.034 C 
HETATM   12  O2  UNL     1       2.936  -2.137  -0.073  1.00  0.00    -0.302 OA
HETATM   13  C11 UNL     1       4.217  -1.848  -0.405  1.00  0.00     0.302 C 
HETATM   14  C12 UNL     1       4.840  -0.762   0.450  1.00  0.00     0.237 C 
HETATM   15  C13 UNL     1       3.908   0.441   0.583  1.00  0.00     0.045 C 
HETATM   16  C14 UNL     1       4.108   1.477  -0.553  1.00  0.00     0.036 C 
HETATM   17  C15 UNL     1       3.039   2.548  -0.373  1.00  0.00     0.182 C 
HETATM   18  C16 UNL     1       1.635   2.020  -0.594  1.00  0.00     0.182 C 
HETATM   19  O3  UNL     1       0.770   2.918   0.055  1.00  0.00    -0.221 OA
HETATM   20  O4  UNL     1       3.260   3.642  -1.232  1.00  0.00    -0.221 OA
HETATM   21  C17 UNL     1       4.216   0.935  -1.990  1.00  0.00     0.003 C 
HETATM   22  O5  UNL     1       5.180  -1.278   1.726  1.00  0.00    -0.213 OA
HETATM   23  O6  UNL     1       4.814  -2.402  -1.303  1.00  0.00    -0.261 OA
HETATM   24  C18 UNL     1       2.101   0.640   2.307  1.00  0.00     0.003 C 
HETATM   25  C19 UNL     1      -0.909   0.536   1.076  1.00  0.00     0.003 C 
HETATM   26  C20 UNL     1      -1.608  -3.502   0.513  1.00  0.00     0.026 C 
HETATM   27  O7  UNL     1      -2.966   0.234  -2.293  1.00  0.00    -0.289 OA
ENDROOT
TORSDOF 0
