REMARK  2 active torsions:
REMARK  status: ('A' for Active; 'I' for Inactive)
REMARK    1  A    between atoms: C9_10  and  C20_23 
REMARK    2  A    between atoms: C20_23  and  O2_24 
ROOT
HETATM    1  C1  UNL     1      -2.199  -0.570   1.096  1.00  0.00    -0.000 A 
HETATM    2  C2  UNL     1      -2.209  -1.966   1.196  1.00  0.00     0.002 A 
HETATM    3  C3  UNL     1      -1.032  -2.706   1.036  1.00  0.00     0.018 A 
HETATM    4  C4  UNL     1       0.139  -1.994   0.774  1.00  0.00     0.072 A 
HETATM    5  C5  UNL     1       0.169  -0.588   0.723  1.00  0.00    -0.002 A 
HETATM    6  C6  UNL     1      -1.009   0.137   0.877  1.00  0.00    -0.003 A 
HETATM    7  C7  UNL     1       1.620  -0.149   0.687  1.00  0.00     0.071 C 
HETATM    8  C8  UNL     1       2.153  -1.325  -0.165  1.00  0.00     0.099 C 
HETATM    9  N1  UNL     1       1.430  -2.451   0.473  1.00  0.00    -0.274 NA
HETATM   10  C9  UNL     1       3.673  -1.203  -0.375  1.00  0.00     0.107 C 
HETATM   11  C10 UNL     1       3.890  -0.009  -1.371  1.00  0.00     0.016 C 
HETATM   12  C11 UNL     1       2.678   0.982  -1.347  1.00  0.00     0.059 C 
HETATM   13  C12 UNL     1       2.298   1.091   0.124  1.00  0.00     0.227 C 
HETATM   14  N2  UNL     1       1.484   2.126   0.673  1.00  0.00     0.136 N 
HETATM   15  C13 UNL     1       1.941   3.434   0.258  1.00  0.00     0.253 C 
HETATM   16  C14 UNL     1       2.027   3.455  -1.285  1.00  0.00     0.068 C 
HETATM   17  C15 UNL     1       3.006   2.402  -1.823  1.00  0.00     0.156 C 
HETATM   18  O1  UNL     1       3.046   2.452  -3.228  1.00  0.00    -0.223 OA
HETATM   19  C16 UNL     1       1.553   1.783   2.099  1.00  0.00     0.251 C 
HETATM   20  C17 UNL     1       1.866   0.243   2.162  1.00  0.00     0.043 C 
HETATM   21  C18 UNL     1       1.531   0.274  -2.079  1.00  0.00     0.006 C 
HETATM   22  C19 UNL     1       1.516  -1.190  -1.596  1.00  0.00     0.024 C 
ENDROOT
BRANCH  10  23
HETATM   23  C20 UNL     1       4.317  -2.513  -0.831  1.00  0.00     0.273 C 
HETATM   24  O3  UNL     1       4.445  -2.781  -2.007  1.00  0.00    -0.264 OA
BRANCH  23  25
HETATM   25  O2  UNL     1       4.755  -3.371   0.136  1.00  0.00    -0.299 OA
HETATM   26  C21 UNL     1       4.657  -3.087   1.511  1.00  0.00     0.184 C 
ENDBRANCH  23  25
ENDBRANCH  10  23
TORSDOF 2
