REMARK  0 active torsions:
REMARK  status: ('A' for Active; 'I' for Inactive)
ROOT
HETATM    1  C1  UNL     1      -3.075  -0.441   1.033  1.00  0.00     0.065 C 
HETATM    2  C2  UNL     1      -3.248  -1.945   1.104  1.00  0.00     0.150 C 
HETATM    3  C3  UNL     1      -2.116  -2.765   0.495  1.00  0.00     0.058 C 
HETATM    4  C4  UNL     1      -0.746  -2.361   1.128  1.00  0.00     0.006 C 
HETATM    5  C5  UNL     1      -0.550  -0.824   0.916  1.00  0.00     0.001 C 
HETATM    6  C6  UNL     1      -1.699  -0.018   1.564  1.00  0.00     0.008 C 
HETATM    7  C7  UNL     1       0.895  -0.240   1.138  1.00  0.00     0.000 C 
HETATM    8  C8  UNL     1       1.882  -1.094   0.279  1.00  0.00     0.002 C 
HETATM    9  C9  UNL     1       1.792  -2.574   0.704  1.00  0.00     0.000 C 
HETATM   10  C10 UNL     1       0.390  -3.129   0.413  1.00  0.00     0.000 C 
HETATM   11  C11 UNL     1       3.326  -0.541   0.004  1.00  0.00     0.028 C 
HETATM   12  C12 UNL     1       3.280   0.925  -0.554  1.00  0.00     0.002 C 
HETATM   13  C13 UNL     1       2.391   1.764   0.405  1.00  0.00     0.000 C 
HETATM   14  C14 UNL     1       0.966   1.214   0.600  1.00  0.00     0.000 C 
HETATM   15  C15 UNL     1       4.733   1.523  -0.633  1.00  0.00     0.000 C 
HETATM   16  C16 UNL     1       5.807   0.605  -1.303  1.00  0.00     0.002 C 
HETATM   17  C17 UNL     1       5.212  -0.715  -1.843  1.00  0.00     0.033 C 
HETATM   18  C18 UNL     1       4.121  -1.407  -1.013  1.00  0.00     0.152 C 
HETATM   19  O1  UNL     1       3.257  -2.025  -1.947  1.00  0.00    -0.224 OA
HETATM   20  C19 UNL     1       6.459   1.358  -2.495  1.00  0.00     0.000 C 
HETATM   21  C20 UNL     1       7.123   2.675  -2.070  1.00  0.00     0.000 C 
HETATM   22  C21 UNL     1       6.139   3.628  -1.359  1.00  0.00     0.000 C 
HETATM   23  C22 UNL     1       4.754   2.961  -1.213  1.00  0.00     0.000 C 
HETATM   24  C23 UNL     1       6.680   4.057   0.022  1.00  0.00     0.000 C 
HETATM   25  C24 UNL     1       5.973   4.915  -2.203  1.00  0.00     0.000 C 
HETATM   26  C25 UNL     1       6.979   0.213  -0.360  1.00  0.00     0.000 C 
HETATM   27  C26 UNL     1       2.600   1.037  -1.949  1.00  0.00     0.000 C 
HETATM   28  C27 UNL     1       4.081  -0.642   1.357  1.00  0.00     0.003 C 
HETATM   29  C28 UNL     1       1.225  -0.166   2.651  1.00  0.00     0.000 C 
HETATM   30  C29 UNL     1      -0.764  -2.780   2.615  1.00  0.00     0.000 C 
HETATM   31  C30 UNL     1      -2.452  -4.268   0.499  1.00  0.00     0.008 C 
HETATM   32  O2  UNL     1      -4.246  -2.443   1.573  1.00  0.00    -0.296 OA
ENDROOT
TORSDOF 0
