REMARK  2 active torsions:
REMARK  status: ('A' for Active; 'I' for Inactive)
REMARK    1  A    between atoms: C5_5  and  C23_26 
REMARK    2  A    between atoms: C15_15  and  C18_18 
ROOT
HETATM    1  C1  UNL     1      -1.330  -0.897  -2.400  1.00  0.00     0.033 C 
HETATM    2  C2  UNL     1      -2.302  -1.803  -1.653  1.00  0.00     0.155 C 
HETATM    3  C3  UNL     1      -1.666  -2.538  -0.471  1.00  0.00     0.064 C 
HETATM    4  C4  UNL     1      -0.216  -2.128  -0.159  1.00  0.00     0.131 C 
HETATM    5  C5  UNL     1      -0.043  -0.588  -0.114  1.00  0.00     0.057 C 
HETATM    6  C6  UNL     1      -0.497   0.015  -1.484  1.00  0.00     0.007 C 
HETATM    7  C7  UNL     1       1.452  -0.225   0.195  1.00  0.00     0.007 C 
HETATM    8  C8  UNL     1       2.492  -1.234  -0.335  1.00  0.00     0.029 C 
HETATM    9  C9  UNL     1       1.973  -2.021  -1.541  1.00  0.00     0.005 C 
HETATM   10  C10 UNL     1       0.753  -2.853  -1.117  1.00  0.00     0.031 C 
HETATM   11  C11 UNL     1       3.892  -0.598  -0.477  1.00  0.00     0.134 C 
HETATM   12  C12 UNL     1       4.225   0.329   0.732  1.00  0.00     0.044 C 
HETATM   13  C13 UNL     1       3.352  -0.053   1.938  1.00  0.00     0.006 C 
HETATM   14  C14 UNL     1       1.839   0.053   1.667  1.00  0.00     0.001 C 
HETATM   15  C15 UNL     1       3.983   1.721   0.165  1.00  0.00    -0.026 C 
HETATM   16  C16 UNL     1       3.935   1.664  -1.179  1.00  0.00    -0.028 C 
HETATM   17  C17 UNL     1       4.067   0.276  -1.727  1.00  0.00     0.056 C 
HETATM   18  C22 UNL     1       5.715   0.259   1.133  1.00  0.00     0.007 C 
HETATM   19  O3  UNL     1       4.812  -1.656  -0.553  1.00  0.00    -0.225 OA
HETATM   20  O5  UNL     1       0.050  -2.633   1.129  1.00  0.00    -0.226 OA
HETATM   21  O6  UNL     1      -3.400  -1.037  -1.212  1.00  0.00    -0.223 OA
ENDROOT
BRANCH  15  22
HETATM   22  C18 UNL     1       3.884   2.981   0.906  1.00  0.00     0.009 A 
HETATM   23  C19 UNL     1       3.775   4.206   0.343  1.00  0.00     0.066 A 
HETATM   24  C20 UNL     1       3.740   5.158   1.464  1.00  0.00     0.296 A 
HETATM   25  O1  UNL     1       3.826   4.554   2.680  1.00  0.00    -0.294 OA
HETATM   26  O2  UNL     1       3.656   6.373   1.316  1.00  0.00    -0.259 OA
HETATM   27  C21 UNL     1       3.896   3.156   2.412  1.00  0.00     0.178 A 
ENDBRANCH  15  22
BRANCH   5  28
HETATM   28  C23 UNL     1      -0.976   0.036   0.956  1.00  0.00     0.184 C 
HETATM   29  O4  UNL     1      -0.798   1.437   1.059  1.00  0.00    -0.221 OA
ENDBRANCH   5  28
TORSDOF 2
