REMARK  3 active torsions:
REMARK  status: ('A' for Active; 'I' for Inactive)
REMARK    1  A    between atoms: C16_18  and  C17_19 
REMARK    2  A    between atoms: C16_18  and  C18_21 
REMARK    3  A    between atoms: C18_21  and  O2_22 
ROOT
HETATM    1  C1  UNL     1      -4.077  -0.893  -1.501  1.00  0.00    -0.000 A 
HETATM    2  C2  UNL     1      -3.862  -2.148  -1.933  1.00  0.00     0.002 A 
HETATM    3  C3  UNL     1      -2.621  -2.662  -1.948  1.00  0.00     0.019 A 
HETATM    4  C4  UNL     1      -1.607  -1.903  -1.512  1.00  0.00     0.077 A 
HETATM    5  C5  UNL     1      -1.823  -0.659  -1.059  1.00  0.00     0.001 A 
HETATM    6  C6  UNL     1      -3.057  -0.136  -1.066  1.00  0.00    -0.002 A 
HETATM    7  C7  UNL     1      -0.534  -0.020  -0.624  1.00  0.00     0.070 A 
HETATM    8  C8  UNL     1       0.278  -1.241  -1.007  1.00  0.00     0.072 A 
HETATM    9  N1  UNL     1      -0.382  -2.216  -1.466  1.00  0.00    -0.252 NA
HETATM   10  C9  UNL     1       1.772  -1.206  -0.815  1.00  0.00     0.260 C 
HETATM   11  N2  UNL     1       2.354  -0.013  -1.450  1.00  0.00     0.145 N 
HETATM   12  C10 UNL     1       1.362   0.681  -2.278  1.00  0.00     0.252 C 
HETATM   13  C11 UNL     1      -0.016   1.029  -1.647  1.00  0.00     0.046 C 
HETATM   14  C12 UNL     1       3.142   0.862  -0.552  1.00  0.00     0.276 C 
HETATM   15  C13 UNL     1       2.478   1.155   0.804  1.00  0.00    -0.001 C 
HETATM   16  C14 UNL     1       1.320   0.233   1.093  1.00  0.00    -0.033 C 
HETATM   17  C15 UNL     1       1.890  -1.148   0.713  1.00  0.00     0.061 C 
HETATM   18  C16 UNL     1      -0.237   0.274   0.913  1.00  0.00     0.132 C 
HETATM   19  C20 UNL     1       2.844   2.119   1.664  1.00  0.00    -0.029 C 
HETATM   20  C21 UNL     1       3.980   3.088   1.474  1.00  0.00     0.030 C 
ENDROOT
BRANCH  18  21
HETATM   21  C17 UNL     1      -0.771   1.624   1.434  1.00  0.00     0.196 C 
HETATM   22  O1  UNL     1      -2.180   1.607   1.487  1.00  0.00    -0.220 OA
ENDBRANCH  18  21
BRANCH  18  23
HETATM   23  C18 UNL     1      -0.764  -0.753   1.931  1.00  0.00     0.278 C 
HETATM   24  O3  UNL     1      -0.347  -0.819   3.066  1.00  0.00    -0.264 OA
BRANCH  23  25
HETATM   25  O2  UNL     1      -1.745  -1.547   1.439  1.00  0.00    -0.299 OA
HETATM   26  C19 UNL     1      -2.301  -2.491   2.321  1.00  0.00     0.184 C 
ENDBRANCH  23  25
ENDBRANCH  18  23
TORSDOF 3
