REMARK  1 active torsions:
REMARK  status: ('A' for Active; 'I' for Inactive)
REMARK    1  A    between atoms: C18_22  and  C19_23 
ROOT
HETATM    1  C1  UNL     1      -1.628  -3.176  -0.269  1.00  0.00    -0.000 A 
HETATM    2  C2  UNL     1      -1.129  -4.470  -0.078  1.00  0.00     0.002 A 
HETATM    3  C3  UNL     1       0.246  -4.687   0.026  1.00  0.00     0.017 A 
HETATM    4  C4  UNL     1       1.089  -3.576  -0.058  1.00  0.00     0.059 A 
HETATM    5  C5  UNL     1       0.608  -2.268  -0.218  1.00  0.00     0.004 A 
HETATM    6  C6  UNL     1      -0.768  -2.076  -0.343  1.00  0.00    -0.002 A 
HETATM    7  C7  UNL     1       1.714  -1.230  -0.248  1.00  0.00     0.126 A 
HETATM    8  C8  UNL     1       2.928  -2.175  -0.140  1.00  0.00     0.242 A 
HETATM    9  N1  UNL     1       2.479  -3.454  -0.010  1.00  0.00    -0.297 N 
HETATM   10  C9  UNL     1       3.393  -4.588   0.138  1.00  0.00     0.133 C 
HETATM   11  O1  UNL     1       4.106  -1.823  -0.135  1.00  0.00    -0.272 OA
HETATM   12  C10 UNL     1       1.868  -0.353  -1.503  1.00  0.00     0.054 C 
HETATM   13  C11 UNL     1       2.414   0.983  -0.946  1.00  0.00     0.288 C 
HETATM   14  N2  UNL     1       2.902   0.619   0.385  1.00  0.00     0.338 N 
HETATM   15  C12 UNL     1       1.843  -0.237   0.919  1.00  0.00     0.269 C 
HETATM   16  C13 UNL     1       0.617   0.640   1.228  1.00  0.00     0.044 C 
HETATM   17  C14 UNL     1       0.155   1.516   0.048  1.00  0.00     0.062 C 
HETATM   18  C15 UNL     1       1.336   2.059  -0.757  1.00  0.00     0.190 C 
HETATM   19  C16 UNL     1       1.873   3.299  -0.066  1.00  0.00     0.181 C 
HETATM   20  O2  UNL     1       0.895   4.302  -0.047  1.00  0.00    -0.333 OA
HETATM   21  C17 UNL     1      -0.360   3.930   0.360  1.00  0.00     0.071 C 
HETATM   22  C18 UNL     1      -0.762   2.643   0.474  1.00  0.00     0.040 C 
HETATM   23  C20 UNL     1      -1.232   5.133   0.658  1.00  0.00     0.058 C 
HETATM   24  O4  UNL     1       0.874   2.476  -2.015  1.00  0.00    -0.221 OA
ENDROOT
BRANCH  22  25
HETATM   25  C19 UNL     1      -2.105   2.261   0.986  1.00  0.00     0.232 C 
HETATM   26  O3  UNL     1      -2.515   1.110   0.966  1.00  0.00    -0.283 OA
ENDBRANCH  22  25
TORSDOF 1
