REMARK  15 active torsions:
REMARK  status: ('A' for Active; 'I' for Inactive)
REMARK    1  A    between atoms: C1_2  and  C2_3 
REMARK    2  A    between atoms: C2_3  and  C3_4 
REMARK    3  A    between atoms: C3_4  and  C4_5 
REMARK    4  A    between atoms: C6_7  and  C7_8 
REMARK    5  A    between atoms: C12_14  and  C14_16 
REMARK    6  A    between atoms: C14_16  and  C15_17 
REMARK    7  A    between atoms: C15_17  and  C16_18 
REMARK    8  A    between atoms: C17_19  and  C19_21 
REMARK    9  A    between atoms: C19_21  and  C20_22 
REMARK   10  A    between atoms: C19_21  and  O3_32 
REMARK   11  A    between atoms: C21_23  and  C22_24 
REMARK   12  A    between atoms: C22_24  and  C23_25 
REMARK   13  A    between atoms: C23_25  and  C24_26 
REMARK   14  A    between atoms: C24_26  and  C25_27 
REMARK   15  A    between atoms: O3_32  and  C30_33 
ROOT
HETATM    1  C15 UNL     1       2.769  -0.905  -0.018  1.00  0.00     0.026 C 
ENDROOT
BRANCH   1   2
HETATM    2  C14 UNL     1       3.475   0.126  -0.925  1.00  0.00     0.011 C 
BRANCH   2   3
HETATM    3  C12 UNL     1       4.337  -0.369  -2.138  1.00  0.00     0.041 C 
HETATM    4  C4  UNL     1       5.251  -1.585  -1.770  1.00  0.00    -0.047 C 
HETATM    5  C5  UNL     1       5.978  -2.157  -2.992  1.00  0.00    -0.031 C 
HETATM    6  C6  UNL     1       7.304  -2.147  -3.277  1.00  0.00     0.016 C 
HETATM    7  C9  UNL     1       4.956  -2.658  -3.997  1.00  0.00     0.028 C 
HETATM    8  C8  UNL     1       8.386  -1.427  -2.506  1.00  0.00     0.034 C 
HETATM    9  C10 UNL     1       4.214  -1.414  -4.500  1.00  0.00     0.035 C 
HETATM   10  C11 UNL     1       3.443  -0.692  -3.383  1.00  0.00     0.130 C 
HETATM   11  O5  UNL     1       2.982   0.514  -3.946  1.00  0.00    -0.226 OA
HETATM   12  C32 UNL     1       2.172  -1.502  -3.094  1.00  0.00     0.033 C 
HETATM   13  C13 UNL     1       5.289   0.807  -2.495  1.00  0.00     0.006 C 
BRANCH   4  14
HETATM   14  C3  UNL     1       6.080  -1.427  -0.476  1.00  0.00     0.024 C 
BRANCH  14  15
HETATM   15  C2  UNL     1       6.516  -2.768   0.142  1.00  0.00     0.040 C 
BRANCH  15  16
HETATM   16  C1  UNL     1       7.403  -2.553   1.366  1.00  0.00     0.183 C 
HETATM   17  O1  UNL     1       7.711  -3.800   1.954  1.00  0.00    -0.221 OA
ENDBRANCH  15  16
ENDBRANCH  14  15
ENDBRANCH   4  14
BRANCH   6  18
HETATM   18  C7  UNL     1       7.815  -2.821  -4.512  1.00  0.00     0.230 C 
HETATM   19  O2  UNL     1       7.522  -3.958  -4.850  1.00  0.00    -0.283 OA
ENDBRANCH   6  18
ENDBRANCH   2   3
ENDBRANCH   1   2
BRANCH   1  20
HETATM   20  C16 UNL     1       2.129  -0.273   1.198  1.00  0.00    -0.032 C 
HETATM   21  C17 UNL     1       2.469  -0.466   2.486  1.00  0.00    -0.017 C 
HETATM   22  C18 UNL     1       3.630  -1.331   2.933  1.00  0.00     0.029 C 
BRANCH  21  23
HETATM   23  C19 UNL     1       1.663   0.093   3.650  1.00  0.00     0.164 C 
BRANCH  23  24
HETATM   24  C20 UNL     1       0.597   1.101   3.279  1.00  0.00     0.003 C 
HETATM   25  C21 UNL     1       0.700   2.418   3.519  1.00  0.00    -0.028 C 
BRANCH  25  26
HETATM   26  C22 UNL     1      -0.394   3.442   3.298  1.00  0.00     0.022 C 
HETATM   27  C29 UNL     1      -1.218   3.552   4.592  1.00  0.00     0.005 C 
BRANCH  26  28
HETATM   28  C23 UNL     1      -1.315   3.172   2.092  1.00  0.00     0.009 C 
BRANCH  28  29
HETATM   29  C24 UNL     1      -0.565   3.157   0.750  1.00  0.00     0.026 C 
BRANCH  29  30
HETATM   30  C25 UNL     1      -1.493   2.825  -0.394  1.00  0.00    -0.035 C 
HETATM   31  C26 UNL     1      -1.457   3.322  -1.643  1.00  0.00    -0.048 C 
HETATM   32  C27 UNL     1      -2.474   2.895  -2.677  1.00  0.00     0.026 C 
HETATM   33  C28 UNL     1      -0.441   4.320  -2.145  1.00  0.00     0.026 C 
ENDBRANCH  29  30
ENDBRANCH  28  29
ENDBRANCH  26  28
ENDBRANCH  25  26
ENDBRANCH  23  24
BRANCH  23  34
HETATM   34  O3  UNL     1       1.075  -0.999   4.341  1.00  0.00    -0.296 OA
BRANCH  34  35
HETATM   35  C30 UNL     1       0.481  -0.743   5.537  1.00  0.00     0.273 C 
HETATM   36  C31 UNL     1      -0.135  -2.012   6.091  1.00  0.00     0.106 C 
HETATM   37  O4  UNL     1       0.444   0.338   6.080  1.00  0.00    -0.264 OA
ENDBRANCH  34  35
ENDBRANCH  23  34
ENDBRANCH  21  23
ENDBRANCH   1  20
TORSDOF 15
