REMARK  5 active torsions:
REMARK  status: ('A' for Active; 'I' for Inactive)
REMARK    1  A    between atoms: C1_1  and  O8_26 
REMARK    2  A    between atoms: C2_2  and  O7_24 
REMARK    3  A    between atoms: C8_9  and  C10_11 
REMARK    4  A    between atoms: C13_14  and  O4_20 
REMARK    5  A    between atoms: C14_15  and  O3_18 
ROOT
HETATM    1  C1  UNL     1       3.678   1.371   0.271  1.00  0.00     0.140 A 
HETATM    2  C2  UNL     1       4.719   0.416   0.207  1.00  0.00     0.143 A 
HETATM    3  C3  UNL     1       4.408  -0.961   0.100  1.00  0.00     0.155 A 
HETATM    4  C4  UNL     1       3.061  -1.381   0.055  1.00  0.00     0.027 A 
HETATM    5  C5  UNL     1       2.014  -0.428   0.117  1.00  0.00     0.005 A 
HETATM    6  C6  UNL     1       2.324   0.957   0.230  1.00  0.00     0.114 A 
HETATM    7  O1  UNL     1       1.356   1.897   0.291  1.00  0.00    -0.329 OA
HETATM    8  C7  UNL     1      -0.013   1.527   0.502  1.00  0.00     0.154 C 
HETATM    9  C8  UNL     1      -0.363   0.273  -0.315  1.00  0.00     0.060 C 
HETATM   10  C9  UNL     1       0.598  -0.871   0.066  1.00  0.00     0.035 C 
HETATM   11  O6  UNL     1       5.393  -1.869   0.039  1.00  0.00    -0.188 OA
ENDROOT
BRANCH   9  12
HETATM   12  C10 UNL     1      -1.803  -0.127  -0.125  1.00  0.00     0.025 A 
HETATM   13  C11 UNL     1      -2.230  -0.539   1.084  1.00  0.00     0.043 A 
HETATM   14  C12 UNL     1      -3.637  -0.934   1.291  1.00  0.00     0.220 A 
HETATM   15  C13 UNL     1      -4.580  -0.883   0.152  1.00  0.00     0.158 A 
HETATM   16  O5  UNL     1      -4.010  -1.295   2.383  1.00  0.00    -0.284 OA
HETATM   17  C14 UNL     1      -4.156  -0.469  -1.063  1.00  0.00     0.158 A 
HETATM   18  C15 UNL     1      -2.746  -0.066  -1.264  1.00  0.00     0.216 A 
HETATM   19  O2  UNL     1      -2.373   0.309  -2.350  1.00  0.00    -0.285 OA
BRANCH  15  20
HETATM   20  O4  UNL     1      -5.848  -1.248   0.330  1.00  0.00    -0.323 OA
HETATM   21  C17 UNL     1      -6.566  -0.326   1.137  1.00  0.00     0.182 C 
ENDBRANCH  15  20
BRANCH  17  22
HETATM   22  O3  UNL     1      -5.008  -0.422  -2.086  1.00  0.00    -0.323 OA
HETATM   23  C16 UNL     1      -5.166  -1.686  -2.715  1.00  0.00     0.182 C 
ENDBRANCH  17  22
ENDBRANCH   9  12
BRANCH   1  24
HETATM   24  O8  UNL     1       3.975   2.676   0.373  1.00  0.00    -0.324 OA
HETATM   25  C19 UNL     1       3.250   3.451   1.316  1.00  0.00     0.182 C 
ENDBRANCH   1  24
BRANCH   2  26
HETATM   26  O7  UNL     1       5.998   0.813   0.248  1.00  0.00    -0.324 OA
HETATM   27  C18 UNL     1       6.934   0.139  -0.580  1.00  0.00     0.182 C 
ENDBRANCH   2  26
TORSDOF 5
