REMARK  16 active torsions:
REMARK  status: ('A' for Active; 'I' for Inactive)
REMARK    1  A    between atoms: C2_2  and  O18_63 
REMARK    2  A    between atoms: C6_6  and  O1_7 
REMARK    3  A    between atoms: O1_7  and  C7_8 
REMARK    4  A    between atoms: C10_11  and  O2_12 
REMARK    5  A    between atoms: O2_12  and  C11_13 
REMARK    6  A    between atoms: C30_40  and  C33_43 
REMARK    7  A    between atoms: C33_43  and  C34_44 
REMARK    8  A    between atoms: C34_44  and  C35_45 
REMARK    9  A    between atoms: C35_45  and  C36_46 
REMARK   10  A    between atoms: C36_46  and  O11_47 
REMARK   11  A    between atoms: O11_47  and  C37_48 
REMARK   12  A    between atoms: C38_50  and  C42_57 
REMARK   13  A    between atoms: O18_63  and  C46_64 
REMARK   14  A    between atoms: C48_67  and  O22_72 
REMARK   15  A    between atoms: O22_72  and  C51_73 
REMARK   16  A    between atoms: C52_75  and  C56_82 
ROOT
HETATM    1  C1  UNL     1       1.414  -1.268  -4.061  1.00  0.00     0.059 C 
HETATM    2  C2  UNL     1       0.754  -1.979  -2.874  1.00  0.00     0.120 C 
HETATM    3  C3  UNL     1       1.766  -3.039  -2.465  1.00  0.00     0.030 C 
HETATM    4  C4  UNL     1       3.239  -2.558  -2.418  1.00  0.00     0.005 C 
HETATM    5  C5  UNL     1       3.574  -1.030  -2.646  1.00  0.00     0.025 C 
HETATM    6  C6  UNL     1       2.614  -0.375  -3.690  1.00  0.00     0.120 C 
HETATM    7  C19 UNL     1       5.085  -0.883  -3.095  1.00  0.00     0.002 C 
HETATM    8  C20 UNL     1       5.897  -1.958  -2.343  1.00  0.00     0.000 C 
HETATM    9  C21 UNL     1       5.603  -3.339  -2.950  1.00  0.00     0.000 C 
HETATM   10  C22 UNL     1       4.114  -3.471  -3.304  1.00  0.00     0.000 C 
HETATM   11  C23 UNL     1       7.376  -1.618  -2.335  1.00  0.00     0.003 C 
HETATM   12  C24 UNL     1       7.643  -0.281  -1.602  1.00  0.00     0.003 C 
HETATM   13  C25 UNL     1       7.241   0.708  -2.732  1.00  0.00     0.000 C 
HETATM   14  C26 UNL     1       5.746   0.535  -3.160  1.00  0.00     0.000 C 
HETATM   15  C27 UNL     1       9.133  -0.420  -1.169  1.00  0.00     0.032 C 
HETATM   16  C28 UNL     1       9.562  -1.876  -1.415  1.00  0.00     0.118 C 
HETATM   17  C29 UNL     1       8.325  -2.680  -1.796  1.00  0.00     0.030 C 
HETATM   18  O10 UNL     1      10.146  -2.419  -0.266  1.00  0.00    -0.335 OA
HETATM   19  C30 UNL     1       9.712  -1.685   0.843  1.00  0.00     0.219 C 
HETATM   20  C31 UNL     1       9.565  -0.256   0.314  1.00  0.00     0.057 C 
HETATM   21  C32 UNL     1      10.884   0.541   0.381  1.00  0.00     0.005 C 
HETATM   22  O17 UNL     1      10.755  -1.771   1.791  1.00  0.00    -0.196 OA
HETATM   23  C44 UNL     1       6.784   0.192  -0.410  1.00  0.00     0.000 C 
HETATM   24  C45 UNL     1       3.446  -0.332  -1.263  1.00  0.00     0.002 C 
ENDROOT
BRANCH   2  25
HETATM   25  O18 UNL     1       0.520  -1.073  -1.842  1.00  0.00    -0.332 OA
BRANCH  25  26
HETATM   26  C46 UNL     1      -0.360  -1.452  -0.795  1.00  0.00     0.270 C 
HETATM   27  O19 UNL     1      -1.347  -0.440  -0.918  1.00  0.00    -0.329 OA
HETATM   28  C47 UNL     1      -2.193  -0.271   0.187  1.00  0.00     0.148 C 
HETATM   29  C48 UNL     1      -1.393  -0.005   1.467  1.00  0.00     0.178 C 
HETATM   30  C57 UNL     1      -3.270  -1.355   0.236  1.00  0.00     0.035 C 
HETATM   31  C49 UNL     1      -0.466  -1.181   1.739  1.00  0.00     0.217 C 
HETATM   32  C50 UNL     1       0.401  -1.379   0.520  1.00  0.00     0.241 C 
HETATM   33  O21 UNL     1      -1.162  -2.376   1.980  1.00  0.00    -0.218 OA
HETATM   34  O20 UNL     1       1.170  -2.539   0.718  1.00  0.00    -0.215 OA
BRANCH  29  35
HETATM   35  O22 UNL     1      -0.681   1.186   1.208  1.00  0.00    -0.326 OA
BRANCH  35  36
HETATM   36  C51 UNL     1       0.091   1.725   2.259  1.00  0.00     0.270 C 
HETATM   37  O23 UNL     1      -0.787   2.496   3.049  1.00  0.00    -0.326 OA
HETATM   38  C52 UNL     1      -0.141   3.112   4.137  1.00  0.00     0.184 C 
HETATM   39  C53 UNL     1       0.976   4.030   3.643  1.00  0.00     0.215 C 
HETATM   40  C54 UNL     1       1.940   3.261   2.765  1.00  0.00     0.220 C 
HETATM   41  O26 UNL     1       1.729   4.570   4.701  1.00  0.00    -0.218 OA
HETATM   42  C55 UNL     1       1.146   2.624   1.651  1.00  0.00     0.241 C 
HETATM   43  O25 UNL     1       2.894   4.136   2.217  1.00  0.00    -0.218 OA
HETATM   44  O24 UNL     1       2.026   1.878   0.849  1.00  0.00    -0.215 OA
BRANCH  38  45
HETATM   45  C56 UNL     1      -1.204   3.857   4.936  1.00  0.00     0.214 C 
HETATM   46  O27 UNL     1      -0.734   4.154   6.235  1.00  0.00    -0.218 OA
ENDBRANCH  38  45
ENDBRANCH  35  36
ENDBRANCH  29  35
ENDBRANCH  25  26
ENDBRANCH   2  25
BRANCH   6  47
HETATM   47  O1  UNL     1       2.195   0.885  -3.225  1.00  0.00    -0.332 OA
BRANCH  47  48
HETATM   48  C7  UNL     1       1.411   1.657  -4.112  1.00  0.00     0.270 C 
HETATM   49  C8  UNL     1      -0.033   1.756  -3.660  1.00  0.00     0.241 C 
HETATM   50  C9  UNL     1      -0.228   2.697  -2.486  1.00  0.00     0.217 C 
HETATM   51  O9  UNL     1      -0.823   2.162  -4.756  1.00  0.00    -0.215 OA
HETATM   52  C10 UNL     1       0.456   4.029  -2.773  1.00  0.00     0.178 C 
HETATM   53  O8  UNL     1       0.271   2.108  -1.310  1.00  0.00    -0.218 OA
HETATM   54  C17 UNL     1       1.909   3.819  -3.209  1.00  0.00     0.148 C 
HETATM   55  O7  UNL     1       2.038   2.913  -4.272  1.00  0.00    -0.329 OA
HETATM   56  C18 UNL     1       2.891   3.544  -2.071  1.00  0.00     0.035 C 
BRANCH  52  57
HETATM   57  O2  UNL     1      -0.297   4.621  -3.798  1.00  0.00    -0.326 OA
BRANCH  57  58
HETATM   58  C11 UNL     1      -0.023   5.971  -4.093  1.00  0.00     0.270 C 
HETATM   59  C12 UNL     1       0.039   6.070  -5.599  1.00  0.00     0.241 C 
HETATM   60  C13 UNL     1       0.216   7.506  -6.030  1.00  0.00     0.220 C 
HETATM   61  O6  UNL     1       1.135   5.313  -6.051  1.00  0.00    -0.215 OA
HETATM   62  C14 UNL     1      -0.828   8.377  -5.353  1.00  0.00     0.212 C 
HETATM   63  O5  UNL     1       1.515   7.907  -5.673  1.00  0.00    -0.218 OA
HETATM   64  C15 UNL     1      -1.037   8.075  -3.869  1.00  0.00     0.151 C 
HETATM   65  O4  UNL     1      -2.051   8.189  -6.032  1.00  0.00    -0.218 OA
HETATM   66  O3  UNL     1      -1.124   6.699  -3.602  1.00  0.00    -0.329 OA
HETATM   67  C16 UNL     1      -0.030   8.767  -2.945  1.00  0.00     0.035 C 
ENDBRANCH  57  58
ENDBRANCH  52  57
ENDBRANCH  47  48
ENDBRANCH   6  47
BRANCH  19  68
HETATM   68  C33 UNL     1       8.457  -2.271   1.488  1.00  0.00     0.064 C 
BRANCH  68  69
HETATM   69  C34 UNL     1       8.447  -3.777   1.796  1.00  0.00     0.030 C 
BRANCH  69  70
HETATM   70  C35 UNL     1       7.025  -4.244   2.057  1.00  0.00    -0.015 C 
HETATM   71  C43 UNL     1       6.237  -4.699   1.068  1.00  0.00    -0.007 C 
BRANCH  70  72
HETATM   72  C36 UNL     1       6.529  -4.204   3.483  1.00  0.00     0.167 C 
BRANCH  72  73
HETATM   73  O11 UNL     1       7.206  -5.222   4.192  1.00  0.00    -0.325 OA
BRANCH  73  74
HETATM   74  C37 UNL     1       6.452  -5.858   5.196  1.00  0.00     0.270 C 
HETATM   75  O12 UNL     1       6.367  -4.960   6.278  1.00  0.00    -0.326 OA
HETATM   76  C38 UNL     1       5.711  -5.522   7.387  1.00  0.00     0.184 C 
HETATM   77  C39 UNL     1       6.470  -6.754   7.871  1.00  0.00     0.215 C 
HETATM   78  C40 UNL     1       6.578  -7.768   6.752  1.00  0.00     0.220 C 
HETATM   79  O15 UNL     1       5.806  -7.376   8.944  1.00  0.00    -0.218 OA
HETATM   80  C41 UNL     1       7.238  -7.090   5.578  1.00  0.00     0.241 C 
HETATM   81  O14 UNL     1       7.363  -8.855   7.170  1.00  0.00    -0.218 OA
HETATM   82  O13 UNL     1       7.265  -7.974   4.486  1.00  0.00    -0.215 OA
BRANCH  76  83
HETATM   83  C42 UNL     1       5.607  -4.465   8.478  1.00  0.00     0.214 C 
HETATM   84  O16 UNL     1       4.760  -3.417   8.052  1.00  0.00    -0.218 OA
ENDBRANCH  76  83
ENDBRANCH  73  74
ENDBRANCH  72  73
ENDBRANCH  70  72
ENDBRANCH  69  70
ENDBRANCH  68  69
ENDBRANCH  19  68
TORSDOF 16
