REMARK  2 active torsions:
REMARK  status: ('A' for Active; 'I' for Inactive)
REMARK    1  A    between atoms: C2_2  and  O5_32 
REMARK    2  A    between atoms: O5_32  and  C28_33 
ROOT
HETATM    1  C1  UNL     1      -1.722   0.765   0.893  1.00  0.00     0.063 C 
HETATM    2  C2  UNL     1      -1.970  -0.653   0.356  1.00  0.00     0.123 C 
HETATM    3  C3  UNL     1      -1.555  -0.762  -1.128  1.00  0.00     0.060 C 
HETATM    4  C4  UNL     1      -0.110  -0.283  -1.344  1.00  0.00     0.131 C 
HETATM    5  C5  UNL     1       0.049   1.207  -0.910  1.00  0.00     0.054 C 
HETATM    6  C6  UNL     1      -0.326   1.324   0.580  1.00  0.00     0.157 C 
HETATM    7  O1  UNL     1       0.626   0.663   1.378  1.00  0.00    -0.223 OA
HETATM    8  C7  UNL     1       1.462   1.761  -1.294  1.00  0.00     0.005 C 
HETATM    9  C8  UNL     1       2.469   0.633  -1.549  1.00  0.00     0.000 C 
HETATM   10  C9  UNL     1       2.011  -0.192  -2.766  1.00  0.00     0.003 C 
HETATM   11  C10 UNL     1       0.484  -0.477  -2.747  1.00  0.00     0.031 C 
HETATM   12  C11 UNL     1       3.915   1.127  -1.475  1.00  0.00     0.003 C 
HETATM   13  C12 UNL     1       4.210   2.576  -1.887  1.00  0.00     0.003 C 
HETATM   14  C13 UNL     1       3.278   3.551  -1.127  1.00  0.00     0.000 C 
HETATM   15  C14 UNL     1       2.084   2.866  -0.421  1.00  0.00     0.000 C 
HETATM   16  C15 UNL     1       5.730   2.617  -1.555  1.00  0.00     0.032 C 
HETATM   17  C16 UNL     1       6.253   1.213  -1.889  1.00  0.00     0.118 C 
HETATM   18  C17 UNL     1       5.040   0.285  -2.072  1.00  0.00     0.030 C 
HETATM   19  O2  UNL     1       7.056   0.747  -0.847  1.00  0.00    -0.337 OA
HETATM   20  C18 UNL     1       6.979   1.574   0.284  1.00  0.00     0.187 C 
HETATM   21  C19 UNL     1       6.125   2.794  -0.078  1.00  0.00     0.054 C 
HETATM   22  C20 UNL     1       6.790   4.157   0.178  1.00  0.00     0.005 C 
HETATM   23  O3  UNL     1       8.294   1.986   0.581  1.00  0.00    -0.335 OA
HETATM   24  C21 UNL     1       9.170   0.943   0.934  1.00  0.00     0.145 C 
HETATM   25  C22 UNL     1       8.687   0.180   2.167  1.00  0.00     0.030 C 
HETATM   26  C23 UNL     1       7.280  -0.364   1.896  1.00  0.00     0.007 C 
HETATM   27  C24 UNL     1       6.390   0.804   1.465  1.00  0.00     0.056 C 
HETATM   28  C25 UNL     1       9.649  -0.957   2.542  1.00  0.00     0.003 C 
HETATM   29  C26 UNL     1       4.046   2.804  -3.409  1.00  0.00     0.000 C 
HETATM   30  C27 UNL     1      -0.937   2.144  -1.678  1.00  0.00     0.005 C 
HETATM   31  O4  UNL     1       0.618  -1.184  -0.543  1.00  0.00    -0.226 OA
ENDROOT
BRANCH   2  32
HETATM   32  O5  UNL     1      -1.241  -1.520   1.186  1.00  0.00    -0.331 OA
BRANCH  32  33
HETATM   33  C28 UNL     1      -1.679  -2.862   1.221  1.00  0.00     0.270 C 
HETATM   34  O6  UNL     1      -2.572  -2.876   2.317  1.00  0.00    -0.326 OA
HETATM   35  C29 UNL     1      -3.053  -4.163   2.616  1.00  0.00     0.181 C 
HETATM   36  C30 UNL     1      -1.926  -5.125   2.956  1.00  0.00     0.215 C 
HETATM   37  C31 UNL     1      -0.908  -5.151   1.839  1.00  0.00     0.220 C 
HETATM   38  O9  UNL     1      -1.273  -4.726   4.138  1.00  0.00    -0.218 OA
HETATM   39  C32 UNL     1      -0.477  -3.740   1.500  1.00  0.00     0.241 C 
HETATM   40  O8  UNL     1       0.224  -5.876   2.252  1.00  0.00    -0.218 OA
HETATM   41  O7  UNL     1       0.355  -3.824   0.369  1.00  0.00    -0.215 OA
ENDBRANCH  32  33
ENDBRANCH   2  32
TORSDOF 2
