REMARK  0 active torsions:
REMARK  status: ('A' for Active; 'I' for Inactive)
ROOT
HETATM    1  C1  UNL     1      -0.031  -0.158   0.050  1.00  0.00     0.019 C 
HETATM    2  C2  UNL     1      -1.055   0.109   1.173  1.00  0.00     0.029 C 
HETATM    3  C3  UNL     1      -0.479   0.805   2.389  1.00  0.00    -0.034 C 
HETATM    4  C4  UNL     1       0.706   1.448   2.358  1.00  0.00    -0.048 C 
HETATM    5  C5  UNL     1       1.564   1.494   1.111  1.00  0.00     0.022 C 
HETATM    6  C6  UNL     1       0.813   1.115  -0.177  1.00  0.00     0.008 C 
HETATM    7  C7  UNL     1       1.218   2.151   3.589  1.00  0.00     0.026 C 
HETATM    8  C8  UNL     1       0.866  -1.360   0.456  1.00  0.00     0.004 C 
HETATM    9  C9  UNL     1       0.087  -2.595  -0.015  1.00  0.00     0.004 C 
HETATM   10  C10 UNL     1      -0.474  -2.155  -1.362  1.00  0.00     0.021 C 
HETATM   11  C11 UNL     1      -0.735  -0.684  -1.187  1.00  0.00    -0.052 C 
HETATM   12  C12 UNL     1      -1.511   0.027  -2.036  1.00  0.00    -0.051 C 
HETATM   13  C13 UNL     1      -2.129  -0.624  -3.247  1.00  0.00     0.026 C 
HETATM   14  C14 UNL     1      -1.816   1.489  -1.836  1.00  0.00     0.026 C 
HETATM   15  C15 UNL     1       2.218  -1.404  -0.264  1.00  0.00     0.000 C 
ENDROOT
TORSDOF 0
