REMARK  1 active torsions:
REMARK  status: ('A' for Active; 'I' for Inactive)
REMARK    1  A    between atoms: C10_10  and  C11_11 
ROOT
HETATM    1  C1  UNL     1       0.197  -0.953   3.009  1.00  0.00    -0.008 C 
HETATM    2  C2  UNL     1      -0.155   0.320   2.747  1.00  0.00    -0.026 C 
HETATM    3  C3  UNL     1      -0.338   0.747   1.311  1.00  0.00     0.022 C 
HETATM    4  C4  UNL     1       0.868   0.226   0.468  1.00  0.00     0.008 C 
HETATM    5  C5  UNL     1       0.122  -1.147   0.486  1.00  0.00     0.023 C 
HETATM    6  C6  UNL     1      -1.167  -0.276   0.481  1.00  0.00     0.007 C 
HETATM    7  C7  UNL     1      -2.421  -0.842   1.154  1.00  0.00     0.001 C 
HETATM    8  C8  UNL     1      -1.493   0.285  -0.915  1.00  0.00     0.001 C 
HETATM    9  C9  UNL     1      -0.232   0.472  -1.769  1.00  0.00     0.000 C 
HETATM   10  C10 UNL     1       0.957   0.923  -0.904  1.00  0.00     0.001 C 
HETATM   11  C14 UNL     1       0.335  -1.815   1.827  1.00  0.00    -0.023 C 
HETATM   12  C15 UNL     1       0.623  -3.125   1.944  1.00  0.00    -0.004 C 
ENDROOT
BRANCH  10  13
HETATM   13  C11 UNL     1       2.322   0.721  -1.605  1.00  0.00     0.000 C 
HETATM   14  C12 UNL     1       2.321   1.262  -3.049  1.00  0.00     0.000 C 
HETATM   15  C13 UNL     1       3.478   1.400  -0.843  1.00  0.00     0.000 C 
ENDBRANCH  10  13
TORSDOF 1
