REMARK  4 active torsions:
REMARK  status: ('A' for Active; 'I' for Inactive)
REMARK    1  A    between atoms: C2_2  and  O6_29 
REMARK    2  A    between atoms: C5_5  and  C23_26 
REMARK    3  A    between atoms: C15_15  and  C18_18 
REMARK    4  A    between atoms: O6_29  and  C24_30 
ROOT
HETATM    1  C1  UNL     1      -0.735   0.645   1.412  1.00  0.00     0.030 C 
HETATM    2  C2  UNL     1      -0.856  -0.845   1.056  1.00  0.00     0.120 C 
HETATM    3  C3  UNL     1      -0.202  -1.137  -0.311  1.00  0.00     0.061 C 
HETATM    4  C4  UNL     1       1.217  -0.558  -0.403  1.00  0.00     0.136 C 
HETATM    5  C5  UNL     1       1.213   0.978  -0.188  1.00  0.00     0.084 C 
HETATM    6  C6  UNL     1       0.685   1.230   1.241  1.00  0.00     0.012 C 
HETATM    7  C7  UNL     1       2.579   1.618  -0.584  1.00  0.00     0.012 C 
HETATM    8  C8  UNL     1       3.768   0.650  -0.511  1.00  0.00     0.029 C 
HETATM    9  C9  UNL     1       3.497  -0.499  -1.516  1.00  0.00     0.005 C 
HETATM   10  C10 UNL     1       2.002  -0.876  -1.677  1.00  0.00     0.031 C 
HETATM   11  C11 UNL     1       5.173   1.312  -0.486  1.00  0.00     0.127 C 
HETATM   12  C12 UNL     1       5.252   2.738  -1.082  1.00  0.00     0.029 C 
HETATM   13  C13 UNL     1       4.045   3.631  -0.708  1.00  0.00     0.003 C 
HETATM   14  C14 UNL     1       2.941   2.936   0.101  1.00  0.00     0.001 C 
HETATM   15  C15 UNL     1       5.363   2.406  -2.593  1.00  0.00     0.023 C 
HETATM   16  C16 UNL     1       6.274   1.163  -2.669  1.00  0.00     0.007 C 
HETATM   17  C17 UNL     1       6.236   0.529  -1.269  1.00  0.00     0.031 C 
HETATM   18  C22 UNL     1       6.531   3.493  -0.637  1.00  0.00     0.003 C 
HETATM   19  O3  UNL     1       5.594   1.372   0.857  1.00  0.00    -0.226 OA
HETATM   20  O5  UNL     1       1.921  -1.240   0.611  1.00  0.00    -0.226 OA
ENDROOT
BRANCH   2  21
HETATM   21  O6  UNL     1      -0.252  -1.572   2.092  1.00  0.00    -0.333 OA
BRANCH  21  22
HETATM   22  C24 UNL     1      -0.559  -2.954   2.124  1.00  0.00     0.238 C 
HETATM   23  O7  UNL     1      -1.423  -3.079   3.233  1.00  0.00    -0.331 OA
HETATM   24  C25 UNL     1      -1.817  -4.404   3.464  1.00  0.00     0.151 C 
HETATM   25  C26 UNL     1      -0.617  -5.302   3.745  1.00  0.00     0.209 C 
HETATM   26  C29 UNL     1      -2.831  -4.416   4.609  1.00  0.00     0.035 C 
HETATM   27  C27 UNL     1       0.416  -5.207   2.638  1.00  0.00     0.190 C 
HETATM   28  O9  UNL     1      -0.009  -4.945   4.965  1.00  0.00    -0.218 OA
HETATM   29  C28 UNL     1       0.721  -3.745   2.343  1.00  0.00     0.097 C 
HETATM   30  O8  UNL     1      -0.086  -5.818   1.474  1.00  0.00    -0.221 OA
ENDBRANCH  21  22
ENDBRANCH   2  21
BRANCH   5  31
HETATM   31  C23 UNL     1       0.228   1.726  -1.106  1.00  0.00     0.209 C 
HETATM   32  O4  UNL     1      -0.233   1.285  -2.131  1.00  0.00    -0.288 OA
ENDBRANCH   5  31
BRANCH  15  33
HETATM   33  C18 UNL     1       5.771   3.518  -3.523  1.00  0.00    -0.009 A 
HETATM   34  C19 UNL     1       7.014   3.935  -3.816  1.00  0.00     0.062 A 
HETATM   35  C20 UNL     1       6.827   5.036  -4.780  1.00  0.00     0.296 A 
HETATM   36  O1  UNL     1       5.519   5.283  -5.067  1.00  0.00    -0.294 OA
HETATM   37  O2  UNL     1       7.759   5.662  -5.271  1.00  0.00    -0.259 OA
HETATM   38  C21 UNL     1       4.769   4.353  -4.289  1.00  0.00     0.175 A 
ENDBRANCH  15  33
TORSDOF 4
