REMARK  0 active torsions:
REMARK  status: ('A' for Active; 'I' for Inactive)
ROOT
HETATM    1  C1  UNL     1      -2.321  -1.471  -2.645  1.00  0.00     0.066 C 
HETATM    2  C2  UNL     1      -2.268  -2.976  -2.413  1.00  0.00     0.155 C 
HETATM    3  C3  UNL     1      -1.080  -3.594  -3.143  1.00  0.00     0.033 C 
HETATM    4  C4  UNL     1       0.256  -2.913  -2.770  1.00  0.00     0.005 C 
HETATM    5  C5  UNL     1       0.243  -1.365  -2.979  1.00  0.00     0.028 C 
HETATM    6  C6  UNL     1      -1.003  -0.798  -2.255  1.00  0.00     0.155 C 
HETATM    7  O1  UNL     1      -1.167   0.582  -2.480  1.00  0.00    -0.223 OA
HETATM    8  C7  UNL     1       1.612  -0.795  -2.467  1.00  0.00     0.002 C 
HETATM    9  C8  UNL     1       1.885  -1.192  -0.995  1.00  0.00     0.000 C 
HETATM   10  C9  UNL     1       1.987  -2.721  -0.893  1.00  0.00     0.000 C 
HETATM   11  C10 UNL     1       0.667  -3.349  -1.348  1.00  0.00     0.000 C 
HETATM   12  C11 UNL     1       3.148  -0.500  -0.480  1.00  0.00     0.003 C 
HETATM   13  C12 UNL     1       3.048   1.040  -0.564  1.00  0.00     0.003 C 
HETATM   14  C13 UNL     1       3.115   1.330  -2.077  1.00  0.00     0.000 C 
HETATM   15  C14 UNL     1       1.928   0.683  -2.825  1.00  0.00     0.000 C 
HETATM   16  C15 UNL     1       4.292   1.487   0.256  1.00  0.00     0.032 C 
HETATM   17  C16 UNL     1       4.697   0.288   1.115  1.00  0.00     0.118 C 
HETATM   18  C17 UNL     1       3.596  -0.762   0.959  1.00  0.00     0.030 C 
HETATM   19  O2  UNL     1       4.867   0.665   2.445  1.00  0.00    -0.337 OA
HETATM   20  C18 UNL     1       4.369   1.958   2.665  1.00  0.00     0.187 C 
HETATM   21  C19 UNL     1       4.209   2.624   1.290  1.00  0.00     0.054 C 
HETATM   22  C20 UNL     1       5.266   3.702   0.974  1.00  0.00     0.005 C 
HETATM   23  O3  UNL     1       5.338   2.659   3.411  1.00  0.00    -0.335 OA
HETATM   24  C21 UNL     1       5.593   2.132   4.691  1.00  0.00     0.145 C 
HETATM   25  C22 UNL     1       4.343   2.138   5.567  1.00  0.00     0.030 C 
HETATM   26  C23 UNL     1       3.250   1.329   4.862  1.00  0.00     0.007 C 
HETATM   27  C24 UNL     1       3.061   1.896   3.451  1.00  0.00     0.056 C 
HETATM   28  C25 UNL     1       4.628   1.570   6.965  1.00  0.00     0.003 C 
HETATM   29  C26 UNL     1       1.730   1.632  -0.020  1.00  0.00     0.000 C 
HETATM   30  C27 UNL     1       0.148  -1.068  -4.498  1.00  0.00     0.003 C 
HETATM   31  O4  UNL     1      -3.463  -3.560  -2.873  1.00  0.00    -0.223 OA
ENDROOT
TORSDOF 0
