REMARK  2 active torsions:
REMARK  status: ('A' for Active; 'I' for Inactive)
REMARK    1  A    between atoms: C1_1  and  O4_23 
REMARK    2  A    between atoms: C15_16  and  O2_20 
ROOT
HETATM    1  C1  UNL     1      -1.177   2.220   0.488  1.00  0.00     0.119 A 
HETATM    2  C2  UNL     1      -1.168   0.816   0.515  1.00  0.00     0.153 A 
HETATM    3  C3  UNL     1       0.047   0.126   0.544  1.00  0.00     0.027 A 
HETATM    4  C4  UNL     1       1.289   0.768   0.530  1.00  0.00     0.007 A 
HETATM    5  C5  UNL     1       1.283   2.166   0.531  1.00  0.00    -0.020 A 
HETATM    6  C6  UNL     1       0.070   2.860   0.507  1.00  0.00     0.022 A 
HETATM    7  C7  UNL     1       2.580   2.927   0.565  1.00  0.00     0.061 C 
HETATM    8  C8  UNL     1       3.715   2.035   1.075  1.00  0.00     0.256 C 
HETATM    9  N1  UNL     1       3.759   0.807   0.299  1.00  0.00     0.144 N 
HETATM   10  C9  UNL     1       2.585  -0.029   0.537  1.00  0.00     0.246 C 
HETATM   11  C10 UNL     1       2.564  -1.150  -0.518  1.00  0.00     0.064 C 
HETATM   12  C11 UNL     1       3.904  -1.814  -0.689  1.00  0.00    -0.020 A 
HETATM   13  C12 UNL     1       5.059  -1.226  -0.171  1.00  0.00     0.009 A 
HETATM   14  C13 UNL     1       4.987   0.078   0.587  1.00  0.00     0.277 C 
HETATM   15  C14 UNL     1       6.290  -1.861  -0.366  1.00  0.00     0.024 A 
HETATM   16  C15 UNL     1       6.421  -3.075  -1.054  1.00  0.00     0.119 A 
HETATM   17  C16 UNL     1       5.248  -3.662  -1.553  1.00  0.00     0.153 A 
HETATM   18  C17 UNL     1       4.017  -3.028  -1.369  1.00  0.00     0.025 A 
HETATM   19  O1  UNL     1       5.327  -4.844  -2.221  1.00  0.00    -0.188 OA
HETATM   20  O3  UNL     1      -2.336   0.118   0.511  1.00  0.00    -0.188 OA
ENDROOT
BRANCH   1  21
HETATM   21  O4  UNL     1      -2.389   2.864   0.458  1.00  0.00    -0.326 OA
HETATM   22  C19 UNL     1      -2.403   4.272   0.448  1.00  0.00     0.181 C 
ENDBRANCH   1  21
BRANCH  16  23
HETATM   23  O2  UNL     1       7.605  -3.734  -1.275  1.00  0.00    -0.326 OA
HETATM   24  C18 UNL     1       8.797  -3.159  -0.794  1.00  0.00     0.181 C 
ENDBRANCH  16  23
TORSDOF 2
