REMARK  4 active torsions:
REMARK  status: ('A' for Active; 'I' for Inactive)
REMARK    1  A    between atoms: C3_3  and  C13_18 
REMARK    2  A    between atoms: C5_5  and  C9_9 
REMARK    3  A    between atoms: C6_6  and  C7_7 
REMARK    4  A    between atoms: C7_7  and  C8_8 
ROOT
HETATM    1  C1  UNL     1      -1.208   0.699  -0.890  1.00  0.00     0.035 C 
HETATM    2  C2  UNL     1      -1.507  -0.797  -1.016  1.00  0.00     0.129 C 
HETATM    3  C3  UNL     1      -0.235  -1.640  -1.055  1.00  0.00     0.058 C 
HETATM    4  C4  UNL     1       0.148  -1.414   0.410  1.00  0.00     0.123 C 
HETATM    5  C5  UNL     1       0.648   0.005   0.751  1.00  0.00     0.165 C 
HETATM    6  C6  UNL     1      -0.363   1.126   0.338  1.00  0.00     0.059 C 
HETATM    7  C11 UNL     1       0.328   2.455  -0.076  1.00  0.00     0.005 C 
HETATM    8  O3  UNL     1       1.894   0.217   0.129  1.00  0.00    -0.223 OA
HETATM    9  C12 UNL     1      -1.221  -1.633   1.044  1.00  0.00     0.274 C 
HETATM   10  O4  UNL     1      -2.156  -1.206   0.155  1.00  0.00    -0.304 OA
HETATM   11  O5  UNL     1      -1.448  -2.047   2.158  1.00  0.00    -0.264 OA
ENDROOT
BRANCH   3  12
HETATM   12  C13 UNL     1       0.824  -1.455  -2.116  1.00  0.00    -0.041 C 
HETATM   13  C14 UNL     1       2.108  -2.228  -1.911  1.00  0.00     0.026 C 
HETATM   14  C15 UNL     1       0.621  -0.783  -3.260  1.00  0.00    -0.009 C 
ENDBRANCH   3  12
BRANCH   5  15
HETATM   15  C9  UNL     1       0.827   0.070   2.275  1.00  0.00     0.173 A 
HETATM   16  C8  UNL     1      -0.216   0.836   2.796  1.00  0.00     0.172 A 
HETATM   17  O1  UNL     1       1.176   1.490   2.740  1.00  0.00    -0.349 OA
BRANCH  16  18
HETATM   18  C7  UNL     1      -1.079   1.324   1.690  1.00  0.00     0.150 A 
HETATM   19  O2  UNL     1      -1.780   2.749   1.884  1.00  0.00    -0.351 OA
HETATM   20  C10 UNL     1      -2.491   1.539   1.826  1.00  0.00     0.172 A 
ENDBRANCH  16  18
ENDBRANCH   5  15
TORSDOF 4
