REMARK  1 active torsions:
REMARK  status: ('A' for Active; 'I' for Inactive)
REMARK    1  A    between atoms: C11_11  and  C12_12 
ROOT
HETATM    1  C1  UNL     1      -0.027  -0.098   0.269  1.00  0.00     0.007 C 
HETATM    2  C2  UNL     1       0.885   1.123   0.033  1.00  0.00     0.005 C 
HETATM    3  C3  UNL     1       2.121   1.070   0.947  1.00  0.00     0.022 C 
HETATM    4  C4  UNL     1       2.746  -0.305   1.072  1.00  0.00    -0.048 C 
HETATM    5  C5  UNL     1       2.125  -1.420   0.637  1.00  0.00    -0.035 C 
HETATM    6  C6  UNL     1       0.773  -1.375  -0.039  1.00  0.00     0.025 C 
HETATM    7  C7  UNL     1       4.107  -0.400   1.711  1.00  0.00     0.026 C 
HETATM    8  C8  UNL     1      -0.648  -0.078   1.685  1.00  0.00     0.000 C 
HETATM    9  C9  UNL     1      -1.721   1.008   1.586  1.00  0.00     0.000 C 
HETATM   10  C10 UNL     1      -2.191   0.994   0.131  1.00  0.00     0.003 C 
HETATM   11  C11 UNL     1      -1.311  -0.037  -0.576  1.00  0.00     0.028 C 
HETATM   12  C15 UNL     1      -1.324  -1.393   2.082  1.00  0.00     0.000 C 
ENDROOT
BRANCH  11  13
HETATM   13  C12 UNL     1      -1.096   0.320  -2.045  1.00  0.00     0.127 C 
HETATM   14  C13 UNL     1      -0.197  -0.729  -2.699  1.00  0.00     0.033 C 
HETATM   15  C14 UNL     1      -2.451   0.453  -2.740  1.00  0.00     0.033 C 
HETATM   16  O1  UNL     1      -0.441   1.568  -2.115  1.00  0.00    -0.226 OA
ENDBRANCH  11  13
TORSDOF 1
