REMARK  14 active torsions:
REMARK  status: ('A' for Active; 'I' for Inactive)
REMARK    1  A    between atoms: C1_1  and  C2_2 
REMARK    2  A    between atoms: C1_1  and  C4_4 
REMARK    3  A    between atoms: C4_4  and  C5_5 
REMARK    4  A    between atoms: C5_5  and  C6_6 
REMARK    5  A    between atoms: C7_7  and  C8_8 
REMARK    6  A    between atoms: C8_8  and  C9_9 
REMARK    7  A    between atoms: C10_10  and  C11_12 
REMARK    8  A    between atoms: C11_12  and  C12_13 
REMARK    9  A    between atoms: C12_13  and  C13_14 
REMARK   10  A    between atoms: C13_14  and  C14_15 
REMARK   11  A    between atoms: C14_15  and  C15_16 
REMARK   12  A    between atoms: C15_16  and  C16_17 
REMARK   13  A    between atoms: C16_17  and  C17_18 
REMARK   14  A    between atoms: C17_18  and  C18_19 
ROOT
HETATM    1  C9  UNL     1       3.966   1.171   0.265  1.00  0.00     0.147 A 
HETATM    2  C10 UNL     1       3.351   2.192  -0.475  1.00  0.00     0.143 A 
HETATM    3  O1  UNL     1       3.996   2.587   0.869  1.00  0.00    -0.354 OA
ENDROOT
BRANCH   2   4
HETATM    4  C11 UNL     1       1.848   2.447  -0.433  1.00  0.00     0.032 C 
BRANCH   4   5
HETATM    5  C12 UNL     1       1.227   2.471  -1.842  1.00  0.00     0.003 C 
BRANCH   5   6
HETATM    6  C13 UNL     1      -0.306   2.601  -1.812  1.00  0.00     0.000 C 
BRANCH   6   7
HETATM    7  C14 UNL     1      -0.960   2.790  -3.193  1.00  0.00     0.000 C 
BRANCH   7   8
HETATM    8  C15 UNL     1      -1.314   1.510  -3.975  1.00  0.00     0.001 C 
BRANCH   8   9
HETATM    9  C16 UNL     1      -0.118   0.658  -4.430  1.00  0.00     0.011 C 
BRANCH   9  10
HETATM   10  C17 UNL     1       0.173  -0.524  -3.491  1.00  0.00     0.098 C 
BRANCH  10  11
HETATM   11  C18 UNL     1       1.525  -1.151  -3.772  1.00  0.00     0.185 C 
HETATM   12  O2  UNL     1       2.226  -1.356  -2.643  1.00  0.00    -0.647 OA
HETATM   13  O3  UNL     1       1.977  -1.430  -4.857  1.00  0.00    -0.647 OA
ENDBRANCH  10  11
ENDBRANCH   9  10
ENDBRANCH   8   9
ENDBRANCH   7   8
ENDBRANCH   6   7
ENDBRANCH   5   6
ENDBRANCH   4   5
ENDBRANCH   2   4
BRANCH   1  14
HETATM   14  C8  UNL     1       3.253   0.276   1.273  1.00  0.00     0.058 C 
BRANCH  14  15
HETATM   15  C7  UNL     1       2.826  -1.026   0.646  1.00  0.00    -0.028 C 
HETATM   16  C6  UNL     1       1.788  -1.787   1.032  1.00  0.00    -0.031 C 
BRANCH  16  17
HETATM   17  C5  UNL     1       0.847  -1.506   2.180  1.00  0.00     0.026 C 
BRANCH  17  18
HETATM   18  C4  UNL     1       0.682  -2.740   3.082  1.00  0.00     0.005 C 
BRANCH  18  19
HETATM   19  C1  UNL     1      -0.131  -2.469   4.361  1.00  0.00     0.000 C 
BRANCH  19  20
HETATM   20  C2  UNL     1      -1.589  -2.062   4.094  1.00  0.00     0.000 C 
HETATM   21  C3  UNL     1      -2.386  -1.914   5.397  1.00  0.00     0.000 C 
ENDBRANCH  19  20
ENDBRANCH  18  19
ENDBRANCH  17  18
ENDBRANCH  16  17
ENDBRANCH  14  15
ENDBRANCH   1  14
TORSDOF 14
