REMARK  3 active torsions:
REMARK  status: ('A' for Active; 'I' for Inactive)
REMARK    1  A    between atoms: C9_10  and  C10_11 
REMARK    2  A    between atoms: C10_11  and  O1_12 
REMARK    3  A    between atoms: C13_16  and  C20_24 
ROOT
HETATM    1  C1  UNL     1      -2.446  -1.264   0.511  1.00  0.00     0.000 A 
HETATM    2  C2  UNL     1      -2.038  -2.588   0.843  1.00  0.00     0.002 A 
HETATM    3  C3  UNL     1      -0.703  -2.920   0.927  1.00  0.00     0.019 A 
HETATM    4  C4  UNL     1       0.241  -1.893   0.670  1.00  0.00     0.081 A 
HETATM    5  C5  UNL     1      -0.146  -0.589   0.348  1.00  0.00     0.015 A 
HETATM    6  C6  UNL     1      -1.527  -0.267   0.264  1.00  0.00     0.001 A 
HETATM    7  C7  UNL     1       1.033   0.195   0.132  1.00  0.00    -0.005 A 
HETATM    8  C8  UNL     1       2.118  -0.659   0.321  1.00  0.00     0.065 A 
HETATM    9  N1  UNL     1       1.613  -1.911   0.655  1.00  0.00    -0.250 NA
HETATM   10  C9  UNL     1       3.616  -0.370   0.180  1.00  0.00     0.131 C 
HETATM   11  C12 UNL     1       3.774   1.069  -0.351  1.00  0.00     0.091 C 
HETATM   12  C13 UNL     1       5.226   1.538  -0.591  1.00  0.00     0.021 C 
HETATM   13  C14 UNL     1       6.065   1.144   0.637  1.00  0.00     0.004 C 
HETATM   14  C15 UNL     1       5.093   0.957   1.812  1.00  0.00     0.023 C 
HETATM   15  C16 UNL     1       4.096   2.140   1.786  1.00  0.00     0.097 C 
HETATM   16  N2  UNL     1       3.145   1.752   0.774  1.00  0.00    -0.369 N 
HETATM   17  C17 UNL     1       2.034   2.588   0.431  1.00  0.00     0.102 C 
HETATM   18  C18 UNL     1       0.998   1.667  -0.264  1.00  0.00     0.051 C 
HETATM   19  C19 UNL     1       4.315  -0.372   1.578  1.00  0.00     0.019 C 
ENDROOT
BRANCH  10  20
HETATM   20  C10 UNL     1       4.116  -1.379  -0.852  1.00  0.00     0.278 C 
HETATM   21  O2  UNL     1       3.729  -1.401  -1.999  1.00  0.00    -0.264 OA
BRANCH  20  22
HETATM   22  O1  UNL     1       5.032  -2.242  -0.344  1.00  0.00    -0.299 OA
HETATM   23  C11 UNL     1       5.533  -3.219  -1.224  1.00  0.00     0.184 C 
ENDBRANCH  20  22
ENDBRANCH  10  20
BRANCH  12  24
HETATM   24  C20 UNL     1       5.901   1.091  -1.902  1.00  0.00     0.002 C 
HETATM   25  C21 UNL     1       5.177   1.562  -3.171  1.00  0.00     0.000 C 
ENDBRANCH  12  24
TORSDOF 3
