REMARK  2 active torsions:
REMARK  status: ('A' for Active; 'I' for Inactive)
REMARK    1  A    between atoms: C7_7  and  C12_13 
REMARK    2  A    between atoms: C13_14  and  C14_15 
ROOT
HETATM    1  C1  UNL     1      -0.297   1.667   1.354  1.00  0.00     0.000 C 
HETATM    2  C2  UNL     1      -0.965   0.464   2.020  1.00  0.00     0.000 C 
HETATM    3  C3  UNL     1      -1.198  -0.685   1.011  1.00  0.00     0.000 C 
HETATM    4  C4  UNL     1      -0.079  -0.707  -0.077  1.00  0.00     0.004 C 
HETATM    5  C5  UNL     1       1.305  -0.125   0.339  1.00  0.00     0.007 C 
HETATM    6  C6  UNL     1       1.122   1.323   0.876  1.00  0.00     0.001 C 
HETATM    7  C7  UNL     1       2.235  -0.078  -0.914  1.00  0.00     0.043 C 
HETATM    8  C8  UNL     1       2.328  -1.439  -1.580  1.00  0.00    -0.011 C 
HETATM    9  C9  UNL     1       0.983  -1.982  -2.000  1.00  0.00     0.171 C 
HETATM   10  C10 UNL     1       0.048  -2.065  -0.798  1.00  0.00     0.037 C 
HETATM   11  O1  UNL     1       1.086  -3.259  -2.603  1.00  0.00    -0.219 OA
HETATM   12  C11 UNL     1       3.476  -2.106  -1.785  1.00  0.00    -0.006 C 
HETATM   13  C18 UNL     1       1.989  -0.995   1.421  1.00  0.00     0.001 C 
HETATM   14  C19 UNL     1      -1.338  -2.008   1.800  1.00  0.00     0.000 C 
HETATM   15  C20 UNL     1      -2.569  -0.452   0.322  1.00  0.00     0.000 C 
ENDROOT
BRANCH   7  16
HETATM   16  C12 UNL     1       3.578   0.562  -0.625  1.00  0.00    -0.022 C 
HETATM   17  C13 UNL     1       3.954   1.774  -1.080  1.00  0.00    -0.002 C 
BRANCH  17  18
HETATM   18  C14 UNL     1       5.239   2.392  -0.756  1.00  0.00     0.026 A 
HETATM   19  C15 UNL     1       5.644   3.720  -1.123  1.00  0.00     0.029 A 
HETATM   20  C16 UNL     1       6.898   3.888  -0.623  1.00  0.00     0.123 A 
HETATM   21  O2  UNL     1       7.318   2.764   0.026  1.00  0.00    -0.303 OA
HETATM   22  C17 UNL     1       6.296   1.866  -0.066  1.00  0.00     0.123 A 
ENDBRANCH  17  18
ENDBRANCH   7  16
TORSDOF 2
