REMARK  2 active torsions:
REMARK  status: ('A' for Active; 'I' for Inactive)
REMARK    1  A    between atoms: C7_7  and  C12_12 
REMARK    2  A    between atoms: C15_15  and  C16_16 
ROOT
HETATM    1  C1  UNL     1      -1.695  -0.665  -1.514  1.00  0.00     0.000 C 
HETATM    2  C2  UNL     1      -2.422  -1.532  -0.486  1.00  0.00     0.000 C 
HETATM    3  C3  UNL     1      -1.423  -2.406   0.308  1.00  0.00     0.000 C 
HETATM    4  C4  UNL     1      -0.047  -1.682   0.458  1.00  0.00     0.001 C 
HETATM    5  C5  UNL     1      -0.073  -0.116   0.476  1.00  0.00     0.006 C 
HETATM    6  C6  UNL     1      -0.769   0.355  -0.833  1.00  0.00     0.000 C 
HETATM    7  C7  UNL     1       1.396   0.442   0.546  1.00  0.00     0.053 C 
HETATM    8  C8  UNL     1       2.115  -0.239   1.705  1.00  0.00    -0.042 C 
HETATM    9  C9  UNL     1       2.249  -1.732   1.546  1.00  0.00     0.022 C 
HETATM   10  C10 UNL     1       0.827  -2.299   1.570  1.00  0.00     0.004 C 
HETATM   11  C11 UNL     1       2.523   0.355   2.838  1.00  0.00    -0.009 C 
HETATM   12  C18 UNL     1      -0.847   0.428   1.699  1.00  0.00     0.000 C 
HETATM   13  C19 UNL     1      -2.073  -2.802   1.654  1.00  0.00     0.000 C 
HETATM   14  C20 UNL     1      -1.226  -3.730  -0.478  1.00  0.00     0.000 C 
ENDROOT
BRANCH   7  15
HETATM   15  C12 UNL     1       1.599   1.975   0.543  1.00  0.00     0.178 C 
HETATM   16  C13 UNL     1       0.960   2.773  -0.567  1.00  0.00     0.003 C 
HETATM   17  C14 UNL     1       1.460   2.990  -1.792  1.00  0.00    -0.015 C 
HETATM   18  C15 UNL     1       2.748   2.449  -2.359  1.00  0.00     0.149 C 
HETATM   19  C17 UNL     1       3.947   2.473  -1.426  1.00  0.00     0.312 C 
HETATM   20  O2  UNL     1       3.781   1.656  -0.287  1.00  0.00    -0.188 OA
HETATM   21  O4  UNL     1       4.231   3.773  -0.949  1.00  0.00    -0.186 OA
HETATM   22  O3  UNL     1       2.950   2.383   0.684  1.00  0.00    -0.216 OA
BRANCH  18  23
HETATM   23  C16 UNL     1       3.094   3.201  -3.642  1.00  0.00     0.217 C 
HETATM   24  O1  UNL     1       3.035   2.671  -4.727  1.00  0.00    -0.288 OA
ENDBRANCH  18  23
ENDBRANCH   7  15
TORSDOF 2
