REMARK  2 active torsions:
REMARK  status: ('A' for Active; 'I' for Inactive)
REMARK    1  A    between atoms: C15_16  and  C19_20 
REMARK    2  A    between atoms: C19_20  and  C20_22 
ROOT
HETATM    1  C1  UNL     1      -2.684  -0.669  -0.719  1.00  0.00     0.070 C 
HETATM    2  C2  UNL     1      -2.611  -2.182  -0.663  1.00  0.00     0.172 C 
HETATM    3  C3  UNL     1      -1.275  -2.798  -0.487  1.00  0.00     0.029 C 
HETATM    4  C4  UNL     1      -0.175  -2.082  -0.178  1.00  0.00    -0.042 C 
HETATM    5  C5  UNL     1      -0.234  -0.579   0.060  1.00  0.00     0.018 C 
HETATM    6  C6  UNL     1      -1.309  -0.011  -0.893  1.00  0.00     0.012 C 
HETATM    7  C7  UNL     1       1.172   0.020  -0.251  1.00  0.00     0.034 C 
HETATM    8  C8  UNL     1       2.260  -0.556   0.678  1.00  0.00     0.003 C 
HETATM    9  C9  UNL     1       2.111  -2.076   0.916  1.00  0.00     0.004 C 
HETATM   10  C10 UNL     1       1.169  -2.762  -0.079  1.00  0.00     0.022 C 
HETATM   11  C11 UNL     1       3.683  -0.134   0.242  1.00  0.00     0.001 C 
HETATM   12  C12 UNL     1       3.852   1.407   0.218  1.00  0.00     0.009 C 
HETATM   13  C13 UNL     1       2.702   2.056  -0.600  1.00  0.00     0.033 C 
HETATM   14  C14 UNL     1       1.280   1.550  -0.324  1.00  0.00     0.152 C 
HETATM   15  O1  UNL     1       0.782   2.155   0.843  1.00  0.00    -0.224 OA
HETATM   16  C15 UNL     1       5.237   1.794  -0.383  1.00  0.00     0.060 C 
HETATM   17  C16 UNL     1       5.630   1.099  -1.702  1.00  0.00     0.007 C 
HETATM   18  C17 UNL     1       4.665   0.009  -2.175  1.00  0.00     0.000 C 
HETATM   19  C18 UNL     1       4.174  -0.872  -1.025  1.00  0.00     0.000 C 
HETATM   20  C21 UNL     1       3.776   2.017   1.645  1.00  0.00     0.001 C 
HETATM   21  C22 UNL     1      -0.692  -0.366   1.522  1.00  0.00     0.004 C 
HETATM   22  O4  UNL     1      -3.615  -2.869  -0.801  1.00  0.00    -0.291 OA
ENDROOT
BRANCH  16  23
HETATM   23  C19 UNL     1       6.424   1.829   0.593  1.00  0.00     0.183 C 
HETATM   24  O2  UNL     1       7.004   2.875   0.789  1.00  0.00    -0.293 OA
BRANCH  23  25
HETATM   25  C20 UNL     1       6.922   0.595   1.343  1.00  0.00     0.246 C 
HETATM   26  O3  UNL     1       7.145  -0.522   0.497  1.00  0.00    -0.212 OA
ENDBRANCH  23  25
ENDBRANCH  16  23
TORSDOF 2
