REMARK  1 active torsions:
REMARK  status: ('A' for Active; 'I' for Inactive)
REMARK    1  A    between atoms: C10_10  and  C11_11 
ROOT
HETATM    1  C1  UNL     1       1.588  -2.008   0.734  1.00  0.00     0.150 C 
HETATM    2  C2  UNL     1       2.744  -1.170   0.242  1.00  0.00     0.058 C 
HETATM    3  C3  UNL     1       2.281  -0.170  -0.830  1.00  0.00     0.007 C 
HETATM    4  C4  UNL     1       1.053   0.648  -0.396  1.00  0.00     0.001 C 
HETATM    5  C5  UNL     1      -0.127  -0.256   0.018  1.00  0.00     0.014 C 
HETATM    6  C6  UNL     1       0.324  -1.266   1.100  1.00  0.00     0.065 C 
HETATM    7  C7  UNL     1      -0.805  -0.957  -1.195  1.00  0.00     0.008 C 
HETATM    8  C8  UNL     1      -2.197  -1.346  -0.691  1.00  0.00     0.065 C 
HETATM    9  C9  UNL     1      -2.518  -0.291   0.322  1.00  0.00     0.150 C 
HETATM   10  C10 UNL     1      -1.312   0.563   0.592  1.00  0.00     0.058 C 
HETATM   11  O1  UNL     1      -3.596  -0.152   0.852  1.00  0.00    -0.296 OA
HETATM   12  C14 UNL     1      -0.100  -2.182  -1.770  1.00  0.00     0.001 C 
HETATM   13  C15 UNL     1       3.420  -0.463   1.420  1.00  0.00     0.008 C 
HETATM   14  O2  UNL     1       1.668  -3.211   0.826  1.00  0.00    -0.296 OA
ENDROOT
BRANCH  10  15
HETATM   15  C11 UNL     1      -1.508   1.924  -0.072  1.00  0.00     0.007 C 
HETATM   16  C12 UNL     1      -0.512   2.924   0.518  1.00  0.00     0.000 C 
HETATM   17  C13 UNL     1      -2.959   2.369   0.096  1.00  0.00     0.000 C 
ENDBRANCH  10  15
TORSDOF 1
