REMARK  2 active torsions:
REMARK  status: ('A' for Active; 'I' for Inactive)
REMARK    1  A    between atoms: C15_16  and  C18_19 
REMARK    2  A    between atoms: C18_19  and  C19_20 
ROOT
HETATM    1  C1  UNL     1      -2.620  -1.839   0.198  1.00  0.00     0.070 C 
HETATM    2  C2  UNL     1      -2.268  -3.217   0.715  1.00  0.00     0.172 C 
HETATM    3  C3  UNL     1      -0.955  -3.365   1.384  1.00  0.00     0.029 C 
HETATM    4  C4  UNL     1      -0.047  -2.371   1.470  1.00  0.00    -0.042 C 
HETATM    5  C5  UNL     1      -0.271  -0.989   0.870  1.00  0.00     0.022 C 
HETATM    6  C6  UNL     1      -1.365  -1.071  -0.224  1.00  0.00     0.012 C 
HETATM    7  C7  UNL     1       1.046  -0.510   0.189  1.00  0.00     0.061 C 
HETATM    8  C8  UNL     1       2.309  -0.647   1.057  1.00  0.00     0.008 C 
HETATM    9  C9  UNL     1       2.451  -2.101   1.537  1.00  0.00     0.005 C 
HETATM   10  C10 UNL     1       1.204  -2.558   2.298  1.00  0.00     0.022 C 
HETATM   11  C11 UNL     1       3.612  -0.140   0.397  1.00  0.00     0.004 C 
HETATM   12  C12 UNL     1       3.540   1.187  -0.405  1.00  0.00     0.039 C 
HETATM   13  C13 UNL     1       2.239   1.230  -1.238  1.00  0.00     0.067 C 
HETATM   14  C14 UNL     1       1.019   0.890  -0.409  1.00  0.00     0.151 C 
HETATM   15  O1  UNL     1       0.108   1.677  -0.292  1.00  0.00    -0.296 OA
HETATM   16  C15 UNL     1       4.799   1.167  -1.326  1.00  0.00     0.180 C 
HETATM   17  C16 UNL     1       5.451  -0.207  -1.111  1.00  0.00     0.038 C 
HETATM   18  C17 UNL     1       4.324  -1.096  -0.570  1.00  0.00     0.003 C 
HETATM   19  O4  UNL     1       4.418   1.221  -2.688  1.00  0.00    -0.218 OA
HETATM   20  C20 UNL     1       3.503   2.376   0.580  1.00  0.00     0.003 C 
HETATM   21  C21 UNL     1      -0.739  -0.069   2.018  1.00  0.00     0.004 C 
HETATM   22  O5  UNL     1      -3.052  -4.154   0.629  1.00  0.00    -0.291 OA
ENDROOT
BRANCH  16  23
HETATM   23  C18 UNL     1       5.785   2.304  -1.044  1.00  0.00     0.211 C 
HETATM   24  O3  UNL     1       6.576   2.262  -0.128  1.00  0.00    -0.291 OA
BRANCH  23  25
HETATM   25  C19 UNL     1       5.762   3.513  -1.969  1.00  0.00     0.249 C 
HETATM   26  O2  UNL     1       6.119   3.129  -3.289  1.00  0.00    -0.212 OA
ENDBRANCH  23  25
ENDBRANCH  16  23
TORSDOF 2
