REMARK  3 active torsions:
REMARK  status: ('A' for Active; 'I' for Inactive)
REMARK    1  A    between atoms: C1_1  and  O4_24 
REMARK    2  A    between atoms: C2_2  and  O3_22 
REMARK    3  A    between atoms: C14_15  and  O2_20 
ROOT
HETATM    1  C1  UNL     1      -0.933   1.908   0.497  1.00  0.00     0.116 A 
HETATM    2  C2  UNL     1      -0.878   0.662  -0.160  1.00  0.00     0.116 A 
HETATM    3  C3  UNL     1       0.379   0.073  -0.358  1.00  0.00     0.024 A 
HETATM    4  C4  UNL     1       1.585   0.644   0.062  1.00  0.00     0.007 A 
HETATM    5  C5  UNL     1       1.521   1.894   0.680  1.00  0.00    -0.020 A 
HETATM    6  C6  UNL     1       0.279   2.504   0.871  1.00  0.00     0.022 A 
HETATM    7  C7  UNL     1       2.782   2.588   1.111  1.00  0.00     0.061 C 
HETATM    8  C8  UNL     1       3.983   2.041   0.336  1.00  0.00     0.256 C 
HETATM    9  N1  UNL     1       4.037   0.592   0.459  1.00  0.00     0.144 N 
HETATM   10  C9  UNL     1       2.913  -0.052  -0.203  1.00  0.00     0.246 C 
HETATM   11  C10 UNL     1       2.911  -1.507   0.278  1.00  0.00     0.064 C 
HETATM   12  C11 UNL     1       4.262  -2.164   0.139  1.00  0.00    -0.020 A 
HETATM   13  C12 UNL     1       5.441  -1.420  -0.048  1.00  0.00     0.031 A 
HETATM   14  C13 UNL     1       5.307   0.094  -0.060  1.00  0.00     0.279 C 
HETATM   15  C14 UNL     1       6.674  -2.095  -0.243  1.00  0.00     0.117 A 
HETATM   16  C15 UNL     1       6.678  -3.504  -0.193  1.00  0.00     0.153 A 
HETATM   17  C16 UNL     1       5.504  -4.224   0.022  1.00  0.00     0.029 A 
HETATM   18  C17 UNL     1       4.297  -3.559   0.181  1.00  0.00    -0.002 A 
HETATM   19  O1  UNL     1       7.845  -4.188  -0.362  1.00  0.00    -0.188 OA
ENDROOT
BRANCH   1  20
HETATM   20  O4  UNL     1      -2.158   2.515   0.639  1.00  0.00    -0.326 OA
HETATM   21  C20 UNL     1      -2.195   3.921   0.720  1.00  0.00     0.181 C 
ENDBRANCH   1  20
BRANCH   2  22
HETATM   22  O3  UNL     1      -2.067   0.101  -0.563  1.00  0.00    -0.326 OA
HETATM   23  C19 UNL     1      -2.050  -1.168  -1.175  1.00  0.00     0.181 C 
ENDBRANCH   2  22
BRANCH  15  24
HETATM   24  O2  UNL     1       7.927  -1.572  -0.480  1.00  0.00    -0.326 OA
HETATM   25  C18 UNL     1       8.227  -0.202  -0.492  1.00  0.00     0.181 C 
ENDBRANCH  15  24
TORSDOF 3
