REMARK  3 active torsions:
REMARK  status: ('A' for Active; 'I' for Inactive)
REMARK    1  A    between atoms: C1_1  and  O4_24 
REMARK    2  A    between atoms: C6_6  and  O1_7 
REMARK    3  A    between atoms: C16_18  and  O3_21 
ROOT
HETATM    1  C1  UNL     1      -1.124  -0.577  -0.397  1.00  0.00     0.116 C 
HETATM    2  C2  UNL     1      -1.131  -1.876   0.132  1.00  0.00     0.026 C 
HETATM    3  C3  UNL     1       0.027  -2.514   0.561  1.00  0.00    -0.002 C 
HETATM    4  C4  UNL     1       1.238  -1.831   0.503  1.00  0.00    -0.018 C 
HETATM    5  C5  UNL     1       1.266  -0.513   0.026  1.00  0.00     0.022 C 
HETATM    6  C6  UNL     1       0.122   0.070  -0.571  1.00  0.00     0.116 C 
HETATM    7  C8  UNL     1       2.593   0.173   0.078  1.00  0.00     0.027 C 
HETATM    8  C9  UNL     1       3.729  -0.619  -0.159  1.00  0.00     0.007 C 
HETATM    9  C10 UNL     1       3.578  -2.123  -0.217  1.00  0.00     0.246 C 
HETATM   10  C11 UNL     1       2.531  -2.531   0.838  1.00  0.00     0.064 C 
HETATM   11  N1  UNL     1       4.851  -2.830  -0.085  1.00  0.00     0.142 N 
HETATM   12  C12 UNL     1       5.835  -2.258  -0.993  1.00  0.00     0.255 C 
HETATM   13  C13 UNL     1       6.204  -0.814  -0.629  1.00  0.00     0.061 C 
HETATM   14  C14 UNL     1       4.976  -0.009  -0.296  1.00  0.00    -0.020 C 
HETATM   15  C15 UNL     1       5.074   1.365  -0.082  1.00  0.00     0.022 C 
HETATM   16  C16 UNL     1       3.997   2.157   0.334  1.00  0.00     0.119 C 
HETATM   17  C17 UNL     1       2.738   1.530   0.431  1.00  0.00     0.153 C 
HETATM   18  O2  UNL     1       1.650   2.207   0.885  1.00  0.00    -0.188 OA
HETATM   19  C19 UNL     1       5.351  -2.894   1.281  1.00  0.00     0.286 C 
ENDROOT
BRANCH   1  20
HETATM   20  O4  UNL     1      -2.299  -0.079  -0.896  1.00  0.00    -0.326 OA
HETATM   21  C20 UNL     1      -3.291   0.184   0.071  1.00  0.00     0.181 C 
ENDBRANCH   1  20
BRANCH   6  22
HETATM   22  O1  UNL     1       0.294   1.289  -1.188  1.00  0.00    -0.326 OA
HETATM   23  C7  UNL     1      -0.749   2.231  -1.262  1.00  0.00     0.181 C 
ENDBRANCH   6  22
BRANCH  16  24
HETATM   24  O3  UNL     1       4.274   3.486   0.558  1.00  0.00    -0.326 OA
HETATM   25  C18 UNL     1       3.233   4.421   0.700  1.00  0.00     0.181 C 
ENDBRANCH  16  24
TORSDOF 3
