REMARK  1 active torsions:
REMARK  status: ('A' for Active; 'I' for Inactive)
REMARK    1  A    between atoms: C10_10  and  C11_11 
ROOT
HETATM    1  C1  UNL     1      -2.178   1.479  -0.533  1.00  0.00     0.169 C 
HETATM    2  C2  UNL     1      -2.623   0.322  -1.340  1.00  0.00     0.009 C 
HETATM    3  C3  UNL     1      -1.992  -0.869  -1.279  1.00  0.00    -0.028 C 
HETATM    4  C4  UNL     1      -0.797  -1.080  -0.373  1.00  0.00     0.027 C 
HETATM    5  C5  UNL     1      -0.020   0.229  -0.096  1.00  0.00     0.018 C 
HETATM    6  C6  UNL     1      -1.008   1.297   0.408  1.00  0.00     0.070 C 
HETATM    7  C7  UNL     1       0.744   0.639  -1.389  1.00  0.00     0.009 C 
HETATM    8  C8  UNL     1       1.986  -0.258  -1.387  1.00  0.00     0.065 C 
HETATM    9  C9  UNL     1       2.275  -0.473   0.068  1.00  0.00     0.150 C 
HETATM   10  C10 UNL     1       1.141   0.037   0.908  1.00  0.00     0.058 C 
HETATM   11  O1  UNL     1       3.283  -0.984   0.500  1.00  0.00    -0.296 OA
HETATM   12  C14 UNL     1       1.207   2.098  -1.367  1.00  0.00     0.001 C 
HETATM   13  C15 UNL     1      -3.811   0.475  -2.258  1.00  0.00     0.034 C 
HETATM   14  O2  UNL     1      -2.732   2.549  -0.625  1.00  0.00    -0.292 OA
ENDROOT
BRANCH  10  15
HETATM   15  C11 UNL     1       0.814  -0.875   2.088  1.00  0.00     0.007 C 
HETATM   16  C12 UNL     1       1.551  -0.383   3.334  1.00  0.00     0.000 C 
HETATM   17  C13 UNL     1       1.164  -2.320   1.727  1.00  0.00     0.000 C 
ENDBRANCH  10  15
TORSDOF 1
