REMARK  0 active torsions:
REMARK  status: ('A' for Active; 'I' for Inactive)
ROOT
HETATM    1  C1  UNL     1      -2.735  -0.598  -0.227  1.00  0.00     0.026 A 
HETATM    2  C2  UNL     1      -2.467  -1.748  -0.946  1.00  0.00     0.119 A 
HETATM    3  C3  UNL     1      -1.168  -2.259  -1.125  1.00  0.00     0.119 A 
HETATM    4  C4  UNL     1      -0.079  -1.620  -0.582  1.00  0.00     0.058 A 
HETATM    5  C5  UNL     1      -0.367  -0.386   0.269  1.00  0.00    -0.016 A 
HETATM    6  C6  UNL     1      -1.660   0.092   0.383  1.00  0.00    -0.002 A 
HETATM    7  C7  UNL     1       1.012   0.410   0.892  1.00  0.00     0.078 C 
HETATM    8  C8  UNL     1       2.599  -0.322   1.151  1.00  0.00     0.251 C 
HETATM    9  N1  UNL     1       2.860  -1.581  -0.003  1.00  0.00     0.171 N 
HETATM   10  C9  UNL     1       1.475  -2.272  -0.451  1.00  0.00     0.362 C 
HETATM   11  O1  UNL     1       1.223  -1.521   0.612  1.00  0.00    -0.327 OA
HETATM   12  C10 UNL     1       1.424  -0.118  -0.390  1.00  0.00     0.128 C 
HETATM   13  C11 UNL     1       2.678   0.534  -1.129  1.00  0.00     0.056 C 
HETATM   14  C12 UNL     1       3.775   1.115  -0.283  1.00  0.00    -0.020 A 
HETATM   15  C13 UNL     1       3.712   0.663   1.024  1.00  0.00     0.007 A 
HETATM   16  C14 UNL     1       4.588   1.097   2.025  1.00  0.00     0.024 A 
HETATM   17  C15 UNL     1       5.533   2.036   1.628  1.00  0.00     0.119 A 
HETATM   18  C16 UNL     1       5.604   2.502   0.314  1.00  0.00     0.119 A 
HETATM   19  C17 UNL     1       4.732   2.059  -0.677  1.00  0.00     0.022 A 
HETATM   20  O2  UNL     1       6.623   3.431   0.225  1.00  0.00    -0.300 OA
HETATM   21  C18 UNL     1       7.208   3.568   1.526  1.00  0.00     0.304 A 
HETATM   22  O3  UNL     1       6.507   2.660   2.384  1.00  0.00    -0.300 OA
HETATM   23  C19 UNL     1       3.786  -2.548   0.559  1.00  0.00     0.289 C 
HETATM   24  C20 UNL     1       0.890   1.924   1.006  1.00  0.00     0.009 C 
HETATM   25  O4  UNL     1      -1.236  -3.451  -1.817  1.00  0.00    -0.300 OA
HETATM   26  C21 UNL     1      -2.620  -3.713  -2.088  1.00  0.00     0.304 A 
HETATM   27  O5  UNL     1      -3.361  -2.603  -1.562  1.00  0.00    -0.300 OA
ENDROOT
TORSDOF 0
