REMARK  2 active torsions:
REMARK  status: ('A' for Active; 'I' for Inactive)
REMARK    1  A    between atoms: C9_9  and  C11_11 
REMARK    2  A    between atoms: C11_11  and  C12_12 
ROOT
HETATM    1  C1  UNL     1       3.650   2.050  -1.713  1.00  0.00     0.004 C 
HETATM    2  C2  UNL     1       2.465   2.892  -1.224  1.00  0.00     0.022 C 
HETATM    3  C3  UNL     1       1.213   2.045  -1.193  1.00  0.00    -0.044 C 
HETATM    4  C4  UNL     1       1.341   0.800  -0.335  1.00  0.00     0.019 C 
HETATM    5  C5  UNL     1       2.475  -0.100  -0.883  1.00  0.00     0.004 C 
HETATM    6  C6  UNL     1       3.777   0.742  -0.913  1.00  0.00     0.001 C 
HETATM    7  C7  UNL     1       2.671  -1.342   0.028  1.00  0.00     0.001 C 
HETATM    8  C8  UNL     1       1.723  -1.393   1.238  1.00  0.00     0.004 C 
HETATM    9  C9  UNL     1       0.226  -1.195   0.880  1.00  0.00     0.025 C 
HETATM   10  C10 UNL     1       0.047   0.008  -0.087  1.00  0.00     0.008 C 
HETATM   11  C14 UNL     1      -0.238  -2.478   0.150  1.00  0.00     0.005 C 
HETATM   12  C15 UNL     1       2.161  -0.586  -2.319  1.00  0.00     0.000 C 
HETATM   13  C16 UNL     1       0.115   2.393  -1.881  1.00  0.00    -0.009 C 
ENDROOT
BRANCH   9  14
HETATM   14  C11 UNL     1      -0.574  -0.917   2.165  1.00  0.00     0.042 C 
HETATM   15  C13 UNL     1      -0.245   0.134   2.947  1.00  0.00     0.002 C 
BRANCH  14  16
HETATM   16  C12 UNL     1      -1.770  -1.693   2.620  1.00  0.00     0.207 C 
HETATM   17  O1  UNL     1      -2.201  -2.663   2.014  1.00  0.00    -0.644 OA
HETATM   18  O2  UNL     1      -2.474  -1.362   3.726  1.00  0.00    -0.644 OA
ENDBRANCH  14  16
ENDBRANCH   9  14
TORSDOF 2
