REMARK  2 active torsions:
REMARK  status: ('A' for Active; 'I' for Inactive)
REMARK    1  A    between atoms: C9_9  and  C11_11 
REMARK    2  A    between atoms: C11_11  and  C12_12 
ROOT
HETATM    1  C1  UNL     1       3.536   1.557  -2.394  1.00  0.00     0.004 C 
HETATM    2  C2  UNL     1       2.612   2.635  -1.815  1.00  0.00     0.022 C 
HETATM    3  C3  UNL     1       1.326   2.012  -1.321  1.00  0.00    -0.044 C 
HETATM    4  C4  UNL     1       1.512   0.895  -0.308  1.00  0.00     0.019 C 
HETATM    5  C5  UNL     1       2.455  -0.209  -0.846  1.00  0.00     0.004 C 
HETATM    6  C6  UNL     1       3.763   0.440  -1.366  1.00  0.00     0.001 C 
HETATM    7  C7  UNL     1       2.816  -1.205   0.292  1.00  0.00     0.001 C 
HETATM    8  C8  UNL     1       1.923  -1.092   1.541  1.00  0.00     0.004 C 
HETATM    9  C9  UNL     1       0.452  -0.967   1.125  1.00  0.00     0.021 C 
HETATM   10  C10 UNL     1       0.217   0.310   0.293  1.00  0.00     0.008 C 
HETATM   11  C14 UNL     1       1.776  -0.969  -2.011  1.00  0.00     0.000 C 
HETATM   12  C15 UNL     1       0.138   2.469  -1.749  1.00  0.00    -0.009 C 
ENDROOT
BRANCH   9  13
HETATM   13  C11 UNL     1      -0.528  -1.072   2.280  1.00  0.00    -0.012 C 
HETATM   14  C13 UNL     1      -0.389  -0.332   3.391  1.00  0.00    -0.007 C 
BRANCH  13  15
HETATM   15  C12 UNL     1      -1.681  -2.026   2.075  1.00  0.00     0.205 C 
HETATM   16  O1  UNL     1      -2.596  -2.059   3.163  1.00  0.00    -0.216 OA
ENDBRANCH  13  15
ENDBRANCH   9  13
TORSDOF 2
