REMARK  0 active torsions:
REMARK  status: ('A' for Active; 'I' for Inactive)
ROOT
HETATM    1  C1  UNL     1      -1.399  -1.286   0.082  1.00  0.00     0.125 C 
HETATM    2  O1  UNL     1      -1.868  -2.023   1.173  1.00  0.00    -0.304 OA
HETATM    3  C2  UNL     1      -0.878  -2.620   1.875  1.00  0.00     0.271 C 
HETATM    4  C3  UNL     1       0.456  -2.167   1.329  1.00  0.00     0.089 C 
HETATM    5  C4  UNL     1       0.118  -1.485  -0.007  1.00  0.00     0.037 C 
HETATM    6  C5  UNL     1       1.080  -0.319  -0.303  1.00  0.00     0.003 C 
HETATM    7  C6  UNL     1       0.700   0.722  -1.371  1.00  0.00     0.000 C 
HETATM    8  C7  UNL     1      -0.631   0.515  -2.103  1.00  0.00     0.000 C 
HETATM    9  C8  UNL     1      -1.875   0.854  -1.251  1.00  0.00     0.002 C 
HETATM   10  C9  UNL     1      -1.986   0.125   0.104  1.00  0.00     0.028 C 
HETATM   11  C10 UNL     1      -1.501   1.101   1.188  1.00  0.00     0.002 C 
HETATM   12  C11 UNL     1      -1.740   2.505   0.607  1.00  0.00     0.000 C 
HETATM   13  C12 UNL     1      -2.065   2.337  -0.885  1.00  0.00     0.000 C 
HETATM   14  C13 UNL     1      -2.163   0.927   2.563  1.00  0.00     0.000 C 
HETATM   15  C14 UNL     1      -0.635   1.283  -3.442  1.00  0.00     0.000 C 
HETATM   16  C15 UNL     1       1.478  -3.303   1.209  1.00  0.00     0.011 C 
HETATM   17  O2  UNL     1      -1.047  -3.368   2.812  1.00  0.00    -0.264 OA
ENDROOT
TORSDOF 0
