REMARK  4 active torsions:
REMARK  status: ('A' for Active; 'I' for Inactive)
REMARK    1  A    between atoms: C1_1  and  O5_20 
REMARK    2  A    between atoms: C2_2  and  O4_18 
REMARK    3  A    between atoms: C5_5  and  O1_7 
REMARK    4  A    between atoms: C8_9  and  O3_16 
ROOT
HETATM    1  C1  UNL     1      -1.812   0.504   1.295  1.00  0.00     0.120 A 
HETATM    2  C2  UNL     1      -0.570   0.295   1.932  1.00  0.00     0.134 A 
HETATM    3  C3  UNL     1       0.608   0.082   1.162  1.00  0.00     0.111 A 
HETATM    4  C4  UNL     1       0.518   0.080  -0.293  1.00  0.00     0.065 A 
HETATM    5  C5  UNL     1      -0.754   0.293  -0.906  1.00  0.00     0.100 A 
HETATM    6  C6  UNL     1      -1.902   0.502  -0.113  1.00  0.00     0.051 A 
HETATM    7  C8  UNL     1       1.707  -0.137  -1.098  1.00  0.00     0.101 A 
HETATM    8  C9  UNL     1       2.920  -0.334  -0.381  1.00  0.00     0.066 A 
HETATM    9  C10 UNL     1       2.869  -0.309   0.975  1.00  0.00     0.184 A 
HETATM   10  N1  UNL     1       1.820  -0.119   1.818  1.00  0.00    -0.220 NA
HETATM   11  O2  UNL     1       4.164  -0.523   1.438  1.00  0.00    -0.287 OA
HETATM   12  C11 UNL     1       4.965  -0.674   0.270  1.00  0.00     0.125 A 
HETATM   13  C12 UNL     1       4.156  -0.551  -0.877  1.00  0.00     0.032 A 
ENDROOT
BRANCH   1  14
HETATM   14  O5  UNL     1      -2.918   0.705   2.027  1.00  0.00    -0.326 OA
HETATM   15  C15 UNL     1      -4.160   0.803   1.348  1.00  0.00     0.181 C 
ENDBRANCH   1  14
BRANCH   2  16
HETATM   16  O4  UNL     1      -0.519   0.301   3.274  1.00  0.00    -0.325 OA
HETATM   17  C14 UNL     1      -1.529  -0.404   3.981  1.00  0.00     0.182 C 
ENDBRANCH   2  16
BRANCH   5  18
HETATM   18  O1  UNL     1      -0.906   0.303  -2.238  1.00  0.00    -0.328 OA
HETATM   19  C7  UNL     1      -2.111   0.834  -2.768  1.00  0.00     0.181 C 
ENDBRANCH   5  18
BRANCH   7  20
HETATM   20  O3  UNL     1       1.570  -0.131  -2.432  1.00  0.00    -0.328 OA
HETATM   21  C13 UNL     1       2.438  -0.959  -3.195  1.00  0.00     0.181 C 
ENDBRANCH   7  20
TORSDOF 4
