REMARK  5 active torsions:
REMARK  status: ('A' for Active; 'I' for Inactive)
REMARK    1  A    between atoms: C4_4  and  O3_9 
REMARK    2  A    between atoms: C5_6  and  C6_7 
REMARK    3  A    between atoms: O3_9  and  C7_10 
REMARK    4  A    between atoms: C12_15  and  C13_16 
REMARK    5  A    between atoms: C14_17  and  C15_18 
ROOT
HETATM    1  O3  UNL     1       0.984  -0.601   1.104  1.00  0.00    -0.304 OA
ENDROOT
BRANCH   1   2
HETATM    2  C4  UNL     1       0.422  -1.249  -0.012  1.00  0.00     0.274 C 
HETATM    3  C3  UNL     1      -0.076  -2.629   0.367  1.00  0.00     0.241 C 
HETATM    4  C2  UNL     1      -1.471  -2.639   0.962  1.00  0.00     0.220 C 
HETATM    5  O6  UNL     1      -0.045  -3.466  -0.767  1.00  0.00    -0.215 OA
HETATM    6  C1  UNL     1      -2.407  -1.740   0.179  1.00  0.00     0.215 C 
HETATM    7  O7  UNL     1      -1.415  -2.207   2.300  1.00  0.00    -0.218 OA
HETATM    8  C5  UNL     1      -1.818  -0.367  -0.098  1.00  0.00     0.184 C 
HETATM    9  O8  UNL     1      -2.728  -2.358  -1.047  1.00  0.00    -0.218 OA
HETATM   10  O1  UNL     1      -0.532  -0.425  -0.643  1.00  0.00    -0.326 OA
BRANCH   8  11
HETATM   11  C6  UNL     1      -1.913   0.613   1.064  1.00  0.00     0.214 C 
HETATM   12  O2  UNL     1      -1.459   1.892   0.659  1.00  0.00    -0.218 OA
ENDBRANCH   8  11
ENDBRANCH   1   2
BRANCH   1  13
HETATM   13  C7  UNL     1       1.347   0.726   1.076  1.00  0.00     0.097 A 
HETATM   14  C8  UNL     1       1.264   1.408   2.300  1.00  0.00     0.024 A 
HETATM   15  C9  UNL     1       1.476   2.780   2.436  1.00  0.00     0.002 A 
HETATM   16  C10 UNL     1       1.761   3.541   1.308  1.00  0.00     0.000 A 
HETATM   17  C11 UNL     1       1.833   2.902   0.071  1.00  0.00     0.002 A 
HETATM   18  C12 UNL     1       1.625   1.523  -0.057  1.00  0.00     0.023 A 
BRANCH  18  19
HETATM   19  C13 UNL     1       1.724   0.992  -1.441  1.00  0.00     0.008 C 
HETATM   20  C14 UNL     1       0.971   1.494  -2.439  1.00  0.00     0.070 C 
BRANCH  20  21
HETATM   21  C15 UNL     1       1.010   0.940  -3.817  1.00  0.00     0.211 C 
HETATM   22  O4  UNL     1       0.314   1.437  -4.690  1.00  0.00    -0.644 OA
HETATM   23  O5  UNL     1       1.774  -0.117  -4.160  1.00  0.00    -0.644 OA
ENDBRANCH  20  21
ENDBRANCH  18  19
ENDBRANCH   1  13
TORSDOF 5
