REMARK  4 active torsions:
REMARK  status: ('A' for Active; 'I' for Inactive)
REMARK    1  A    between atoms: C5_5  and  C25_30 
REMARK    2  A    between atoms: C15_15  and  C20_22 
REMARK    3  A    between atoms: C16_16  and  O1_18 
REMARK    4  A    between atoms: O1_18  and  C18_19 
ROOT
HETATM    1  C1  UNL     1      -1.010   2.886   2.160  1.00  0.00     0.034 C 
HETATM    2  C2  UNL     1      -1.262   3.811   0.973  1.00  0.00     0.155 C 
HETATM    3  C3  UNL     1      -0.776   3.178  -0.328  1.00  0.00     0.064 C 
HETATM    4  C4  UNL     1      -1.362   1.777  -0.580  1.00  0.00     0.136 C 
HETATM    5  C5  UNL     1      -1.127   0.814   0.613  1.00  0.00     0.084 C 
HETATM    6  C6  UNL     1      -1.626   1.504   1.911  1.00  0.00     0.012 C 
HETATM    7  C7  UNL     1       0.379   0.407   0.682  1.00  0.00     0.012 C 
HETATM    8  C8  UNL     1       0.936  -0.160  -0.645  1.00  0.00     0.029 C 
HETATM    9  C9  UNL     1       0.661   0.810  -1.807  1.00  0.00     0.005 C 
HETATM   10  C10 UNL     1      -0.824   1.182  -1.885  1.00  0.00     0.031 C 
HETATM   11  C11 UNL     1       2.412  -0.592  -0.588  1.00  0.00     0.129 C 
HETATM   12  C12 UNL     1       2.744  -1.523   0.591  1.00  0.00     0.032 C 
HETATM   13  C13 UNL     1       2.217  -0.881   1.900  1.00  0.00     0.003 C 
HETATM   14  C14 UNL     1       0.728  -0.517   1.865  1.00  0.00     0.001 C 
HETATM   15  C15 UNL     1       4.295  -1.509   0.628  1.00  0.00     0.051 C 
HETATM   16  C16 UNL     1       4.710  -0.123   0.100  1.00  0.00     0.131 C 
HETATM   17  C17 UNL     1       3.446   0.532  -0.476  1.00  0.00     0.061 C 
HETATM   18  C24 UNL     1       2.155  -2.942   0.484  1.00  0.00     0.003 C 
HETATM   19  O5  UNL     1       2.712  -1.257  -1.789  1.00  0.00    -0.226 OA
HETATM   20  O7  UNL     1      -2.746   1.959  -0.760  1.00  0.00    -0.226 OA
HETATM   21  O8  UNL     1      -2.638   4.107   0.875  1.00  0.00    -0.223 OA
ENDROOT
BRANCH  15  22
HETATM   22  C20 UNL     1       5.026  -2.693   0.025  1.00  0.00    -0.007 A 
HETATM   23  C21 UNL     1       5.785  -3.540   0.742  1.00  0.00     0.062 A 
HETATM   24  C22 UNL     1       6.326  -4.511  -0.227  1.00  0.00     0.296 A 
HETATM   25  O3  UNL     1       5.918  -4.272  -1.502  1.00  0.00    -0.294 OA
HETATM   26  O4  UNL     1       7.074  -5.429   0.086  1.00  0.00    -0.259 OA
HETATM   27  C23 UNL     1       5.071  -3.127  -1.430  1.00  0.00     0.175 A 
ENDBRANCH  15  22
BRANCH  16  28
HETATM   28  O1  UNL     1       5.714  -0.251  -0.858  1.00  0.00    -0.304 OA
BRANCH  28  29
HETATM   29  C18 UNL     1       6.417   0.863  -1.198  1.00  0.00     0.272 C 
HETATM   30  C19 UNL     1       7.557   0.491  -2.124  1.00  0.00     0.106 C 
HETATM   31  O2  UNL     1       6.185   1.979  -0.791  1.00  0.00    -0.264 OA
ENDBRANCH  28  29
ENDBRANCH  16  28
BRANCH   5  32
HETATM   32  C25 UNL     1      -2.046  -0.404   0.441  1.00  0.00     0.209 C 
HETATM   33  O6  UNL     1      -1.676  -1.523   0.178  1.00  0.00    -0.288 OA
ENDBRANCH   5  32
TORSDOF 4
