REMARK  6 active torsions:
REMARK  status: ('A' for Active; 'I' for Inactive)
REMARK    1  A    between atoms: C3_3  and  C24_26 
REMARK    2  A    between atoms: C15_15  and  C17_17 
REMARK    3  A    between atoms: C17_17  and  O1_18 
REMARK    4  A    between atoms: O1_18  and  C18_19 
REMARK    5  A    between atoms: C18_19  and  C19_20 
REMARK    6  A    between atoms: C19_20  and  C20_21 
ROOT
HETATM    1  C1  UNL     1      -2.270   0.778  -1.016  1.00  0.00     0.001 C 
HETATM    2  C2  UNL     1      -2.429  -0.734  -1.208  1.00  0.00     0.010 C 
HETATM    3  C3  UNL     1      -1.663  -1.296  -2.431  1.00  0.00     0.078 C 
HETATM    4  C4  UNL     1      -0.188  -0.816  -2.325  1.00  0.00     0.010 C 
HETATM    5  C5  UNL     1       0.024   0.722  -2.212  1.00  0.00     0.001 C 
HETATM    6  C6  UNL     1      -0.790   1.193  -0.979  1.00  0.00     0.000 C 
HETATM    7  C7  UNL     1       1.560   1.050  -2.135  1.00  0.00     0.000 C 
HETATM    8  C8  UNL     1       2.516  -0.140  -1.841  1.00  0.00     0.000 C 
HETATM    9  C9  UNL     1       2.234  -1.352  -2.756  1.00  0.00     0.000 C 
HETATM   10  C10 UNL     1       0.810  -1.404  -3.330  1.00  0.00     0.001 C 
HETATM   11  C11 UNL     1       3.971   0.322  -2.095  1.00  0.00     0.000 C 
HETATM   12  C12 UNL     1       4.218   1.250  -0.902  1.00  0.00     0.002 C 
HETATM   13  C13 UNL     1       3.406   2.536  -1.117  1.00  0.00     0.000 C 
HETATM   14  C14 UNL     1       1.900   2.275  -1.260  1.00  0.00     0.000 C 
HETATM   15  C15 UNL     1       3.755   0.347   0.257  1.00  0.00     0.030 C 
HETATM   16  C16 UNL     1       2.569  -0.457  -0.321  1.00  0.00     0.003 C 
HETATM   17  C23 UNL     1      -0.514   1.517  -3.433  1.00  0.00     0.000 C 
HETATM   18  C25 UNL     1      -1.766  -2.840  -2.347  1.00  0.00     0.011 C 
ENDROOT
BRANCH  15  19
HETATM   19  C17 UNL     1       3.503   1.053   1.588  1.00  0.00     0.152 C 
BRANCH  19  20
HETATM   20  O1  UNL     1       3.497   0.103   2.622  1.00  0.00    -0.302 OA
BRANCH  20  21
HETATM   21  C18 UNL     1       3.259   0.577   3.877  1.00  0.00     0.272 C 
HETATM   22  O2  UNL     1       2.949   1.720   4.130  1.00  0.00    -0.264 OA
BRANCH  21  23
HETATM   23  C19 UNL     1       3.517  -0.509   4.910  1.00  0.00     0.096 C 
BRANCH  23  24
HETATM   24  C20 UNL     1       2.997  -0.179   6.322  1.00  0.00     0.010 C 
HETATM   25  C21 UNL     1       1.460  -0.205   6.371  1.00  0.00     0.001 C 
HETATM   26  C22 UNL     1       3.574  -1.165   7.354  1.00  0.00     0.001 C 
ENDBRANCH  23  24
ENDBRANCH  21  23
ENDBRANCH  20  21
ENDBRANCH  19  20
ENDBRANCH  15  19
BRANCH   3  27
HETATM   27  C24 UNL     1      -2.288  -0.952  -3.781  1.00  0.00     0.184 C 
HETATM   28  O3  UNL     1      -1.765  -1.073  -4.863  1.00  0.00    -0.647 OA
HETATM   29  O4  UNL     1      -3.561  -0.526  -3.692  1.00  0.00    -0.647 OA
ENDBRANCH   3  27
TORSDOF 6
