REMARK  2 active torsions:
REMARK  status: ('A' for Active; 'I' for Inactive)
REMARK       I    between atoms: C1_1  and  N2_3 
REMARK    1  A    between atoms: N2_3  and  C3_5 
REMARK    2  A    between atoms: C3_5  and  C4_6 
ROOT
HETATM    1  C1  UNL     1      -0.875   1.392  -0.098  1.00  0.00     0.207 C 
HETATM    2  N1  UNL     1      -2.167   1.125  -0.525  1.00  0.00    -0.062 NA
HETATM    3  N2  UNL     1       0.087   0.382  -0.132  1.00  0.00    -0.312 N 
HETATM    4  C2  UNL     1       1.411   0.682   0.448  1.00  0.00     0.129 C 
HETATM    5  N3  UNL     1      -0.651   2.599   0.364  1.00  0.00    -0.271 NA
HETATM    6  H1  UNL     1       0.312   2.720   0.675  1.00  0.00     0.189 HD
ENDROOT
BRANCH   3   7
HETATM    7  C3  UNL     1      -0.268  -0.916  -0.738  1.00  0.00     0.202 C 
BRANCH   7   8
HETATM    8  C4  UNL     1      -0.939  -1.803   0.298  1.00  0.00     0.209 C 
HETATM    9  O1  UNL     1      -0.384  -2.462   1.144  1.00  0.00    -0.646 OA
HETATM   10  O2  UNL     1      -2.278  -1.810   0.166  1.00  0.00    -0.646 OA
ENDBRANCH   7   8
ENDBRANCH   3   7
TORSDOF 2
