REMARK  0 active torsions:
REMARK  status: ('A' for Active; 'I' for Inactive)
ROOT
HETATM    1  C1  UNL     1      -1.157   1.290  -0.274  1.00  0.00     0.119 A 
HETATM    2  C2  UNL     1      -0.437   2.478  -0.326  1.00  0.00     0.119 A 
HETATM    3  C3  UNL     1       0.949   2.484  -0.228  1.00  0.00     0.031 A 
HETATM    4  C4  UNL     1       1.593   1.243  -0.078  1.00  0.00     0.060 A 
HETATM    5  C5  UNL     1       0.875   0.022  -0.021  1.00  0.00     0.008 A 
HETATM    6  C6  UNL     1      -0.528   0.056  -0.119  1.00  0.00     0.026 A 
HETATM    7  C7  UNL     1       1.625  -1.241   0.126  1.00  0.00     0.018 A 
HETATM    8  C8  UNL     1       3.025  -1.175   0.188  1.00  0.00     0.085 A 
HETATM    9  N1  UNL     1       3.645   0.014   0.128  1.00  0.00    -0.208 NA
HETATM   10  C9  UNL     1       3.070   1.232   0.009  1.00  0.00     0.279 A 
HETATM   11  O1  UNL     1       3.767   2.236  -0.028  1.00  0.00    -0.265 OA
HETATM   12  C10 UNL     1       3.809  -2.323   0.310  1.00  0.00     0.019 A 
HETATM   13  C11 UNL     1       3.201  -3.576   0.383  1.00  0.00     0.002 A 
HETATM   14  C12 UNL     1       1.809  -3.665   0.333  1.00  0.00     0.000 A 
HETATM   15  C13 UNL     1       1.031  -2.512   0.205  1.00  0.00     0.002 A 
HETATM   16  O2  UNL     1      -1.313   3.535  -0.488  1.00  0.00    -0.300 OA
HETATM   17  C14 UNL     1      -2.638   2.992  -0.554  1.00  0.00     0.304 A 
HETATM   18  O3  UNL     1      -2.501   1.573  -0.402  1.00  0.00    -0.300 OA
ENDROOT
TORSDOF 0
