REMARK  3 active torsions:
REMARK  status: ('A' for Active; 'I' for Inactive)
REMARK    1  A    between atoms: C14_16  and  O3_23 
REMARK    2  A    between atoms: C15_17  and  C16_18 
REMARK    3  A    between atoms: C16_18  and  C17_19 
ROOT
HETATM    1  C1  UNL     1      -1.518   1.154  -0.339  1.00  0.00     0.133 A 
HETATM    2  C2  UNL     1      -0.937  -0.085  -0.613  1.00  0.00     0.027 A 
HETATM    3  C3  UNL     1       0.421  -0.181  -0.918  1.00  0.00     0.005 A 
HETATM    4  C4  UNL     1       1.230   0.958  -0.959  1.00  0.00     0.057 A 
HETATM    5  C5  UNL     1       0.671   2.221  -0.709  1.00  0.00     0.097 A 
HETATM    6  C6  UNL     1      -0.689   2.279  -0.380  1.00  0.00     0.051 A 
HETATM    7  O1  UNL     1       1.421   3.365  -0.681  1.00  0.00    -0.328 OA
HETATM    8  C7  UNL     1       2.775   3.167  -0.380  1.00  0.00     0.189 C 
HETATM    9  C8  UNL     1       3.395   2.180  -1.346  1.00  0.00     0.228 C 
HETATM   10  C9  UNL     1       2.683   0.825  -1.336  1.00  0.00     0.277 C 
HETATM   11  O2  UNL     1       3.447  -0.012  -0.460  1.00  0.00    -0.302 OA
HETATM   12  C10 UNL     1       4.741   0.490  -0.385  1.00  0.00     0.097 A 
HETATM   13  C11 UNL     1       4.766   1.771  -0.913  1.00  0.00     0.035 A 
HETATM   14  C12 UNL     1       5.947   2.494  -0.945  1.00  0.00     0.002 A 
HETATM   15  C13 UNL     1       7.085   1.863  -0.438  1.00  0.00     0.024 A 
HETATM   16  C14 UNL     1       7.096   0.556   0.094  1.00  0.00     0.096 A 
HETATM   17  C15 UNL     1       5.875  -0.158   0.124  1.00  0.00     0.044 A 
HETATM   18  O4  UNL     1       2.777   0.285  -2.647  1.00  0.00    -0.187 OA
HETATM   19  O5  UNL     1       3.425   2.718  -2.645  1.00  0.00    -0.213 OA
HETATM   20  O6  UNL     1      -2.836   1.272  -0.028  1.00  0.00    -0.190 OA
ENDROOT
BRANCH  17  21
HETATM   21  C16 UNL     1       5.641  -1.570   0.640  1.00  0.00     0.003 C 
BRANCH  21  22
HETATM   22  C17 UNL     1       6.724  -2.442   1.225  1.00  0.00    -0.008 C 
HETATM   23  C18 UNL     1       6.548  -3.701   1.667  1.00  0.00    -0.044 C 
HETATM   24  C19 UNL     1       7.694  -4.500   2.244  1.00  0.00     0.026 C 
HETATM   25  C20 UNL     1       5.227  -4.434   1.642  1.00  0.00     0.026 C 
ENDBRANCH  21  22
ENDBRANCH  17  21
BRANCH  16  26
HETATM   26  O3  UNL     1       8.240  -0.022   0.581  1.00  0.00    -0.328 OA
HETATM   27  C21 UNL     1       9.449   0.700   0.575  1.00  0.00     0.181 C 
ENDBRANCH  16  26
TORSDOF 3
