REMARK  10 active torsions:
REMARK  status: ('A' for Active; 'I' for Inactive)
REMARK    1  A    between atoms: O1_1  and  C1_2 
REMARK    2  A    between atoms: C1_2  and  C2_3 
REMARK    3  A    between atoms: C4_5  and  C5_6 
REMARK    4  A    between atoms: C6_7  and  C7_8 
REMARK    5  A    between atoms: C8_9  and  C9_10 
REMARK    6  A    between atoms: C10_11  and  C11_12 
REMARK    7  A    between atoms: C12_13  and  C13_14 
REMARK    8  A    between atoms: C14_15  and  C15_16 
REMARK    9  A    between atoms: C16_17  and  C17_18 
REMARK   10  A    between atoms: C17_18  and  O2_19 
ROOT
HETATM    1  C9  UNL     1       4.795  -0.879  -0.001  1.00  0.00    -0.000 C 
HETATM    2  C10 UNL     1       4.593   0.464  -0.002  1.00  0.00    -0.000 C 
ENDROOT
BRANCH   1   3
HETATM    3  C8  UNL     1       3.673  -1.820  -0.003  1.00  0.00    -0.004 C 
HETATM    4  C7  UNL     1       3.787  -3.178  -0.002  1.00  0.00    -0.022 C 
HETATM    5  C21 UNL     1       5.155  -3.823   0.000  1.00  0.00     0.031 C 
BRANCH   4   6
HETATM    6  C6  UNL     1       2.537  -3.957  -0.003  1.00  0.00    -0.004 C 
HETATM    7  C5  UNL     1       2.431  -5.310  -0.002  1.00  0.00    -0.001 C 
BRANCH   7   8
HETATM    8  C4  UNL     1       1.132  -5.987  -0.003  1.00  0.00     0.001 C 
HETATM    9  C2  UNL     1       0.978  -7.337  -0.002  1.00  0.00     0.041 C 
HETATM   10  C3  UNL     1       2.163  -8.275   0.001  1.00  0.00     0.037 C 
BRANCH   9  11
HETATM   11  C1  UNL     1      -0.406  -7.896  -0.003  1.00  0.00     0.292 C 
HETATM   12  O4  UNL     1      -0.537  -9.116  -0.002  1.00  0.00    -0.260 OA
BRANCH  11  13
HETATM   13  O1  UNL     1      -1.511  -7.092  -0.005  1.00  0.00    -0.296 OA
HETATM   14  C22 UNL     1      -2.768  -7.727  -0.002  1.00  0.00     0.185 C 
ENDBRANCH  11  13
ENDBRANCH   9  11
ENDBRANCH   7   8
ENDBRANCH   4   6
ENDBRANCH   1   3
BRANCH   2  15
HETATM   15  C11 UNL     1       5.699   1.424   0.000  1.00  0.00    -0.004 C 
HETATM   16  C12 UNL     1       5.547   2.779   0.000  1.00  0.00    -0.022 C 
HETATM   17  C20 UNL     1       4.158   3.381  -0.000  1.00  0.00     0.031 C 
BRANCH  16  18
HETATM   18  C13 UNL     1       6.770   3.601   0.002  1.00  0.00    -0.004 C 
HETATM   19  C14 UNL     1       6.819   4.957   0.001  1.00  0.00    -0.001 C 
BRANCH  19  20
HETATM   20  C15 UNL     1       8.084   5.697   0.002  1.00  0.00     0.001 C 
HETATM   21  C16 UNL     1       8.212   7.053   0.003  1.00  0.00     0.041 C 
HETATM   22  C19 UNL     1       7.061   8.034   0.003  1.00  0.00     0.037 C 
BRANCH  21  23
HETATM   23  C17 UNL     1       9.573   7.657   0.005  1.00  0.00     0.292 C 
HETATM   24  O3  UNL     1      10.564   6.930   0.001  1.00  0.00    -0.260 OA
BRANCH  23  25
HETATM   25  O2  UNL     1       9.724   9.016   0.008  1.00  0.00    -0.296 OA
HETATM   26  C18 UNL     1      11.040   9.519   0.000  1.00  0.00     0.185 C 
ENDBRANCH  23  25
ENDBRANCH  21  23
ENDBRANCH  19  20
ENDBRANCH  16  18
ENDBRANCH   2  15
TORSDOF 10
