REMARK  2 active torsions:
REMARK  status: ('A' for Active; 'I' for Inactive)
REMARK    1  A    between atoms: C14_14  and  O1_20 
REMARK    2  A    between atoms: C15_15  and  C17_17 
ROOT
HETATM    1  C1  UNL     1      -1.910   2.669  -1.200  1.00  0.00     0.000 C 
HETATM    2  C2  UNL     1      -2.115   1.180  -1.489  1.00  0.00     0.000 C 
HETATM    3  C3  UNL     1      -0.794   0.423  -1.333  1.00  0.00     0.004 C 
HETATM    4  C4  UNL     1      -0.169   0.527   0.078  1.00  0.00     0.021 C 
HETATM    5  C5  UNL     1      -0.079   2.038   0.480  1.00  0.00     0.011 C 
HETATM    6  C6  UNL     1      -1.351   2.929   0.214  1.00  0.00     0.001 C 
HETATM    7  C7  UNL     1      -2.489   2.730   1.249  1.00  0.00     0.000 C 
HETATM    8  C8  UNL     1      -1.040   4.449   0.307  1.00  0.00     0.000 C 
HETATM    9  C9  UNL     1       1.173   2.685  -0.137  1.00  0.00     0.070 C 
HETATM   10  C10 UNL     1       2.457   1.945   0.145  1.00  0.00     0.173 C 
HETATM   11  C11 UNL     1       2.408   0.470   0.074  1.00  0.00     0.033 C 
HETATM   12  C12 UNL     1       1.187  -0.216   0.011  1.00  0.00     0.007 C 
HETATM   13  C13 UNL     1       1.269  -1.619  -0.117  1.00  0.00     0.149 C 
HETATM   14  C14 UNL     1       2.496  -2.316  -0.107  1.00  0.00     0.115 C 
HETATM   15  C15 UNL     1       3.701  -1.595  -0.154  1.00  0.00     0.002 C 
HETATM   16  C16 UNL     1       3.629  -0.207  -0.017  1.00  0.00     0.000 C 
HETATM   17  O2  UNL     1       0.151  -2.386  -0.247  1.00  0.00    -0.188 OA
HETATM   18  O3  UNL     1       3.495   2.562   0.357  1.00  0.00    -0.291 OA
HETATM   19  C21 UNL     1      -1.002  -0.219   1.152  1.00  0.00     0.004 C 
ENDROOT
BRANCH  15  20
HETATM   20  C17 UNL     1       5.090  -2.207  -0.315  1.00  0.00     0.024 C 
HETATM   21  C18 UNL     1       5.719  -2.492   1.058  1.00  0.00     0.005 C 
HETATM   22  C19 UNL     1       5.214  -3.425  -1.244  1.00  0.00     0.005 C 
ENDBRANCH  15  20
BRANCH  14  23
HETATM   23  O1  UNL     1       2.464  -3.676  -0.276  1.00  0.00    -0.326 OA
HETATM   24  C20 UNL     1       2.301  -4.404   0.920  1.00  0.00     0.181 C 
ENDBRANCH  14  23
TORSDOF 2
