REMARK  2 active torsions:
REMARK  status: ('A' for Active; 'I' for Inactive)
REMARK    1  A    between atoms: C3_3  and  C19_19 
REMARK    2  A    between atoms: C12_12  and  C15_15 
ROOT
HETATM    1  C1  UNL     1       6.346   2.061   0.549  1.00  0.00     0.001 C 
HETATM    2  C2  UNL     1       7.278   0.866   0.313  1.00  0.00     0.010 C 
HETATM    3  C3  UNL     1       6.684  -0.181  -0.660  1.00  0.00     0.078 C 
HETATM    4  C4  UNL     1       5.241  -0.553  -0.205  1.00  0.00     0.010 C 
HETATM    5  C5  UNL     1       4.262   0.599   0.180  1.00  0.00     0.004 C 
HETATM    6  C6  UNL     1       5.001   1.587   1.113  1.00  0.00     0.000 C 
HETATM    7  C7  UNL     1       3.051  -0.031   0.946  1.00  0.00     0.018 C 
HETATM    8  C8  UNL     1       2.390  -1.101   0.098  1.00  0.00    -0.049 C 
HETATM    9  C9  UNL     1       3.311  -2.173  -0.437  1.00  0.00     0.022 C 
HETATM   10  C10 UNL     1       4.546  -1.575  -1.123  1.00  0.00     0.005 C 
HETATM   11  C11 UNL     1       1.063  -1.178  -0.091  1.00  0.00    -0.031 C 
HETATM   12  C12 UNL     1       0.065  -0.211   0.503  1.00  0.00     0.036 C 
HETATM   13  C13 UNL     1       0.675   0.384   1.787  1.00  0.00     0.008 C 
HETATM   14  C14 UNL     1       2.057   0.996   1.525  1.00  0.00     0.005 C 
HETATM   15  C17 UNL     1      -0.238   0.862  -0.559  1.00  0.00     0.009 C 
HETATM   16  C18 UNL     1       3.720   1.359  -1.054  1.00  0.00     0.000 C 
HETATM   17  C20 UNL     1       6.819   0.345  -2.106  1.00  0.00     0.011 C 
ENDROOT
BRANCH   3  18
HETATM   18  C19 UNL     1       7.545  -1.451  -0.503  1.00  0.00     0.184 C 
HETATM   19  O1  UNL     1       7.865  -2.046  -1.667  1.00  0.00    -0.647 OA
HETATM   20  O2  UNL     1       7.900  -1.944   0.542  1.00  0.00    -0.647 OA
ENDBRANCH   3  18
BRANCH  12  21
HETATM   21  C15 UNL     1      -1.174  -0.994   0.909  1.00  0.00    -0.023 C 
HETATM   22  C16 UNL     1      -2.446  -0.590   0.771  1.00  0.00    -0.005 C 
ENDBRANCH  12  21
TORSDOF 2
