REMARK  1 active torsions:
REMARK  status: ('A' for Active; 'I' for Inactive)
REMARK    1  A    between atoms: C10_10  and  C11_11 
ROOT
HETATM    1  C1  UNL     1      -1.425  -0.409   1.649  1.00  0.00     0.030 C 
HETATM    2  C2  UNL     1      -1.714  -1.440   0.559  1.00  0.00     0.127 C 
HETATM    3  C3  UNL     1      -1.079  -0.901  -0.724  1.00  0.00     0.028 A 
HETATM    4  C4  UNL     1       0.349  -0.407  -0.793  1.00  0.00     0.002 A 
HETATM    5  C5  UNL     1      -0.827   0.557  -0.542  1.00  0.00     0.002 A 
HETATM    6  C6  UNL     1      -1.364   0.902   0.849  1.00  0.00     0.003 C 
HETATM    7  C7  UNL     1      -0.676   1.667  -1.565  1.00  0.00     0.000 C 
HETATM    8  C8  UNL     1       0.527   2.487  -1.044  1.00  0.00     0.000 C 
HETATM    9  C9  UNL     1       1.748   1.608  -0.675  1.00  0.00     0.000 C 
HETATM   10  C10 UNL     1       1.435   0.263   0.053  1.00  0.00     0.000 C 
HETATM   11  C14 UNL     1      -1.922   2.538  -1.772  1.00  0.00     0.000 C 
HETATM   12  O1  UNL     1      -3.117  -1.477   0.369  1.00  0.00    -0.226 OA
HETATM   13  C15 UNL     1      -1.287  -2.850   0.951  1.00  0.00     0.033 C 
ENDROOT
BRANCH  10  14
HETATM   14  C11 UNL     1       2.717  -0.605   0.154  1.00  0.00     0.000 C 
HETATM   15  C12 UNL     1       3.781   0.019   1.076  1.00  0.00     0.000 C 
HETATM   16  C13 UNL     1       2.400  -2.025   0.653  1.00  0.00     0.000 C 
ENDBRANCH  10  14
TORSDOF 1
