REMARK  0 active torsions:
REMARK  status: ('A' for Active; 'I' for Inactive)
ROOT
HETATM    1  C1  UNL     1       2.713   0.356  -0.012  1.00  0.00     0.094 A 
HETATM    2  N1  UNL     1       2.637  -1.006   0.183  1.00  0.00    -0.243 NA
HETATM    3  C2  UNL     1       1.383  -1.560   0.146  1.00  0.00     0.094 A 
HETATM    4  C3  UNL     1       0.162  -0.875  -0.069  1.00  0.00    -0.008 A 
HETATM    5  C4  UNL     1       0.258   0.516  -0.268  1.00  0.00    -0.027 A 
HETATM    6  C5  UNL     1       1.545   1.135  -0.236  1.00  0.00    -0.007 A 
HETATM    7  C6  UNL     1       1.666   2.586  -0.440  1.00  0.00     0.032 C 
HETATM    8  C7  UNL     1      -1.102   1.123  -0.490  1.00  0.00     0.026 C 
HETATM    9  C8  UNL     1      -2.080  -0.049  -0.195  1.00  0.00     0.009 C 
HETATM   10  C9  UNL     1      -1.258  -1.367  -0.129  1.00  0.00     0.024 C 
HETATM   11  C10 UNL     1      -1.627  -2.213   1.084  1.00  0.00     0.005 C 
ENDROOT
TORSDOF 0
