REMARK  5 active torsions:
REMARK  status: ('A' for Active; 'I' for Inactive)
REMARK    1  A    between atoms: C16_17  and  C19_21 
REMARK    2  A    between atoms: C19_21  and  C20_22 
REMARK    3  A    between atoms: C20_22  and  C21_23 
REMARK    4  A    between atoms: C21_23  and  C22_24 
REMARK    5  A    between atoms: C22_24  and  C23_25 
ROOT
HETATM    1  C1  UNL     1      -1.678   0.714  -0.789  1.00  0.00     0.162 C 
HETATM    2  C2  UNL     1      -2.290  -0.637  -0.834  1.00  0.00     0.200 C 
HETATM    3  C3  UNL     1      -1.377  -1.852  -0.659  1.00  0.00     0.073 C 
HETATM    4  C4  UNL     1      -0.305  -1.530   0.376  1.00  0.00    -0.038 C 
HETATM    5  C5  UNL     1       0.473  -0.252   0.158  1.00  0.00     0.049 C 
HETATM    6  C6  UNL     1      -0.417   0.858  -0.344  1.00  0.00     0.008 C 
HETATM    7  C7  UNL     1       1.359   0.171   1.360  1.00  0.00     0.059 C 
HETATM    8  C8  UNL     1       2.093  -1.033   2.013  1.00  0.00     0.012 C 
HETATM    9  C9  UNL     1       1.108  -2.156   2.379  1.00  0.00     0.026 C 
HETATM   10  C10 UNL     1       0.014  -2.373   1.373  1.00  0.00    -0.034 C 
HETATM   11  C11 UNL     1       3.389  -1.493   1.291  1.00  0.00     0.004 C 
HETATM   12  C12 UNL     1       4.379  -0.286   1.130  1.00  0.00     0.012 C 
HETATM   13  C13 UNL     1       3.687   0.745   0.235  1.00  0.00     0.065 C 
HETATM   14  C14 UNL     1       2.376   1.209   0.855  1.00  0.00     0.150 C 
HETATM   15  O1  UNL     1       2.142   2.397   0.899  1.00  0.00    -0.296 OA
HETATM   16  C15 UNL     1       4.689   0.459   2.458  1.00  0.00     0.001 C 
HETATM   17  C16 UNL     1       5.646  -0.996   0.580  1.00  0.00     0.066 C 
HETATM   18  C17 UNL     1       5.701  -2.223   1.520  1.00  0.00     0.155 C 
HETATM   19  C18 UNL     1       4.291  -2.467   2.083  1.00  0.00     0.033 C 
HETATM   20  O2  UNL     1       6.164  -3.348   0.811  1.00  0.00    -0.223 OA
HETATM   21  C27 UNL     1       3.043  -2.268  -0.013  1.00  0.00     0.000 C 
HETATM   22  C28 UNL     1       0.466   0.847   2.432  1.00  0.00     0.008 C 
HETATM   23  C29 UNL     1      -2.259  -3.069  -0.296  1.00  0.00     0.012 C 
HETATM   24  C30 UNL     1      -0.710  -2.151  -2.018  1.00  0.00     0.012 C 
HETATM   25  O7  UNL     1      -3.487  -0.759  -1.066  1.00  0.00    -0.289 OA
HETATM   26  O8  UNL     1      -2.401   1.774  -1.239  1.00  0.00    -0.188 OA
ENDROOT
BRANCH  17  27
HETATM   27  C19 UNL     1       7.036  -0.362   0.352  1.00  0.00     0.180 C 
HETATM   28  O6  UNL     1       7.927  -1.456   0.180  1.00  0.00    -0.218 OA
HETATM   29  C26 UNL     1       7.634   0.427   1.523  1.00  0.00     0.041 C 
BRANCH  27  30
HETATM   30  C20 UNL     1       7.307   0.414  -0.950  1.00  0.00     0.181 C 
HETATM   31  O5  UNL     1       8.479   0.706  -1.072  1.00  0.00    -0.293 OA
BRANCH  30  32
HETATM   32  C21 UNL     1       6.391   0.589  -2.154  1.00  0.00     0.102 C 
BRANCH  32  33
HETATM   33  C22 UNL     1       5.668   1.923  -2.398  1.00  0.00     0.187 C 
HETATM   34  O4  UNL     1       5.507   2.098  -3.789  1.00  0.00    -0.220 OA
BRANCH  33  35
HETATM   35  C23 UNL     1       6.250   3.204  -1.798  1.00  0.00     0.155 C 
HETATM   36  C24 UNL     1       7.567   3.622  -2.452  1.00  0.00     0.036 C 
HETATM   37  C25 UNL     1       5.240   4.356  -1.886  1.00  0.00     0.036 C 
HETATM   38  O3  UNL     1       6.483   2.991  -0.432  1.00  0.00    -0.223 OA
ENDBRANCH  33  35
ENDBRANCH  32  33
ENDBRANCH  30  32
ENDBRANCH  27  30
ENDBRANCH  17  27
TORSDOF 5
