REMARK  0 active torsions:
REMARK  status: ('A' for Active; 'I' for Inactive)
ROOT
HETATM    1  C1  UNL     1       0.276   0.687   0.074  1.00  0.00     0.248 C 
HETATM    2  C2  UNL     1      -0.341  -0.679   0.357  1.00  0.00     0.030 C 
HETATM    3  C3  UNL     1       0.457  -1.834   0.521  1.00  0.00     0.123 C 
HETATM    4  O1  UNL     1       1.823  -1.878   0.638  1.00  0.00    -0.306 OA
HETATM    5  C4  UNL     1       2.684  -1.006   0.040  1.00  0.00     0.098 A 
HETATM    6  C5  UNL     1       2.643   0.380   0.289  1.00  0.00     0.005 A 
HETATM    7  C6  UNL     1       1.453   0.933   1.038  1.00  0.00     0.066 C 
HETATM    8  C7  UNL     1       3.581   1.262  -0.270  1.00  0.00     0.024 A 
HETATM    9  C8  UNL     1       4.593   0.726  -1.056  1.00  0.00     0.119 A 
HETATM   10  C9  UNL     1       4.664  -0.640  -1.294  1.00  0.00     0.121 A 
HETATM   11  C10 UNL     1       3.730  -1.515  -0.750  1.00  0.00     0.051 A 
HETATM   12  O2  UNL     1       5.759  -0.903  -2.094  1.00  0.00    -0.299 OA
HETATM   13  C11 UNL     1       6.392   0.349  -2.389  1.00  0.00     0.304 A 
HETATM   14  O3  UNL     1       5.628   1.358  -1.717  1.00  0.00    -0.300 OA
HETATM   15  C12 UNL     1      -0.179  -3.083   0.658  1.00  0.00     0.153 C 
HETATM   16  C13 UNL     1      -1.570  -3.177   0.677  1.00  0.00     0.029 C 
HETATM   17  C14 UNL     1      -2.348  -2.026   0.632  1.00  0.00    -0.002 C 
HETATM   18  C15 UNL     1      -1.735  -0.780   0.497  1.00  0.00    -0.020 C 
HETATM   19  C16 UNL     1      -2.601   0.449   0.581  1.00  0.00     0.061 C 
HETATM   20  C17 UNL     1      -1.755   1.681   0.917  1.00  0.00     0.255 C 
HETATM   21  N1  UNL     1      -0.710   1.756  -0.080  1.00  0.00     0.142 N 
HETATM   22  C18 UNL     1      -0.138   3.089  -0.167  1.00  0.00     0.286 C 
HETATM   23  O4  UNL     1       0.573  -4.211   0.786  1.00  0.00    -0.188 OA
ENDROOT
TORSDOF 0
