REMARK  1 active torsions:
REMARK  status: ('A' for Active; 'I' for Inactive)
REMARK    1  A    between atoms: C5_5  and  C7_7 
ROOT
HETATM    1  C7  UNL     1       2.721  -0.140  -0.033  1.00  0.00     0.021 C 
HETATM    2  C8  UNL     1       2.794   1.398   0.234  1.00  0.00     0.006 C 
HETATM    3  C9  UNL     1       4.128   1.587   1.002  1.00  0.00     0.033 C 
HETATM    4  C10 UNL     1       4.498   0.236   1.611  1.00  0.00     0.152 C 
HETATM    5  C11 UNL     1       3.333  -0.691   1.280  1.00  0.00     0.037 C 
HETATM    6  O1  UNL     1       4.677   0.342   3.003  1.00  0.00    -0.224 OA
HETATM    7  C12 UNL     1       2.804   2.308  -1.011  1.00  0.00     0.000 C 
HETATM    8  C13 UNL     1       1.621   1.869   1.128  1.00  0.00     0.000 C 
HETATM    9  C14 UNL     1       3.643  -0.601  -1.188  1.00  0.00     0.004 C 
ENDROOT
BRANCH   1  10
HETATM   10  C5  UNL     1       1.312  -0.658  -0.335  1.00  0.00    -0.023 A 
HETATM   11  C4  UNL     1       0.656  -0.296  -1.521  1.00  0.00    -0.005 A 
HETATM   12  C3  UNL     1      -0.631  -0.741  -1.831  1.00  0.00    -0.005 A 
HETATM   13  C2  UNL     1      -1.325  -1.585  -0.962  1.00  0.00    -0.022 A 
HETATM   14  C1  UNL     1      -0.677  -1.978   0.212  1.00  0.00    -0.005 A 
HETATM   15  C15 UNL     1      -2.723  -2.057  -1.270  1.00  0.00     0.031 C 
HETATM   16  C6  UNL     1       0.613  -1.533   0.510  1.00  0.00    -0.005 A 
ENDBRANCH   1  10
TORSDOF 1
