REMARK  3 active torsions:
REMARK  status: ('A' for Active; 'I' for Inactive)
REMARK    1  A    between atoms: C1_1  and  C18_22 
REMARK    2  A    between atoms: C4_4  and  C8_9 
REMARK    3  A    between atoms: C8_9  and  C9_10 
ROOT
HETATM    1  C8  UNL     1       1.830  -1.456   0.868  1.00  0.00     0.206 C 
HETATM    2  O2  UNL     1       2.414  -1.883   2.090  1.00  0.00    -0.216 OA
ENDROOT
BRANCH   1   3
HETATM    3  C4  UNL     1       0.316  -1.735   0.942  1.00  0.00     0.254 C 
HETATM    4  C3  UNL     1      -0.410  -1.078   2.132  1.00  0.00     0.037 C 
HETATM    5  C2  UNL     1      -1.826  -0.672   1.689  1.00  0.00     0.010 C 
HETATM    6  C1  UNL     1      -1.708   0.442   0.631  1.00  0.00     0.056 C 
HETATM    7  C7  UNL     1      -2.485  -1.891   1.020  1.00  0.00     0.036 C 
HETATM    8  C5  UNL     1      -0.762  -0.080  -0.469  1.00  0.00     0.255 C 
HETATM    9  N1  UNL     1      -0.432  -1.491  -0.294  1.00  0.00     0.138 N 
HETATM   10  C6  UNL     1      -1.687  -2.238  -0.251  1.00  0.00     0.250 C 
BRANCH   6  11
HETATM   11  C18 UNL     1      -1.259   1.764   1.211  1.00  0.00    -0.024 C 
HETATM   12  C19 UNL     1      -0.916   2.828   0.470  1.00  0.00    -0.005 C 
ENDBRANCH   6  11
ENDBRANCH   1   3
BRANCH   1  13
HETATM   13  C9  UNL     1       2.273  -0.041   0.547  1.00  0.00     0.013 A 
HETATM   14  C10 UNL     1       2.554   0.419  -0.785  1.00  0.00     0.018 A 
HETATM   15  C11 UNL     1       2.417  -0.406  -1.946  1.00  0.00     0.029 A 
HETATM   16  C15 UNL     1       2.933   1.764  -0.981  1.00  0.00     0.081 A 
HETATM   17  C12 UNL     1       2.658   0.055  -3.222  1.00  0.00     0.131 A 
HETATM   18  C13 UNL     1       3.043   1.414  -3.385  1.00  0.00     0.029 A 
HETATM   19  O1  UNL     1       2.510  -0.751  -4.306  1.00  0.00    -0.190 OA
HETATM   20  C14 UNL     1       3.176   2.247  -2.302  1.00  0.00     0.021 A 
HETATM   21  N2  UNL     1       3.066   2.651   0.058  1.00  0.00    -0.244 NA
HETATM   22  C16 UNL     1       2.830   2.210   1.268  1.00  0.00     0.099 A 
HETATM   23  C17 UNL     1       2.439   0.877   1.562  1.00  0.00     0.019 A 
ENDBRANCH   1  13
TORSDOF 3
