REMARK  1 active torsions:
REMARK  status: ('A' for Active; 'I' for Inactive)
REMARK    1  A    between atoms: C6_6  and  C7_7 
ROOT
HETATM    1  C7  UNL     1      -0.976  -0.423   0.879  1.00  0.00     0.015 C 
HETATM    2  C8  UNL     1      -1.115   1.058   1.355  1.00  0.00     0.003 C 
HETATM    3  C9  UNL     1       0.137   1.320   2.225  1.00  0.00     0.000 C 
HETATM    4  C10 UNL     1       0.621  -0.040   2.748  1.00  0.00     0.000 C 
HETATM    5  C11 UNL     1      -0.283  -1.092   2.091  1.00  0.00     0.004 C 
HETATM    6  C12 UNL     1      -2.360   1.294   2.245  1.00  0.00     0.000 C 
HETATM    7  C13 UNL     1      -1.191   2.069   0.193  1.00  0.00     0.000 C 
HETATM    8  C14 UNL     1      -2.340  -1.133   0.687  1.00  0.00     0.004 C 
ENDROOT
BRANCH   1   9
HETATM    9  C6  UNL     1      -0.142  -0.542  -0.414  1.00  0.00    -0.044 A 
HETATM   10  C1  UNL     1       1.368  -0.549  -0.325  1.00  0.00     0.047 A 
HETATM   11  C2  UNL     1       2.103  -0.615  -1.633  1.00  0.00    -0.029 A 
HETATM   12  C3  UNL     1       1.500  -0.675  -2.828  1.00  0.00    -0.043 A 
HETATM   13  C4  UNL     1       0.004  -0.684  -2.943  1.00  0.00     0.047 A 
HETATM   14  C15 UNL     1       2.276  -0.742  -4.120  1.00  0.00     0.026 C 
HETATM   15  C5  UNL     1      -0.719  -0.583  -1.629  1.00  0.00    -0.029 A 
ENDBRANCH   1   9
TORSDOF 1
