REMARK  1 active torsions:
REMARK  status: ('A' for Active; 'I' for Inactive)
REMARK    1  A    between atoms: C8_9  and  C13_15 
ROOT
HETATM    1  C1  UNL     1       0.234   1.426   0.048  1.00  0.00     0.031 C 
HETATM    2  C2  UNL     1       0.071  -0.100  -0.077  1.00  0.00     0.035 C 
HETATM    3  C3  UNL     1      -1.321  -0.355   0.555  1.00  0.00     0.127 C 
HETATM    4  C4  UNL     1      -1.681   0.894   1.374  1.00  0.00     0.031 C 
HETATM    5  C5  UNL     1      -0.403   1.739   1.409  1.00  0.00     0.005 C 
HETATM    6  O1  UNL     1      -1.302  -1.456   1.425  1.00  0.00    -0.226 OA
HETATM    7  C6  UNL     1      -2.383  -0.643  -0.509  1.00  0.00     0.033 C 
HETATM    8  C7  UNL     1       1.217  -0.905   0.557  1.00  0.00     0.024 C 
HETATM    9  C8  UNL     1       2.529  -0.953  -0.201  1.00  0.00    -0.049 C 
HETATM   10  C9  UNL     1       2.953  -0.007  -1.056  1.00  0.00    -0.032 C 
HETATM   11  C10 UNL     1       2.316   1.323  -1.367  1.00  0.00     0.056 C 
HETATM   12  C11 UNL     1       1.623   2.020  -0.193  1.00  0.00     0.131 C 
HETATM   13  C12 UNL     1       1.507   3.525  -0.473  1.00  0.00     0.033 C 
HETATM   14  O2  UNL     1       2.425   1.883   0.950  1.00  0.00    -0.226 OA
ENDROOT
BRANCH   9  15
HETATM   15  C13 UNL     1       3.354  -2.209   0.066  1.00  0.00     0.018 C 
HETATM   16  C14 UNL     1       2.909  -3.347  -0.869  1.00  0.00     0.004 C 
HETATM   17  C15 UNL     1       4.878  -2.014  -0.029  1.00  0.00     0.004 C 
ENDBRANCH   9  15
TORSDOF 1
