REMARK  1 active torsions:
REMARK  status: ('A' for Active; 'I' for Inactive)
REMARK    1  A    between atoms: C4_4  and  C7_7 
ROOT
HETATM    1  C7  UNL     1       0.543  -0.678  -0.212  1.00  0.00     0.111 C 
HETATM    2  C8  UNL     1      -0.380  -0.874  -1.426  1.00  0.00     0.032 C 
HETATM    3  C9  UNL     1      -1.523  -1.851  -1.142  1.00  0.00     0.005 C 
HETATM    4  C10 UNL     1      -2.255  -1.349   0.103  1.00  0.00     0.027 C 
HETATM    5  C11 UNL     1      -1.310  -1.171   1.294  1.00  0.00     0.093 C 
HETATM    6  O1  UNL     1      -0.180  -0.411   0.970  1.00  0.00    -0.360 OA
HETATM    7  C12 UNL     1      -2.044  -0.343   2.371  1.00  0.00     0.030 C 
HETATM    8  C13 UNL     1      -0.949  -2.507   1.960  1.00  0.00     0.030 C 
HETATM    9  C14 UNL     1       1.437  -1.915  -0.033  1.00  0.00     0.034 C 
ENDROOT
BRANCH   1  10
HETATM   10  C4  UNL     1       1.397   0.584  -0.461  1.00  0.00     0.002 A 
HETATM   11  C3  UNL     1       2.797   0.588  -0.541  1.00  0.00    -0.002 A 
HETATM   12  C2  UNL     1       3.519   1.763  -0.759  1.00  0.00    -0.004 A 
HETATM   13  C1  UNL     1       2.875   2.994  -0.904  1.00  0.00    -0.022 A 
HETATM   14  C6  UNL     1       1.481   3.011  -0.807  1.00  0.00    -0.004 A 
HETATM   15  C15 UNL     1       3.671   4.251  -1.149  1.00  0.00     0.031 C 
HETATM   16  C5  UNL     1       0.767   1.833  -0.578  1.00  0.00    -0.002 A 
ENDBRANCH   1  10
TORSDOF 1
