REMARK  2 active torsions:
REMARK  status: ('A' for Active; 'I' for Inactive)
REMARK    1  A    between atoms: C2_2  and  C3_3 
REMARK    2  A    between atoms: C4_4  and  C5_5 
ROOT
HETATM    1  C3  UNL     1       2.876   1.031  -0.183  1.00  0.00     0.032 C 
HETATM    2  C4  UNL     1       2.619  -0.309   0.562  1.00  0.00     0.045 C 
HETATM    3  C8  UNL     1       1.179  -0.782   0.426  1.00  0.00    -0.017 C 
HETATM    4  C9  UNL     1       0.146   0.264   0.372  1.00  0.00     0.013 A 
HETATM    5  C10 UNL     1       0.493   1.590   0.364  1.00  0.00     0.077 A 
HETATM    6  C11 UNL     1       1.905   2.092   0.396  1.00  0.00     0.056 C 
HETATM    7  O1  UNL     1      -0.612   2.387   0.324  1.00  0.00    -0.310 OA
HETATM    8  C12 UNL     1      -1.682   1.547   0.321  1.00  0.00     0.118 A 
HETATM    9  C13 UNL     1      -1.292   0.241   0.351  1.00  0.00     0.004 A 
HETATM   10  C14 UNL     1      -2.231  -0.925   0.385  1.00  0.00     0.033 C 
HETATM   11  C15 UNL     1       0.868  -2.094   0.442  1.00  0.00    -0.004 C 
HETATM   12  C16 UNL     1       2.594   0.957  -1.701  1.00  0.00     0.005 C 
ENDROOT
BRANCH   1  13
HETATM   13  C2  UNL     1       4.292   1.490   0.131  1.00  0.00    -0.026 C 
HETATM   14  C1  UNL     1       5.308   1.616  -0.735  1.00  0.00    -0.005 C 
ENDBRANCH   1  13
BRANCH   2  15
HETATM   15  C5  UNL     1       3.677  -1.379   0.340  1.00  0.00    -0.040 C 
HETATM   16  C6  UNL     1       4.452  -1.805   1.354  1.00  0.00    -0.009 C 
HETATM   17  C7  UNL     1       3.863  -1.979  -1.033  1.00  0.00     0.027 C 
ENDBRANCH   2  15
TORSDOF 2
