REMARK  3 active torsions:
REMARK  status: ('A' for Active; 'I' for Inactive)
REMARK    1  A    between atoms: C8_8  and  O4_19 
REMARK    2  A    between atoms: C9_9  and  C10_11 
REMARK    3  A    between atoms: O4_19  and  C16_20 
ROOT
HETATM    1  C1  UNL     1      -4.383  -0.719  -0.686  1.00  0.00     0.135 A 
HETATM    2  C2  UNL     1      -5.547   0.086  -0.689  1.00  0.00     0.055 A 
HETATM    3  C3  UNL     1      -5.441   1.496  -0.711  1.00  0.00     0.135 A 
HETATM    4  C4  UNL     1      -4.168   2.113  -0.728  1.00  0.00     0.052 A 
HETATM    5  C5  UNL     1      -2.998   1.320  -0.725  1.00  0.00     0.104 A 
HETATM    6  C6  UNL     1      -3.103  -0.102  -0.705  1.00  0.00     0.050 A 
HETATM    7  C7  UNL     1      -1.910  -0.867  -0.703  1.00  0.00     0.030 A 
HETATM    8  C8  UNL     1      -0.646  -0.232  -0.721  1.00  0.00     0.120 A 
HETATM    9  C9  UNL     1      -0.588   1.182  -0.740  1.00  0.00     0.122 A 
HETATM   10  O1  UNL     1      -1.756   1.912  -0.742  1.00  0.00    -0.305 OA
HETATM   11  O10 UNL     1      -6.549   2.250  -0.713  1.00  0.00    -0.190 OA
HETATM   12  O11 UNL     1      -4.510  -2.055  -0.666  1.00  0.00    -0.190 OA
ENDROOT
BRANCH   8  13
HETATM   13  O4  UNL     1       0.471  -0.977  -0.719  1.00  0.00    -0.302 OA
BRANCH  13  14
HETATM   14  C16 UNL     1       0.404  -2.281  -0.156  1.00  0.00     0.276 C 
HETATM   15  C17 UNL     1       1.805  -2.938  -0.127  1.00  0.00     0.241 C 
HETATM   16  C18 UNL     1       2.740  -2.205   0.859  1.00  0.00     0.223 C 
HETATM   17  O9  UNL     1       2.346  -2.920  -1.436  1.00  0.00    -0.215 OA
HETATM   18  C19 UNL     1       2.065  -2.084   2.246  1.00  0.00     0.244 C 
HETATM   19  O8  UNL     1       3.998  -2.857   0.957  1.00  0.00    -0.218 OA
HETATM   20  C20 UNL     1       0.649  -1.463   2.092  1.00  0.00     0.304 C 
HETATM   21  O7  UNL     1       1.979  -3.361   2.867  1.00  0.00    -0.215 OA
HETATM   22  O5  UNL     1      -0.131  -2.213   1.162  1.00  0.00    -0.300 OA
HETATM   23  O6  UNL     1      -0.016  -1.387   3.338  1.00  0.00    -0.187 OA
ENDBRANCH  13  14
ENDBRANCH   8  13
BRANCH   9  24
HETATM   24  C10 UNL     1       0.682   1.895  -0.758  1.00  0.00     0.027 A 
HETATM   25  C11 UNL     1       1.715   1.475  -1.617  1.00  0.00     0.004 A 
HETATM   26  C12 UNL     1       2.938   2.166  -1.631  1.00  0.00     0.030 A 
HETATM   27  C13 UNL     1       3.137   3.275  -0.789  1.00  0.00     0.156 A 
HETATM   28  C14 UNL     1       2.104   3.695   0.070  1.00  0.00     0.156 A 
HETATM   29  O3  UNL     1       4.287   3.918  -0.811  1.00  0.00    -0.188 OA
HETATM   30  C15 UNL     1       0.879   3.006   0.084  1.00  0.00     0.032 A 
HETATM   31  O2  UNL     1       2.281   4.734   0.861  1.00  0.00    -0.188 OA
ENDBRANCH   9  24
TORSDOF 3
