REMARK  11 active torsions:
REMARK  status: ('A' for Active; 'I' for Inactive)
REMARK    1  A    between atoms: C4_4  and  O2_9 
REMARK    2  A    between atoms: C6_6  and  C7_7 
REMARK    3  A    between atoms: O2_9  and  C8_10 
REMARK    4  A    between atoms: C14_18  and  C29_45 
REMARK    5  A    between atoms: C15_19  and  O5_21 
REMARK    6  A    between atoms: O5_21  and  O6_22 
REMARK    7  A    between atoms: O6_22  and  C17_23 
REMARK    8  A    between atoms: C18_25  and  C28_43 
REMARK    9  A    between atoms: C21_28  and  O8_29 
REMARK   10  A    between atoms: O8_29  and  C22_30 
REMARK   11  A    between atoms: C23_32  and  C27_39 
ROOT
HETATM    1  C8  UNL     1      -0.022   2.264   2.938  1.00  0.00     0.098 A 
HETATM    2  C9  UNL     1      -0.328   0.924   2.582  1.00  0.00     0.047 A 
HETATM    3  C10 UNL     1      -0.479  -0.066   3.598  1.00  0.00     0.104 A 
HETATM    4  C11 UNL     1      -0.322   0.291   4.957  1.00  0.00     0.052 A 
HETATM    5  C12 UNL     1      -0.016   1.627   5.307  1.00  0.00     0.135 A 
HETATM    6  C13 UNL     1       0.133   2.609   4.301  1.00  0.00     0.052 A 
HETATM    7  O3  UNL     1       0.131   1.963   6.596  1.00  0.00    -0.190 OA
HETATM    8  O4  UNL     1      -0.775  -1.363   3.248  1.00  0.00    -0.305 OA
HETATM    9  C14 UNL     1      -0.938  -1.758   1.937  1.00  0.00     0.125 A 
HETATM   10  C15 UNL     1      -0.795  -0.807   0.898  1.00  0.00     0.153 A 
HETATM   11  C16 UNL     1      -0.488   0.533   1.228  1.00  0.00     0.033 A 
ENDROOT
BRANCH  10  12
HETATM   12  O5  UNL     1      -0.943  -1.156  -0.389  1.00  0.00    -0.191 OA
BRANCH  12  13
HETATM   13  O6  UNL     1      -0.023  -2.178  -0.723  1.00  0.00    -0.185 OA
BRANCH  13  14
HETATM   14  C17 UNL     1       0.033  -2.172  -2.141  1.00  0.00     0.300 C 
HETATM   15  O7  UNL     1      -1.254  -2.402  -2.711  1.00  0.00    -0.324 OA
HETATM   16  C18 UNL     1      -1.826  -3.686  -2.459  1.00  0.00     0.184 C 
HETATM   17  C19 UNL     1      -0.900  -4.795  -3.012  1.00  0.00     0.215 C 
HETATM   18  C20 UNL     1       0.541  -4.664  -2.465  1.00  0.00     0.217 C 
HETATM   19  O15 UNL     1      -1.438  -6.055  -2.650  1.00  0.00    -0.218 OA
HETATM   20  C21 UNL     1       1.037  -3.219  -2.688  1.00  0.00     0.210 C 
HETATM   21  O14 UNL     1       1.391  -5.578  -3.139  1.00  0.00    -0.218 OA
BRANCH  16  22
HETATM   22  C28 UNL     1      -3.209  -3.686  -3.117  1.00  0.00     0.214 C 
HETATM   23  O16 UNL     1      -4.006  -2.719  -2.471  1.00  0.00    -0.218 OA
ENDBRANCH  16  22
BRANCH  20  24
HETATM   24  O8  UNL     1       2.316  -3.029  -2.104  1.00  0.00    -0.323 OA
BRANCH  24  25
HETATM   25  C22 UNL     1       2.998  -1.896  -2.608  1.00  0.00     0.270 C 
HETATM   26  O9  UNL     1       2.621  -0.768  -1.832  1.00  0.00    -0.326 OA
HETATM   27  C23 UNL     1       3.186   0.467  -2.254  1.00  0.00     0.184 C 
HETATM   28  C24 UNL     1       4.727   0.389  -2.141  1.00  0.00     0.215 C 
HETATM   29  C25 UNL     1       5.287  -0.816  -2.928  1.00  0.00     0.220 C 
HETATM   30  O12 UNL     1       5.279   1.592  -2.649  1.00  0.00    -0.218 OA
HETATM   31  C26 UNL     1       4.531  -2.103  -2.527  1.00  0.00     0.241 C 
HETATM   32  O11 UNL     1       6.670  -0.967  -2.652  1.00  0.00    -0.218 OA
HETATM   33  O10 UNL     1       4.908  -3.160  -3.395  1.00  0.00    -0.215 OA
BRANCH  27  34
HETATM   34  C27 UNL     1       2.576   1.557  -1.365  1.00  0.00     0.214 C 
HETATM   35  O13 UNL     1       1.205   1.662  -1.676  1.00  0.00    -0.218 OA
ENDBRANCH  27  34
ENDBRANCH  24  25
ENDBRANCH  20  24
ENDBRANCH  13  14
ENDBRANCH  12  13
ENDBRANCH  10  12
BRANCH   9  36
HETATM   36  C29 UNL     1      -1.252  -3.152   1.662  1.00  0.00     0.027 A 
HETATM   37  C30 UNL     1      -2.477  -3.494   1.062  1.00  0.00     0.004 A 
HETATM   38  C31 UNL     1      -2.777  -4.842   0.799  1.00  0.00     0.030 A 
HETATM   39  C32 UNL     1      -1.857  -5.852   1.131  1.00  0.00     0.156 A 
HETATM   40  C33 UNL     1      -0.631  -5.510   1.732  1.00  0.00     0.156 A 
HETATM   41  O18 UNL     1      -2.147  -7.111   0.881  1.00  0.00    -0.188 OA
HETATM   42  C34 UNL     1      -0.330  -4.162   1.996  1.00  0.00     0.032 A 
HETATM   43  O17 UNL     1       0.236  -6.451   2.047  1.00  0.00    -0.188 OA
ENDBRANCH   9  36
BRANCH   1  44
HETATM   44  O2  UNL     1       0.125   3.215   2.000  1.00  0.00    -0.331 OA
BRANCH  44  45
HETATM   45  C4  UNL     1      -0.549   4.451   2.193  1.00  0.00     0.154 C 
HETATM   46  C3  UNL     1       0.269   5.596   1.570  1.00  0.00     0.212 C 
HETATM   47  C2  UNL     1      -0.482   6.945   1.660  1.00  0.00     0.215 C 
HETATM   48  O19 UNL     1       1.512   5.684   2.248  1.00  0.00    -0.218 OA
HETATM   49  C1  UNL     1      -1.912   6.844   1.066  1.00  0.00     0.188 C 
HETATM   50  O20 UNL     1       0.250   7.940   0.959  1.00  0.00    -0.218 OA
HETATM   51  C6  UNL     1      -2.719   5.682   1.686  1.00  0.00     0.069 C 
HETATM   52  O21 UNL     1      -2.611   8.055   1.293  1.00  0.00    -0.221 OA
HETATM   53  C5  UNL     1      -1.949   4.356   1.570  1.00  0.00     0.038 C 
BRANCH  51  54
HETATM   54  C7  UNL     1      -4.111   5.545   1.057  1.00  0.00     0.185 C 
HETATM   55  O1  UNL     1      -4.826   4.565   1.773  1.00  0.00    -0.221 OA
ENDBRANCH  51  54
ENDBRANCH  44  45
ENDBRANCH   1  44
TORSDOF 11
