REMARK  0 active torsions:
REMARK  status: ('A' for Active; 'I' for Inactive)
ROOT
HETATM    1  C1  UNL     1      -1.834   1.168   0.041  1.00  0.00     0.065 C 
HETATM    2  C2  UNL     1      -2.454  -0.182   0.330  1.00  0.00     0.150 C 
HETATM    3  C3  UNL     1      -1.721  -1.400  -0.231  1.00  0.00     0.051 C 
HETATM    4  C4  UNL     1      -0.195  -1.101  -0.300  1.00  0.00     0.006 C 
HETATM    5  C5  UNL     1       0.352  -0.084   0.740  1.00  0.00     0.001 C 
HETATM    6  C6  UNL     1      -0.384   1.277   0.534  1.00  0.00     0.008 C 
HETATM    7  C7  UNL     1       1.887   0.153   0.487  1.00  0.00     0.005 C 
HETATM    8  C8  UNL     1       2.835  -1.051   0.211  1.00  0.00     0.004 C 
HETATM    9  C9  UNL     1       2.118  -2.038  -0.742  1.00  0.00     0.000 C 
HETATM   10  C10 UNL     1       0.676  -2.370  -0.341  1.00  0.00     0.000 C 
HETATM   11  C11 UNL     1       4.201  -0.524  -0.412  1.00  0.00     0.022 C 
HETATM   12  C12 UNL     1       4.794   0.571   0.484  1.00  0.00    -0.046 C 
HETATM   13  C13 UNL     1       4.010   1.309   1.289  1.00  0.00    -0.035 C 
HETATM   14  C14 UNL     1       2.537   1.113   1.497  1.00  0.00     0.025 C 
HETATM   15  C15 UNL     1       6.276   0.929   0.423  1.00  0.00     0.053 C 
HETATM   16  C16 UNL     1       7.166  -0.310   0.360  1.00  0.00     0.180 C 
HETATM   17  C17 UNL     1       6.647  -1.189  -0.773  1.00  0.00     0.178 C 
HETATM   18  C18 UNL     1       5.221  -1.679  -0.585  1.00  0.00     0.071 C 
HETATM   19  O1  UNL     1       7.317  -1.518  -1.725  1.00  0.00    -0.293 OA
HETATM   20  C19 UNL     1       8.647   0.052   0.230  1.00  0.00     0.038 C 
HETATM   21  C20 UNL     1       8.940   1.091  -0.862  1.00  0.00     0.003 C 
HETATM   22  C21 UNL     1       8.097   2.375  -0.725  1.00  0.00     0.001 C 
HETATM   23  C22 UNL     1       6.607   1.980  -0.652  1.00  0.00     0.007 C 
HETATM   24  C23 UNL     1       8.325   3.256  -1.976  1.00  0.00     0.000 C 
HETATM   25  C24 UNL     1       8.520   3.203   0.506  1.00  0.00     0.000 C 
HETATM   26  O2  UNL     1       7.018  -1.010   1.581  1.00  0.00    -0.218 OA
HETATM   27  C25 UNL     1       4.035   0.097  -1.826  1.00  0.00     0.004 C 
HETATM   28  C26 UNL     1       3.139  -1.804   1.533  1.00  0.00     0.000 C 
HETATM   29  C27 UNL     1       0.010  -0.537   2.181  1.00  0.00     0.000 C 
HETATM   30  C28 UNL     1      -2.091  -2.647   0.602  1.00  0.00     0.007 C 
HETATM   31  C29 UNL     1      -2.292  -1.625  -1.652  1.00  0.00     0.007 C 
HETATM   32  O3  UNL     1      -3.502  -0.267   0.930  1.00  0.00    -0.296 OA
ENDROOT
TORSDOF 0
