REMARK  1 active torsions:
REMARK  status: ('A' for Active; 'I' for Inactive)
REMARK    1  A    between atoms: C16_18  and  C19_22 
ROOT
HETATM    1  C1  UNL     1      -5.666   1.621  -0.322  1.00  0.00     0.000 A 
HETATM    2  C2  UNL     1      -5.740   0.231  -0.271  1.00  0.00     0.002 A 
HETATM    3  C3  UNL     1      -4.582  -0.552  -0.221  1.00  0.00     0.019 A 
HETATM    4  C4  UNL     1      -3.349   0.112  -0.224  1.00  0.00     0.081 A 
HETATM    5  C5  UNL     1      -3.246   1.506  -0.277  1.00  0.00     0.015 A 
HETATM    6  C6  UNL     1      -4.426   2.271  -0.326  1.00  0.00     0.001 A 
HETATM    7  C7  UNL     1      -1.861   1.811  -0.269  1.00  0.00     0.000 A 
HETATM    8  C8  UNL     1      -1.161   0.623  -0.200  1.00  0.00     0.093 A 
HETATM    9  N1  UNL     1      -2.066  -0.398  -0.181  1.00  0.00    -0.244 NA
HETATM   10  C9  UNL     1       0.257   0.506  -0.185  1.00  0.00     0.080 C 
HETATM   11  N2  UNL     1       0.982   1.690  -0.416  1.00  0.00    -0.294 N 
HETATM   12  C10 UNL     1       0.282   2.898  -0.935  1.00  0.00     0.114 C 
HETATM   13  C11 UNL     1      -1.121   3.104  -0.309  1.00  0.00     0.053 C 
HETATM   14  C12 UNL     1       2.425   1.658  -0.680  1.00  0.00     0.262 C 
HETATM   15  C13 UNL     1       3.079   0.393  -0.203  1.00  0.00     0.075 A 
HETATM   16  C14 UNL     1       2.323  -0.731   0.146  1.00  0.00     0.005 A 
HETATM   17  C15 UNL     1       0.860  -0.664   0.091  1.00  0.00     0.019 C 
HETATM   18  C16 UNL     1       2.976  -1.898   0.543  1.00  0.00    -0.003 A 
HETATM   19  C17 UNL     1       4.361  -1.897   0.574  1.00  0.00     0.095 A 
HETATM   20  N3  UNL     1       5.121  -0.833   0.237  1.00  0.00    -0.243 NA
HETATM   21  C18 UNL     1       4.463   0.285  -0.144  1.00  0.00     0.104 A 
HETATM   22  O1  UNL     1       3.025   2.555  -1.224  1.00  0.00    -0.267 OA
ENDROOT
BRANCH  18  23
HETATM   23  C19 UNL     1       2.200  -3.119   0.926  1.00  0.00     0.028 C 
HETATM   24  C20 UNL     1       3.164  -4.233   1.312  1.00  0.00     0.005 C 
ENDBRANCH  18  23
TORSDOF 1
