REMARK  3 active torsions:
REMARK  status: ('A' for Active; 'I' for Inactive)
REMARK    1  A    between atoms: C3_3  and  C20_23 
REMARK    2  A    between atoms: C20_23  and  O4_24 
REMARK    3  A    between atoms: O4_24  and  C21_25 
ROOT
HETATM    1  C1  UNL     1      -2.353   1.172   0.765  1.00  0.00     0.000 C 
HETATM    2  C2  UNL     1      -2.443  -0.345   0.573  1.00  0.00     0.002 C 
HETATM    3  C3  UNL     1      -1.674  -0.866  -0.665  1.00  0.00     0.028 C 
HETATM    4  C4  UNL     1      -0.241  -0.249  -0.678  1.00  0.00     0.005 C 
HETATM    5  C5  UNL     1      -0.067   1.278  -0.442  1.00  0.00     0.001 C 
HETATM    6  C6  UNL     1      -0.889   1.632   0.824  1.00  0.00     0.000 C 
HETATM    7  C7  UNL     1       1.462   1.635  -0.307  1.00  0.00     0.012 C 
HETATM    8  C8  UNL     1       2.473   0.460  -0.402  1.00  0.00     0.112 C 
HETATM    9  C9  UNL     1       2.150  -0.541  -1.517  1.00  0.00     0.161 C 
HETATM   10  C10 UNL     1       0.663  -0.726  -1.822  1.00  0.00     0.034 C 
HETATM   11  O1  UNL     1       2.796  -0.146  -2.707  1.00  0.00    -0.223 OA
HETATM   12  C11 UNL     1       3.884   1.072  -0.577  1.00  0.00     0.165 C 
HETATM   13  C12 UNL     1       4.189   1.678   0.790  1.00  0.00     0.056 C 
HETATM   14  C13 UNL     1       3.315   2.928   0.961  1.00  0.00     0.007 C 
HETATM   15  C14 UNL     1       1.816   2.588   0.860  1.00  0.00     0.001 C 
HETATM   16  C15 UNL     1       3.707   0.565   1.677  1.00  0.00     0.015 C 
HETATM   17  C16 UNL     1       2.657  -0.202   0.972  1.00  0.00     0.173 C 
HETATM   18  O2  UNL     1       2.103  -1.204   1.401  1.00  0.00    -0.291 OA
HETATM   19  C17 UNL     1       4.123   0.287   2.924  1.00  0.00    -0.002 C 
HETATM   20  O3  UNL     1       4.819   0.060  -0.867  1.00  0.00    -0.223 OA
HETATM   21  C18 UNL     1      -0.595   2.169  -1.598  1.00  0.00     0.000 C 
HETATM   22  C19 UNL     1      -2.484  -0.581  -1.949  1.00  0.00     0.003 C 
ENDROOT
BRANCH   3  23
HETATM   23  C20 UNL     1      -1.637  -2.416  -0.552  1.00  0.00     0.152 C 
BRANCH  23  24
HETATM   24  O4  UNL     1      -0.814  -2.832   0.506  1.00  0.00    -0.302 OA
BRANCH  24  25
HETATM   25  C21 UNL     1      -0.723  -4.170   0.730  1.00  0.00     0.272 C 
HETATM   26  C22 UNL     1       0.180  -4.440   1.917  1.00  0.00     0.106 C 
HETATM   27  O5  UNL     1      -1.285  -5.023   0.082  1.00  0.00    -0.264 OA
ENDBRANCH  24  25
ENDBRANCH  23  24
ENDBRANCH   3  23
TORSDOF 3
