REMARK  3 active torsions:
REMARK  status: ('A' for Active; 'I' for Inactive)
REMARK    1  A    between atoms: C3_3  and  C20_22 
REMARK    2  A    between atoms: C20_22  and  O3_23 
REMARK    3  A    between atoms: O3_23  and  C21_24 
ROOT
HETATM    1  C1  UNL     1      -2.361   1.218   0.677  1.00  0.00     0.000 C 
HETATM    2  C2  UNL     1      -2.451  -0.305   0.542  1.00  0.00     0.002 C 
HETATM    3  C3  UNL     1      -1.663  -0.866  -0.665  1.00  0.00     0.028 C 
HETATM    4  C4  UNL     1      -0.218  -0.268  -0.658  1.00  0.00     0.005 C 
HETATM    5  C5  UNL     1      -0.038   1.267  -0.475  1.00  0.00     0.001 C 
HETATM    6  C6  UNL     1      -0.899   1.678   0.747  1.00  0.00     0.000 C 
HETATM    7  C7  UNL     1       1.486   1.633  -0.298  1.00  0.00     0.009 C 
HETATM    8  C8  UNL     1       2.497   0.464  -0.421  1.00  0.00     0.084 C 
HETATM    9  C9  UNL     1       2.180  -0.477  -1.586  1.00  0.00     0.159 C 
HETATM   10  C10 UNL     1       0.699  -0.823  -1.758  1.00  0.00     0.034 C 
HETATM   11  O1  UNL     1       2.636   0.094  -2.793  1.00  0.00    -0.223 OA
HETATM   12  C11 UNL     1       3.924   1.061  -0.571  1.00  0.00     0.014 C 
HETATM   13  C12 UNL     1       4.201   1.657   0.816  1.00  0.00     0.026 C 
HETATM   14  C13 UNL     1       3.321   2.899   1.004  1.00  0.00     0.004 C 
HETATM   15  C14 UNL     1       1.825   2.549   0.902  1.00  0.00     0.001 C 
HETATM   16  C15 UNL     1       3.714   0.519   1.671  1.00  0.00     0.012 C 
HETATM   17  C16 UNL     1       2.691  -0.246   0.925  1.00  0.00     0.171 C 
HETATM   18  O2  UNL     1       2.189  -1.302   1.286  1.00  0.00    -0.292 OA
HETATM   19  C17 UNL     1       4.109   0.225   2.922  1.00  0.00    -0.002 C 
HETATM   20  C18 UNL     1      -0.521   2.097  -1.693  1.00  0.00     0.000 C 
HETATM   21  C19 UNL     1      -2.457  -0.606  -1.967  1.00  0.00     0.003 C 
ENDROOT
BRANCH   3  22
HETATM   22  C20 UNL     1      -1.651  -2.413  -0.523  1.00  0.00     0.152 C 
BRANCH  22  23
HETATM   23  O3  UNL     1      -0.827  -2.826   0.536  1.00  0.00    -0.302 OA
BRANCH  23  24
HETATM   24  C21 UNL     1      -0.724  -4.164   0.752  1.00  0.00     0.272 C 
HETATM   25  C22 UNL     1       0.215  -4.435   1.910  1.00  0.00     0.106 C 
HETATM   26  O4  UNL     1      -1.294  -5.017   0.111  1.00  0.00    -0.264 OA
ENDBRANCH  23  24
ENDBRANCH  22  23
ENDBRANCH   3  22
TORSDOF 3
