REMARK  5 active torsions:
REMARK  status: ('A' for Active; 'I' for Inactive)
REMARK    1  A    between atoms: C9_10  and  O7_31 
REMARK    2  A    between atoms: N1_15  and  C13_16 
REMARK    3  A    between atoms: C17_21  and  O6_29 
REMARK    4  A    between atoms: C19_23  and  O4_24 
REMARK    5  A    between atoms: O4_24  and  C20_25 
ROOT
HETATM    1  C1  UNL     1      -1.581   1.839   1.313  1.00  0.00     0.033 C 
HETATM    2  C2  UNL     1      -2.173   0.518   1.817  1.00  0.00     0.005 C 
HETATM    3  C3  UNL     1      -1.330  -0.727   1.441  1.00  0.00     0.034 C 
HETATM    4  C4  UNL     1       0.166  -0.344   1.478  1.00  0.00     0.039 C 
HETATM    5  C5  UNL     1       0.417   0.616   0.287  1.00  0.00     0.063 C 
HETATM    6  C6  UNL     1      -0.677   1.688   0.095  1.00  0.00     0.154 C 
HETATM    7  O1  UNL     1      -1.422   1.514  -1.082  1.00  0.00    -0.223 OA
HETATM    8  C7  UNL     1       1.754   1.389   0.422  1.00  0.00     0.009 C 
HETATM    9  C8  UNL     1       3.049   0.616   0.772  1.00  0.00     0.056 C 
HETATM   10  C9  UNL     1       3.116  -0.649  -0.112  1.00  0.00     0.127 C 
HETATM   11  C10 UNL     1       1.700  -1.304  -0.161  1.00  0.00     0.206 C 
HETATM   12  C11 UNL     1       1.061  -1.568   1.206  1.00  0.00     0.184 C 
HETATM   13  O2  UNL     1       1.962  -1.803   2.257  1.00  0.00    -0.221 OA
HETATM   14  C12 UNL     1       0.550  -0.474  -0.790  1.00  0.00     0.254 C 
HETATM   15  N1  UNL     1      -0.606  -1.376  -0.936  1.00  0.00     0.138 N 
HETATM   16  C15 UNL     1      -1.704  -1.200   0.010  1.00  0.00     0.250 C 
HETATM   17  O3  UNL     1       1.806  -2.522  -0.859  1.00  0.00    -0.219 OA
HETATM   18  C16 UNL     1       3.605  -0.374  -1.554  1.00  0.00     0.060 C 
HETATM   19  C17 UNL     1       4.169   1.016  -1.888  1.00  0.00     0.120 C 
HETATM   20  C18 UNL     1       3.702   2.110  -0.918  1.00  0.00     0.055 C 
HETATM   21  C19 UNL     1       4.048   1.759   0.522  1.00  0.00     0.129 C 
HETATM   22  C22 UNL     1       2.168   2.226  -0.820  1.00  0.00     0.005 C 
HETATM   23  C25 UNL     1      -1.678  -1.814   2.488  1.00  0.00     0.002 C 
ENDROOT
BRANCH  21  24
HETATM   24  O4  UNL     1       5.398   1.475   0.685  1.00  0.00    -0.304 OA
BRANCH  24  25
HETATM   25  C20 UNL     1       5.942   1.658   1.918  1.00  0.00     0.272 C 
HETATM   26  C21 UNL     1       7.430   1.367   1.891  1.00  0.00     0.106 C 
HETATM   27  O5  UNL     1       5.336   2.003   2.906  1.00  0.00    -0.264 OA
ENDBRANCH  24  25
ENDBRANCH  21  24
BRANCH  10  28
HETATM   28  O7  UNL     1       3.882  -1.683   0.462  1.00  0.00    -0.354 OA
HETATM   29  C24 UNL     1       5.229  -1.445   0.779  1.00  0.00     0.174 C 
ENDBRANCH  10  28
BRANCH  19  30
HETATM   30  O6  UNL     1       5.574   1.004  -1.912  1.00  0.00    -0.354 OA
HETATM   31  C23 UNL     1       6.124   0.538  -3.126  1.00  0.00     0.174 C 
ENDBRANCH  19  30
BRANCH  15  32
HETATM   32  C13 UNL     1      -1.056  -1.473  -2.323  1.00  0.00     0.250 C 
HETATM   33  C14 UNL     1      -2.158  -2.517  -2.567  1.00  0.00     0.037 C 
ENDBRANCH  15  32
TORSDOF 5
