REMARK  2 active torsions:
REMARK  status: ('A' for Active; 'I' for Inactive)
REMARK    1  A    between atoms: C1_2  and  C2_3 
REMARK    2  A    between atoms: C2_3  and  C3_4 
ROOT
HETATM    1  C3  UNL     1       0.360   0.154  -1.217  1.00  0.00     0.262 C 
HETATM    2  C4  UNL     1      -0.127   1.531  -1.217  1.00  0.00     0.111 C 
HETATM    3  N1  UNL     1      -0.514   2.623  -1.217  1.00  0.00    -0.193 NA
HETATM    4  O2  UNL     1       1.770   0.154  -1.217  1.00  0.00    -0.202 OA
ENDROOT
BRANCH   1   5
HETATM    5  C2  UNL     1      -0.140  -0.518   0.033  1.00  0.00     0.033 C 
HETATM    6  C5  UNL     1      -0.885  -1.629  -0.090  1.00  0.00    -0.003 C 
BRANCH   5   7
HETATM    7  C1  UNL     1       0.151   0.002   1.416  1.00  0.00     0.208 C 
HETATM    8  O1  UNL     1      -0.926   0.799   1.855  1.00  0.00    -0.216 OA
ENDBRANCH   5   7
ENDBRANCH   1   5
TORSDOF 2
