REMARK  2 active torsions:
REMARK  status: ('A' for Active; 'I' for Inactive)
REMARK    1  A    between atoms: C15_16  and  C18_20 
REMARK    2  A    between atoms: C20_23  and  C23_26 
ROOT
HETATM    1  C1  UNL     1      -5.684  -0.111   1.715  1.00  0.00     0.152 C 
HETATM    2  C2  UNL     1      -5.293   0.973   0.676  1.00  0.00     0.031 C 
HETATM    3  C3  UNL     1      -3.738   1.184   0.615  1.00  0.00     0.033 C 
HETATM    4  C4  UNL     1      -2.963  -0.084   1.055  1.00  0.00     0.003 A 
HETATM    5  C5  UNL     1      -3.680  -1.391   0.693  1.00  0.00     0.003 C 
HETATM    6  C6  UNL     1      -5.029  -1.482   1.426  1.00  0.00     0.033 C 
HETATM    7  C7  UNL     1      -1.445   0.029   0.936  1.00  0.00     0.000 A 
HETATM    8  C8  UNL     1      -0.918   1.418   0.502  1.00  0.00     0.003 C 
HETATM    9  C9  UNL     1      -1.629   2.594   1.215  1.00  0.00     0.033 C 
HETATM   10  C10 UNL     1      -3.176   2.500   1.225  1.00  0.00     0.152 C 
HETATM   11  O1  UNL     1      -3.639   2.693   2.551  1.00  0.00    -0.224 OA
HETATM   12  C11 UNL     1       0.603   1.459   0.736  1.00  0.00     0.003 C 
HETATM   13  C12 UNL     1       1.291   0.344  -0.080  1.00  0.00     0.005 C 
HETATM   14  C13 UNL     1       0.863  -1.016   0.486  1.00  0.00     0.000 C 
HETATM   15  C14 UNL     1      -0.664  -1.174   0.367  1.00  0.00     0.000 C 
HETATM   16  C15 UNL     1       2.771   0.697   0.113  1.00  0.00     0.055 C 
HETATM   17  C16 UNL     1       2.768   2.229  -0.068  1.00  0.00     0.154 C 
HETATM   18  C17 UNL     1       1.328   2.701   0.207  1.00  0.00     0.033 C 
HETATM   19  O2  UNL     1       3.674   2.830   0.838  1.00  0.00    -0.223 OA
HETATM   20  C26 UNL     1       0.965   0.430  -1.580  1.00  0.00     0.000 C 
HETATM   21  C27 UNL     1       0.937   1.365   2.234  1.00  0.00     0.000 C 
HETATM   22  C28 UNL     1      -2.090  -0.133   2.301  1.00  0.00     0.000 A 
HETATM   23  C29 UNL     1      -5.791   0.492  -0.697  1.00  0.00     0.003 C 
HETATM   24  C30 UNL     1      -6.051   2.281   0.953  1.00  0.00     0.003 C 
HETATM   25  O5  UNL     1      -5.322   0.303   3.022  1.00  0.00    -0.224 OA
ENDROOT
BRANCH  16  26
HETATM   26  C18 UNL     1       3.719  -0.006  -0.857  1.00  0.00     0.095 C 
HETATM   27  C19 UNL     1       3.830   0.814  -2.139  1.00  0.00     0.030 C 
HETATM   28  O3  UNL     1       3.195  -1.272  -1.199  1.00  0.00    -0.359 OA
HETATM   29  C20 UNL     1       4.193  -2.270  -1.156  1.00  0.00     0.143 C 
HETATM   30  C21 UNL     1       5.516  -1.508  -1.100  1.00  0.00     0.035 C 
HETATM   31  C22 UNL     1       5.096  -0.303  -0.264  1.00  0.00     0.030 C 
BRANCH  29  32
HETATM   32  C23 UNL     1       4.057  -3.172  -2.375  1.00  0.00     0.152 C 
HETATM   33  O4  UNL     1       4.158  -2.371  -3.531  1.00  0.00    -0.224 OA
HETATM   34  C24 UNL     1       2.680  -3.840  -2.363  1.00  0.00     0.035 C 
HETATM   35  C25 UNL     1       5.203  -4.184  -2.391  1.00  0.00     0.035 C 
ENDBRANCH  29  32
ENDBRANCH  16  26
TORSDOF 2
