REMARK  3 active torsions:
REMARK  status: ('A' for Active; 'I' for Inactive)
REMARK    1  A    between atoms: C1_1  and  N2_27 
REMARK    2  A    between atoms: C16_16  and  C19_20 
REMARK    3  A    between atoms: C19_20  and  N1_22 
ROOT
HETATM    1  C1  UNL     1      -5.250  -0.043   0.383  1.00  0.00     0.275 C 
HETATM    2  C2  UNL     1      -4.447  -1.318   0.547  1.00  0.00    -0.011 C 
HETATM    3  C3  UNL     1      -3.067  -1.342  -0.082  1.00  0.00     0.020 C 
HETATM    4  C4  UNL     1      -2.393   0.037   0.055  1.00  0.00     0.004 A 
HETATM    5  C5  UNL     1      -3.201   1.170  -0.613  1.00  0.00     0.003 C 
HETATM    6  C6  UNL     1      -4.693   0.812  -0.775  1.00  0.00     0.040 C 
HETATM    7  C7  UNL     1      -0.863   0.135   0.143  1.00  0.00     0.000 A 
HETATM    8  C8  UNL     1      -0.014  -1.160   0.221  1.00  0.00     0.000 C 
HETATM    9  C9  UNL     1      -0.777  -2.389  -0.295  1.00  0.00     0.000 C 
HETATM   10  C10 UNL     1      -2.154  -2.498   0.367  1.00  0.00     0.004 C 
HETATM   11  C11 UNL     1       1.353  -0.977  -0.467  1.00  0.00     0.003 C 
HETATM   12  C12 UNL     1       2.035   0.273   0.129  1.00  0.00     0.004 C 
HETATM   13  C13 UNL     1       1.293   1.553  -0.291  1.00  0.00     0.000 C 
HETATM   14  C14 UNL     1      -0.213   1.344  -0.562  1.00  0.00     0.000 C 
HETATM   15  C15 UNL     1       2.123   0.189   1.664  1.00  0.00     0.000 C 
HETATM   16  C16 UNL     1       3.457   0.137  -0.441  1.00  0.00     0.064 C 
HETATM   17  C17 UNL     1       3.750  -1.365  -0.264  1.00  0.00     0.154 C 
HETATM   18  C18 UNL     1       2.387  -2.070  -0.172  1.00  0.00     0.033 C 
HETATM   19  O1  UNL     1       4.494  -1.852  -1.365  1.00  0.00    -0.223 OA
HETATM   20  C22 UNL     1       1.227  -0.895  -1.996  1.00  0.00     0.000 C 
HETATM   21  C23 UNL     1      -1.721   0.404   1.363  1.00  0.00     0.000 A 
HETATM   22  C24 UNL     1      -4.953  -2.371   1.215  1.00  0.00    -0.007 C 
ENDROOT
BRANCH  16  23
HETATM   23  C19 UNL     1       4.498   1.023   0.240  1.00  0.00     0.259 C 
HETATM   24  C20 UNL     1       4.236   2.486  -0.119  1.00  0.00     0.038 C 
BRANCH  23  25
HETATM   25  N1  UNL     1       5.840   0.633  -0.158  1.00  0.00     0.339 N 
HETATM   26  C21 UNL     1       6.100   1.037  -1.529  1.00  0.00     0.328 C 
ENDBRANCH  23  25
ENDBRANCH  16  23
BRANCH   1  27
HETATM   27  N2  UNL     1      -5.235   0.717   1.629  1.00  0.00     0.343 N 
HETATM   28  C25 UNL     1      -6.330   1.670   1.656  1.00  0.00     0.329 C 
ENDBRANCH   1  27
TORSDOF 3
