REMARK  2 active torsions:
REMARK  status: ('A' for Active; 'I' for Inactive)
REMARK    1  A    between atoms: C2_2  and  C30_33 
REMARK    2  A    between atoms: C16_17  and  C25_26 
ROOT
HETATM    1  C1  UNL     1       5.678  -0.619   0.066  1.00  0.00     0.182 C 
HETATM    2  C2  UNL     1       5.086   0.721   0.473  1.00  0.00     0.085 C 
HETATM    3  C3  UNL     1       3.545   0.604   0.617  1.00  0.00     0.009 C 
HETATM    4  C4  UNL     1       2.900  -0.266  -0.496  1.00  0.00     0.004 C 
HETATM    5  C5  UNL     1       3.350  -1.725  -0.213  1.00  0.00     0.041 C 
HETATM    6  C6  UNL     1       4.816  -1.854   0.283  1.00  0.00     0.209 C 
HETATM    7  O1  UNL     1       5.404  -3.002  -0.297  1.00  0.00    -0.215 OA
HETATM    8  C7  UNL     1       1.344  -0.064  -0.568  1.00  0.00     0.005 C 
HETATM    9  C8  UNL     1       0.666   0.453   0.729  1.00  0.00     0.004 C 
HETATM   10  C9  UNL     1       1.396   1.709   1.307  1.00  0.00     0.000 C 
HETATM   11  C10 UNL     1       2.812   1.938   0.764  1.00  0.00     0.001 C 
HETATM   12  C11 UNL     1      -0.842   0.799   0.434  1.00  0.00     0.015 C 
HETATM   13  C12 UNL     1      -1.570  -0.238  -0.424  1.00  0.00    -0.049 C 
HETATM   14  C13 UNL     1      -0.899  -1.195  -1.103  1.00  0.00    -0.035 C 
HETATM   15  C14 UNL     1       0.605  -1.311  -1.102  1.00  0.00     0.025 C 
HETATM   16  C15 UNL     1      -3.094  -0.119  -0.514  1.00  0.00     0.028 C 
HETATM   17  C16 UNL     1      -3.754   0.023   0.881  1.00  0.00     0.082 C 
HETATM   18  C17 UNL     1      -3.108   1.211   1.621  1.00  0.00     0.011 C 
HETATM   19  C18 UNL     1      -1.592   1.039   1.772  1.00  0.00     0.004 C 
HETATM   20  C19 UNL     1      -5.270   0.279   0.725  1.00  0.00     0.011 C 
HETATM   21  C20 UNL     1      -5.971  -0.789  -0.129  1.00  0.00     0.001 C 
HETATM   22  C21 UNL     1      -5.328  -0.939  -1.520  1.00  0.00     0.000 C 
HETATM   23  C22 UNL     1      -3.813  -1.191  -1.373  1.00  0.00     0.004 C 
HETATM   24  C23 UNL     1      -5.569   0.332  -2.346  1.00  0.00     0.000 C 
HETATM   25  C24 UNL     1      -5.973  -2.115  -2.258  1.00  0.00     0.000 C 
HETATM   26  C26 UNL     1      -0.940   2.076  -0.420  1.00  0.00     0.004 C 
HETATM   27  C27 UNL     1       0.766  -0.684   1.766  1.00  0.00     0.000 C 
HETATM   28  C28 UNL     1       3.457   0.121  -1.879  1.00  0.00     0.000 C 
HETATM   29  C29 UNL     1       5.711   1.123   1.813  1.00  0.00     0.010 C 
HETATM   30  O5  UNL     1       6.789  -0.686  -0.412  1.00  0.00    -0.293 OA
ENDROOT
BRANCH   2  31
HETATM   31  C30 UNL     1       5.467   1.779  -0.572  1.00  0.00     0.189 C 
HETATM   32  O4  UNL     1       6.789   2.193  -0.318  1.00  0.00    -0.220 OA
ENDBRANCH   2  31
BRANCH  17  33
HETATM   33  C25 UNL     1      -3.557  -1.242   1.690  1.00  0.00     0.184 C 
HETATM   34  O2  UNL     1      -4.522  -1.510   2.566  1.00  0.00    -0.647 OA
HETATM   35  O3  UNL     1      -2.580  -1.938   1.529  1.00  0.00    -0.647 OA
ENDBRANCH  17  33
TORSDOF 2
