REMARK  2 active torsions:
REMARK  status: ('A' for Active; 'I' for Inactive)
REMARK    1  A    between atoms: C5_5  and  C7_7 
REMARK    2  A    between atoms: C9_9  and  C10_10 
ROOT
HETATM    1  C7  UNL     1       0.496   1.176   1.399  1.00  0.00     0.159 C 
HETATM    2  C8  UNL     1      -0.145   0.930   0.002  1.00  0.00     0.122 C 
HETATM    3  C9  UNL     1       0.527  -0.438  -0.305  1.00  0.00     0.082 C 
HETATM    4  C16 UNL     1       1.902   0.252  -0.170  1.00  0.00     0.200 C 
HETATM    5  O1  UNL     1       1.814   0.684   1.184  1.00  0.00    -0.343 OA
HETATM    6  C17 UNL     1       1.807   1.467  -1.080  1.00  0.00     0.261 C 
HETATM    7  N1  UNL     1       0.473   1.853  -0.953  1.00  0.00    -0.315 N 
HETATM    8  C18 UNL     1      -0.209   2.963  -1.611  1.00  0.00     0.128 C 
HETATM    9  O2  UNL     1       2.646   1.994  -1.771  1.00  0.00    -0.270 OA
ENDROOT
BRANCH   1  10
HETATM   10  C5  UNL     1      -0.160   0.445   2.518  1.00  0.00     0.006 A 
HETATM   11  C4  UNL     1      -1.565   0.377   2.588  1.00  0.00    -0.002 A 
HETATM   12  C3  UNL     1      -2.184  -0.313   3.645  1.00  0.00    -0.000 A 
HETATM   13  C2  UNL     1      -1.400  -0.936   4.631  1.00  0.00    -0.000 A 
HETATM   14  C1  UNL     1       0.002  -0.867   4.565  1.00  0.00    -0.000 A 
HETATM   15  C6  UNL     1       0.621  -0.178   3.508  1.00  0.00    -0.002 A 
ENDBRANCH   1  10
BRANCH   3  16
HETATM   16  C10 UNL     1       0.234  -1.026  -1.650  1.00  0.00    -0.018 A 
HETATM   17  C11 UNL     1      -1.053  -0.901  -2.207  1.00  0.00    -0.004 A 
HETATM   18  C12 UNL     1      -1.326  -1.453  -3.471  1.00  0.00    -0.000 A 
HETATM   19  C13 UNL     1      -0.316  -2.127  -4.178  1.00  0.00    -0.000 A 
HETATM   20  C14 UNL     1       0.967  -2.252  -3.623  1.00  0.00    -0.000 A 
HETATM   21  C15 UNL     1       1.244  -1.701  -2.359  1.00  0.00    -0.004 A 
ENDBRANCH   3  16
TORSDOF 2
