REMARK  5 active torsions:
REMARK  status: ('A' for Active; 'I' for Inactive)
REMARK    1  A    between atoms: C16_16  and  C19_19 
REMARK    2  A    between atoms: C19_19  and  C20_20 
REMARK    3  A    between atoms: C20_20  and  C21_21 
REMARK    4  A    between atoms: C21_21  and  C22_22 
REMARK    5  A    between atoms: C22_22  and  C23_23 
ROOT
HETATM    1  C1  UNL     1       5.832   0.248  -0.613  1.00  0.00     0.152 C 
HETATM    2  C2  UNL     1       5.234   1.623  -0.248  1.00  0.00     0.030 C 
HETATM    3  C3  UNL     1       3.707   1.512  -0.045  1.00  0.00     0.002 C 
HETATM    4  C4  UNL     1       3.377   0.424   0.996  1.00  0.00     0.000 A 
HETATM    5  C5  UNL     1       3.955  -0.947   0.611  1.00  0.00     0.003 C 
HETATM    6  C6  UNL     1       5.473  -0.826   0.424  1.00  0.00     0.033 C 
HETATM    7  C7  UNL     1       2.053   0.498   1.773  1.00  0.00     0.000 A 
HETATM    8  C8  UNL     1       1.129   1.756   1.658  1.00  0.00     0.000 C 
HETATM    9  C9  UNL     1       1.535   2.656   0.469  1.00  0.00     0.000 C 
HETATM   10  C10 UNL     1       3.043   2.844   0.320  1.00  0.00     0.000 C 
HETATM   11  C11 UNL     1      -0.430   1.572   1.750  1.00  0.00     0.000 C 
HETATM   12  C12 UNL     1      -0.899   0.106   1.625  1.00  0.00     0.000 C 
HETATM   13  C13 UNL     1      -0.049  -0.779   2.533  1.00  0.00     0.000 C 
HETATM   14  C14 UNL     1       1.391  -0.861   2.053  1.00  0.00     0.000 C 
HETATM   15  C15 UNL     1      -2.383  -0.072   1.986  1.00  0.00     0.000 C 
HETATM   16  C16 UNL     1      -0.735  -0.123   0.109  1.00  0.00     0.000 C 
HETATM   17  C17 UNL     1      -1.350   1.133  -0.506  1.00  0.00     0.000 C 
HETATM   18  C18 UNL     1      -1.287   2.176   0.611  1.00  0.00     0.000 C 
HETATM   19  C28 UNL     1      -0.959   2.172   3.059  1.00  0.00     0.000 C 
HETATM   20  C29 UNL     1       3.385   0.746   2.475  1.00  0.00     0.000 A 
HETATM   21  C30 UNL     1       5.576   2.676  -1.316  1.00  0.00     0.003 C 
HETATM   22  O1  UNL     1       7.238   0.342  -0.695  1.00  0.00    -0.224 OA
ENDROOT
BRANCH  16  23
HETATM   23  C19 UNL     1      -1.350  -1.418  -0.414  1.00  0.00     0.000 C 
HETATM   24  C27 UNL     1      -0.500  -1.957  -1.566  1.00  0.00     0.000 C 
BRANCH  23  25
HETATM   25  C20 UNL     1      -2.801  -1.166  -0.820  1.00  0.00     0.004 C 
BRANCH  25  26
HETATM   26  C21 UNL     1      -3.606  -2.457  -0.973  1.00  0.00     0.022 C 
BRANCH  26  27
HETATM   27  C22 UNL     1      -5.024  -2.203  -1.406  1.00  0.00    -0.045 C 
HETATM   28  C26 UNL     1      -6.002  -2.309  -0.492  1.00  0.00    -0.009 C 
BRANCH  27  29
HETATM   29  C23 UNL     1      -5.395  -1.838  -2.818  1.00  0.00     0.018 C 
HETATM   30  C24 UNL     1      -6.828  -1.316  -2.928  1.00  0.00     0.004 C 
HETATM   31  C25 UNL     1      -5.100  -2.963  -3.811  1.00  0.00     0.004 C 
ENDBRANCH  27  29
ENDBRANCH  26  27
ENDBRANCH  25  26
ENDBRANCH  23  25
ENDBRANCH  16  23
TORSDOF 5
