REMARK  4 active torsions:
REMARK  status: ('A' for Active; 'I' for Inactive)
REMARK    1  A    between atoms: C4_4  and  C7_7 
REMARK    2  A    between atoms: C10_10  and  O1_13 
REMARK    3  A    between atoms: O1_13  and  C13_14 
REMARK    4  A    between atoms: C13_14  and  C14_15 
ROOT
HETATM    1  C7  UNL     1       0.375   0.125   0.205  1.00  0.00    -0.022 A 
HETATM    2  C8  UNL     1      -0.670  -0.326   1.031  1.00  0.00    -0.002 A 
HETATM    3  C9  UNL     1      -1.887  -0.740   0.461  1.00  0.00     0.024 A 
HETATM    4  C10 UNL     1      -2.063  -0.705  -0.936  1.00  0.00     0.094 A 
HETATM    5  C11 UNL     1      -1.016  -0.252  -1.758  1.00  0.00     0.024 A 
HETATM    6  C12 UNL     1       0.201   0.162  -1.190  1.00  0.00    -0.002 A 
ENDROOT
BRANCH   1   7
HETATM    7  C4  UNL     1       1.666   0.564   0.809  1.00  0.00     0.022 C 
HETATM    8  C3  UNL     1       2.834  -0.326   0.340  1.00  0.00     0.004 C 
HETATM    9  C2  UNL     1       4.174   0.137   0.934  1.00  0.00     0.000 C 
HETATM   10  C1  UNL     1       4.445   1.617   0.633  1.00  0.00     0.000 C 
HETATM   11  C6  UNL     1       3.287   2.508   1.105  1.00  0.00     0.000 C 
HETATM   12  C5  UNL     1       1.945   2.053   0.514  1.00  0.00     0.004 C 
ENDBRANCH   1   7
BRANCH   4  13
HETATM   13  O1  UNL     1      -3.203  -1.092  -1.469  1.00  0.00    -0.328 OA
BRANCH  13  14
HETATM   14  C13 UNL     1      -4.231  -1.541  -0.596  1.00  0.00     0.184 C 
BRANCH  14  15
HETATM   15  C14 UNL     1      -5.457  -1.940  -1.414  1.00  0.00     0.215 C 
HETATM   16  O2  UNL     1      -6.457  -2.379  -0.523  1.00  0.00    -0.218 OA
ENDBRANCH  14  15
ENDBRANCH  13  14
ENDBRANCH   4  13
TORSDOF 4
