REMARK  3 active torsions:
REMARK  status: ('A' for Active; 'I' for Inactive)
REMARK    1  A    between atoms: C1_1  and  N2_28 
REMARK    2  A    between atoms: C15_15  and  C18_18 
REMARK    3  A    between atoms: C18_18  and  N1_19 
ROOT
HETATM    1  C1  UNL     1       4.315  -0.094  -0.697  1.00  0.00     0.257 C 
HETATM    2  C2  UNL     1       3.854   1.379  -0.471  1.00  0.00     0.032 C 
HETATM    3  C3  UNL     1       2.309   1.426  -0.346  1.00  0.00     0.002 C 
HETATM    4  C4  UNL     1       1.897   0.662   0.939  1.00  0.00     0.000 A 
HETATM    5  C5  UNL     1       2.619  -0.686   1.145  1.00  0.00     0.002 C 
HETATM    6  C6  UNL     1       3.330  -1.145  -0.133  1.00  0.00     0.036 C 
HETATM    7  C7  UNL     1       0.475   0.861   1.467  1.00  0.00     0.000 A 
HETATM    8  C8  UNL     1      -0.469   1.770   0.637  1.00  0.00     0.000 C 
HETATM    9  C9  UNL     1       0.188   2.889  -0.219  1.00  0.00     0.000 C 
HETATM   10  C10 UNL     1       1.717   2.848  -0.373  1.00  0.00     0.000 C 
HETATM   11  C11 UNL     1      -1.330   0.828  -0.244  1.00  0.00     0.000 C 
HETATM   12  C12 UNL     1      -2.133  -0.162   0.629  1.00  0.00     0.002 C 
HETATM   13  C13 UNL     1      -1.156  -1.092   1.361  1.00  0.00     0.000 C 
HETATM   14  C14 UNL     1      -0.252  -0.236   2.266  1.00  0.00     0.000 C 
HETATM   15  C15 UNL     1      -3.027  -0.842  -0.420  1.00  0.00     0.031 C 
HETATM   16  C16 UNL     1      -3.465   0.332  -1.311  1.00  0.00     0.002 C 
HETATM   17  C17 UNL     1      -2.473   1.473  -1.041  1.00  0.00     0.000 C 
HETATM   18  C22 UNL     1      -3.051   0.559   1.631  1.00  0.00     0.000 C 
HETATM   19  C23 UNL     1      -0.469   0.098  -1.285  1.00  0.00     0.000 C 
HETATM   20  C24 UNL     1       1.647   1.467   2.207  1.00  0.00     0.000 A 
HETATM   21  C25 UNL     1       4.316   2.227  -1.664  1.00  0.00     0.002 C 
HETATM   22  C26 UNL     1       4.475   1.996   0.797  1.00  0.00     0.002 C 
ENDROOT
BRANCH  15  23
HETATM   23  C18 UNL     1      -4.211  -1.619   0.152  1.00  0.00     0.219 C 
HETATM   24  C21 UNL     1      -3.705  -2.902   0.814  1.00  0.00     0.035 C 
BRANCH  23  25
HETATM   25  N1  UNL     1      -5.168  -1.932  -0.896  1.00  0.00     0.139 N 
HETATM   26  C19 UNL     1      -4.656  -2.982  -1.758  1.00  0.00     0.285 C 
HETATM   27  C20 UNL     1      -6.443  -2.322  -0.320  1.00  0.00     0.285 C 
ENDBRANCH  23  25
ENDBRANCH  15  23
BRANCH   1  28
HETATM   28  N2  UNL     1       5.662  -0.328  -0.184  1.00  0.00     0.339 N 
HETATM   29  C27 UNL     1       6.279  -1.451  -0.867  1.00  0.00     0.328 C 
ENDBRANCH   1  28
TORSDOF 3
