REMARK  3 active torsions:
REMARK  status: ('A' for Active; 'I' for Inactive)
REMARK    1  A    between atoms: C2_2  and  C12_16 
REMARK    2  A    between atoms: C4_5  and  C5_7 
REMARK    3  A    between atoms: C5_7  and  C6_8 
ROOT
HETATM    1  C1  UNL     1       1.914  -1.956   1.865  1.00  0.00     0.277 C 
HETATM    2  C2  UNL     1       2.637  -0.695   1.419  1.00  0.00     0.219 C 
HETATM    3  N1  UNL     1       1.817   0.534   1.555  1.00  0.00    -0.226 NA
HETATM    4  C3  UNL     1       0.446   0.461   1.484  1.00  0.00     0.275 C 
HETATM    5  C4  UNL     1      -0.235  -0.880   1.258  1.00  0.00     0.191 C 
HETATM    6  N2  UNL     1       0.543  -2.031   1.780  1.00  0.00    -0.228 NA
HETATM    7  O2  UNL     1      -0.217   1.465   1.605  1.00  0.00    -0.268 OA
HETATM    8  O4  UNL     1       2.541  -2.894   2.300  1.00  0.00    -0.268 OA
ENDROOT
BRANCH   5   9
HETATM    9  C5  UNL     1      -0.535  -1.086  -0.228  1.00  0.00     0.060 C 
BRANCH   9  10
HETATM   10  C6  UNL     1      -1.392   0.000  -0.769  1.00  0.00    -0.020 A 
HETATM   11  C7  UNL     1      -0.838   0.981  -1.611  1.00  0.00    -0.002 A 
HETATM   12  C8  UNL     1      -1.650   2.008  -2.122  1.00  0.00     0.027 A 
HETATM   13  C9  UNL     1      -3.017   2.059  -1.795  1.00  0.00     0.131 A 
HETATM   14  C10 UNL     1      -3.568   1.077  -0.953  1.00  0.00     0.027 A 
HETATM   15  O1  UNL     1      -3.777   3.023  -2.275  1.00  0.00    -0.190 OA
HETATM   16  C11 UNL     1      -2.758   0.049  -0.441  1.00  0.00    -0.002 A 
ENDBRANCH   9  10
ENDBRANCH   5   9
BRANCH   2  17
HETATM   17  C12 UNL     1       3.124  -0.839  -0.025  1.00  0.00     0.216 C 
HETATM   18  O3  UNL     1       4.165   0.089  -0.234  1.00  0.00    -0.218 OA
ENDBRANCH   2  17
TORSDOF 3
