REMARK  0 active torsions:
REMARK  status: ('A' for Active; 'I' for Inactive)
ROOT
HETATM    1  C1  UNL     1      -1.234  -2.065   0.660  1.00  0.00     0.151 C 
HETATM    2  C2  UNL     1      -2.547  -2.184  -0.082  1.00  0.00     0.065 C 
HETATM    3  C3  UNL     1      -2.977  -0.943  -0.891  1.00  0.00     0.008 C 
HETATM    4  C4  UNL     1      -3.432   0.275  -0.057  1.00  0.00     0.000 C 
HETATM    5  C5  UNL     1      -2.320   1.016   0.707  1.00  0.00     0.000 C 
HETATM    6  C6  UNL     1      -1.297   1.715  -0.205  1.00  0.00     0.000 C 
HETATM    7  C7  UNL     1       0.059   1.922   0.484  1.00  0.00     0.000 C 
HETATM    8  C8  UNL     1       1.147   2.420  -0.484  1.00  0.00     0.000 C 
HETATM    9  C9  UNL     1       2.590   2.225   0.027  1.00  0.00     0.000 C 
HETATM   10  C10 UNL     1       2.945   0.781   0.436  1.00  0.00     0.000 C 
HETATM   11  C11 UNL     1       2.735  -0.268  -0.676  1.00  0.00     0.000 C 
HETATM   12  C12 UNL     1       2.606  -1.711  -0.156  1.00  0.00     0.000 C 
HETATM   13  C13 UNL     1       1.322  -1.990   0.652  1.00  0.00     0.008 C 
HETATM   14  C14 UNL     1       0.020  -1.834  -0.156  1.00  0.00     0.065 C 
HETATM   15  O1  UNL     1      -1.197  -2.154   1.865  1.00  0.00    -0.296 OA
ENDROOT
TORSDOF 0
