REMARK  0 active torsions:
REMARK  status: ('A' for Active; 'I' for Inactive)
ROOT
HETATM    1  C1  UNL     1       2.053   2.063  -1.065  1.00  0.00    -0.031 C 
HETATM    2  C2  UNL     1       1.229   2.748   0.006  1.00  0.00     0.026 C 
HETATM    3  C3  UNL     1      -0.152   3.184  -0.512  1.00  0.00     0.005 C 
HETATM    4  C4  UNL     1      -1.158   2.031  -0.676  1.00  0.00     0.000 C 
HETATM    5  C5  UNL     1      -1.721   1.543   0.670  1.00  0.00     0.000 C 
HETATM    6  C6  UNL     1      -2.801   0.449   0.551  1.00  0.00     0.000 C 
HETATM    7  C7  UNL     1      -2.279  -0.974   0.812  1.00  0.00     0.000 C 
HETATM    8  C8  UNL     1      -1.449  -1.568  -0.336  1.00  0.00     0.008 C 
HETATM    9  C9  UNL     1      -0.754  -2.887   0.039  1.00  0.00     0.065 C 
HETATM   10  C10 UNL     1       0.344  -2.715   1.064  1.00  0.00     0.151 C 
HETATM   11  C11 UNL     1       1.777  -2.734   0.584  1.00  0.00     0.065 C 
HETATM   12  C12 UNL     1       2.111  -1.676  -0.479  1.00  0.00     0.012 C 
HETATM   13  C13 UNL     1       2.018  -0.224   0.027  1.00  0.00     0.026 C 
HETATM   14  C14 UNL     1       2.401   0.760  -1.055  1.00  0.00    -0.031 C 
HETATM   15  O1  UNL     1       0.088  -2.572   2.238  1.00  0.00    -0.296 OA
ENDROOT
TORSDOF 0
