REMARK  3 active torsions:
REMARK  status: ('A' for Active; 'I' for Inactive)
REMARK    1  A    between atoms: C1_1  and  N2_29 
REMARK    2  A    between atoms: C15_15  and  C18_19 
REMARK    3  A    between atoms: C18_19  and  N1_20 
ROOT
HETATM    1  C1  UNL     1       4.363  -0.797  -0.400  1.00  0.00     0.257 C 
HETATM    2  C2  UNL     1       3.992   0.502  -1.182  1.00  0.00     0.032 C 
HETATM    3  C3  UNL     1       2.455   0.707  -1.145  1.00  0.00     0.002 C 
HETATM    4  C4  UNL     1       2.031   0.967   0.322  1.00  0.00     0.000 A 
HETATM    5  C5  UNL     1       2.668   0.012   1.355  1.00  0.00     0.002 C 
HETATM    6  C6  UNL     1       3.328  -1.191   0.674  1.00  0.00     0.036 C 
HETATM    7  C7  UNL     1       0.639   1.553   0.578  1.00  0.00     0.000 A 
HETATM    8  C8  UNL     1      -0.271   1.789  -0.656  1.00  0.00     0.000 C 
HETATM    9  C9  UNL     1       0.426   2.022  -2.029  1.00  0.00     0.000 C 
HETATM   10  C10 UNL     1       1.947   1.818  -2.084  1.00  0.00     0.000 C 
HETATM   11  C11 UNL     1      -1.242   0.584  -0.734  1.00  0.00     0.003 C 
HETATM   12  C12 UNL     1      -2.074   0.459   0.562  1.00  0.00     0.004 C 
HETATM   13  C13 UNL     1      -1.137   0.127   1.729  1.00  0.00     0.000 C 
HETATM   14  C14 UNL     1      -0.129   1.279   1.885  1.00  0.00     0.000 C 
HETATM   15  C15 UNL     1      -3.066  -0.654   0.186  1.00  0.00     0.062 C 
HETATM   16  C16 UNL     1      -3.486  -0.240  -1.238  1.00  0.00     0.154 C 
HETATM   17  C17 UNL     1      -2.367   0.670  -1.777  1.00  0.00     0.033 C 
HETATM   18  O1  UNL     1      -3.643  -1.385  -2.055  1.00  0.00    -0.223 OA
HETATM   19  C22 UNL     1      -2.883   1.734   0.859  1.00  0.00     0.000 C 
HETATM   20  C23 UNL     1      -0.482  -0.713  -1.051  1.00  0.00     0.000 C 
HETATM   21  C24 UNL     1       1.869   2.410   0.783  1.00  0.00     0.000 A 
HETATM   22  C25 UNL     1       4.678   1.750  -0.594  1.00  0.00     0.002 C 
HETATM   23  C26 UNL     1       4.477   0.355  -2.631  1.00  0.00     0.002 C 
ENDROOT
BRANCH  15  24
HETATM   24  C18 UNL     1      -4.256  -0.787   1.135  1.00  0.00     0.222 C 
HETATM   25  C21 UNL     1      -3.775  -1.342   2.479  1.00  0.00     0.035 C 
BRANCH  24  26
HETATM   26  N1  UNL     1      -5.270  -1.654   0.561  1.00  0.00     0.139 N 
HETATM   27  C19 UNL     1      -4.844  -3.043   0.617  1.00  0.00     0.285 C 
HETATM   28  C20 UNL     1      -6.537  -1.484   1.252  1.00  0.00     0.285 C 
ENDBRANCH  24  26
ENDBRANCH  15  24
BRANCH   1  29
HETATM   29  N2  UNL     1       5.701  -0.719   0.186  1.00  0.00     0.339 N 
HETATM   30  C27 UNL     1       6.225  -2.049   0.439  1.00  0.00     0.328 C 
ENDBRANCH   1  29
TORSDOF 3
