REMARK  3 active torsions:
REMARK  status: ('A' for Active; 'I' for Inactive)
REMARK    1  A    between atoms: C1_1  and  N2_29 
REMARK    2  A    between atoms: C16_16  and  C19_20 
REMARK    3  A    between atoms: C19_20  and  N1_22 
ROOT
HETATM    1  C1  UNL     1      -4.678  -0.059   0.240  1.00  0.00     0.257 C 
HETATM    2  C2  UNL     1      -3.986   1.227   0.799  1.00  0.00     0.032 C 
HETATM    3  C3  UNL     1      -2.440   1.049   0.873  1.00  0.00     0.002 C 
HETATM    4  C4  UNL     1      -1.918   0.186  -0.291  1.00  0.00     0.000 A 
HETATM    5  C5  UNL     1      -2.518  -1.230  -0.338  1.00  0.00     0.002 C 
HETATM    6  C6  UNL     1      -3.826  -1.316   0.465  1.00  0.00     0.036 C 
HETATM    7  C7  UNL     1      -0.486   0.357  -0.812  1.00  0.00     0.000 A 
HETATM    8  C8  UNL     1       0.465   1.314  -0.027  1.00  0.00     0.000 C 
HETATM    9  C9  UNL     1      -0.168   2.111   1.152  1.00  0.00     0.000 C 
HETATM   10  C10 UNL     1      -1.666   2.375   1.012  1.00  0.00     0.000 C 
HETATM   11  C11 UNL     1       1.623   0.457   0.564  1.00  0.00     0.003 C 
HETATM   12  C12 UNL     1       2.373  -0.402  -0.478  1.00  0.00     0.004 C 
HETATM   13  C13 UNL     1       1.396  -1.457  -1.010  1.00  0.00     0.000 C 
HETATM   14  C14 UNL     1       0.203  -0.742  -1.662  1.00  0.00     0.000 C 
HETATM   15  C15 UNL     1       2.979   0.416  -1.631  1.00  0.00     0.000 C 
HETATM   16  C16 UNL     1       3.543  -0.967   0.344  1.00  0.00     0.064 C 
HETATM   17  C17 UNL     1       3.992   0.270   1.147  1.00  0.00     0.154 C 
HETATM   18  C18 UNL     1       2.791   1.230   1.193  1.00  0.00     0.033 C 
HETATM   19  O1  UNL     1       4.381  -0.111   2.453  1.00  0.00    -0.223 OA
HETATM   20  C22 UNL     1       1.094  -0.471   1.680  1.00  0.00     0.000 C 
HETATM   21  C23 UNL     1       0.955   2.309  -1.090  1.00  0.00     0.000 C 
HETATM   22  C24 UNL     1      -1.670   0.920  -1.590  1.00  0.00     0.000 A 
HETATM   23  C25 UNL     1      -4.479   1.564   2.217  1.00  0.00     0.002 C 
HETATM   24  C26 UNL     1      -4.359   2.404  -0.111  1.00  0.00     0.002 C 
ENDROOT
BRANCH  16  25
HETATM   25  C19 UNL     1       4.678  -1.572  -0.484  1.00  0.00     0.259 C 
HETATM   26  C20 UNL     1       5.752  -2.125   0.453  1.00  0.00     0.038 C 
BRANCH  25  27
HETATM   27  N1  UNL     1       4.168  -2.623  -1.350  1.00  0.00     0.339 N 
HETATM   28  C21 UNL     1       5.121  -2.914  -2.408  1.00  0.00     0.328 C 
ENDBRANCH  25  27
ENDBRANCH  16  25
BRANCH   1  29
HETATM   29  N2  UNL     1      -6.024  -0.248   0.777  1.00  0.00     0.339 N 
HETATM   30  C27 UNL     1      -6.746  -1.240  -0.002  1.00  0.00     0.328 C 
ENDBRANCH   1  29
TORSDOF 3
