REMARK  5 active torsions:
REMARK  status: ('A' for Active; 'I' for Inactive)
REMARK    1  A    between atoms: C1_1  and  O6_29 
REMARK    2  A    between atoms: C4_4  and  C23_26 
REMARK    3  A    between atoms: C16_16  and  C19_19 
REMARK    4  A    between atoms: O6_29  and  C24_30 
REMARK    5  A    between atoms: C27_34  and  O8_36 
ROOT
HETATM    1  C1  UNL     1      -3.170  -0.174   0.979  1.00  0.00     0.120 C 
HETATM    2  C2  UNL     1      -2.410   0.861   1.846  1.00  0.00     0.060 C 
HETATM    3  C3  UNL     1      -0.898   0.977   1.516  1.00  0.00     0.131 C 
HETATM    4  C4  UNL     1      -0.203  -0.422   1.574  1.00  0.00     0.057 C 
HETATM    5  C5  UNL     1      -0.906  -1.359   0.555  1.00  0.00     0.007 C 
HETATM    6  C6  UNL     1      -2.418  -1.512   0.836  1.00  0.00     0.030 C 
HETATM    7  C7  UNL     1       1.365  -0.330   1.418  1.00  0.00     0.007 C 
HETATM    8  C8  UNL     1       1.906   1.096   1.141  1.00  0.00     0.028 C 
HETATM    9  C9  UNL     1       1.336   2.121   2.154  1.00  0.00     0.005 C 
HETATM   10  C10 UNL     1      -0.176   1.975   2.441  1.00  0.00     0.031 C 
HETATM   11  C11 UNL     1       3.457   1.150   1.082  1.00  0.00     0.127 C 
HETATM   12  C12 UNL     1       4.074   0.078   0.148  1.00  0.00     0.029 C 
HETATM   13  C13 UNL     1       3.516  -1.320   0.484  1.00  0.00     0.003 C 
HETATM   14  C14 UNL     1       1.982  -1.346   0.441  1.00  0.00     0.000 C 
HETATM   15  C15 UNL     1       3.820   0.377  -1.334  1.00  0.00     0.003 C 
HETATM   16  C16 UNL     1       5.578   0.090   0.508  1.00  0.00     0.023 C 
HETATM   17  C17 UNL     1       5.613   0.463   2.000  1.00  0.00     0.007 C 
HETATM   18  C18 UNL     1       4.197   0.881   2.398  1.00  0.00     0.031 C 
HETATM   19  O3  UNL     1       3.834   2.447   0.635  1.00  0.00    -0.226 OA
HETATM   20  O5  UNL     1      -0.830   1.522   0.205  1.00  0.00    -0.226 OA
ENDROOT
BRANCH   1  21
HETATM   21  O6  UNL     1      -3.424   0.357  -0.307  1.00  0.00    -0.333 OA
BRANCH  21  22
HETATM   22  C24 UNL     1      -4.330  -0.420  -1.061  1.00  0.00     0.238 C 
HETATM   23  O7  UNL     1      -3.623  -1.162  -2.047  1.00  0.00    -0.331 OA
HETATM   24  C25 UNL     1      -4.428  -2.012  -2.856  1.00  0.00     0.151 C 
HETATM   25  C26 UNL     1      -5.465  -1.154  -3.619  1.00  0.00     0.206 C 
HETATM   26  C30 UNL     1      -3.477  -2.768  -3.791  1.00  0.00     0.035 C 
HETATM   27  C27 UNL     1      -6.305  -0.271  -2.666  1.00  0.00     0.153 C 
HETATM   28  O9  UNL     1      -6.301  -1.986  -4.404  1.00  0.00    -0.218 OA
HETATM   29  C28 UNL     1      -5.361   0.512  -1.738  1.00  0.00     0.094 C 
BRANCH  27  30
HETATM   30  O8  UNL     1      -7.170  -1.061  -1.863  1.00  0.00    -0.351 OA
HETATM   31  C29 UNL     1      -8.096  -0.295  -1.127  1.00  0.00     0.174 C 
ENDBRANCH  27  30
ENDBRANCH  21  22
ENDBRANCH   1  21
BRANCH   4  32
HETATM   32  C23 UNL     1      -0.459  -1.029   2.969  1.00  0.00     0.184 C 
HETATM   33  O4  UNL     1       0.090  -2.328   2.992  1.00  0.00    -0.221 OA
ENDBRANCH   4  32
BRANCH  16  34
HETATM   34  C19 UNL     1       6.402   1.045  -0.314  1.00  0.00    -0.009 A 
HETATM   35  C20 UNL     1       6.994   0.715  -1.660  1.00  0.00     0.175 A 
HETATM   36  O1  UNL     1       7.682   1.920  -2.043  1.00  0.00    -0.294 OA
HETATM   37  C21 UNL     1       7.522   2.834  -1.076  1.00  0.00     0.296 A 
HETATM   38  C22 UNL     1       6.721   2.295   0.014  1.00  0.00     0.062 A 
HETATM   39  O2  UNL     1       7.971   3.955  -1.080  1.00  0.00    -0.259 OA
ENDBRANCH  16  34
TORSDOF 5
