REMARK  9 active torsions:
REMARK  status: ('A' for Active; 'I' for Inactive)
REMARK    1  A    between atoms: C1_1  and  O9_25 
REMARK    2  A    between atoms: C4_4  and  C7_8 
REMARK    3  A    between atoms: C4_4  and  O4_11 
REMARK    4  A    between atoms: O4_11  and  C8_12 
REMARK    5  A    between atoms: C8_12  and  C9_13 
REMARK    6  A    between atoms: C10_14  and  C11_15 
REMARK    7  A    between atoms: O9_25  and  C17_26 
REMARK    8  A    between atoms: C17_26  and  C18_27 
REMARK    9  A    between atoms: C19_28  and  C20_29 
ROOT
HETATM    1  C1  UNL     1      -1.277  -0.158   0.217  1.00  0.00     0.185 C 
HETATM    2  C2  UNL     1      -0.242   0.803   0.832  1.00  0.00     0.185 C 
HETATM    3  C3  UNL     1       1.184   0.500   0.330  1.00  0.00     0.074 C 
HETATM    4  C4  UNL     1       1.586  -0.965   0.582  1.00  0.00     0.184 C 
HETATM    5  C5  UNL     1       0.547  -1.926  -0.027  1.00  0.00     0.074 C 
HETATM    6  C6  UNL     1      -0.881  -1.625   0.473  1.00  0.00     0.185 C 
HETATM    7  O1  UNL     1      -1.791  -2.484  -0.186  1.00  0.00    -0.221 OA
HETATM    8  O8  UNL     1      -0.576   2.135   0.494  1.00  0.00    -0.221 OA
ENDROOT
BRANCH   4   9
HETATM    9  C7  UNL     1       1.781  -1.234   2.057  1.00  0.00     0.212 C 
HETATM   10  O2  UNL     1       1.561  -0.193   2.856  1.00  0.00    -0.646 OA
HETATM   11  O3  UNL     1       2.117  -2.326   2.451  1.00  0.00    -0.646 OA
ENDBRANCH   4   9
BRANCH   4  12
HETATM   12  O4  UNL     1       2.836  -1.201  -0.051  1.00  0.00    -0.293 OA
BRANCH  12  13
HETATM   13  C8  UNL     1       3.787  -0.377   0.383  1.00  0.00     0.296 C 
HETATM   14  O7  UNL     1       3.742   0.205   1.441  1.00  0.00    -0.259 OA
BRANCH  13  15
HETATM   15  C9  UNL     1       4.936  -0.201  -0.516  1.00  0.00     0.068 C 
HETATM   16  C10 UNL     1       5.951   0.607  -0.174  1.00  0.00     0.005 C 
BRANCH  16  17
HETATM   17  C11 UNL     1       7.098   0.756  -1.121  1.00  0.00     0.002 A 
HETATM   18  C12 UNL     1       7.102   0.055  -2.338  1.00  0.00     0.002 A 
HETATM   19  C13 UNL     1       8.182   0.195  -3.227  1.00  0.00     0.029 A 
HETATM   20  C14 UNL     1       9.262   1.035  -2.900  1.00  0.00     0.156 A 
HETATM   21  C15 UNL     1       9.258   1.738  -1.680  1.00  0.00     0.156 A 
HETATM   22  O6  UNL     1      10.272   1.162  -3.738  1.00  0.00    -0.188 OA
HETATM   23  C16 UNL     1       8.178   1.596  -0.793  1.00  0.00     0.029 A 
HETATM   24  O5  UNL     1      10.266   2.527  -1.367  1.00  0.00    -0.188 OA
ENDBRANCH  16  17
ENDBRANCH  13  15
ENDBRANCH  12  13
ENDBRANCH   4  12
BRANCH   1  25
HETATM   25  O9  UNL     1      -2.559   0.094   0.787  1.00  0.00    -0.296 OA
BRANCH  25  26
HETATM   26  C17 UNL     1      -3.549  -0.168  -0.061  1.00  0.00     0.296 C 
HETATM   27  O12 UNL     1      -3.383  -0.494  -1.211  1.00  0.00    -0.259 OA
BRANCH  26  28
HETATM   28  C18 UNL     1      -4.906  -0.035   0.486  1.00  0.00     0.068 C 
HETATM   29  C19 UNL     1      -5.981  -0.273  -0.283  1.00  0.00     0.005 C 
BRANCH  29  30
HETATM   30  C20 UNL     1      -7.340  -0.125   0.316  1.00  0.00     0.002 A 
HETATM   31  C21 UNL     1      -8.485  -0.367  -0.463  1.00  0.00     0.029 A 
HETATM   32  C22 UNL     1      -9.766  -0.229   0.098  1.00  0.00     0.156 A 
HETATM   33  C23 UNL     1      -9.904   0.154   1.445  1.00  0.00     0.156 A 
HETATM   34  O11 UNL     1     -10.834  -0.459  -0.639  1.00  0.00    -0.188 OA
HETATM   35  C24 UNL     1      -8.758   0.396   2.225  1.00  0.00     0.029 A 
HETATM   36  O10 UNL     1     -11.102   0.287   1.981  1.00  0.00    -0.188 OA
HETATM   37  C25 UNL     1      -7.479   0.258   1.662  1.00  0.00     0.002 A 
ENDBRANCH  29  30
ENDBRANCH  26  28
ENDBRANCH  25  26
ENDBRANCH   1  25
TORSDOF 9
