REMARK  10 active torsions:
REMARK  status: ('A' for Active; 'I' for Inactive)
REMARK    1  A    between atoms: C5_5  and  C9_9 
REMARK    2  A    between atoms: C10_10  and  C11_11 
REMARK    3  A    between atoms: C12_12  and  C13_13 
REMARK    4  A    between atoms: C14_14  and  C15_15 
REMARK    5  A    between atoms: C16_16  and  C17_17 
REMARK    6  A    between atoms: C18_18  and  C19_19 
REMARK    7  A    between atoms: C20_20  and  C22_22 
REMARK    8  A    between atoms: C23_23  and  C24_24 
REMARK    9  A    between atoms: C25_25  and  C27_27 
REMARK   10  A    between atoms: C28_28  and  C29_29 
ROOT
HETATM    1  C17 UNL     1       0.494  -0.396   0.055  1.00  0.00    -0.000 C 
HETATM    2  C18 UNL     1      -0.518   0.338  -0.437  1.00  0.00    -0.000 C 
ENDROOT
BRANCH   1   3
HETATM    3  C16 UNL     1       1.889  -0.041  -0.238  1.00  0.00    -0.004 C 
HETATM    4  C15 UNL     1       2.893  -0.535   0.504  1.00  0.00    -0.022 C 
HETATM    5  C38 UNL     1       2.555  -1.459   1.643  1.00  0.00     0.031 C 
BRANCH   4   6
HETATM    6  C14 UNL     1       4.303  -0.213   0.258  1.00  0.00    -0.004 C 
HETATM    7  C13 UNL     1       5.260  -1.135   0.457  1.00  0.00    -0.000 C 
BRANCH   7   8
HETATM    8  C12 UNL     1       6.674  -0.812   0.209  1.00  0.00     0.004 C 
HETATM    9  C11 UNL     1       7.664  -1.730   0.252  1.00  0.00     0.020 C 
HETATM   10  C39 UNL     1       7.342  -3.162   0.586  1.00  0.00     0.040 C 
BRANCH   9  11
HETATM   11  C10 UNL     1       9.024  -1.357  -0.017  1.00  0.00    -0.064 C 
HETATM   12  C9  UNL     1      10.147  -1.047  -0.234  1.00  0.00    -0.065 C 
BRANCH  12  13
HETATM   13  C5  UNL     1      11.516  -0.664  -0.490  1.00  0.00     0.011 C 
HETATM   14  C4  UNL     1      12.221   0.006   0.459  1.00  0.00    -0.038 C 
HETATM   15  C3  UNL     1      13.649   0.479   0.268  1.00  0.00     0.055 C 
HETATM   16  C40 UNL     1      11.615   0.324   1.807  1.00  0.00     0.027 C 
HETATM   17  C2  UNL     1      14.092   0.545  -1.199  1.00  0.00     0.157 C 
HETATM   18  C1  UNL     1      13.678  -0.725  -1.937  1.00  0.00     0.038 C 
HETATM   19  O2  UNL     1      13.551   1.690  -1.832  1.00  0.00    -0.223 OA
HETATM   20  C6  UNL     1      12.155  -1.008  -1.842  1.00  0.00     0.028 C 
HETATM   21  C7  UNL     1      11.418  -0.174  -2.894  1.00  0.00     0.005 C 
HETATM   22  C8  UNL     1      11.928  -2.502  -2.125  1.00  0.00     0.005 C 
ENDBRANCH  12  13
ENDBRANCH   9  11
ENDBRANCH   7   8
ENDBRANCH   4   6
ENDBRANCH   1   3
BRANCH   2  23
HETATM   23  C19 UNL     1      -1.910  -0.019  -0.144  1.00  0.00    -0.004 C 
HETATM   24  C20 UNL     1      -2.924   0.668  -0.697  1.00  0.00    -0.022 C 
HETATM   25  C21 UNL     1      -2.596   1.809  -1.625  1.00  0.00     0.031 C 
BRANCH  24  26
HETATM   26  C22 UNL     1      -4.316   0.311  -0.404  1.00  0.00    -0.004 C 
HETATM   27  C23 UNL     1      -5.250   1.266  -0.250  1.00  0.00    -0.000 C 
BRANCH  27  28
HETATM   28  C24 UNL     1      -6.647   0.908   0.045  1.00  0.00     0.004 C 
HETATM   29  C25 UNL     1      -7.629   1.822   0.195  1.00  0.00     0.020 C 
HETATM   30  C26 UNL     1      -7.315   3.289   0.084  1.00  0.00     0.040 C 
BRANCH  29  31
HETATM   31  C27 UNL     1      -8.979   1.410   0.465  1.00  0.00    -0.064 C 
HETATM   32  C28 UNL     1     -10.092   1.068   0.690  1.00  0.00    -0.065 C 
BRANCH  32  33
HETATM   33  C29 UNL     1     -11.445   0.650   0.977  1.00  0.00     0.011 C 
HETATM   34  C30 UNL     1     -12.492   0.680  -0.142  1.00  0.00     0.028 C 
HETATM   35  C31 UNL     1     -13.949   0.397   0.317  1.00  0.00     0.038 C 
HETATM   36  C36 UNL     1     -12.070  -0.381  -1.164  1.00  0.00     0.005 C 
HETATM   37  C37 UNL     1     -12.465   2.066  -0.807  1.00  0.00     0.005 C 
HETATM   38  C32 UNL     1     -14.029  -0.666   1.410  1.00  0.00     0.157 C 
HETATM   39  C33 UNL     1     -13.154  -0.268   2.608  1.00  0.00     0.055 C 
HETATM   40  O1  UNL     1     -13.641  -1.930   0.908  1.00  0.00    -0.223 OA
HETATM   41  C34 UNL     1     -11.774   0.223   2.225  1.00  0.00    -0.038 C 
HETATM   42  C35 UNL     1     -10.756   0.219   3.344  1.00  0.00     0.027 C 
ENDBRANCH  32  33
ENDBRANCH  29  31
ENDBRANCH  27  28
ENDBRANCH  24  26
ENDBRANCH   2  23
TORSDOF 10
