REMARK  0 active torsions:
REMARK  status: ('A' for Active; 'I' for Inactive)
ROOT
HETATM    1  C1  UNL     1      -1.740  -0.180   0.988  1.00  0.00     0.008 C 
HETATM    2  C2  UNL     1      -0.269  -0.088   0.516  1.00  0.00     0.015 C 
HETATM    3  C3  UNL     1      -0.439   0.062  -0.955  1.00  0.00    -0.052 C 
HETATM    4  C4  UNL     1      -1.652   0.478  -1.322  1.00  0.00    -0.052 C 
HETATM    5  C5  UNL     1      -2.531   0.582  -0.106  1.00  0.00     0.022 C 
HETATM    6  C6  UNL     1      -2.105   0.771  -2.727  1.00  0.00     0.026 C 
HETATM    7  C7  UNL     1       0.766  -0.361  -1.735  1.00  0.00     0.021 C 
HETATM    8  C8  UNL     1       1.643  -0.932  -0.594  1.00  0.00     0.004 C 
HETATM    9  C9  UNL     1       2.584   0.156  -0.043  1.00  0.00     0.000 C 
HETATM   10  C10 UNL     1       1.803   1.414   0.377  1.00  0.00     0.000 C 
HETATM   11  C11 UNL     1       0.494   1.115   1.142  1.00  0.00     0.003 C 
HETATM   12  C12 UNL     1      -0.361   2.387   1.225  1.00  0.00     0.000 C 
HETATM   13  C13 UNL     1       0.633  -1.346   0.519  1.00  0.00     0.003 C 
HETATM   14  C14 UNL     1      -0.105  -2.604   0.043  1.00  0.00     0.000 C 
HETATM   15  C15 UNL     1       1.270  -1.641   1.879  1.00  0.00     0.000 C 
ENDROOT
TORSDOF 0
