REMARK  8 active torsions:
REMARK  status: ('A' for Active; 'I' for Inactive)
REMARK    1  A    between atoms: C1_2  and  C2_3 
REMARK    2  A    between atoms: C2_3  and  C3_5 
REMARK    3  A    between atoms: C3_5  and  S1_6 
REMARK    4  A    between atoms: S1_6  and  S2_7 
REMARK    5  A    between atoms: S2_7  and  C4_8 
REMARK    6  A    between atoms: C4_8  and  C5_9 
REMARK    7  A    between atoms: C5_9  and  C6_10 
REMARK    8  A    between atoms: C6_10  and  C7_12 
ROOT
HETATM    1  S2  UNL     1       0.314  -1.430   1.437  1.00  0.00    -0.082 SA
ENDROOT
BRANCH   1   2
HETATM    2  S1  UNL     1       2.334  -1.152   1.377  1.00  0.00    -0.079 SA
BRANCH   2   3
HETATM    3  C3  UNL     1       2.824  -2.045  -0.125  1.00  0.00     0.119 C 
BRANCH   3   4
HETATM    4  C2  UNL     1       2.541  -1.211  -1.375  1.00  0.00     0.399 C 
HETATM    5  N1  UNL     1       1.113  -0.988  -1.528  1.00  0.00     0.629 N 
BRANCH   4   6
HETATM    6  C1  UNL     1       3.105  -1.836  -2.623  1.00  0.00     0.225 C 
HETATM    7  O1  UNL     1       3.504  -0.977  -3.557  1.00  0.00    -0.646 OA
HETATM    8  O4  UNL     1       3.178  -3.037  -2.739  1.00  0.00    -0.646 OA
ENDBRANCH   4   6
ENDBRANCH   3   4
ENDBRANCH   2   3
ENDBRANCH   1   2
BRANCH   1   9
HETATM    9  C4  UNL     1      -0.336   0.258   1.303  1.00  0.00     0.071 C 
BRANCH   9  10
HETATM   10  C5  UNL     1      -1.865   0.258   1.303  1.00  0.00     0.063 C 
BRANCH  10  11
HETATM   11  C6  UNL     1      -2.455   1.670   1.303  1.00  0.00     0.388 C 
HETATM   12  N2  UNL     1      -2.215   2.320   0.025  1.00  0.00     0.628 N 
BRANCH  11  13
HETATM   13  C7  UNL     1      -3.926   1.676   1.621  1.00  0.00     0.224 C 
HETATM   14  O2  UNL     1      -4.334   2.686   2.385  1.00  0.00    -0.646 OA
HETATM   15  O3  UNL     1      -4.658   0.813   1.197  1.00  0.00    -0.646 OA
ENDBRANCH  11  13
ENDBRANCH  10  11
ENDBRANCH   9  10
ENDBRANCH   1   9
TORSDOF 8
