REMARK  4 active torsions:
REMARK  status: ('A' for Active; 'I' for Inactive)
REMARK    1  A    between atoms: N2_3  and  C5_8 
REMARK    2  A    between atoms: C6_10  and  C9_19 
REMARK    3  A    between atoms: C8_12  and  O2_13 
REMARK    4  A    between atoms: O2_13  and  P1_14 
ROOT
HETATM    1  C5  UNL     1       0.137   1.010  -0.754  1.00  0.00     0.240 C 
HETATM    2  O1  UNL     1      -1.205   1.357  -0.488  1.00  0.00    -0.331 OA
HETATM    3  C6  UNL     1      -2.080   0.537  -1.226  1.00  0.00     0.183 C 
HETATM    4  C7  UNL     1      -1.420  -0.844  -1.135  1.00  0.00     0.214 C 
HETATM    5  C8  UNL     1       0.060  -0.441  -1.277  1.00  0.00     0.210 C 
HETATM    6  O6  UNL     1      -1.670  -1.449   0.123  1.00  0.00    -0.218 OA
ENDROOT
BRANCH   1   7
HETATM    7  N2  UNL     1       0.939   1.225   0.449  1.00  0.00    -0.254 N 
HETATM    8  C1  UNL     1       2.121   1.955   0.393  1.00  0.00     0.353 A 
HETATM    9  N1  UNL     1       2.877   2.156   1.539  1.00  0.00    -0.171 NA
HETATM   10  O8  UNL     1       2.504   2.424  -0.654  1.00  0.00    -0.244 OA
HETATM   11  C4  UNL     1       2.512   1.676   2.682  1.00  0.00     0.190 A 
HETATM   12  C3  UNL     1       1.252   0.893   2.764  1.00  0.00     0.060 A 
HETATM   13  N3  UNL     1       3.291   1.902   3.781  1.00  0.00    -0.127 N 
HETATM   14  C2  UNL     1       0.512   0.693   1.651  1.00  0.00     0.085 A 
ENDBRANCH   1   7
BRANCH   5  15
HETATM   15  O2  UNL     1       0.932  -1.336  -0.590  1.00  0.00    -0.259 OA
BRANCH  15  16
HETATM   16  P1  UNL     1       1.248  -2.652  -1.353  1.00  0.00     0.423 P 
HETATM   17  O3  UNL     1       1.912  -2.307  -2.717  1.00  0.00    -0.617 OA
HETATM   18  O4  UNL     1      -0.068  -3.439  -1.601  1.00  0.00    -0.617 OA
HETATM   19  O5  UNL     1       2.162  -3.469  -0.558  1.00  0.00    -0.617 OA
ENDBRANCH  15  16
ENDBRANCH   5  15
BRANCH   3  20
HETATM   20  C9  UNL     1      -3.494   0.660  -0.662  1.00  0.00     0.214 C 
HETATM   21  O7  UNL     1      -4.346  -0.170  -1.420  1.00  0.00    -0.218 OA
ENDBRANCH   3  20
TORSDOF 4
