REMARK  0 active torsions:
REMARK  status: ('A' for Active; 'I' for Inactive)
ROOT
HETATM    1  C1  UNL     1      -3.037   1.344  -0.137  1.00  0.00     0.006 A 
HETATM    2  C2  UNL     1      -3.231   0.502   0.895  1.00  0.00     0.061 A 
HETATM    3  C3  UNL     1      -2.174  -0.469   1.258  1.00  0.00     0.261 A 
HETATM    4  N1  UNL     1      -0.988  -0.504   0.539  1.00  0.00    -0.299 N 
HETATM    5  C4  UNL     1      -0.801   0.383  -0.523  1.00  0.00     0.042 A 
HETATM    6  C5  UNL     1      -1.762   1.272  -0.873  1.00  0.00     0.013 A 
HETATM    7  C6  UNL     1       0.498   0.377  -1.318  1.00  0.00     0.075 C 
HETATM    8  C7  UNL     1       1.131  -1.020  -1.316  1.00  0.00     0.012 C 
HETATM    9  C8  UNL     1       1.397  -1.377   0.146  1.00  0.00     0.059 C 
HETATM   10  C9  UNL     1       0.061  -1.504   0.918  1.00  0.00     0.111 C 
HETATM   11  C10 UNL     1       2.369  -0.352   0.773  1.00  0.00     0.292 C 
HETATM   12  N2  UNL     1       1.902   1.035   0.643  1.00  0.00     0.340 N 
HETATM   13  C11 UNL     1       1.500   1.393  -0.727  1.00  0.00     0.296 C 
HETATM   14  O1  UNL     1      -2.359  -1.227   2.184  1.00  0.00    -0.267 OA
ENDROOT
TORSDOF 0
