REMARK  1 active torsions:
REMARK  status: ('A' for Active; 'I' for Inactive)
REMARK    1  A    between atoms: C8_9  and  C10_12 
ROOT
HETATM    1  C1  UNL     1       4.309   1.912  -0.119  1.00  0.00     0.133 A 
HETATM    2  C2  UNL     1       4.447   0.504  -0.119  1.00  0.00     0.028 A 
HETATM    3  C3  UNL     1       3.299  -0.322  -0.092  1.00  0.00     0.007 A 
HETATM    4  C4  UNL     1       2.012   0.266  -0.066  1.00  0.00     0.062 A 
HETATM    5  C5  UNL     1       1.869   1.678  -0.062  1.00  0.00     0.105 A 
HETATM    6  C6  UNL     1       3.021   2.498  -0.092  1.00  0.00     0.052 A 
HETATM    7  O1  UNL     1       0.641   2.240  -0.033  1.00  0.00    -0.305 OA
HETATM    8  C7  UNL     1      -0.498   1.518  -0.004  1.00  0.00     0.126 A 
HETATM    9  C8  UNL     1      -0.498   0.166  -0.006  1.00  0.00     0.064 A 
HETATM   10  C9  UNL     1       0.787  -0.580  -0.039  1.00  0.00     0.199 A 
HETATM   11  O2  UNL     1       0.748  -1.791  -0.043  1.00  0.00    -0.286 OA
HETATM   12  O4  UNL     1       5.398   2.691  -0.146  1.00  0.00    -0.190 OA
ENDROOT
BRANCH   9  13
HETATM   13  C10 UNL     1      -1.801  -0.572   0.024  1.00  0.00     0.005 A 
HETATM   14  C11 UNL     1      -2.908  -0.078  -0.687  1.00  0.00     0.002 A 
HETATM   15  C12 UNL     1      -4.131  -0.770  -0.658  1.00  0.00     0.027 A 
HETATM   16  C13 UNL     1      -4.252  -1.959   0.082  1.00  0.00     0.131 A 
HETATM   17  C14 UNL     1      -3.145  -2.453   0.793  1.00  0.00     0.027 A 
HETATM   18  O3  UNL     1      -5.399  -2.609   0.110  1.00  0.00    -0.190 OA
HETATM   19  C15 UNL     1      -1.920  -1.762   0.766  1.00  0.00     0.002 A 
ENDBRANCH   9  13
TORSDOF 1
