REMARK  4 active torsions:
REMARK  status: ('A' for Active; 'I' for Inactive)
REMARK    1  A    between atoms: C2_2  and  O4_19 
REMARK    2  A    between atoms: C8_8  and  C10_11 
REMARK    3  A    between atoms: O4_19  and  C16_20 
REMARK    4  A    between atoms: C17_22  and  C21_29 
ROOT
HETATM    1  C1  UNL     1       1.002  -0.232  -0.807  1.00  0.00     0.025 A 
HETATM    2  C2  UNL     1       0.863   1.176  -0.807  1.00  0.00     0.099 A 
HETATM    3  C3  UNL     1      -0.426   1.762  -0.779  1.00  0.00     0.049 A 
HETATM    4  C4  UNL     1      -1.576   0.941  -0.750  1.00  0.00     0.105 A 
HETATM    5  C5  UNL     1      -1.434  -0.471  -0.754  1.00  0.00     0.062 A 
HETATM    6  C6  UNL     1      -0.147  -1.061  -0.779  1.00  0.00     0.007 A 
HETATM    7  C7  UNL     1      -2.658  -1.318  -0.727  1.00  0.00     0.199 A 
HETATM    8  C8  UNL     1      -3.943  -0.572  -0.693  1.00  0.00     0.064 A 
HETATM    9  C9  UNL     1      -3.943   0.781  -0.691  1.00  0.00     0.126 A 
HETATM   10  O1  UNL     1      -2.805   1.504  -0.721  1.00  0.00    -0.305 OA
HETATM   11  O3  UNL     1      -2.699  -2.527  -0.730  1.00  0.00    -0.286 OA
ENDROOT
BRANCH   2  12
HETATM   12  O4  UNL     1       1.953   1.955  -0.834  1.00  0.00    -0.304 OA
BRANCH  12  13
HETATM   13  C16 UNL     1       3.193   1.381  -0.447  1.00  0.00     0.274 C 
HETATM   14  O5  UNL     1       3.059   0.834   0.857  1.00  0.00    -0.326 OA
HETATM   15  C17 UNL     1       4.219   0.182   1.357  1.00  0.00     0.184 C 
HETATM   16  C18 UNL     1       5.381   1.195   1.451  1.00  0.00     0.215 C 
HETATM   17  C19 UNL     1       5.629   1.896   0.096  1.00  0.00     0.220 C 
HETATM   18  O8  UNL     1       6.551   0.510   1.859  1.00  0.00    -0.218 OA
HETATM   19  C20 UNL     1       4.299   2.459  -0.449  1.00  0.00     0.241 C 
HETATM   20  O7  UNL     1       6.564   2.949   0.262  1.00  0.00    -0.218 OA
HETATM   21  O6  UNL     1       4.477   2.920  -1.775  1.00  0.00    -0.215 OA
BRANCH  15  22
HETATM   22  C21 UNL     1       3.838  -0.420   2.713  1.00  0.00     0.214 C 
HETATM   23  O9  UNL     1       2.914  -1.461   2.492  1.00  0.00    -0.218 OA
ENDBRANCH  15  22
ENDBRANCH  12  13
ENDBRANCH   2  12
BRANCH   8  24
HETATM   24  C10 UNL     1      -5.242  -1.307  -0.664  1.00  0.00     0.005 A 
HETATM   25  C11 UNL     1      -6.346  -0.820  -1.387  1.00  0.00     0.002 A 
HETATM   26  C12 UNL     1      -7.569  -1.514  -1.357  1.00  0.00     0.027 A 
HETATM   27  C13 UNL     1      -7.694  -2.693  -0.605  1.00  0.00     0.131 A 
HETATM   28  C14 UNL     1      -6.590  -3.180   0.117  1.00  0.00     0.027 A 
HETATM   29  O2  UNL     1      -8.840  -3.344  -0.578  1.00  0.00    -0.190 OA
HETATM   30  C15 UNL     1      -5.365  -2.488   0.090  1.00  0.00     0.002 A 
ENDBRANCH   8  24
TORSDOF 4
