REMARK  2 active torsions:
REMARK  status: ('A' for Active; 'I' for Inactive)
REMARK    1  A    between atoms: C1_1  and  O3_18 
REMARK    2  A    between atoms: C9_10  and  C10_11 
ROOT
HETATM    1  C1  UNL     1       2.564  -1.523  -0.283  1.00  0.00     0.121 A 
HETATM    2  C2  UNL     1       2.391  -0.191   0.162  1.00  0.00     0.153 A 
HETATM    3  C3  UNL     1       1.090   0.357   0.269  1.00  0.00     0.031 A 
HETATM    4  C4  UNL     1      -0.043  -0.432  -0.070  1.00  0.00     0.024 A 
HETATM    5  C5  UNL     1       0.135  -1.772  -0.510  1.00  0.00     0.097 A 
HETATM    6  C6  UNL     1       1.437  -2.309  -0.621  1.00  0.00     0.051 A 
HETATM    7  O1  UNL     1      -0.928  -2.535  -0.840  1.00  0.00    -0.326 OA
HETATM    8  C7  UNL     1      -2.250  -2.197  -0.395  1.00  0.00     0.175 C 
HETATM    9  C8  UNL     1      -2.477  -0.711  -0.193  1.00  0.00     0.006 C 
HETATM   10  C9  UNL     1      -1.430   0.117   0.006  1.00  0.00     0.000 C 
HETATM   11  O2  UNL     1       3.457   0.555   0.484  1.00  0.00    -0.188 OA
ENDROOT
BRANCH  10  12
HETATM   12  C10 UNL     1      -1.680   1.566   0.293  1.00  0.00    -0.000 A 
HETATM   13  C11 UNL     1      -2.670   1.941   1.219  1.00  0.00    -0.000 A 
HETATM   14  C12 UNL     1      -2.904   3.303   1.486  1.00  0.00    -0.000 A 
HETATM   15  C13 UNL     1      -2.147   4.289   0.830  1.00  0.00    -0.000 A 
HETATM   16  C14 UNL     1      -1.156   3.914  -0.094  1.00  0.00    -0.000 A 
HETATM   17  C15 UNL     1      -0.922   2.555  -0.363  1.00  0.00    -0.000 A 
ENDBRANCH  10  12
BRANCH   1  18
HETATM   18  O3  UNL     1       3.795  -2.041  -0.389  1.00  0.00    -0.326 OA
HETATM   19  C16 UNL     1       3.916  -3.397  -0.797  1.00  0.00     0.181 C 
ENDBRANCH   1  18
TORSDOF 2
