REMARK  4 active torsions:
REMARK  status: ('A' for Active; 'I' for Inactive)
REMARK    1  A    between atoms: C1_1  and  C9_11 
REMARK    2  A    between atoms: C5_5  and  O1_9 
REMARK    3  A    between atoms: C6_6  and  N1_7 
REMARK    4  A    between atoms: C9_11  and  O2_12 
ROOT
HETATM    1  C1  UNL     1       1.039   0.184   0.024  1.00  0.00     0.082 A 
HETATM    2  C2  UNL     1       1.779  -1.012   0.024  1.00  0.00     0.007 A 
HETATM    3  C3  UNL     1       1.121  -2.252   0.024  1.00  0.00     0.002 A 
HETATM    4  C4  UNL     1      -0.281  -2.303   0.024  1.00  0.00     0.026 A 
HETATM    5  C5  UNL     1      -1.035  -1.117   0.024  1.00  0.00     0.111 A 
HETATM    6  C6  UNL     1      -0.377   0.135   0.024  1.00  0.00     0.103 A 
ENDROOT
BRANCH   1   7
HETATM    7  C9  UNL     1       1.779   1.486   0.024  1.00  0.00     0.297 C 
HETATM    8  O3  UNL     1       1.279   2.486  -0.435  1.00  0.00    -0.259 OA
BRANCH   7   9
HETATM    9  O2  UNL     1       2.998   1.443   0.555  1.00  0.00    -0.296 OA
HETATM   10  C10 UNL     1       3.645   2.707   0.524  1.00  0.00     0.185 C 
ENDBRANCH   7   9
ENDBRANCH   1   7
BRANCH   6  11
HETATM   11  N1  UNL     1      -1.119   1.293   0.024  1.00  0.00    -0.266 NA
HETATM   12  C7  UNL     1      -2.430   1.326  -0.643  1.00  0.00     0.152 C 
ENDBRANCH   6  11
BRANCH   5  13
HETATM   13  O1  UNL     1      -2.352  -1.197   0.024  1.00  0.00    -0.327 OA
HETATM   14  C8  UNL     1      -2.942  -2.488   0.024  1.00  0.00     0.181 C 
ENDBRANCH   5  13
TORSDOF 4
