REMARK  6 active torsions:
REMARK  status: ('A' for Active; 'I' for Inactive)
REMARK    1  A    between atoms: C1_1  and  O1_31 
REMARK    2  A    between atoms: C15_15  and  C18_18 
REMARK    3  A    between atoms: C18_18  and  C20_20 
REMARK    4  A    between atoms: C20_20  and  C21_21 
REMARK    5  A    between atoms: C21_21  and  C22_22 
REMARK    6  A    between atoms: O1_31  and  C31_32 
ROOT
HETATM    1  C1  UNL     1      -5.641  -0.205   0.832  1.00  0.00     0.124 C 
HETATM    2  C2  UNL     1      -4.971   1.172   0.650  1.00  0.00     0.026 C 
HETATM    3  C3  UNL     1      -3.440   1.035   0.879  1.00  0.00     0.002 C 
HETATM    4  C4  UNL     1      -2.756  -0.055  -0.006  1.00  0.00     0.000 C 
HETATM    5  C5  UNL     1      -3.498  -1.397   0.195  1.00  0.00     0.003 C 
HETATM    6  C6  UNL     1      -5.010  -1.285  -0.051  1.00  0.00     0.030 C 
HETATM    7  C7  UNL     1      -1.258  -0.186   0.422  1.00  0.00     0.000 C 
HETATM    8  C8  UNL     1      -0.492   1.174   0.375  1.00  0.00     0.000 C 
HETATM    9  C9  UNL     1      -1.227   2.240   1.213  1.00  0.00     0.000 C 
HETATM   10  C10 UNL     1      -2.695   2.385   0.791  1.00  0.00     0.000 C 
HETATM   11  C11 UNL     1       0.930   0.928   0.953  1.00  0.00     0.000 C 
HETATM   12  C12 UNL     1       1.674  -0.115   0.104  1.00  0.00     0.004 C 
HETATM   13  C13 UNL     1       0.961  -1.469   0.166  1.00  0.00     0.000 C 
HETATM   14  C14 UNL     1      -0.482  -1.295  -0.336  1.00  0.00     0.000 C 
HETATM   15  C15 UNL     1       3.102  -0.074   0.652  1.00  0.00     0.018 C 
HETATM   16  C16 UNL     1       3.320   1.432   0.858  1.00  0.00     0.004 C 
HETATM   17  C17 UNL     1       1.934   2.088   0.869  1.00  0.00     0.000 C 
HETATM   18  C26 UNL     1       0.894   0.502   2.430  1.00  0.00     0.000 C 
HETATM   19  C27 UNL     1      -0.346   1.691  -1.068  1.00  0.00     0.000 C 
HETATM   20  C28 UNL     1      -2.842   0.316  -1.496  1.00  0.00     0.000 C 
HETATM   21  C29 UNL     1      -5.570   2.137   1.684  1.00  0.00     0.002 C 
HETATM   22  C30 UNL     1      -5.277   1.732  -0.746  1.00  0.00     0.002 C 
ENDROOT
BRANCH  15  23
HETATM   23  C18 UNL     1       4.121  -0.717  -0.254  1.00  0.00    -0.044 C 
HETATM   24  C19 UNL     1       3.703  -1.248  -1.416  1.00  0.00    -0.009 C 
BRANCH  23  25
HETATM   25  C20 UNL     1       5.586  -0.791   0.082  1.00  0.00     0.027 C 
BRANCH  25  26
HETATM   26  C21 UNL     1       6.447  -1.143  -1.133  1.00  0.00     0.030 C 
BRANCH  26  27
HETATM   27  C22 UNL     1       7.920  -1.029  -0.844  1.00  0.00    -0.034 C 
HETATM   28  C23 UNL     1       8.783  -1.637  -1.674  1.00  0.00    -0.048 C 
HETATM   29  C24 UNL     1      10.252  -1.580  -1.350  1.00  0.00     0.026 C 
HETATM   30  C25 UNL     1       8.238  -2.344  -2.887  1.00  0.00     0.026 C 
ENDBRANCH  26  27
ENDBRANCH  25  26
ENDBRANCH  23  25
ENDBRANCH  15  23
BRANCH   1  31
HETATM   31  O1  UNL     1      -7.029  -0.117   0.539  1.00  0.00    -0.304 OA
BRANCH  31  32
HETATM   32  C31 UNL     1      -7.715  -1.154   1.010  1.00  0.00     0.272 C 
HETATM   33  C32 UNL     1      -9.166  -1.199   0.607  1.00  0.00     0.106 C 
HETATM   34  O2  UNL     1      -7.238  -2.012   1.713  1.00  0.00    -0.264 OA
ENDBRANCH  31  32
ENDBRANCH   1  31
TORSDOF 6
