REMARK  0 active torsions:
REMARK  status: ('A' for Active; 'I' for Inactive)
ROOT
HETATM    1  C1  UNL     1       1.080  -0.299  -0.049  1.00  0.00     0.077 C 
HETATM    2  C2  UNL     1       0.920   1.160   0.437  1.00  0.00     0.009 C 
HETATM    3  C3  UNL     1       2.266   1.811   0.074  1.00  0.00     0.008 C 
HETATM    4  C4  UNL     1       3.285   0.730   0.422  1.00  0.00     0.065 C 
HETATM    5  C5  UNL     1       2.555  -0.547   0.143  1.00  0.00     0.152 C 
HETATM    6  O1  UNL     1       3.084  -1.631   0.078  1.00  0.00    -0.296 OA
HETATM    7  C6  UNL     1      -0.267   2.002  -0.066  1.00  0.00     0.001 C 
HETATM    8  C7  UNL     1      -1.613   1.473   0.453  1.00  0.00     0.000 C 
HETATM    9  C8  UNL     1      -1.955   0.027   0.049  1.00  0.00     0.007 C 
HETATM   10  C9  UNL     1      -1.289  -1.018   0.955  1.00  0.00     0.056 C 
HETATM   11  C10 UNL     1       0.231  -1.281   0.781  1.00  0.00     0.135 C 
HETATM   12  O2  UNL     1       0.397  -2.608   0.248  1.00  0.00    -0.300 OA
HETATM   13  C11 UNL     1      -0.762  -3.262   0.277  1.00  0.00     0.292 C 
HETATM   14  C12 UNL     1      -1.834  -2.395   0.728  1.00  0.00     0.043 C 
HETATM   15  C13 UNL     1      -3.115  -2.756   0.920  1.00  0.00     0.001 C 
HETATM   16  O3  UNL     1      -0.920  -4.422  -0.029  1.00  0.00    -0.260 OA
HETATM   17  C14 UNL     1      -0.275   2.186  -1.590  1.00  0.00     0.000 C 
HETATM   18  C15 UNL     1       0.768  -0.481  -1.533  1.00  0.00     0.010 C 
ENDROOT
TORSDOF 0
