REMARK  4 active torsions:
REMARK  status: ('A' for Active; 'I' for Inactive)
REMARK    1  A    between atoms: C3_3  and  O2_7 
REMARK    2  A    between atoms: O2_7  and  C6_8 
REMARK    3  A    between atoms: C7_10  and  C11_17 
REMARK    4  A    between atoms: C12_19  and  C15_23 
ROOT
HETATM    1  C1  UNL     1       2.367  -1.903   1.971  1.00  0.00     0.187 C 
HETATM    2  C2  UNL     1       1.498  -0.615   1.965  1.00  0.00     0.112 C 
HETATM    3  C3  UNL     1       0.348  -0.805   0.957  1.00  0.00     0.248 C 
HETATM    4  O1  UNL     1      -0.410  -1.985   1.246  1.00  0.00    -0.303 OA
HETATM    5  C4  UNL     1       0.277  -3.127   1.402  1.00  0.00     0.117 C 
HETATM    6  C5  UNL     1       1.588  -3.174   1.709  1.00  0.00     0.033 C 
HETATM    7  C12 UNL     1       2.471   0.453   1.527  1.00  0.00    -0.006 C 
HETATM    8  C13 UNL     1       3.547  -0.067   0.926  1.00  0.00     0.003 C 
HETATM    9  C14 UNL     1       3.428  -1.565   0.883  1.00  0.00     0.206 C 
HETATM   10  O8  UNL     1       4.680  -2.196   1.086  1.00  0.00    -0.216 OA
HETATM   11  O10 UNL     1       2.963  -2.010   3.258  1.00  0.00    -0.218 OA
ENDROOT
BRANCH   3  12
HETATM   12  O2  UNL     1      -0.516   0.312   0.996  1.00  0.00    -0.303 OA
BRANCH  12  13
HETATM   13  C6  UNL     1      -1.553   0.248   0.037  1.00  0.00     0.272 C 
HETATM   14  O3  UNL     1      -0.979   0.390  -1.254  1.00  0.00    -0.326 OA
HETATM   15  C7  UNL     1      -1.897   0.293  -2.334  1.00  0.00     0.184 C 
HETATM   16  C8  UNL     1      -2.939   1.428  -2.225  1.00  0.00     0.215 C 
HETATM   17  C9  UNL     1      -3.643   1.414  -0.848  1.00  0.00     0.220 C 
HETATM   18  O6  UNL     1      -3.898   1.265  -3.254  1.00  0.00    -0.218 OA
HETATM   19  C10 UNL     1      -2.588   1.375   0.281  1.00  0.00     0.241 C 
HETATM   20  O5  UNL     1      -4.451   2.570  -0.711  1.00  0.00    -0.218 OA
HETATM   21  O4  UNL     1      -3.238   1.156   1.524  1.00  0.00    -0.215 OA
BRANCH  15  22
HETATM   22  C11 UNL     1      -1.070   0.365  -3.623  1.00  0.00     0.214 C 
HETATM   23  O7  UNL     1      -0.283  -0.803  -3.707  1.00  0.00    -0.218 OA
ENDBRANCH  15  22
ENDBRANCH  12  13
ENDBRANCH   3  12
BRANCH   7  24
HETATM   24  C15 UNL     1       2.242   1.922   1.760  1.00  0.00     0.205 C 
HETATM   25  O9  UNL     1       2.027   2.566   0.525  1.00  0.00    -0.216 OA
ENDBRANCH   7  24
TORSDOF 4
