REMARK  2 active torsions:
REMARK  status: ('A' for Active; 'I' for Inactive)
REMARK    1  A    between atoms: C5_5  and  C24_27 
REMARK    2  A    between atoms: C15_15  and  C18_19 
ROOT
HETATM    1  C1  UNL     1      -1.183  -1.323  -2.387  1.00  0.00     0.033 C 
HETATM    2  C2  UNL     1      -2.202  -2.048  -1.513  1.00  0.00     0.152 C 
HETATM    3  C3  UNL     1      -1.627  -2.562  -0.189  1.00  0.00     0.033 C 
HETATM    4  C4  UNL     1      -0.167  -2.129   0.059  1.00  0.00     0.005 C 
HETATM    5  C5  UNL     1       0.056  -0.611  -0.176  1.00  0.00     0.031 C 
HETATM    6  C6  UNL     1      -0.353  -0.264  -1.642  1.00  0.00     0.005 C 
HETATM    7  C7  UNL     1       1.556  -0.249   0.112  1.00  0.00     0.005 C 
HETATM    8  C8  UNL     1       2.552  -1.412  -0.100  1.00  0.00     0.027 C 
HETATM    9  C9  UNL     1       2.082  -2.383  -1.181  1.00  0.00     0.002 C 
HETATM   10  C10 UNL     1       0.801  -3.072  -0.695  1.00  0.00     0.000 C 
HETATM   11  C11 UNL     1       3.929  -0.796  -0.245  1.00  0.00     0.118 A 
HETATM   12  C12 UNL     1       4.442   0.122   0.862  1.00  0.00     0.029 C 
HETATM   13  C13 UNL     1       3.361   0.259   1.955  1.00  0.00     0.003 C 
HETATM   14  C14 UNL     1       1.910   0.436   1.458  1.00  0.00     0.000 C 
HETATM   15  C15 UNL     1       4.705   1.434   0.087  1.00  0.00     0.029 C 
HETATM   16  C16 UNL     1       5.180   0.944  -1.298  1.00  0.00     0.036 C 
HETATM   17  C17 UNL     1       4.369  -0.326  -1.531  1.00  0.00     0.140 A 
HETATM   18  O1  UNL     1       5.032  -1.504  -1.138  1.00  0.00    -0.357 OA
HETATM   19  C23 UNL     1       5.724  -0.426   1.523  1.00  0.00     0.003 C 
HETATM   20  O5  UNL     1      -3.290  -1.185  -1.268  1.00  0.00    -0.224 OA
ENDROOT
BRANCH  15  21
HETATM   21  C18 UNL     1       5.539   2.483   0.789  1.00  0.00     0.003 A 
HETATM   22  C19 UNL     1       4.862   3.534   1.548  1.00  0.00     0.003 A 
HETATM   23  C20 UNL     1       5.593   4.480   2.174  1.00  0.00     0.068 A 
HETATM   24  C21 UNL     1       7.065   4.405   2.067  1.00  0.00     0.300 A 
HETATM   25  O2  UNL     1       7.685   3.410   1.373  1.00  0.00    -0.271 OA
HETATM   26  O3  UNL     1       7.728   5.273   2.630  1.00  0.00    -0.259 OA
HETATM   27  C22 UNL     1       6.891   2.490   0.751  1.00  0.00     0.122 A 
ENDBRANCH  15  21
BRANCH   5  28
HETATM   28  C24 UNL     1      -0.901   0.182   0.747  1.00  0.00     0.182 C 
HETATM   29  O4  UNL     1      -0.672   1.576   0.673  1.00  0.00    -0.221 OA
ENDBRANCH   5  28
TORSDOF 2
