REMARK  8 active torsions:
REMARK  status: ('A' for Active; 'I' for Inactive)
REMARK    1  A    between atoms: C5_5  and  C7_7 
REMARK    2  A    between atoms: C13_15  and  O13_40 
REMARK    3  A    between atoms: C14_16  and  O12_38 
REMARK    4  A    between atoms: C15_17  and  C16_18 
REMARK    5  A    between atoms: C17_20  and  C26_36 
REMARK    6  A    between atoms: C20_23  and  O4_24 
REMARK    7  A    between atoms: O4_24  and  C21_25 
REMARK    8  A    between atoms: C23_28  and  C25_31 
ROOT
HETATM    1  C7  UNL     1       2.414   0.191  -1.791  1.00  0.00     0.151 C 
HETATM    2  O1  UNL     1       1.143  -0.125  -1.213  1.00  0.00    -0.329 OA
HETATM    3  C8  UNL     1       0.027   0.523  -1.611  1.00  0.00     0.099 A 
HETATM    4  C9  UNL     1       0.105   1.772  -2.289  1.00  0.00     0.084 A 
HETATM    5  C10 UNL     1       1.438   2.410  -2.498  1.00  0.00     0.180 C 
HETATM    6  C11 UNL     1       2.615   1.719  -1.844  1.00  0.00     0.104 C 
HETATM    7  O2  UNL     1       1.670   3.418  -3.125  1.00  0.00    -0.291 OA
HETATM    8  C12 UNL     1      -1.078   2.404  -2.752  1.00  0.00     0.160 A 
HETATM    9  C13 UNL     1      -2.338   1.811  -2.500  1.00  0.00     0.141 A 
HETATM   10  C14 UNL     1      -2.420   0.590  -1.791  1.00  0.00     0.119 A 
HETATM   11  C15 UNL     1      -1.238  -0.055  -1.348  1.00  0.00     0.054 A 
HETATM   12  O14 UNL     1      -1.020   3.567  -3.418  1.00  0.00    -0.188 OA
ENDROOT
BRANCH  11  13
HETATM   13  C16 UNL     1      -1.328  -1.334  -0.615  1.00  0.00     0.171 C 
HETATM   14  O3  UNL     1      -0.531  -2.289  -1.305  1.00  0.00    -0.347 OA
HETATM   15  C17 UNL     1      -0.586  -3.611  -0.787  1.00  0.00     0.181 C 
HETATM   16  C18 UNL     1      -0.053  -3.615   0.662  1.00  0.00     0.214 C 
HETATM   17  C19 UNL     1      -0.822  -2.607   1.543  1.00  0.00     0.215 C 
HETATM   18  O10 UNL     1      -0.189  -4.924   1.193  1.00  0.00    -0.218 OA
HETATM   19  C20 UNL     1      -0.848  -1.223   0.857  1.00  0.00     0.182 C 
HETATM   20  O9  UNL     1      -0.199  -2.508   2.814  1.00  0.00    -0.218 OA
BRANCH  15  21
HETATM   21  C26 UNL     1       0.238  -4.492  -1.731  1.00  0.00     0.214 C 
HETATM   22  O11 UNL     1      -0.453  -4.598  -2.953  1.00  0.00    -0.218 OA
ENDBRANCH  15  21
BRANCH  19  23
HETATM   23  O4  UNL     1      -1.721  -0.363   1.574  1.00  0.00    -0.326 OA
BRANCH  23  24
HETATM   24  C21 UNL     1      -1.283   0.981   1.598  1.00  0.00     0.270 C 
HETATM   25  O5  UNL     1      -2.365   1.867   1.789  1.00  0.00    -0.326 OA
HETATM   26  C22 UNL     1      -2.229   2.580   3.002  1.00  0.00     0.181 C 
HETATM   27  C23 UNL     1      -0.717   2.662   3.242  1.00  0.00     0.217 C 
HETATM   28  C24 UNL     1      -0.348   1.234   2.793  1.00  0.00     0.241 C 
HETATM   29  O8  UNL     1      -0.152   3.670   2.414  1.00  0.00    -0.218 OA
HETATM   30  O6  UNL     1       1.016   1.096   2.428  1.00  0.00    -0.215 OA
BRANCH  27  31
HETATM   31  C25 UNL     1      -0.355   2.973   4.689  1.00  0.00     0.218 C 
HETATM   32  O7  UNL     1      -1.014   4.162   5.064  1.00  0.00    -0.218 OA
ENDBRANCH  27  31
ENDBRANCH  23  24
ENDBRANCH  19  23
ENDBRANCH  11  13
BRANCH  10  33
HETATM   33  O12 UNL     1      -3.619   0.043  -1.545  1.00  0.00    -0.326 OA
HETATM   34  C27 UNL     1      -4.500  -0.152  -2.641  1.00  0.00     0.181 C 
ENDBRANCH  10  33
BRANCH   9  35
HETATM   35  O13 UNL     1      -3.457   2.410  -2.930  1.00  0.00    -0.324 OA
HETATM   36  C28 UNL     1      -4.254   3.100  -1.977  1.00  0.00     0.182 C 
ENDBRANCH   9  35
BRANCH   1  37
HETATM   37  C5  UNL     1       3.484  -0.492  -1.018  1.00  0.00     0.006 A 
HETATM   38  C4  UNL     1       4.836  -0.250  -1.320  1.00  0.00     0.000 A 
HETATM   39  C3  UNL     1       5.846  -0.898  -0.590  1.00  0.00     0.027 A 
HETATM   40  C2  UNL     1       5.510  -1.787   0.447  1.00  0.00     0.131 A 
HETATM   41  C1  UNL     1       4.158  -2.027   0.748  1.00  0.00     0.027 A 
HETATM   42  O15 UNL     1       6.459  -2.395   1.131  1.00  0.00    -0.190 OA
HETATM   43  C6  UNL     1       3.145  -1.381   0.018  1.00  0.00     0.000 A 
ENDBRANCH   1  37
TORSDOF 8
