REMARK  0 active torsions:
REMARK  status: ('A' for Active; 'I' for Inactive)
ROOT
HETATM    1  C1  UNL     1      -4.748   0.012  -0.432  1.00  0.00    -0.004 A 
HETATM    2  C2  UNL     1      -3.856   0.734   0.393  1.00  0.00    -0.022 A 
HETATM    3  C3  UNL     1      -2.459   0.457   0.334  1.00  0.00    -0.004 A 
HETATM    4  C4  UNL     1      -1.967  -0.551  -0.558  1.00  0.00     0.005 A 
HETATM    5  C5  UNL     1      -2.885  -1.266  -1.375  1.00  0.00     0.000 A 
HETATM    6  C6  UNL     1      -4.266  -0.982  -1.309  1.00  0.00    -0.000 A 
HETATM    7  C7  UNL     1      -0.563  -0.809  -0.601  1.00  0.00     0.064 A 
HETATM    8  C8  UNL     1       0.328  -0.103   0.197  1.00  0.00     0.034 A 
HETATM    9  C9  UNL     1      -0.164   0.889   1.078  1.00  0.00     0.001 A 
HETATM   10  C10 UNL     1      -1.545   1.172   1.152  1.00  0.00    -0.001 A 
HETATM   11  C11 UNL     1       1.715  -0.629  -0.117  1.00  0.00     0.215 A 
HETATM   12  O1  UNL     1       1.498  -1.664  -1.121  1.00  0.00    -0.274 OA
HETATM   13  C12 UNL     1       0.180  -1.773  -1.412  1.00  0.00     0.298 A 
HETATM   14  O2  UNL     1      -0.313  -2.537  -2.207  1.00  0.00    -0.259 OA
HETATM   15  O3  UNL     1       2.363  -1.144   1.020  1.00  0.00    -0.331 OA
HETATM   16  C13 UNL     1       3.730  -1.322   0.740  1.00  0.00     0.145 C 
HETATM   17  C14 UNL     1       4.053  -0.262  -0.322  1.00  0.00     0.035 C 
HETATM   18  C15 UNL     1       2.707   0.414  -0.625  1.00  0.00     0.064 C 
HETATM   19  C16 UNL     1       5.084   0.752   0.168  1.00  0.00     0.003 C 
HETATM   20  C17 UNL     1      -4.408   1.764   1.295  1.00  0.00     0.031 C 
ENDROOT
TORSDOF 0
