REMARK  1 active torsions:
REMARK  status: ('A' for Active; 'I' for Inactive)
REMARK    1  A    between atoms: C5_6  and  C6_7 
ROOT
HETATM    1  C1  UNL     1       3.916   0.021  -0.727  1.00  0.00     0.037 C 
HETATM    2  C2  UNL     1       3.527   1.473  -0.990  1.00  0.00     0.149 C 
HETATM    3  O1  UNL     1       2.164   1.527  -1.406  1.00  0.00    -0.328 OA
HETATM    4  C3  UNL     1       1.240   0.850  -0.692  1.00  0.00     0.132 A 
HETATM    5  C4  UNL     1       1.563  -0.111   0.215  1.00  0.00     0.044 A 
HETATM    6  C5  UNL     1       3.024  -0.524   0.410  1.00  0.00     0.057 C 
HETATM    7  C7  UNL     1       3.488   0.062   1.750  1.00  0.00     0.007 C 
HETATM    8  C8  UNL     1       0.512  -0.774   1.037  1.00  0.00     0.194 A 
HETATM    9  C9  UNL     1      -0.916  -0.430   0.785  1.00  0.00     0.042 A 
HETATM   10  C10 UNL     1      -1.271   0.549  -0.186  1.00  0.00     0.044 A 
HETATM   11  C11 UNL     1      -0.172   1.217  -0.967  1.00  0.00     0.217 A 
HETATM   12  O3  UNL     1      -0.285   2.053  -1.834  1.00  0.00    -0.284 OA
HETATM   13  C12 UNL     1      -2.664   0.867  -0.385  1.00  0.00     0.003 A 
HETATM   14  C13 UNL     1      -3.664   0.180   0.391  1.00  0.00    -0.004 A 
HETATM   15  C14 UNL     1      -3.273  -0.797   1.340  1.00  0.00    -0.000 A 
HETATM   16  C15 UNL     1      -1.914  -1.094   1.535  1.00  0.00     0.003 A 
HETATM   17  C16 UNL     1      -5.049   0.475   0.213  1.00  0.00    -0.022 A 
HETATM   18  C17 UNL     1      -5.443   1.453  -0.725  1.00  0.00    -0.004 A 
HETATM   19  C18 UNL     1      -4.477   2.135  -1.488  1.00  0.00    -0.000 A 
HETATM   20  C19 UNL     1      -3.105   1.848  -1.324  1.00  0.00     0.000 A 
HETATM   21  C20 UNL     1      -6.102  -0.211   0.986  1.00  0.00     0.031 C 
HETATM   22  O4  UNL     1       0.898  -1.557   1.875  1.00  0.00    -0.287 OA
HETATM   23  C21 UNL     1       3.807  -0.801  -2.022  1.00  0.00     0.003 C 
ENDROOT
BRANCH   6  24
HETATM   24  C6  UNL     1       3.178  -2.051   0.473  1.00  0.00     0.186 C 
HETATM   25  O2  UNL     1       4.553  -2.356   0.482  1.00  0.00    -0.220 OA
ENDBRANCH   6  24
TORSDOF 1
