REMARK  4 active torsions:
REMARK  status: ('A' for Active; 'I' for Inactive)
REMARK    1  A    between atoms: C1_1  and  O8_27 
REMARK    2  A    between atoms: C3_3  and  O6_24 
REMARK    3  A    between atoms: C5_5  and  C7_7 
REMARK    4  A    between atoms: C8_8  and  C18_22 
ROOT
HETATM    1  C7  UNL     1       1.615   0.576   0.984  1.00  0.00     0.174 C 
HETATM    2  C8  UNL     1       0.973  -0.377   2.020  1.00  0.00     0.186 C 
HETATM    3  O1  UNL     1      -0.398  -0.601   1.674  1.00  0.00    -0.324 OA
HETATM    4  C9  UNL     1      -1.154   0.426   1.240  1.00  0.00     0.139 A 
HETATM    5  C10 UNL     1      -0.539   1.656   0.877  1.00  0.00     0.119 A 
HETATM    6  O2  UNL     1       0.809   1.760   0.873  1.00  0.00    -0.324 OA
HETATM    7  C11 UNL     1      -1.336   2.770   0.516  1.00  0.00     0.026 A 
HETATM    8  C12 UNL     1      -2.744   2.641   0.443  1.00  0.00     0.004 A 
HETATM    9  C13 UNL     1      -3.346   1.395   0.732  1.00  0.00     0.025 A 
HETATM   10  C14 UNL     1      -2.557   0.283   1.139  1.00  0.00     0.127 A 
HETATM   11  O3  UNL     1      -3.135  -0.904   1.422  1.00  0.00    -0.271 OA
HETATM   12  C15 UNL     1      -4.461  -1.117   1.314  1.00  0.00     0.300 A 
HETATM   13  C16 UNL     1      -5.342   0.000   0.900  1.00  0.00     0.069 A 
HETATM   14  C17 UNL     1      -4.818   1.209   0.621  1.00  0.00     0.007 A 
HETATM   15  O4  UNL     1      -4.961  -2.191   1.547  1.00  0.00    -0.259 OA
ENDROOT
BRANCH   1  16
HETATM   16  C5  UNL     1       1.773  -0.060  -0.359  1.00  0.00     0.012 A 
HETATM   17  C4  UNL     1       1.187   0.531  -1.492  1.00  0.00     0.025 A 
HETATM   18  C3  UNL     1       1.334  -0.064  -2.756  1.00  0.00     0.121 A 
HETATM   19  C2  UNL     1       2.068  -1.260  -2.889  1.00  0.00     0.175 A 
HETATM   20  C1  UNL     1       2.654  -1.853  -1.754  1.00  0.00     0.121 A 
HETATM   21  O7  UNL     1       2.207  -1.820  -4.072  1.00  0.00    -0.186 OA
HETATM   22  C6  UNL     1       2.506  -1.254  -0.492  1.00  0.00     0.025 A 
BRANCH  18  23
HETATM   23  O6  UNL     1       0.783   0.494  -3.815  1.00  0.00    -0.326 OA
HETATM   24  C19 UNL     1       0.006   1.666  -3.619  1.00  0.00     0.181 C 
ENDBRANCH  18  23
BRANCH  20  25
HETATM   25  O8  UNL     1       3.344  -2.971  -1.873  1.00  0.00    -0.326 OA
HETATM   26  C20 UNL     1       3.914  -3.529  -0.699  1.00  0.00     0.181 C 
ENDBRANCH  20  25
ENDBRANCH   1  16
BRANCH   2  27
HETATM   27  C18 UNL     1       1.033   0.219   3.432  1.00  0.00     0.215 C 
HETATM   28  O5  UNL     1       0.465  -0.709   4.326  1.00  0.00    -0.218 OA
ENDBRANCH   2  27
TORSDOF 4
