REMARK  0 active torsions:
REMARK  status: ('A' for Active; 'I' for Inactive)
ROOT
HETATM    1  C1  UNL     1       0.879   1.156   0.490  1.00  0.00     0.179 A 
HETATM    2  C2  UNL     1       2.059   0.397   0.295  1.00  0.00     0.158 A 
HETATM    3  C3  UNL     1       1.979  -0.927  -0.201  1.00  0.00     0.030 A 
HETATM    4  C4  UNL     1       0.722  -1.499  -0.503  1.00  0.00     0.004 A 
HETATM    5  C5  UNL     1      -0.456  -0.739  -0.306  1.00  0.00     0.025 A 
HETATM    6  C6  UNL     1      -0.384   0.591   0.190  1.00  0.00     0.131 A 
HETATM    7  O1  UNL     1      -1.513   1.312   0.374  1.00  0.00    -0.271 OA
HETATM    8  C7  UNL     1      -2.745   0.830   0.109  1.00  0.00     0.300 A 
HETATM    9  C8  UNL     1      -2.886  -0.550  -0.409  1.00  0.00     0.069 A 
HETATM   10  C9  UNL     1      -1.793  -1.311  -0.613  1.00  0.00     0.007 A 
HETATM   11  O2  UNL     1      -3.745   1.487   0.279  1.00  0.00    -0.259 OA
HETATM   12  O3  UNL     1       3.255   0.931   0.580  1.00  0.00    -0.188 OA
HETATM   13  O4  UNL     1       0.956   2.410   0.959  1.00  0.00    -0.186 OA
ENDROOT
TORSDOF 0
