REMARK  1 active torsions:
REMARK  status: ('A' for Active; 'I' for Inactive)
REMARK    1  A    between atoms: C1_1  and  O4_13 
ROOT
HETATM    1  C1  UNL     1       1.012   0.572   0.463  1.00  0.00     0.142 A 
HETATM    2  C2  UNL     1       2.193  -0.187   0.268  1.00  0.00     0.155 A 
HETATM    3  C3  UNL     1       2.113  -1.512  -0.228  1.00  0.00     0.030 A 
HETATM    4  C4  UNL     1       0.855  -2.084  -0.531  1.00  0.00     0.004 A 
HETATM    5  C5  UNL     1      -0.322  -1.324  -0.334  1.00  0.00     0.025 A 
HETATM    6  C6  UNL     1      -0.250   0.006   0.162  1.00  0.00     0.127 A 
HETATM    7  O1  UNL     1      -1.379   0.729   0.348  1.00  0.00    -0.271 OA
HETATM    8  C7  UNL     1      -2.611   0.246   0.082  1.00  0.00     0.300 A 
HETATM    9  C8  UNL     1      -2.752  -1.135  -0.437  1.00  0.00     0.069 A 
HETATM   10  C9  UNL     1      -1.660  -1.894  -0.641  1.00  0.00     0.007 A 
HETATM   11  O2  UNL     1      -3.611   0.902   0.252  1.00  0.00    -0.259 OA
HETATM   12  O3  UNL     1       3.389   0.348   0.553  1.00  0.00    -0.188 OA
ENDROOT
BRANCH   1  13
HETATM   13  O4  UNL     1       1.090   1.824   0.932  1.00  0.00    -0.324 OA
HETATM   14  C10 UNL     1       0.219   2.799   0.377  1.00  0.00     0.182 C 
ENDBRANCH   1  13
TORSDOF 1
