REMARK  5 active torsions:
REMARK  status: ('A' for Active; 'I' for Inactive)
REMARK    1  A    between atoms: C15_16  and  C18_19 
REMARK    2  A    between atoms: C18_19  and  C19_20 
REMARK    3  A    between atoms: C18_19  and  C20_22 
REMARK    4  A    between atoms: C22_25  and  C26_29 
REMARK    5  A    between atoms: C26_29  and  O4_30 
ROOT
HETATM    1  C1  UNL     1       7.232  -1.457   1.537  1.00  0.00    -0.019 C 
HETATM    2  C2  UNL     1       6.424  -2.361   0.637  1.00  0.00     0.048 C 
HETATM    3  C3  UNL     1       4.961  -1.959   0.602  1.00  0.00    -0.038 C 
HETATM    4  C4  UNL     1       4.643  -0.473   0.445  1.00  0.00     0.071 C 
HETATM    5  C5  UNL     1       5.518   0.326   1.406  1.00  0.00     0.175 C 
HETATM    6  C6  UNL     1       6.801  -0.230   1.877  1.00  0.00     0.034 C 
HETATM    7  O1  UNL     1       5.184   1.418   1.803  1.00  0.00    -0.291 OA
HETATM    8  C7  UNL     1       3.133  -0.160   0.686  1.00  0.00     0.011 C 
HETATM    9  C8  UNL     1       2.252  -1.240   0.025  1.00  0.00     0.005 C 
HETATM   10  C9  UNL     1       2.531  -2.600   0.676  1.00  0.00     0.025 C 
HETATM   11  C10 UNL     1       4.008  -2.914   0.705  1.00  0.00    -0.034 C 
HETATM   12  C11 UNL     1       0.754  -0.889   0.053  1.00  0.00     0.000 C 
HETATM   13  C12 UNL     1       0.441   0.475  -0.617  1.00  0.00     0.000 C 
HETATM   14  C13 UNL     1       1.705   1.309  -0.895  1.00  0.00     0.000 C 
HETATM   15  C14 UNL     1       2.701   1.273   0.277  1.00  0.00     0.001 C 
HETATM   16  C15 UNL     1      -0.492   1.195   0.381  1.00  0.00     0.005 C 
HETATM   17  C16 UNL     1      -1.100   0.059   1.195  1.00  0.00     0.000 C 
HETATM   18  C17 UNL     1       0.133  -0.793   1.449  1.00  0.00     0.000 C 
HETATM   19  C28 UNL     1      -0.303   0.189  -1.926  1.00  0.00     0.000 C 
HETATM   20  C29 UNL     1       5.035  -0.086  -0.988  1.00  0.00     0.012 C 
ENDROOT
BRANCH  16  21
HETATM   21  C18 UNL     1      -1.578   2.068  -0.244  1.00  0.00     0.061 C 
BRANCH  21  22
HETATM   22  C19 UNL     1      -1.863   3.260   0.670  1.00  0.00     0.185 C 
HETATM   23  O2  UNL     1      -0.777   4.154   0.580  1.00  0.00    -0.221 OA
ENDBRANCH  21  22
BRANCH  21  24
HETATM   24  C20 UNL     1      -2.822   1.221  -0.516  1.00  0.00     0.131 C 
HETATM   25  O3  UNL     1      -3.414   1.650  -1.748  1.00  0.00    -0.301 OA
HETATM   26  C21 UNL     1      -4.625   1.152  -2.064  1.00  0.00     0.293 C 
HETATM   27  C22 UNL     1      -5.455   0.484  -1.035  1.00  0.00     0.063 C 
HETATM   28  O5  UNL     1      -5.069   1.244  -3.186  1.00  0.00    -0.259 OA
HETATM   29  C23 UNL     1      -5.096   0.547   0.262  1.00  0.00    -0.038 C 
HETATM   30  C24 UNL     1      -3.844   1.301   0.633  1.00  0.00     0.052 C 
HETATM   31  C25 UNL     1      -5.897  -0.117   1.354  1.00  0.00     0.026 C 
BRANCH  27  32
HETATM   32  C26 UNL     1      -6.705  -0.256  -1.447  1.00  0.00     0.173 C 
BRANCH  32  33
HETATM   33  O4  UNL     1      -6.506  -1.641  -1.281  1.00  0.00    -0.347 OA
HETATM   34  C27 UNL     1      -5.697  -2.209  -2.287  1.00  0.00     0.175 C 
ENDBRANCH  32  33
ENDBRANCH  27  32
ENDBRANCH  21  24
ENDBRANCH  16  21
TORSDOF 5
