REMARK  2 active torsions:
REMARK  status: ('A' for Active; 'I' for Inactive)
REMARK    1  A    between atoms: C1_1  and  S1_33 
REMARK    2  A    between atoms: C15_16  and  C18_19 
ROOT
HETATM    1  C1  UNL     1      -5.500   0.584  -1.057  1.00  0.00     0.140 C 
HETATM    2  C2  UNL     1      -4.703   1.848  -1.400  1.00  0.00     0.041 C 
HETATM    3  C3  UNL     1      -3.207   1.604  -1.490  1.00  0.00    -0.041 C 
HETATM    4  C4  UNL     1      -2.656   0.229  -1.119  1.00  0.00     0.066 C 
HETATM    5  C5  UNL     1      -3.408  -0.299   0.100  1.00  0.00     0.154 C 
HETATM    6  C6  UNL     1      -4.910  -0.125   0.166  1.00  0.00     0.084 C 
HETATM    7  O1  UNL     1      -2.836  -0.844   1.016  1.00  0.00    -0.296 OA
HETATM    8  C7  UNL     1      -1.113   0.248  -0.861  1.00  0.00     0.010 C 
HETATM    9  C8  UNL     1      -0.381   1.063  -1.951  1.00  0.00     0.005 C 
HETATM   10  C9  UNL     1      -0.910   2.508  -1.953  1.00  0.00     0.025 C 
HETATM   11  C10 UNL     1      -2.414   2.617  -1.897  1.00  0.00    -0.034 C 
HETATM   12  C11 UNL     1       1.176   1.008  -1.953  1.00  0.00     0.000 C 
HETATM   13  C12 UNL     1       1.770  -0.229  -1.248  1.00  0.00     0.000 C 
HETATM   14  C13 UNL     1       0.820  -1.422  -1.365  1.00  0.00     0.000 C 
HETATM   15  C14 UNL     1      -0.527  -1.178  -0.668  1.00  0.00     0.001 C 
HETATM   16  C15 UNL     1       1.986   0.246   0.201  1.00  0.00     0.005 C 
HETATM   17  C16 UNL     1       2.496   1.674   0.055  1.00  0.00     0.000 C 
HETATM   18  C17 UNL     1       2.008   2.137  -1.316  1.00  0.00     0.000 C 
HETATM   19  C26 UNL     1       3.123  -0.553  -1.891  1.00  0.00     0.000 C 
HETATM   20  C27 UNL     1      -2.965  -0.691  -2.313  1.00  0.00     0.011 C 
ENDROOT
BRANCH  16  21
HETATM   21  C18 UNL     1       2.934  -0.635   1.012  1.00  0.00     0.058 C 
HETATM   22  C19 UNL     1       3.651   0.207   2.100  1.00  0.00     0.130 C 
HETATM   23  O2  UNL     1       5.057   0.244   1.818  1.00  0.00    -0.299 OA
HETATM   24  C23 UNL     1       3.438  -0.404   3.490  1.00  0.00     0.065 C 
HETATM   25  C20 UNL     1       5.778  -0.869   2.057  1.00  0.00     0.333 C 
HETATM   26  C21 UNL     1       5.197  -2.022   2.793  1.00  0.00     0.260 C 
HETATM   27  O5  UNL     1       6.922  -0.961   1.684  1.00  0.00    -0.256 OA
HETATM   28  C22 UNL     1       3.805  -1.897   3.381  1.00  0.00     0.155 C 
HETATM   29  O4  UNL     1       5.838  -3.039   2.924  1.00  0.00    -0.283 OA
HETATM   30  C24 UNL     1       3.713  -2.596   4.742  1.00  0.00     0.038 C 
HETATM   31  O3  UNL     1       2.906  -2.588   2.504  1.00  0.00    -0.351 OA
HETATM   32  C25 UNL     1       2.113  -1.789   1.623  1.00  0.00     0.145 C 
ENDBRANCH  16  21
BRANCH   1  33
HETATM   33  S1  UNL     1      -7.211   1.010  -0.746  1.00  0.00     0.115 S 
HETATM   34  O6  UNL     1      -8.051  -0.279  -0.438  1.00  0.00    -0.594 OA
HETATM   35  O7  UNL     1      -7.764   1.625  -1.940  1.00  0.00    -0.594 OA
HETATM   36  O8  UNL     1      -7.273   1.869   0.422  1.00  0.00    -0.594 OA
ENDBRANCH   1  33
TORSDOF 2
