REMARK  12 active torsions:
REMARK  status: ('A' for Active; 'I' for Inactive)
REMARK    1  A    between atoms: C15_16  and  C18_19 
REMARK    2  A    between atoms: C21_23  and  C26_29 
REMARK    3  A    between atoms: C26_29  and  O4_30 
REMARK    4  A    between atoms: O4_30  and  C27_31 
REMARK    5  A    between atoms: C28_33  and  O12_49 
REMARK    6  A    between atoms: C29_34  and  O10_45 
REMARK    7  A    between atoms: C30_35  and  O8_41 
REMARK    8  A    between atoms: C31_36  and  O6_37 
REMARK    9  A    between atoms: O6_37  and  C32_38 
REMARK   10  A    between atoms: O8_41  and  C34_42 
REMARK   11  A    between atoms: O10_45  and  C36_46 
REMARK   12  A    between atoms: O12_49  and  C38_50 
ROOT
HETATM    1  C18 UNL     1       0.684  -1.357   0.777  1.00  0.00     0.058 C 
HETATM    2  C19 UNL     1      -0.424  -2.371   0.404  1.00  0.00     0.129 C 
HETATM    3  O2  UNL     1      -1.002  -1.969  -0.842  1.00  0.00    -0.304 OA
HETATM    4  C20 UNL     1      -1.869  -0.939  -0.857  1.00  0.00     0.276 C 
HETATM    5  C21 UNL     1      -2.551  -0.420   0.402  1.00  0.00     0.141 C 
HETATM    6  C22 UNL     1      -1.982  -0.998   1.727  1.00  0.00     0.106 C 
HETATM    7  C23 UNL     1      -1.506  -2.436   1.481  1.00  0.00     0.058 C 
HETATM    8  C24 UNL     1      -3.039  -0.947   2.834  1.00  0.00     0.030 C 
HETATM    9  O3  UNL     1      -0.922  -0.143   2.178  1.00  0.00    -0.358 OA
HETATM   10  C25 UNL     1       0.402  -0.662   2.125  1.00  0.00     0.144 C 
HETATM   11  O14 UNL     1      -2.160  -0.406  -1.912  1.00  0.00    -0.264 OA
ENDROOT
BRANCH   5  12
HETATM   12  C26 UNL     1      -2.654   1.119   0.389  1.00  0.00     0.157 C 
BRANCH  12  13
HETATM   13  O4  UNL     1      -3.613   1.488  -0.578  1.00  0.00    -0.328 OA
BRANCH  13  14
HETATM   14  C27 UNL     1      -3.725   2.885  -0.744  1.00  0.00     0.269 C 
HETATM   15  O5  UNL     1      -4.240   3.461   0.457  1.00  0.00    -0.302 OA
HETATM   16  C28 UNL     1      -4.992   4.668   0.328  1.00  0.00     0.275 C 
HETATM   17  C29 UNL     1      -4.533   5.512  -0.877  1.00  0.00     0.211 C 
HETATM   18  C30 UNL     1      -4.678   4.731  -2.199  1.00  0.00     0.190 C 
HETATM   19  C31 UNL     1      -4.611   3.209  -1.965  1.00  0.00     0.211 C 
BRANCH  16  20
HETATM   20  O12 UNL     1      -6.367   4.346   0.176  1.00  0.00    -0.273 OA
BRANCH  20  21
HETATM   21  C38 UNL     1      -6.900   3.858   1.291  1.00  0.00     0.274 C 
HETATM   22  O13 UNL     1      -6.287   3.719   2.324  1.00  0.00    -0.264 OA
HETATM   23  C39 UNL     1      -8.352   3.473   1.195  1.00  0.00     0.106 C 
ENDBRANCH  20  21
ENDBRANCH  16  20
BRANCH  17  24
HETATM   24  O10 UNL     1      -3.172   5.881  -0.695  1.00  0.00    -0.296 OA
BRANCH  24  25
HETATM   25  C36 UNL     1      -3.020   6.809   0.246  1.00  0.00     0.273 C 
HETATM   26  C37 UNL     1      -1.594   7.149   0.586  1.00  0.00     0.106 C 
HETATM   27  O11 UNL     1      -3.941   7.358   0.805  1.00  0.00    -0.264 OA
ENDBRANCH  24  25
ENDBRANCH  17  24
BRANCH  18  28
HETATM   28  O8  UNL     1      -5.924   5.049  -2.805  1.00  0.00    -0.299 OA
BRANCH  28  29
HETATM   29  C34 UNL     1      -6.033   4.547  -4.031  1.00  0.00     0.273 C 
HETATM   30  O9  UNL     1      -6.824   3.686  -4.340  1.00  0.00    -0.264 OA
HETATM   31  C35 UNL     1      -5.086   5.127  -5.047  1.00  0.00     0.106 C 
ENDBRANCH  28  29
ENDBRANCH  18  28
BRANCH  19  32
HETATM   32  O6  UNL     1      -4.094   2.582  -3.131  1.00  0.00    -0.296 OA
BRANCH  32  33
HETATM   33  C32 UNL     1      -4.559   1.346  -3.291  1.00  0.00     0.273 C 
HETATM   34  C33 UNL     1      -4.014   0.607  -4.482  1.00  0.00     0.106 C 
HETATM   35  O7  UNL     1      -5.359   0.828  -2.549  1.00  0.00    -0.264 OA
ENDBRANCH  32  33
ENDBRANCH  19  32
ENDBRANCH  13  14
ENDBRANCH  12  13
ENDBRANCH   5  12
BRANCH   1  36
HETATM   36  C15 UNL     1       2.039  -2.059   0.891  1.00  0.00     0.005 C 
HETATM   37  C12 UNL     1       2.727  -2.363  -0.465  1.00  0.00     0.000 C 
HETATM   38  C11 UNL     1       3.268  -3.807  -0.354  1.00  0.00     0.000 C 
HETATM   39  C13 UNL     1       3.858  -1.371  -0.781  1.00  0.00     0.000 C 
HETATM   40  C40 UNL     1       1.695  -2.373  -1.602  1.00  0.00     0.000 C 
HETATM   41  C8  UNL     1       4.760  -3.879   0.053  1.00  0.00     0.005 C 
HETATM   42  C17 UNL     1       2.227  -4.449   0.566  1.00  0.00     0.000 C 
HETATM   43  C7  UNL     1       5.205  -2.727   0.979  1.00  0.00     0.011 C 
HETATM   44  C9  UNL     1       5.166  -5.242   0.621  1.00  0.00     0.025 C 
HETATM   45  C4  UNL     1       6.602  -2.951   1.682  1.00  0.00     0.071 C 
HETATM   46  C14 UNL     1       5.020  -1.379   0.234  1.00  0.00     0.001 C 
HETATM   47  C3  UNL     1       7.340  -4.205   1.199  1.00  0.00    -0.038 C 
HETATM   48  C5  UNL     1       7.498  -1.721   1.602  1.00  0.00     0.175 C 
HETATM   49  C41 UNL     1       6.383  -3.201   3.184  1.00  0.00     0.012 C 
HETATM   50  C2  UNL     1       8.856  -4.244   1.242  1.00  0.00     0.048 C 
HETATM   51  C10 UNL     1       6.666  -5.279   0.740  1.00  0.00    -0.034 C 
HETATM   52  C1  UNL     1       9.453  -2.953   0.748  1.00  0.00    -0.019 C 
HETATM   53  C6  UNL     1       8.815  -1.787   0.945  1.00  0.00     0.034 C 
HETATM   54  O1  UNL     1       7.143  -0.666   2.076  1.00  0.00    -0.291 OA
HETATM   55  C16 UNL     1       1.893  -3.400   1.613  1.00  0.00     0.000 C 
ENDBRANCH   1  36
TORSDOF 12
