REMARK  6 active torsions:
REMARK  status: ('A' for Active; 'I' for Inactive)
REMARK    1  A    between atoms: C3_3  and  O4_11 
REMARK    2  A    between atoms: C5_6  and  C6_7 
REMARK    3  A    between atoms: C6_7  and  O3_9 
REMARK    4  A    between atoms: O4_11  and  C8_12 
REMARK    5  A    between atoms: C9_14  and  C13_21 
REMARK    6  A    between atoms: C14_23  and  C17_27 
ROOT
HETATM    1  C1  UNL     1      -0.637   2.688   1.451  1.00  0.00     0.073 C 
HETATM    2  C2  UNL     1      -0.910   1.191   1.713  1.00  0.00     0.085 C 
HETATM    3  C3  UNL     1       0.014   0.355   0.810  1.00  0.00     0.246 C 
HETATM    4  O1  UNL     1       1.385   0.709   1.004  1.00  0.00    -0.303 OA
HETATM    5  C4  UNL     1       1.699   2.016   0.955  1.00  0.00     0.120 C 
HETATM    6  C5  UNL     1       0.807   3.014   1.125  1.00  0.00     0.068 C 
HETATM    7  C14 UNL     1      -2.369   1.051   1.361  1.00  0.00    -0.008 C 
HETATM    8  C15 UNL     1      -2.815   2.084   0.637  1.00  0.00     0.001 C 
HETATM    9  C16 UNL     1      -1.713   3.080   0.408  1.00  0.00     0.178 C 
HETATM   10  O10 UNL     1      -1.236   2.951  -0.920  1.00  0.00    -0.218 OA
ENDROOT
BRANCH   3  11
HETATM   11  O4  UNL     1      -0.149  -1.018   1.094  1.00  0.00    -0.304 OA
BRANCH  11  12
HETATM   12  C8  UNL     1       0.607  -1.855   0.244  1.00  0.00     0.272 C 
HETATM   13  O5  UNL     1       0.043  -1.801  -1.059  1.00  0.00    -0.326 OA
HETATM   14  C9  UNL     1       0.730  -2.557  -2.047  1.00  0.00     0.184 C 
HETATM   15  C10 UNL     1       0.709  -4.051  -1.654  1.00  0.00     0.215 C 
HETATM   16  C11 UNL     1       1.281  -4.270  -0.236  1.00  0.00     0.220 C 
HETATM   17  O8  UNL     1       1.473  -4.779  -2.600  1.00  0.00    -0.218 OA
HETATM   18  C12 UNL     1       0.590  -3.316   0.764  1.00  0.00     0.241 C 
HETATM   19  O7  UNL     1       1.076  -5.615   0.162  1.00  0.00    -0.218 OA
HETATM   20  O6  UNL     1       1.262  -3.379   2.012  1.00  0.00    -0.215 OA
BRANCH  14  21
HETATM   21  C13 UNL     1       0.031  -2.277  -3.381  1.00  0.00     0.214 C 
HETATM   22  O9  UNL     1       0.271  -0.934  -3.731  1.00  0.00    -0.218 OA
ENDBRANCH  14  21
ENDBRANCH  11  12
ENDBRANCH   3  11
BRANCH   7  23
HETATM   23  C17 UNL     1      -3.211  -0.119   1.793  1.00  0.00     0.205 C 
HETATM   24  O11 UNL     1      -3.651  -0.826   0.654  1.00  0.00    -0.216 OA
ENDBRANCH   7  23
BRANCH   6  25
HETATM   25  C6  UNL     1       1.209   4.426   1.019  1.00  0.00     0.294 C 
HETATM   26  O2  UNL     1       0.465   5.303   1.391  1.00  0.00    -0.259 OA
BRANCH  25  27
HETATM   27  O3  UNL     1       2.414   4.647   0.500  1.00  0.00    -0.296 OA
HETATM   28  C7  UNL     1       2.723   6.031   0.420  1.00  0.00     0.185 C 
ENDBRANCH  25  27
ENDBRANCH   6  25
TORSDOF 6
