REMARK  14 active torsions:
REMARK  status: ('A' for Active; 'I' for Inactive)
REMARK    1  A    between atoms: C4_4  and  O3_11 
REMARK    2  A    between atoms: C6_6  and  O1_7 
REMARK    3  A    between atoms: O1_7  and  C7_8 
REMARK    4  A    between atoms: O3_11  and  C9_12 
REMARK    5  A    between atoms: C9_12  and  C10_13 
REMARK    6  A    between atoms: C10_13  and  C11_14 
REMARK    7  A    between atoms: C11_14  and  N1_15 
REMARK    8  A    between atoms: C11_14  and  C14_18 
REMARK    9  A    between atoms: C25_31  and  O8_37 
REMARK   10  A    between atoms: C26_32  and  O6_33 
REMARK   11  A    between atoms: O6_33  and  C27_34 
REMARK   12  A    between atoms: O8_37  and  C29_38 
REMARK   13  A    between atoms: C32_42  and  O10_44 
REMARK   14  A    between atoms: O10_44  and  C34_45 
ROOT
HETATM    1  C1  UNL     1       0.691   0.764  -0.271  1.00  0.00     0.061 C 
HETATM    2  C2  UNL     1       1.073  -0.740   0.592  1.00  0.00     0.026 C 
HETATM    3  C3  UNL     1      -0.059  -1.768   0.328  1.00  0.00    -0.017 C 
HETATM    4  C4  UNL     1      -1.498  -1.386  -0.035  1.00  0.00     0.145 C 
HETATM    5  C5  UNL     1      -1.778   0.021   0.621  1.00  0.00     0.065 C 
HETATM    6  C6  UNL     1      -0.707   1.240   0.267  1.00  0.00     0.130 C 
HETATM    7  C20 UNL     1       0.251  -3.062   0.339  1.00  0.00    -0.007 C 
HETATM    8  C21 UNL     1       2.628  -1.645   0.085  1.00  0.00     0.005 C 
HETATM    9  C22 UNL     1       4.354  -1.087   0.199  1.00  0.00     0.007 C 
HETATM   10  C23 UNL     1       4.095   0.183  -0.110  1.00  0.00     0.020 C 
HETATM   11  C24 UNL     1       4.752   1.245  -0.384  1.00  0.00    -0.007 C 
HETATM   12  C25 UNL     1       3.678   2.593  -0.218  1.00  0.00     0.104 C 
HETATM   13  C26 UNL     1       1.722   2.373  -0.287  1.00  0.00     0.171 C 
HETATM   14  C31 UNL     1       6.040   1.089  -0.750  1.00  0.00    -0.019 C 
HETATM   15  C32 UNL     1       6.635  -0.480  -0.786  1.00  0.00     0.142 C 
HETATM   16  C33 UNL     1       5.360  -1.512  -0.904  1.00  0.00     0.035 C 
HETATM   17  C36 UNL     1       6.877   2.284  -1.131  1.00  0.00     0.029 C 
HETATM   18  C37 UNL     1       3.498   0.039  -1.579  1.00  0.00     0.004 C 
HETATM   19  C38 UNL     1       3.617   0.479   1.420  1.00  0.00     0.004 C 
HETATM   20  C39 UNL     1       0.479   0.355  -1.800  1.00  0.00     0.006 C 
ENDROOT
BRANCH   4  21
HETATM   21  O3  UNL     1      -2.287  -2.558   0.386  1.00  0.00    -0.298 OA
BRANCH  21  22
HETATM   22  C9  UNL     1      -3.618  -2.690  -0.045  1.00  0.00     0.305 C 
HETATM   23  O5  UNL     1      -4.104  -1.867  -0.826  1.00  0.00    -0.261 OA
BRANCH  22  24
HETATM   24  C10 UNL     1      -4.300  -4.073   0.250  1.00  0.00     0.273 C 
HETATM   25  O4  UNL     1      -3.307  -4.921  -0.405  1.00  0.00    -0.210 OA
BRANCH  24  26
HETATM   26  C11 UNL     1      -5.900  -4.304  -0.258  1.00  0.00     0.281 C 
BRANCH  26  27
HETATM   27  N1  UNL     1      -6.961  -3.318   0.431  1.00  0.00     0.146 N 
HETATM   28  C12 UNL     1      -8.301  -3.338  -0.215  1.00  0.00     0.286 C 
HETATM   29  C13 UNL     1      -6.647  -1.891   0.414  1.00  0.00     0.286 C 
ENDBRANCH  26  27
BRANCH  26  30
HETATM   30  C14 UNL     1      -6.381  -5.886  -0.037  1.00  0.00     0.012 A 
HETATM   31  C15 UNL     1      -5.495  -6.881  -0.047  1.00  0.00    -0.002 A 
HETATM   32  C16 UNL     1      -5.878  -8.289   0.136  1.00  0.00    -0.000 A 
HETATM   33  C17 UNL     1      -7.151  -8.623   0.311  1.00  0.00    -0.000 A 
HETATM   34  C18 UNL     1      -8.158  -7.582   0.324  1.00  0.00    -0.000 A 
HETATM   35  C19 UNL     1      -7.804  -6.306   0.166  1.00  0.00    -0.002 A 
ENDBRANCH  26  30
ENDBRANCH  24  26
ENDBRANCH  22  24
ENDBRANCH  21  22
ENDBRANCH   4  21
BRANCH   6  36
HETATM   36  O1  UNL     1      -1.151   2.246  -0.667  1.00  0.00    -0.304 OA
BRANCH  36  37
HETATM   37  C7  UNL     1      -2.081   3.129  -0.116  1.00  0.00     0.272 C 
HETATM   38  C8  UNL     1      -2.629   4.240  -0.966  1.00  0.00     0.106 C 
HETATM   39  O2  UNL     1      -2.361   3.079   1.086  1.00  0.00    -0.264 OA
ENDBRANCH  36  37
ENDBRANCH   6  36
BRANCH  13  40
HETATM   40  O6  UNL     1       1.172   3.265   0.719  1.00  0.00    -0.298 OA
BRANCH  40  41
HETATM   41  C27 UNL     1       1.129   4.607   0.267  1.00  0.00     0.273 C 
HETATM   42  C28 UNL     1       0.597   5.689   1.167  1.00  0.00     0.106 C 
HETATM   43  O7  UNL     1       1.484   4.898  -0.882  1.00  0.00    -0.264 OA
ENDBRANCH  40  41
ENDBRANCH  13  40
BRANCH  12  44
HETATM   44  O8  UNL     1       4.269   3.833  -0.729  1.00  0.00    -0.279 OA
BRANCH  44  45
HETATM   45  C29 UNL     1       4.257   4.933   0.154  1.00  0.00     0.277 C 
HETATM   46  C30 UNL     1       4.858   6.235  -0.289  1.00  0.00     0.107 C 
HETATM   47  O9  UNL     1       3.800   4.833   1.298  1.00  0.00    -0.264 OA
ENDBRANCH  44  45
ENDBRANCH  12  44
BRANCH  15  48
HETATM   48  O10 UNL     1       7.333  -0.826   0.458  1.00  0.00    -0.300 OA
BRANCH  48  49
HETATM   49  C34 UNL     1       8.710  -0.407   0.611  1.00  0.00     0.273 C 
HETATM   50  C35 UNL     1       9.531   0.230  -0.497  1.00  0.00     0.106 C 
HETATM   51  O11 UNL     1       9.290  -0.682   1.666  1.00  0.00    -0.264 OA
ENDBRANCH  48  49
ENDBRANCH  15  48
TORSDOF 14
