REMARK  14 active torsions:
REMARK  status: ('A' for Active; 'I' for Inactive)
REMARK    1  A    between atoms: C4_4  and  O2_8 
REMARK    2  A    between atoms: O2_8  and  C7_9 
REMARK    3  A    between atoms: C7_9  and  C8_10 
REMARK    4  A    between atoms: C8_10  and  C9_11 
REMARK    5  A    between atoms: C8_10  and  O3_21 
REMARK    6  A    between atoms: C9_11  and  N1_12 
REMARK    7  A    between atoms: C9_11  and  C12_15 
REMARK    8  A    between atoms: O3_21  and  C18_22 
REMARK    9  A    between atoms: C26_31  and  O7_37 
REMARK   10  A    between atoms: C27_32  and  O5_33 
REMARK   11  A    between atoms: O5_33  and  C28_34 
REMARK   12  A    between atoms: O7_37  and  C30_38 
REMARK   13  A    between atoms: C33_42  and  O9_44 
REMARK   14  A    between atoms: O9_44  and  C35_45 
ROOT
HETATM    1  C1  UNL     1       0.722   0.796  -0.203  1.00  0.00     0.063 C 
HETATM    2  C2  UNL     1       1.123  -0.726   0.630  1.00  0.00     0.026 C 
HETATM    3  C3  UNL     1      -0.039  -1.758   0.298  1.00  0.00    -0.017 C 
HETATM    4  C4  UNL     1      -1.522  -1.343   0.061  1.00  0.00     0.145 C 
HETATM    5  C5  UNL     1      -1.657  -0.060   0.841  1.00  0.00     0.068 C 
HETATM    6  C6  UNL     1      -0.733   1.182   0.362  1.00  0.00     0.158 C 
HETATM    7  O1  UNL     1      -1.361   2.013  -0.614  1.00  0.00    -0.223 OA
HETATM    8  C21 UNL     1       0.272  -3.050   0.213  1.00  0.00    -0.007 C 
HETATM    9  C22 UNL     1       2.685  -1.631   0.098  1.00  0.00     0.005 C 
HETATM   10  C23 UNL     1       4.439  -1.086   0.194  1.00  0.00     0.007 C 
HETATM   11  C24 UNL     1       4.163   0.191  -0.065  1.00  0.00     0.020 C 
HETATM   12  C25 UNL     1       4.823   1.278  -0.361  1.00  0.00    -0.007 C 
HETATM   13  C26 UNL     1       3.670   2.608  -0.076  1.00  0.00     0.104 C 
HETATM   14  C27 UNL     1       1.809   2.422  -0.294  1.00  0.00     0.171 C 
HETATM   15  C32 UNL     1       6.057   1.112  -0.850  1.00  0.00    -0.019 C 
HETATM   16  C33 UNL     1       6.675  -0.457  -0.892  1.00  0.00     0.142 C 
HETATM   17  C34 UNL     1       5.404  -1.496  -0.957  1.00  0.00     0.035 C 
HETATM   18  C37 UNL     1       6.880   2.264  -1.384  1.00  0.00     0.029 C 
HETATM   19  C38 UNL     1       3.537   0.056  -1.528  1.00  0.00     0.004 C 
HETATM   20  C39 UNL     1       3.702   0.424   1.461  1.00  0.00     0.004 C 
HETATM   21  C40 UNL     1       0.513   0.330  -1.712  1.00  0.00     0.006 C 
ENDROOT
BRANCH   4  22
HETATM   22  O2  UNL     1      -2.374  -2.504   0.394  1.00  0.00    -0.298 OA
BRANCH  22  23
HETATM   23  C7  UNL     1      -3.783  -2.309   0.304  1.00  0.00     0.302 C 
HETATM   24  O4  UNL     1      -4.213  -1.171   0.136  1.00  0.00    -0.261 OA
BRANCH  23  25
HETATM   25  C8  UNL     1      -4.775  -3.564   0.362  1.00  0.00     0.242 C 
BRANCH  25  26
HETATM   26  C9  UNL     1      -6.407  -3.273   0.205  1.00  0.00     0.279 C 
BRANCH  26  27
HETATM   27  N1  UNL     1      -6.858  -2.675  -1.195  1.00  0.00     0.146 N 
HETATM   28  C10 UNL     1      -8.315  -2.454  -1.290  1.00  0.00     0.286 C 
HETATM   29  C11 UNL     1      -6.306  -1.378  -1.579  1.00  0.00     0.286 C 
ENDBRANCH  26  27
BRANCH  26  30
HETATM   30  C12 UNL     1      -7.181  -4.674   0.398  1.00  0.00     0.012 A 
HETATM   31  C13 UNL     1      -6.558  -5.836   0.182  1.00  0.00    -0.002 A 
HETATM   32  C14 UNL     1      -7.245  -7.121   0.333  1.00  0.00    -0.000 A 
HETATM   33  C15 UNL     1      -8.527  -7.158   0.684  1.00  0.00    -0.000 A 
HETATM   34  C16 UNL     1      -9.238  -5.911   0.948  1.00  0.00    -0.000 A 
HETATM   35  C17 UNL     1      -8.610  -4.740   0.832  1.00  0.00    -0.002 A 
ENDBRANCH  26  30
ENDBRANCH  25  26
BRANCH  25  36
HETATM   36  O3  UNL     1      -4.376  -4.516  -0.699  1.00  0.00    -0.325 OA
BRANCH  36  37
HETATM   37  C18 UNL     1      -3.176  -5.289  -0.533  1.00  0.00     0.073 C 
HETATM   38  C19 UNL     1      -2.775  -6.218  -1.641  1.00  0.00     0.058 C 
HETATM   39  C20 UNL     1      -2.468  -5.311   0.597  1.00  0.00     0.021 C 
ENDBRANCH  36  37
ENDBRANCH  25  36
ENDBRANCH  23  25
ENDBRANCH  22  23
ENDBRANCH   4  22
BRANCH  14  40
HETATM   40  O5  UNL     1       1.516   3.414   0.739  1.00  0.00    -0.298 OA
BRANCH  40  41
HETATM   41  C28 UNL     1       0.409   4.242   0.457  1.00  0.00     0.273 C 
HETATM   42  C29 UNL     1      -0.007   5.290   1.444  1.00  0.00     0.106 C 
HETATM   43  O6  UNL     1      -0.186   4.154  -0.623  1.00  0.00    -0.264 OA
ENDBRANCH  40  41
ENDBRANCH  14  40
BRANCH  13  44
HETATM   44  O7  UNL     1       4.077   3.962  -0.508  1.00  0.00    -0.279 OA
BRANCH  44  45
HETATM   45  C30 UNL     1       5.150   4.643   0.196  1.00  0.00     0.277 C 
HETATM   46  C31 UNL     1       5.832   4.099   1.447  1.00  0.00     0.107 C 
HETATM   47  O8  UNL     1       5.496   5.757  -0.211  1.00  0.00    -0.264 OA
ENDBRANCH  44  45
ENDBRANCH  13  44
BRANCH  16  48
HETATM   48  O9  UNL     1       7.380  -0.783   0.356  1.00  0.00    -0.300 OA
BRANCH  48  49
HETATM   49  C35 UNL     1       8.746  -0.332   0.511  1.00  0.00     0.273 C 
HETATM   50  C36 UNL     1       9.556   0.312  -0.597  1.00  0.00     0.106 C 
HETATM   51  O10 UNL     1       9.326  -0.582   1.573  1.00  0.00    -0.264 OA
ENDBRANCH  48  49
ENDBRANCH  16  48
TORSDOF 14
