REMARK  8 active torsions:
REMARK  status: ('A' for Active; 'I' for Inactive)
REMARK    1  A    between atoms: C4_4  and  C7_7 
REMARK    2  A    between atoms: C17_20  and  C31_39 
REMARK    3  A    between atoms: C19_24  and  N3_25 
REMARK       I    between atoms: N3_25  and  C20_26 
REMARK    4  A    between atoms: C20_26  and  C21_28 
REMARK    5  A    between atoms: C21_28  and  N4_29 
REMARK    6  A    between atoms: C21_28  and  C24_32 
REMARK    7  A    between atoms: C24_32  and  C25_33 
REMARK    8  A    between atoms: C31_39  and  C32_40 
ROOT
HETATM    1  C7  UNL     1      -0.435  -2.002   0.986  1.00  0.00     0.175 C 
HETATM    2  O1  UNL     1       0.760  -2.674   0.517  1.00  0.00    -0.326 OA
HETATM    3  C8  UNL     1       1.940  -2.070   0.506  1.00  0.00     0.094 C 
HETATM    4  C9  UNL     1       2.543  -1.572   1.680  1.00  0.00     0.024 C 
HETATM    5  C10 UNL     1       3.633  -0.695   1.586  1.00  0.00     0.002 C 
HETATM    6  C11 UNL     1       4.084  -0.301   0.314  1.00  0.00     0.002 C 
HETATM    7  C12 UNL     1       3.690  -1.019  -0.826  1.00  0.00     0.002 C 
HETATM    8  C13 UNL     1       2.600  -1.900  -0.727  1.00  0.00     0.024 C 
HETATM    9  C14 UNL     1       4.873   0.971   0.168  1.00  0.00     0.021 C 
HETATM   10  C15 UNL     1       4.203   2.158   0.185  1.00  0.00     0.102 C 
HETATM   11  N1  UNL     1       2.824   2.225   0.355  1.00  0.00    -0.209 NA
HETATM   12  C16 UNL     1       2.006   3.324   0.373  1.00  0.00     0.278 C 
HETATM   13  O2  UNL     1       2.465   4.430   0.199  1.00  0.00    -0.268 OA
HETATM   14  C17 UNL     1       0.500   3.147   0.621  1.00  0.00     0.186 C 
HETATM   15  N2  UNL     1      -0.131   1.859   0.148  1.00  0.00    -0.229 NA
HETATM   16  C18 UNL     1      -0.060   0.648   0.832  1.00  0.00     0.277 C 
HETATM   17  O3  UNL     1       0.539   0.604   1.881  1.00  0.00    -0.268 OA
HETATM   18  C19 UNL     1      -0.736  -0.621   0.287  1.00  0.00     0.218 C 
ENDROOT
BRANCH  18  19
HETATM   19  N3  UNL     1      -0.580  -0.769  -1.180  1.00  0.00    -0.226 NA
HETATM   20  C20 UNL     1      -1.562  -0.305  -2.008  1.00  0.00     0.284 C 
HETATM   21  O4  UNL     1      -2.549   0.221  -1.551  1.00  0.00    -0.268 OA
BRANCH  20  22
HETATM   22  C21 UNL     1      -1.389  -0.465  -3.494  1.00  0.00     0.303 C 
BRANCH  22  23
HETATM   23  N4  UNL     1      -0.273   0.344  -3.957  1.00  0.00     0.149 N 
HETATM   24  C22 UNL     1       0.037   0.039  -5.344  1.00  0.00     0.286 C 
HETATM   25  C23 UNL     1      -0.568   1.758  -3.801  1.00  0.00     0.286 C 
ENDBRANCH  22  23
BRANCH  22  26
HETATM   26  C24 UNL     1      -1.199  -1.924  -3.906  1.00  0.00     0.070 C 
BRANCH  26  27
HETATM   27  C25 UNL     1      -2.209  -2.809  -3.268  1.00  0.00    -0.020 A 
HETATM   28  C26 UNL     1      -1.822  -3.703  -2.256  1.00  0.00    -0.004 A 
HETATM   29  C27 UNL     1      -2.777  -4.539  -1.652  1.00  0.00    -0.000 A 
HETATM   30  C28 UNL     1      -4.121  -4.480  -2.061  1.00  0.00    -0.000 A 
HETATM   31  C29 UNL     1      -4.510  -3.586  -3.074  1.00  0.00    -0.000 A 
HETATM   32  C30 UNL     1      -3.555  -2.750  -3.678  1.00  0.00    -0.004 A 
ENDBRANCH  26  27
ENDBRANCH  22  26
ENDBRANCH  20  22
ENDBRANCH  18  19
BRANCH   1  33
HETATM   33  C4  UNL     1      -0.527  -1.982   2.477  1.00  0.00     0.007 A 
HETATM   34  C3  UNL     1       0.153  -2.951   3.236  1.00  0.00    -0.002 A 
HETATM   35  C2  UNL     1       0.065  -2.932   4.639  1.00  0.00    -0.000 A 
HETATM   36  C1  UNL     1      -0.701  -1.943   5.283  1.00  0.00    -0.000 A 
HETATM   37  C6  UNL     1      -1.381  -0.975   4.523  1.00  0.00    -0.000 A 
HETATM   38  C5  UNL     1      -1.293  -0.994   3.121  1.00  0.00    -0.002 A 
ENDBRANCH   1  33
BRANCH  14  39
HETATM   39  C31 UNL     1       0.170   3.408   2.094  1.00  0.00     0.032 C 
HETATM   40  C34 UNL     1      -1.330   3.342   2.383  1.00  0.00     0.003 C 
BRANCH  39  41
HETATM   41  C32 UNL     1       0.819   4.688   2.625  1.00  0.00     0.002 C 
HETATM   42  C33 UNL     1       0.455   4.971   4.084  1.00  0.00     0.000 C 
ENDBRANCH  39  41
ENDBRANCH  14  39
TORSDOF 8
