REMARK  14 active torsions:
REMARK  status: ('A' for Active; 'I' for Inactive)
REMARK    1  A    between atoms: C2_2  and  C43_55 
REMARK    2  A    between atoms: C3_3  and  O9_38 
REMARK    3  A    between atoms: C6_6  and  O2_9 
REMARK    4  A    between atoms: O2_9  and  C8_10 
REMARK    5  A    between atoms: C8_10  and  C9_11 
REMARK    6  A    between atoms: C15_18  and  O7_28 
REMARK    7  A    between atoms: C18_21  and  O5_24 
REMARK    8  A    between atoms: O5_24  and  C20_25 
REMARK    9  A    between atoms: O7_28  and  C22_29 
REMARK   10  A    between atoms: C22_29  and  C23_30 
REMARK   11  A    between atoms: O9_38  and  C30_39 
REMARK   12  A    between atoms: C30_39  and  C31_40 
REMARK   13  A    between atoms: C38_48  and  O11_51 
REMARK   14  A    between atoms: O11_51  and  C41_52 
ROOT
HETATM    1  C1  UNL     1      -2.047  -0.142   0.451  1.00  0.00    -0.013 C 
HETATM    2  C2  UNL     1      -1.750  -1.617   0.527  1.00  0.00     0.071 C 
HETATM    3  C3  UNL     1      -0.455  -2.035  -0.191  1.00  0.00     0.133 C 
HETATM    4  C4  UNL     1       0.920  -1.838   0.510  1.00  0.00     0.063 C 
HETATM    5  C5  UNL     1       1.303  -0.369   0.891  1.00  0.00     0.059 C 
HETATM    6  C6  UNL     1       0.188   0.432   1.631  1.00  0.00     0.161 C 
HETATM    7  C7  UNL     1      -1.021   0.926   0.787  1.00  0.00     0.198 C 
HETATM    8  O1  UNL     1      -1.670   1.949   1.525  1.00  0.00    -0.216 OA
HETATM    9  C15 UNL     1       1.803   0.365  -0.379  1.00  0.00     0.130 C 
HETATM   10  C16 UNL     1       3.106  -0.230  -0.939  1.00  0.00     0.062 C 
HETATM   11  C17 UNL     1       3.242  -1.764  -0.853  1.00  0.00     0.146 C 
HETATM   12  C18 UNL     1       2.057  -2.574  -0.260  1.00  0.00     0.156 C 
HETATM   13  C19 UNL     1       3.287  -3.027   0.555  1.00  0.00     0.172 C 
HETATM   14  O4  UNL     1       4.240  -2.100   0.094  1.00  0.00    -0.351 OA
HETATM   15  C29 UNL     1       2.473  -0.445   1.895  1.00  0.00     0.005 C 
HETATM   16  C37 UNL     1      -2.955  -2.262  -0.209  1.00  0.00     0.043 C 
HETATM   17  C38 UNL     1      -4.065  -1.209  -0.125  1.00  0.00     0.142 C 
HETATM   18  C39 UNL     1      -3.311   0.072   0.051  1.00  0.00    -0.022 C 
HETATM   19  C40 UNL     1      -3.947   1.414  -0.209  1.00  0.00     0.028 C 
ENDROOT
BRANCH   3  20
HETATM   20  O9  UNL     1      -0.420  -1.461  -1.494  1.00  0.00    -0.300 OA
BRANCH  20  21
HETATM   21  C30 UNL     1      -0.936  -2.268  -2.416  1.00  0.00     0.296 C 
HETATM   22  O10 UNL     1      -0.719  -3.455  -2.471  1.00  0.00    -0.259 OA
BRANCH  21  23
HETATM   23  C31 UNL     1      -1.826  -1.603  -3.414  1.00  0.00     0.063 A 
HETATM   24  C32 UNL     1      -2.197  -0.256  -3.242  1.00  0.00     0.005 A 
HETATM   25  C33 UNL     1      -3.035   0.367  -4.182  1.00  0.00     0.000 A 
HETATM   26  C34 UNL     1      -3.506  -0.353  -5.293  1.00  0.00     0.000 A 
HETATM   27  C35 UNL     1      -3.137  -1.697  -5.467  1.00  0.00     0.000 A 
HETATM   28  C36 UNL     1      -2.299  -2.324  -4.527  1.00  0.00     0.005 A 
ENDBRANCH  21  23
ENDBRANCH  20  21
ENDBRANCH   3  20
BRANCH   2  29
HETATM   29  C43 UNL     1      -1.813  -2.125   1.967  1.00  0.00     0.132 C 
HETATM   30  C44 UNL     1      -2.705  -1.199   2.795  1.00  0.00     0.033 C 
HETATM   31  O13 UNL     1      -0.514  -2.092   2.514  1.00  0.00    -0.226 OA
HETATM   32  C45 UNL     1      -2.299  -3.574   1.975  1.00  0.00     0.033 C 
ENDBRANCH   2  29
BRANCH  12  33
HETATM   33  O5  UNL     1       1.555  -3.588  -1.121  1.00  0.00    -0.302 OA
BRANCH  33  34
HETATM   34  C20 UNL     1       1.664  -3.262  -2.406  1.00  0.00     0.272 C 
HETATM   35  C21 UNL     1       1.445  -1.805  -2.717  1.00  0.00     0.106 C 
HETATM   36  O6  UNL     1       1.922  -4.053  -3.281  1.00  0.00    -0.264 OA
ENDBRANCH  33  34
ENDBRANCH  12  33
BRANCH  17  37
HETATM   37  O11 UNL     1      -4.846  -1.201  -1.314  1.00  0.00    -0.300 OA
BRANCH  37  38
HETATM   38  C41 UNL     1      -6.031  -0.625  -1.137  1.00  0.00     0.273 C 
HETATM   39  C42 UNL     1      -6.910  -0.584  -2.357  1.00  0.00     0.106 C 
HETATM   40  O12 UNL     1      -6.402  -0.160  -0.086  1.00  0.00    -0.264 OA
ENDBRANCH  37  38
ENDBRANCH  17  37
BRANCH   6  41
HETATM   41  O2  UNL     1       0.805   1.565   2.244  1.00  0.00    -0.298 OA
BRANCH  41  42
HETATM   42  C8  UNL     1       0.762   1.508   3.572  1.00  0.00     0.296 C 
HETATM   43  O3  UNL     1       0.193   0.637   4.190  1.00  0.00    -0.259 OA
BRANCH  42  44
HETATM   44  C9  UNL     1       1.477   2.610   4.281  1.00  0.00     0.063 A 
HETATM   45  C10 UNL     1       1.602   2.582   5.682  1.00  0.00     0.005 A 
HETATM   46  C11 UNL     1       2.273   3.621   6.350  1.00  0.00     0.000 A 
HETATM   47  C12 UNL     1       2.822   4.690   5.617  1.00  0.00     0.000 A 
HETATM   48  C13 UNL     1       2.697   4.717   4.217  1.00  0.00     0.000 A 
HETATM   49  C14 UNL     1       2.023   3.680   3.549  1.00  0.00     0.005 A 
ENDBRANCH  42  44
ENDBRANCH  41  42
ENDBRANCH   6  41
BRANCH   9  50
HETATM   50  O7  UNL     1       2.023   1.742  -0.105  1.00  0.00    -0.301 OA
BRANCH  50  51
HETATM   51  C22 UNL     1       2.285   2.442  -1.207  1.00  0.00     0.296 C 
HETATM   52  O8  UNL     1       1.484   2.629  -2.092  1.00  0.00    -0.259 OA
BRANCH  51  53
HETATM   53  C23 UNL     1       3.668   2.998  -1.293  1.00  0.00     0.063 A 
HETATM   54  C24 UNL     1       4.705   2.432  -0.529  1.00  0.00     0.005 A 
HETATM   55  C25 UNL     1       6.008   2.955  -0.611  1.00  0.00     0.000 A 
HETATM   56  C26 UNL     1       6.274   4.047  -1.455  1.00  0.00     0.000 A 
HETATM   57  C27 UNL     1       5.240   4.615  -2.219  1.00  0.00     0.000 A 
HETATM   58  C28 UNL     1       3.938   4.090  -2.139  1.00  0.00     0.005 A 
ENDBRANCH  51  53
ENDBRANCH  50  51
ENDBRANCH   9  50
TORSDOF 14
