REMARK  6 active torsions:
REMARK  status: ('A' for Active; 'I' for Inactive)
REMARK    1  A    between atoms: C6_6  and  O1_7 
REMARK    2  A    between atoms: O1_7  and  C7_8 
REMARK    3  A    between atoms: C14_17  and  O6_23 
REMARK    4  A    between atoms: C15_18  and  O4_19 
REMARK    5  A    between atoms: O4_19  and  C16_20 
REMARK    6  A    between atoms: O6_23  and  C18_24 
ROOT
HETATM    1  C1  UNL     1       1.172   0.267  -0.141  1.00  0.00     0.060 C 
HETATM    2  C2  UNL     1       1.041   1.609   0.764  1.00  0.00     0.056 C 
HETATM    3  C3  UNL     1       2.365   2.353   0.895  1.00  0.00    -0.012 C 
HETATM    4  C4  UNL     1       3.289   2.271  -0.297  1.00  0.00     0.173 C 
HETATM    5  C5  UNL     1       3.715   0.810  -0.512  1.00  0.00     0.068 C 
HETATM    6  C6  UNL     1       2.662  -0.205  -0.012  1.00  0.00     0.130 C 
HETATM    7  O3  UNL     1       4.438   3.094  -0.186  1.00  0.00    -0.219 OA
HETATM    8  C9  UNL     1       2.680   3.025   2.022  1.00  0.00    -0.007 C 
HETATM    9  C10 UNL     1      -0.053   2.725   0.441  1.00  0.00     0.157 C 
HETATM   10  C11 UNL     1      -1.332   2.162  -0.178  1.00  0.00     0.041 C 
HETATM   11  C12 UNL     1      -1.976   0.986   0.596  1.00  0.00     0.035 C 
HETATM   12  C13 UNL     1      -1.967  -0.004  -0.594  1.00  0.00     0.065 C 
HETATM   13  C14 UNL     1      -1.246  -1.240  -0.082  1.00  0.00     0.155 C 
HETATM   14  C15 UNL     1       0.281  -1.000   0.297  1.00  0.00     0.154 C 
HETATM   15  C20 UNL     1      -3.344   0.432  -1.154  1.00  0.00     0.146 C 
HETATM   16  C21 UNL     1      -3.308   1.892  -1.668  1.00  0.00     0.175 C 
HETATM   17  C22 UNL     1      -2.457   2.922  -0.902  1.00  0.00     0.070 C 
HETATM   18  O8  UNL     1      -3.928   2.223  -2.654  1.00  0.00    -0.294 OA
HETATM   19  C23 UNL     1      -3.894  -0.570  -2.164  1.00  0.00     0.037 C 
HETATM   20  O9  UNL     1      -4.154   0.418  -0.020  1.00  0.00    -0.352 OA
HETATM   21  C24 UNL     1      -3.471   1.031   1.037  1.00  0.00     0.143 C 
HETATM   22  C25 UNL     1      -1.402   0.687   1.986  1.00  0.00     0.003 C 
HETATM   23  O10 UNL     1      -0.394   3.455   1.606  1.00  0.00    -0.223 OA
HETATM   24  C26 UNL     1       1.014   0.549  -1.643  1.00  0.00     0.005 C 
ENDROOT
BRANCH   6  25
HETATM   25  O1  UNL     1       2.885  -1.420  -0.721  1.00  0.00    -0.304 OA
BRANCH  25  26
HETATM   26  C7  UNL     1       3.996  -2.037  -0.330  1.00  0.00     0.272 C 
HETATM   27  C8  UNL     1       4.383  -3.238  -1.150  1.00  0.00     0.106 C 
HETATM   28  O2  UNL     1       4.666  -1.686   0.611  1.00  0.00    -0.264 OA
ENDBRANCH  25  26
ENDBRANCH   6  25
BRANCH  14  29
HETATM   29  O4  UNL     1       0.455  -1.217   1.691  1.00  0.00    -0.302 OA
BRANCH  29  30
HETATM   30  C16 UNL     1       0.223  -2.481   2.039  1.00  0.00     0.272 C 
HETATM   31  O5  UNL     1      -0.031  -3.360   1.250  1.00  0.00    -0.264 OA
HETATM   32  C17 UNL     1       0.297  -2.762   3.516  1.00  0.00     0.106 C 
ENDBRANCH  29  30
ENDBRANCH  14  29
BRANCH  13  33
HETATM   33  O6  UNL     1      -1.324  -2.236  -1.094  1.00  0.00    -0.302 OA
BRANCH  33  34
HETATM   34  C18 UNL     1      -2.428  -2.975  -0.994  1.00  0.00     0.272 C 
HETATM   35  C19 UNL     1      -2.601  -4.014  -2.068  1.00  0.00     0.106 C 
HETATM   36  O7  UNL     1      -3.246  -2.844  -0.115  1.00  0.00    -0.264 OA
ENDBRANCH  33  34
ENDBRANCH  13  33
TORSDOF 6
