REMARK  9 active torsions:
REMARK  status: ('A' for Active; 'I' for Inactive)
REMARK    1  A    between atoms: C1_1  and  C7_7 
REMARK    2  A    between atoms: C8_8  and  N3_32 
REMARK    3  A    between atoms: C10_12  and  C20_25 
REMARK    4  A    between atoms: C20_25  and  C21_26 
REMARK       I    between atoms: N3_32  and  C27_33 
REMARK    5  A    between atoms: C27_33  and  C28_34 
REMARK       I    between atoms: N4_38  and  C32_39 
REMARK    6  A    between atoms: C32_39  and  C33_41 
REMARK    7  A    between atoms: C33_41  and  N5_42 
REMARK    8  A    between atoms: C33_41  and  C36_45 
REMARK    9  A    between atoms: C36_45  and  C37_46 
ROOT
HETATM    1  C7  UNL     1      -0.840  -1.496   1.957  1.00  0.00     0.175 C 
HETATM    2  C8  UNL     1      -0.545  -0.131   1.223  1.00  0.00     0.218 C 
HETATM    3  C9  UNL     1      -1.221   1.150   1.738  1.00  0.00     0.277 C 
HETATM    4  O1  UNL     1      -1.810   1.131   2.793  1.00  0.00    -0.268 OA
HETATM    5  N1  UNL     1      -1.164   2.344   1.021  1.00  0.00    -0.228 NA
HETATM    6  C10 UNL     1      -1.801   3.639   1.461  1.00  0.00     0.191 C 
HETATM    7  C11 UNL     1      -3.305   3.803   1.203  1.00  0.00     0.279 C 
HETATM    8  O2  UNL     1      -3.767   4.898   0.986  1.00  0.00    -0.268 OA
HETATM    9  N2  UNL     1      -4.119   2.699   1.225  1.00  0.00    -0.209 NA
HETATM   10  C12 UNL     1      -5.496   2.621   1.053  1.00  0.00     0.102 C 
HETATM   11  C13 UNL     1      -6.162   1.432   1.068  1.00  0.00     0.021 C 
HETATM   12  C14 UNL     1      -5.369   0.166   1.252  1.00  0.00     0.002 C 
HETATM   13  C15 UNL     1      -4.906  -0.184   2.533  1.00  0.00     0.002 C 
HETATM   14  C16 UNL     1      -3.812  -1.055   2.646  1.00  0.00     0.024 C 
HETATM   15  C17 UNL     1      -3.217  -1.588   1.486  1.00  0.00     0.094 C 
HETATM   16  O3  UNL     1      -2.033  -2.184   1.510  1.00  0.00    -0.326 OA
HETATM   17  C18 UNL     1      -3.887  -1.461   0.254  1.00  0.00     0.024 C 
HETATM   18  C19 UNL     1      -4.980  -0.588   0.133  1.00  0.00     0.002 C 
ENDROOT
BRANCH   2  19
HETATM   19  N3  UNL     1      -0.703  -0.318  -0.238  1.00  0.00    -0.226 NA
HETATM   20  C27 UNL     1       0.352  -0.059  -1.067  1.00  0.00     0.272 C 
HETATM   21  O5  UNL     1       1.404   0.320  -0.613  1.00  0.00    -0.269 OA
BRANCH  20  22
HETATM   22  C28 UNL     1       0.170  -0.254  -2.553  1.00  0.00     0.165 C 
HETATM   23  C29 UNL     1       0.080   1.068  -3.326  1.00  0.00     0.034 C 
HETATM   24  C30 UNL     1       0.654   0.727  -4.711  1.00  0.00     0.027 C 
HETATM   25  C31 UNL     1       1.752  -0.291  -4.393  1.00  0.00     0.105 C 
HETATM   26  N4  UNL     1       1.289  -0.938  -3.182  1.00  0.00    -0.312 N 
HETATM   27  C32 UNL     1       1.863  -2.117  -2.680  1.00  0.00     0.266 C 
HETATM   28  O4  UNL     1       1.383  -2.660  -1.713  1.00  0.00    -0.270 OA
BRANCH  27  29
HETATM   29  C33 UNL     1       3.076  -2.688  -3.365  1.00  0.00     0.301 C 
BRANCH  29  30
HETATM   30  N5  UNL     1       4.272  -2.400  -2.590  1.00  0.00     0.149 N 
HETATM   31  C34 UNL     1       4.623  -0.994  -2.701  1.00  0.00     0.286 C 
HETATM   32  C35 UNL     1       4.074  -2.768  -1.197  1.00  0.00     0.286 C 
ENDBRANCH  29  30
BRANCH  29  33
HETATM   33  C36 UNL     1       2.951  -4.190  -3.619  1.00  0.00     0.070 C 
BRANCH  33  34
HETATM   34  C37 UNL     1       4.192  -4.748  -4.221  1.00  0.00    -0.020 A 
HETATM   35  C38 UNL     1       4.963  -5.680  -3.502  1.00  0.00    -0.004 A 
HETATM   36  C39 UNL     1       6.135  -6.207  -4.070  1.00  0.00    -0.000 A 
HETATM   37  C40 UNL     1       6.537  -5.805  -5.358  1.00  0.00    -0.000 A 
HETATM   38  C41 UNL     1       5.766  -4.875  -6.074  1.00  0.00    -0.000 A 
HETATM   39  C42 UNL     1       4.592  -4.348  -5.506  1.00  0.00    -0.004 A 
ENDBRANCH  33  34
ENDBRANCH  29  33
ENDBRANCH  27  29
ENDBRANCH  20  22
ENDBRANCH   2  19
BRANCH   1  40
HETATM   40  C1  UNL     1      -0.740  -1.440   3.439  1.00  0.00     0.007 A 
HETATM   41  C2  UNL     1      -1.435  -2.373   4.227  1.00  0.00    -0.002 A 
HETATM   42  C3  UNL     1      -1.342  -2.318   5.629  1.00  0.00    -0.000 A 
HETATM   43  C4  UNL     1      -0.553  -1.332   6.242  1.00  0.00    -0.000 A 
HETATM   44  C5  UNL     1       0.143  -0.398   5.455  1.00  0.00    -0.000 A 
HETATM   45  C6  UNL     1       0.049  -0.451   4.055  1.00  0.00    -0.002 A 
ENDBRANCH   1  40
BRANCH   6  46
HETATM   46  C20 UNL     1      -1.474   3.938   2.930  1.00  0.00     0.060 C 
BRANCH  46  47
HETATM   47  C21 UNL     1      -1.631   5.383   3.240  1.00  0.00    -0.020 A 
HETATM   48  C22 UNL     1      -2.814   5.852   3.838  1.00  0.00    -0.004 A 
HETATM   49  C23 UNL     1      -2.961   7.219   4.131  1.00  0.00    -0.000 A 
HETATM   50  C24 UNL     1      -1.924   8.117   3.828  1.00  0.00    -0.000 A 
HETATM   51  C25 UNL     1      -0.740   7.650   3.232  1.00  0.00    -0.000 A 
HETATM   52  C26 UNL     1      -0.594   6.283   2.937  1.00  0.00    -0.004 A 
ENDBRANCH  46  47
ENDBRANCH   6  46
TORSDOF 9
