REMARK  0 active torsions:
REMARK  status: ('A' for Active; 'I' for Inactive)
ROOT
HETATM    1  C1  UNL     1       1.308   1.090   0.619  1.00  0.00     0.017 A 
HETATM    2  C2  UNL     1       1.101  -0.410   0.473  1.00  0.00     0.071 A 
HETATM    3  C3  UNL     1       2.525  -0.895   0.236  1.00  0.00    -0.035 A 
HETATM    4  C4  UNL     1       3.424   0.103   0.230  1.00  0.00     0.034 A 
HETATM    5  C5  UNL     1       2.742   1.365   0.467  1.00  0.00     0.191 A 
HETATM    6  O1  UNL     1       3.283   2.445   0.525  1.00  0.00    -0.287 OA
HETATM    7  C6  UNL     1       2.877  -2.346   0.041  1.00  0.00     0.027 C 
HETATM    8  C7  UNL     1       0.138  -0.734  -0.678  1.00  0.00     0.133 C 
HETATM    9  C8  UNL     1      -1.330  -0.555  -0.273  1.00  0.00     0.041 C 
HETATM   10  C9  UNL     1      -1.785   0.900  -0.180  1.00  0.00     0.040 C 
HETATM   11  C10 UNL     1      -1.127   1.600   1.033  1.00  0.00     0.170 C 
HETATM   12  C11 UNL     1       0.334   2.002   0.840  1.00  0.00    -0.015 C 
HETATM   13  C12 UNL     1       0.699   3.469   0.906  1.00  0.00     0.029 C 
HETATM   14  O2  UNL     1      -1.926   2.723   1.359  1.00  0.00    -0.219 OA
HETATM   15  C13 UNL     1      -1.985  -1.391  -1.377  1.00  0.00     0.089 C 
HETATM   16  C14 UNL     1      -0.928  -2.436  -1.600  1.00  0.00     0.271 C 
HETATM   17  O3  UNL     1       0.254  -2.090  -1.102  1.00  0.00    -0.304 OA
HETATM   18  O4  UNL     1      -1.155  -3.479  -2.166  1.00  0.00    -0.264 OA
HETATM   19  C15 UNL     1      -3.334  -1.953  -0.938  1.00  0.00     0.011 C 
ENDROOT
TORSDOF 0
