REMARK  4 active torsions:
REMARK  status: ('A' for Active; 'I' for Inactive)
REMARK    1  A    between atoms: C1_1  and  N2_26 
REMARK    2  A    between atoms: C15_15  and  C18_18 
REMARK    3  A    between atoms: C18_18  and  N1_20 
REMARK       I    between atoms: N2_26  and  C25_28 
REMARK    4  A    between atoms: C25_28  and  C26_29 
ROOT
HETATM    1  C1  UNL     1      -3.922   0.590  -0.326  1.00  0.00     0.114 C 
HETATM    2  C2  UNL     1      -3.158  -0.752  -0.490  1.00  0.00     0.172 C 
HETATM    3  C3  UNL     1      -1.607  -0.584  -0.498  1.00  0.00     0.032 C 
HETATM    4  C4  UNL     1      -1.123   0.625   0.350  1.00  0.00     0.003 C 
HETATM    5  C5  UNL     1      -1.764   1.934  -0.193  1.00  0.00     0.002 C 
HETATM    6  C6  UNL     1      -3.111   1.750  -0.916  1.00  0.00     0.025 C 
HETATM    7  C7  UNL     1       0.428   0.750   0.281  1.00  0.00     0.000 C 
HETATM    8  C8  UNL     1       1.139  -0.572   0.647  1.00  0.00     0.000 C 
HETATM    9  C9  UNL     1       0.670  -1.715  -0.268  1.00  0.00     0.000 C 
HETATM   10  C10 UNL     1      -0.846  -1.893  -0.180  1.00  0.00     0.003 C 
HETATM   11  C11 UNL     1       2.674  -0.455   0.611  1.00  0.00     0.000 C 
HETATM   12  C12 UNL     1       3.203   0.742   1.414  1.00  0.00     0.002 C 
HETATM   13  C13 UNL     1       2.502   2.049   0.998  1.00  0.00     0.000 C 
HETATM   14  C14 UNL     1       0.978   1.912   1.133  1.00  0.00     0.000 C 
HETATM   15  C15 UNL     1       4.682   0.758   0.986  1.00  0.00     0.031 C 
HETATM   16  C16 UNL     1       4.631   0.465  -0.518  1.00  0.00     0.002 C 
HETATM   17  C17 UNL     1       3.307  -0.258  -0.770  1.00  0.00     0.000 C 
HETATM   18  C22 UNL     1       3.059   0.494   2.918  1.00  0.00     0.000 C 
HETATM   19  C23 UNL     1      -1.555   0.412   1.813  1.00  0.00     0.000 C 
HETATM   20  O1  UNL     1      -3.576  -1.627   0.545  1.00  0.00    -0.222 OA
ENDROOT
BRANCH   1  21
HETATM   21  N2  UNL     1      -5.270   0.527  -0.930  1.00  0.00    -0.314 N 
HETATM   22  C24 UNL     1      -6.447   0.656  -0.059  1.00  0.00     0.129 C 
HETATM   23  C25 UNL     1      -5.445   0.352  -2.273  1.00  0.00     0.257 C 
HETATM   24  O2  UNL     1      -4.488   0.238  -3.004  1.00  0.00    -0.267 OA
BRANCH  23  25
HETATM   25  C26 UNL     1      -6.807   0.303  -2.818  1.00  0.00     0.052 C 
HETATM   26  C27 UNL     1      -7.207  -0.736  -3.570  1.00  0.00    -0.039 C 
HETATM   27  C28 UNL     1      -6.360  -1.930  -3.922  1.00  0.00     0.026 C 
HETATM   28  C29 UNL     1      -8.610  -0.732  -4.115  1.00  0.00     0.026 C 
ENDBRANCH  23  25
ENDBRANCH   1  21
BRANCH  15  29
HETATM   29  C18 UNL     1       5.508  -0.332   1.674  1.00  0.00     0.219 C 
HETATM   30  C19 UNL     1       5.939   0.154   3.059  1.00  0.00     0.035 C 
BRANCH  29  31
HETATM   31  N1  UNL     1       6.670  -0.672   0.871  1.00  0.00     0.139 N 
HETATM   32  C20 UNL     1       7.647   0.404   0.908  1.00  0.00     0.285 C 
HETATM   33  C21 UNL     1       7.264  -1.914   1.334  1.00  0.00     0.285 C 
ENDBRANCH  29  31
ENDBRANCH  15  29
TORSDOF 4
