REMARK  9 active torsions:
REMARK  status: ('A' for Active; 'I' for Inactive)
REMARK    1  A    between atoms: C1_1  and  O8_40 
REMARK    2  A    between atoms: C2_2  and  O7_38 
REMARK    3  A    between atoms: C3_3  and  O6_36 
REMARK    4  A    between atoms: C5_5  and  C7_7 
REMARK    5  A    between atoms: C7_7  and  O1_8 
REMARK    6  A    between atoms: O1_8  and  C8_9 
REMARK    7  A    between atoms: C8_9  and  C9_10 
REMARK    8  A    between atoms: C9_10  and  C10_11 
REMARK    9  A    between atoms: C10_11  and  O2_12 
ROOT
HETATM    1  C9  UNL     1       0.784   0.926   0.240  1.00  0.00     0.117 C 
HETATM    2  C12 UNL     1      -0.665   0.007   0.153  1.00  0.00     0.081 C 
HETATM    3  C13 UNL     1      -0.700  -1.644  -0.445  1.00  0.00     0.223 A 
HETATM    4  C14 UNL     1       0.888  -2.502  -0.299  1.00  0.00     0.269 C 
HETATM    5  N1  UNL     1       1.435  -1.809  -1.260  1.00  0.00     0.169 N 
HETATM    6  C15 UNL     1       0.299  -0.926  -1.268  1.00  0.00     0.328 A 
HETATM    7  C16 UNL     1      -0.343  -0.392   0.677  1.00  0.00     0.073 C 
HETATM    8  O4  UNL     1      -0.830  -1.549  -1.658  1.00  0.00    -0.310 OA
HETATM    9  C17 UNL     1       2.939  -1.352  -1.076  1.00  0.00     0.275 C 
HETATM   10  C18 UNL     1       3.221  -0.674   0.253  1.00  0.00    -0.015 C 
HETATM   11  C19 UNL     1       2.102  -0.408   1.077  1.00  0.00     0.034 C 
HETATM   12  C20 UNL     1       1.770  -2.235   1.089  1.00  0.00     0.043 C 
HETATM   13  C21 UNL     1       4.434  -0.666   0.816  1.00  0.00    -0.032 C 
HETATM   14  C22 UNL     1       5.645  -1.210   0.115  1.00  0.00     0.030 C 
HETATM   15  N2  UNL     1      -1.918  -2.100   0.182  1.00  0.00    -0.246 NA
HETATM   16  C23 UNL     1      -2.793  -0.969   0.449  1.00  0.00     0.075 A 
HETATM   17  C24 UNL     1      -2.080   0.316   0.360  1.00  0.00    -0.001 A 
HETATM   18  C25 UNL     1      -2.671   1.472   0.614  1.00  0.00    -0.003 A 
HETATM   19  C26 UNL     1      -4.120   1.423   0.932  1.00  0.00    -0.000 A 
HETATM   20  C27 UNL     1      -4.777   0.251   0.999  1.00  0.00     0.002 A 
HETATM   21  C28 UNL     1      -4.079  -1.028   0.754  1.00  0.00     0.018 A 
ENDROOT
BRANCH   1  22
HETATM   22  C8  UNL     1       1.030   2.160   1.291  1.00  0.00     0.162 C 
BRANCH  22  23
HETATM   23  O1  UNL     1       0.375   3.502   0.986  1.00  0.00    -0.298 OA
BRANCH  23  24
HETATM   24  C7  UNL     1       1.432   4.545   0.804  1.00  0.00     0.296 C 
HETATM   25  O5  UNL     1       2.618   4.193   0.894  1.00  0.00    -0.259 OA
BRANCH  24  26
HETATM   26  C5  UNL     1       1.175   6.034   0.512  1.00  0.00     0.067 A 
HETATM   27  C4  UNL     1       2.334   6.956   0.384  1.00  0.00     0.032 A 
HETATM   28  C3  UNL     1       2.187   8.279   0.163  1.00  0.00     0.118 A 
HETATM   29  C2  UNL     1       0.780   8.836   0.037  1.00  0.00     0.138 A 
HETATM   30  C1  UNL     1      -0.247   8.011   0.134  1.00  0.00     0.118 A 
HETATM   31  C6  UNL     1      -0.061   6.536   0.386  1.00  0.00     0.032 A 
BRANCH  28  32
HETATM   32  O6  UNL     1       3.343   9.093   0.051  1.00  0.00    -0.326 OA
HETATM   33  C29 UNL     1       4.559   8.347   0.196  1.00  0.00     0.181 C 
ENDBRANCH  28  32
BRANCH  29  34
HETATM   34  O7  UNL     1       0.454  10.241  -0.186  1.00  0.00    -0.324 OA
HETATM   35  C30 UNL     1       1.529  11.185  -0.280  1.00  0.00     0.182 C 
ENDBRANCH  29  34
BRANCH  30  36
HETATM   36  O8  UNL     1      -1.539   8.551   0.006  1.00  0.00    -0.326 OA
HETATM   37  C31 UNL     1      -2.544   7.548   0.132  1.00  0.00     0.181 C 
ENDBRANCH  30  36
ENDBRANCH  24  26
ENDBRANCH  23  24
ENDBRANCH  22  23
ENDBRANCH   1  22
BRANCH   1  38
HETATM   38  C10 UNL     1       0.845   1.943  -1.005  1.00  0.00     0.274 C 
HETATM   39  O3  UNL     1       1.782   1.993  -1.805  1.00  0.00    -0.264 OA
BRANCH  38  40
HETATM   40  O2  UNL     1      -0.420   2.567  -1.289  1.00  0.00    -0.299 OA
HETATM   41  C11 UNL     1      -0.458   3.307  -2.503  1.00  0.00     0.184 C 
ENDBRANCH  38  40
ENDBRANCH   1  38
TORSDOF 9
