REMARK  4 active torsions:
REMARK  status: ('A' for Active; 'I' for Inactive)
REMARK    1  A    between atoms: C2_2  and  O4_27 
REMARK    2  A    between atoms: C15_15  and  C18_18 
REMARK    3  A    between atoms: O4_27  and  C24_28 
REMARK    4  A    between atoms: C27_32  and  O6_34 
ROOT
HETATM    1  C1  UNL     1      -2.322  -0.129  -1.129  1.00  0.00     0.030 C 
HETATM    2  C2  UNL     1      -2.574  -0.322   0.371  1.00  0.00     0.118 C 
HETATM    3  C3  UNL     1      -1.836  -1.560   0.900  1.00  0.00     0.030 C 
HETATM    4  C4  UNL     1      -0.324  -1.518   0.592  1.00  0.00     0.003 C 
HETATM    5  C5  UNL     1      -0.024  -1.273  -0.914  1.00  0.00     0.002 C 
HETATM    6  C6  UNL     1      -0.817  -0.041  -1.416  1.00  0.00     0.003 C 
HETATM    7  C7  UNL     1       1.519  -1.111  -1.162  1.00  0.00     0.027 C 
HETATM    8  C8  UNL     1       2.338  -1.844  -0.082  1.00  0.00     0.115 A 
HETATM    9  C9  UNL     1       1.740  -3.113   0.516  1.00  0.00     0.030 C 
HETATM   10  C10 UNL     1       0.371  -2.787   1.150  1.00  0.00     0.003 C 
HETATM   11  C11 UNL     1       3.816  -1.367   0.168  1.00  0.00     0.115 A 
HETATM   12  C12 UNL     1       4.393  -0.125  -0.510  1.00  0.00     0.029 C 
HETATM   13  C13 UNL     1       3.570   0.291  -1.740  1.00  0.00     0.003 C 
HETATM   14  C14 UNL     1       2.062   0.317  -1.424  1.00  0.00     0.003 C 
HETATM   15  C15 UNL     1       5.756  -0.756  -0.848  1.00  0.00     0.023 C 
HETATM   16  C16 UNL     1       6.123  -1.541   0.424  1.00  0.00     0.007 C 
HETATM   17  C17 UNL     1       4.842  -2.258   0.855  1.00  0.00     0.030 C 
HETATM   18  C22 UNL     1       4.574   1.039   0.477  1.00  0.00     0.003 C 
HETATM   19  O3  UNL     1       2.736  -1.031   0.984  1.00  0.00    -0.359 OA
HETATM   20  C23 UNL     1      -0.516  -2.500  -1.703  1.00  0.00     0.000 C 
ENDROOT
BRANCH   2  21
HETATM   21  O4  UNL     1      -3.961  -0.471   0.598  1.00  0.00    -0.333 OA
BRANCH  21  22
HETATM   22  C24 UNL     1      -4.666   0.750   0.559  1.00  0.00     0.238 C 
HETATM   23  O5  UNL     1      -4.326   1.537   1.693  1.00  0.00    -0.331 OA
HETATM   24  C25 UNL     1      -4.963   2.811   1.758  1.00  0.00     0.151 C 
HETATM   25  C26 UNL     1      -6.502   2.643   1.803  1.00  0.00     0.206 C 
HETATM   26  C30 UNL     1      -4.389   3.561   2.965  1.00  0.00     0.035 C 
HETATM   27  C27 UNL     1      -6.979   1.779   0.611  1.00  0.00     0.153 C 
HETATM   28  O7  UNL     1      -6.881   2.051   3.039  1.00  0.00    -0.218 OA
HETATM   29  C28 UNL     1      -6.184   0.467   0.539  1.00  0.00     0.094 C 
BRANCH  27  30
HETATM   30  O6  UNL     1      -8.367   1.506   0.682  1.00  0.00    -0.351 OA
HETATM   31  C29 UNL     1      -8.867   0.871  -0.473  1.00  0.00     0.174 C 
ENDBRANCH  27  30
ENDBRANCH  21  22
ENDBRANCH   2  21
BRANCH  15  32
HETATM   32  C18 UNL     1       6.814   0.233  -1.260  1.00  0.00    -0.009 A 
HETATM   33  C19 UNL     1       8.295  -0.025  -1.178  1.00  0.00     0.175 A 
HETATM   34  O1  UNL     1       8.889   1.188  -1.674  1.00  0.00    -0.294 OA
HETATM   35  C20 UNL     1       7.910   2.041  -2.008  1.00  0.00     0.296 A 
HETATM   36  C21 UNL     1       6.604   1.453  -1.752  1.00  0.00     0.062 A 
HETATM   37  O2  UNL     1       8.061   3.152  -2.459  1.00  0.00    -0.259 OA
ENDBRANCH  15  32
TORSDOF 4
