REMARK  1 active torsions:
REMARK  status: ('A' for Active; 'I' for Inactive)
REMARK    1  A    between atoms: C15_16  and  C18_19 
ROOT
HETATM    1  C1  UNL     1       5.223   0.205   0.041  1.00  0.00     0.156 C 
HETATM    2  C2  UNL     1       4.469  -0.287   1.289  1.00  0.00     0.055 C 
HETATM    3  C3  UNL     1       2.953  -0.244   1.180  1.00  0.00    -0.046 C 
HETATM    4  C4  UNL     1       2.318  -0.002  -0.189  1.00  0.00     0.018 C 
HETATM    5  C5  UNL     1       3.020   1.187  -0.910  1.00  0.00     0.006 C 
HETATM    6  C6  UNL     1       4.516   1.412  -0.590  1.00  0.00     0.034 C 
HETATM    7  C7  UNL     1       0.787   0.285  -0.078  1.00  0.00     0.037 C 
HETATM    8  C8  UNL     1       0.063  -0.625   0.953  1.00  0.00     0.157 C 
HETATM    9  C9  UNL     1       0.711  -0.375   2.334  1.00  0.00     0.058 C 
HETATM   10  C10 UNL     1       2.225  -0.420   2.307  1.00  0.00    -0.032 C 
HETATM   11  C11 UNL     1      -1.482  -0.375   0.949  1.00  0.00     0.157 C 
HETATM   12  C12 UNL     1      -2.193  -0.482  -0.459  1.00  0.00     0.088 C 
HETATM   13  C13 UNL     1      -1.178  -0.469  -1.650  1.00  0.00     0.157 C 
HETATM   14  C14 UNL     1       0.068   0.420  -1.447  1.00  0.00     0.036 C 
HETATM   15  O1  UNL     1      -0.730  -1.773  -1.984  1.00  0.00    -0.223 OA
HETATM   16  C15 UNL     1      -3.201   0.732  -0.506  1.00  0.00     0.182 C 
HETATM   17  C16 UNL     1      -3.299   1.199   0.949  1.00  0.00     0.041 C 
HETATM   18  C17 UNL     1      -1.863   1.035   1.432  1.00  0.00     0.036 C 
HETATM   19  O3  UNL     1      -2.691   1.826  -1.250  1.00  0.00    -0.218 OA
HETATM   20  C20 UNL     1      -3.066  -1.758  -0.539  1.00  0.00     0.008 C 
HETATM   21  O4  UNL     1      -2.078  -1.258   1.902  1.00  0.00    -0.223 OA
HETATM   22  O5  UNL     1       0.301  -1.994   0.647  1.00  0.00    -0.223 OA
HETATM   23  C21 UNL     1       2.529  -1.283  -1.014  1.00  0.00     0.004 C 
HETATM   24  O6  UNL     1       5.354  -0.832  -0.910  1.00  0.00    -0.223 OA
ENDROOT
BRANCH  16  25
HETATM   25  C18 UNL     1      -4.566   0.461  -1.098  1.00  0.00     0.178 C 
HETATM   26  O2  UNL     1      -4.682  -0.031  -2.195  1.00  0.00    -0.293 OA
HETATM   27  C19 UNL     1      -5.777   0.818  -0.277  1.00  0.00     0.075 C 
ENDBRANCH  16  25
TORSDOF 1
