REMARK  11 active torsions:
REMARK  status: ('A' for Active; 'I' for Inactive)
REMARK    1  A    between atoms: C1_1  and  C30_43 
REMARK    2  A    between atoms: C4_4  and  O3_11 
REMARK    3  A    between atoms: C6_6  and  O1_7 
REMARK    4  A    between atoms: O1_7  and  C7_8 
REMARK    5  A    between atoms: O3_11  and  C9_12 
REMARK    6  A    between atoms: C12_16  and  O12_39 
REMARK    7  A    between atoms: C16_20  and  O7_26 
REMARK    8  A    between atoms: C17_21  and  O5_22 
REMARK    9  A    between atoms: O5_22  and  C18_23 
REMARK   10  A    between atoms: O7_26  and  C20_27 
REMARK   11  A    between atoms: O12_39  and  C28_40 
ROOT
HETATM    1  C1  UNL     1       0.771  -0.305  -0.238  1.00  0.00     0.090 C 
HETATM    2  C2  UNL     1       0.627   1.072   0.603  1.00  0.00     0.056 C 
HETATM    3  C3  UNL     1       1.928   1.861   0.699  1.00  0.00    -0.015 C 
HETATM    4  C4  UNL     1       2.943   1.658  -0.397  1.00  0.00     0.145 C 
HETATM    5  C5  UNL     1       3.344   0.182  -0.479  1.00  0.00     0.065 C 
HETATM    6  C6  UNL     1       2.244  -0.785   0.016  1.00  0.00     0.132 C 
HETATM    7  C11 UNL     1       2.164   2.695   1.728  1.00  0.00    -0.007 C 
HETATM    8  C12 UNL     1      -0.494   2.152   0.256  1.00  0.00     0.129 C 
HETATM    9  C13 UNL     1      -1.729   1.559  -0.422  1.00  0.00     0.040 C 
HETATM   10  C14 UNL     1      -2.320   0.371   0.348  1.00  0.00     0.061 C 
HETATM   11  C15 UNL     1      -2.492  -0.695  -0.799  1.00  0.00     0.185 C 
HETATM   12  C16 UNL     1      -1.719  -1.840  -0.125  1.00  0.00     0.182 C 
HETATM   13  C17 UNL     1      -0.152  -1.590   0.146  1.00  0.00     0.159 C 
HETATM   14  C22 UNL     1      -3.920  -0.172  -1.166  1.00  0.00     0.171 C 
HETATM   15  C23 UNL     1      -3.885   1.283  -1.713  1.00  0.00     0.177 C 
HETATM   16  C24 UNL     1      -2.920   2.301  -1.065  1.00  0.00     0.070 C 
HETATM   17  O9  UNL     1      -4.590   1.617  -2.637  1.00  0.00    -0.293 OA
HETATM   18  C25 UNL     1      -4.703  -1.145  -2.049  1.00  0.00     0.040 C 
HETATM   19  O10 UNL     1      -4.582  -0.115   0.057  1.00  0.00    -0.349 OA
HETATM   20  C26 UNL     1      -3.748   0.492   0.990  1.00  0.00     0.145 C 
HETATM   21  O11 UNL     1      -1.859  -0.650  -2.078  1.00  0.00    -0.220 OA
HETATM   22  C27 UNL     1      -1.721   0.131   1.748  1.00  0.00     0.005 C 
ENDROOT
BRANCH   4  23
HETATM   23  O3  UNL     1       4.106   2.455  -0.199  1.00  0.00    -0.300 OA
BRANCH  23  24
HETATM   24  C9  UNL     1       3.916   3.725  -0.555  1.00  0.00     0.273 C 
HETATM   25  C10 UNL     1       5.131   4.605  -0.457  1.00  0.00     0.106 C 
HETATM   26  O4  UNL     1       2.856   4.166  -0.930  1.00  0.00    -0.264 OA
ENDBRANCH  23  24
ENDBRANCH   4  23
BRANCH   6  27
HETATM   27  O1  UNL     1       2.498  -2.047  -0.594  1.00  0.00    -0.304 OA
BRANCH  27  28
HETATM   28  C7  UNL     1       3.588  -2.633  -0.107  1.00  0.00     0.272 C 
HETATM   29  C8  UNL     1       4.070  -3.830  -0.883  1.00  0.00     0.106 C 
HETATM   30  O2  UNL     1       4.172  -2.256   0.881  1.00  0.00    -0.264 OA
ENDBRANCH  27  28
ENDBRANCH   6  27
BRANCH   1  31
HETATM   31  C30 UNL     1       0.752  -0.029  -1.748  1.00  0.00     0.187 C 
HETATM   32  O14 UNL     1       0.918  -1.256  -2.422  1.00  0.00    -0.221 OA
ENDBRANCH   1  31
BRANCH   8  33
HETATM   33  O12 UNL     1      -0.891   2.840   1.437  1.00  0.00    -0.304 OA
BRANCH  33  34
HETATM   34  C28 UNL     1      -1.475   4.004   1.174  1.00  0.00     0.272 C 
HETATM   35  C29 UNL     1      -2.137   4.670   2.350  1.00  0.00     0.106 C 
HETATM   36  O13 UNL     1      -1.488   4.518   0.078  1.00  0.00    -0.264 OA
ENDBRANCH  33  34
ENDBRANCH   8  33
BRANCH  13  37
HETATM   37  O5  UNL     1       0.107  -1.924   1.504  1.00  0.00    -0.301 OA
BRANCH  37  38
HETATM   38  C18 UNL     1       0.832  -3.031   1.623  1.00  0.00     0.272 C 
HETATM   39  C19 UNL     1       1.746  -3.072   2.818  1.00  0.00     0.106 C 
HETATM   40  O6  UNL     1       0.781  -3.957   0.848  1.00  0.00    -0.264 OA
ENDBRANCH  37  38
ENDBRANCH  13  37
BRANCH  12  41
HETATM   41  O7  UNL     1      -1.879  -3.029  -0.893  1.00  0.00    -0.299 OA
BRANCH  41  42
HETATM   42  C20 UNL     1      -1.781  -4.129  -0.150  1.00  0.00     0.273 C 
HETATM   43  C21 UNL     1      -1.557  -5.404  -0.920  1.00  0.00     0.106 C 
HETATM   44  O8  UNL     1      -1.863  -4.137   1.055  1.00  0.00    -0.264 OA
ENDBRANCH  41  42
ENDBRANCH  12  41
TORSDOF 11
