REMARK  5 active torsions:
REMARK  status: ('A' for Active; 'I' for Inactive)
REMARK    1  A    between atoms: C3_3  and  O3_10 
REMARK    2  A    between atoms: O3_10  and  C8_11 
REMARK    3  A    between atoms: C18_24  and  O7_25 
REMARK    4  A    between atoms: O7_25  and  C19_26 
REMARK    5  A    between atoms: C19_26  and  C20_28 
ROOT
HETATM    1  C1  UNL     1       1.491  -2.687  -0.563  1.00  0.00     0.087 C 
HETATM    2  C2  UNL     1       1.536  -1.320   0.624  1.00  0.00     0.072 C 
HETATM    3  C3  UNL     1       3.299  -1.179   0.956  1.00  0.00     0.156 C 
HETATM    4  C4  UNL     1       4.195  -1.300  -0.129  1.00  0.00     0.146 C 
HETATM    5  C5  UNL     1       3.928  -2.832  -0.592  1.00  0.00     0.066 C 
HETATM    6  C6  UNL     1       2.521  -3.623  -0.187  1.00  0.00     0.161 C 
HETATM    7  O1  UNL     1       2.395  -4.028   1.184  1.00  0.00    -0.223 OA
HETATM    8  O2  UNL     1       3.673  -0.023  -0.490  1.00  0.00    -0.351 OA
HETATM    9  C7  UNL     1       3.599   0.239   1.026  1.00  0.00     0.172 C 
HETATM   10  C10 UNL     1       0.479  -0.331  -0.260  1.00  0.00     0.185 C 
HETATM   11  C11 UNL     1      -1.267   0.162   0.161  1.00  0.00     0.186 C 
HETATM   12  C12 UNL     1      -1.779   0.141  -1.393  1.00  0.00     0.048 C 
HETATM   13  C13 UNL     1      -1.861  -1.754  -1.359  1.00  0.00    -0.011 C 
HETATM   14  C14 UNL     1      -0.925  -2.793  -1.991  1.00  0.00     0.227 C 
HETATM   15  C15 UNL     1       0.127  -3.196  -0.738  1.00  0.00     0.186 C 
HETATM   16  O5  UNL     1      -0.232  -4.051   0.109  1.00  0.00    -0.293 OA
HETATM   17  O6  UNL     1      -0.440  -2.250  -3.252  1.00  0.00    -0.211 OA
HETATM   18  C16 UNL     1      -2.802  -2.431  -0.510  1.00  0.00    -0.017 C 
HETATM   19  C17 UNL     1      -3.573  -1.612   0.067  1.00  0.00     0.200 C 
HETATM   20  C18 UNL     1      -2.725  -0.557   0.890  1.00  0.00     0.189 C 
HETATM   21  O9  UNL     1      -4.655  -2.249   0.809  1.00  0.00    -0.216 OA
HETATM   22  C26 UNL     1      -2.999  -3.934  -0.312  1.00  0.00     0.028 C 
HETATM   23  C27 UNL     1      -0.852   0.863  -2.448  1.00  0.00     0.007 C 
HETATM   24  C28 UNL     1      -3.098   0.956  -1.716  1.00  0.00     0.007 C 
HETATM   25  O10 UNL     1      -1.100   1.315   1.032  1.00  0.00    -0.220 OA
HETATM   26  O11 UNL     1       1.002   1.009  -0.346  1.00  0.00    -0.221 OA
HETATM   27  C29 UNL     1       2.006  -2.439  -2.077  1.00  0.00     0.010 C 
ENDROOT
BRANCH  20  28
HETATM   28  O7  UNL     1      -3.719   0.605   0.957  1.00  0.00    -0.295 OA
BRANCH  28  29
HETATM   29  C19 UNL     1      -5.091   0.482   1.431  1.00  0.00     0.296 C 
HETATM   30  O8  UNL     1      -5.539  -0.514   1.972  1.00  0.00    -0.259 OA
BRANCH  29  31
HETATM   31  C20 UNL     1      -6.022   1.562   1.006  1.00  0.00     0.063 A 
HETATM   32  C21 UNL     1      -7.351   1.355   1.103  1.00  0.00     0.005 A 
HETATM   33  C22 UNL     1      -8.286   2.366   0.584  1.00  0.00     0.000 A 
HETATM   34  C23 UNL     1      -7.827   3.478   0.014  1.00  0.00     0.000 A 
HETATM   35  C24 UNL     1      -6.381   3.700  -0.090  1.00  0.00     0.000 A 
HETATM   36  C25 UNL     1      -5.531   2.787   0.378  1.00  0.00     0.005 A 
ENDBRANCH  29  31
ENDBRANCH  28  29
ENDBRANCH  20  28
BRANCH   3  37
HETATM   37  O3  UNL     1       3.706  -2.155   2.099  1.00  0.00    -0.302 OA
BRANCH  37  38
HETATM   38  C8  UNL     1       5.078  -2.626   2.582  1.00  0.00     0.272 C 
HETATM   39  C9  UNL     1       6.462  -2.377   1.957  1.00  0.00     0.106 C 
HETATM   40  O4  UNL     1       5.075  -3.385   3.556  1.00  0.00    -0.264 OA
ENDBRANCH  37  38
ENDBRANCH   3  37
TORSDOF 5
