REMARK  0 active torsions:
REMARK  status: ('A' for Active; 'I' for Inactive)
ROOT
HETATM    1  C1  UNL     1      -1.716   0.672  -1.481  1.00  0.00     0.035 C 
HETATM    2  C2  UNL     1      -2.134  -0.595  -0.746  1.00  0.00     0.032 C 
HETATM    3  C3  UNL     1      -1.209  -1.750  -1.023  1.00  0.00     0.118 A 
HETATM    4  C4  UNL     1      -0.139  -2.026  -0.059  1.00  0.00     0.144 A 
HETATM    5  C5  UNL     1      -0.031  -1.146   1.157  1.00  0.00     0.056 C 
HETATM    6  C6  UNL     1       1.232  -0.344   1.171  1.00  0.00    -0.013 A 
HETATM    7  C7  UNL     1       1.232   1.153   1.171  1.00  0.00     0.145 A 
HETATM    8  C8  UNL     1       0.644   1.661  -0.139  1.00  0.00     0.064 C 
HETATM    9  C9  UNL     1      -0.650   2.401   0.062  1.00  0.00     0.120 A 
HETATM   10  C10 UNL     1      -1.848   1.902  -0.623  1.00  0.00     0.140 A 
HETATM   11  O1  UNL     1      -1.651   1.683   0.798  1.00  0.00    -0.357 OA
HETATM   12  C11 UNL     1       0.011   3.750   0.151  1.00  0.00     0.032 C 
HETATM   13  O2  UNL     1       2.593   1.492   1.182  1.00  0.00    -0.297 OA
HETATM   14  C12 UNL     1       3.385   0.181   1.186  1.00  0.00     0.291 A 
HETATM   15  C13 UNL     1       2.481  -0.823   1.171  1.00  0.00     0.036 A 
HETATM   16  C14 UNL     1       2.830  -2.279   1.157  1.00  0.00     0.036 C 
HETATM   17  O3  UNL     1       4.587   0.066   1.199  1.00  0.00    -0.260 OA
HETATM   18  O4  UNL     1       0.166  -1.380  -1.304  1.00  0.00    -0.356 OA
HETATM   19  C15 UNL     1      -2.278  -2.587  -1.673  1.00  0.00     0.032 C 
ENDROOT
TORSDOF 0
