REMARK  0 active torsions:
REMARK  status: ('A' for Active; 'I' for Inactive)
ROOT
HETATM    1  C1  UNL     1      -1.723   0.604  -1.545  1.00  0.00     0.035 C 
HETATM    2  C2  UNL     1      -2.141  -0.663  -0.810  1.00  0.00     0.032 C 
HETATM    3  C3  UNL     1      -1.216  -1.818  -1.087  1.00  0.00     0.118 A 
HETATM    4  C4  UNL     1      -0.145  -2.095  -0.123  1.00  0.00     0.144 A 
HETATM    5  C5  UNL     1      -0.038  -1.214   1.093  1.00  0.00     0.059 C 
HETATM    6  C6  UNL     1       1.226  -0.412   1.107  1.00  0.00     0.013 A 
HETATM    7  C7  UNL     1       1.226   1.085   1.107  1.00  0.00     0.244 A 
HETATM    8  C8  UNL     1       0.638   1.593  -0.203  1.00  0.00     0.094 C 
HETATM    9  C9  UNL     1      -0.657   2.333  -0.002  1.00  0.00     0.123 A 
HETATM   10  C10 UNL     1      -1.855   1.834  -0.687  1.00  0.00     0.140 A 
HETATM   11  O1  UNL     1      -1.658   1.615   0.734  1.00  0.00    -0.357 OA
HETATM   12  C11 UNL     1       0.004   3.682   0.087  1.00  0.00     0.032 C 
HETATM   13  O2  UNL     1       2.586   1.424   1.118  1.00  0.00    -0.271 OA
HETATM   14  C12 UNL     1       3.378   0.113   1.121  1.00  0.00     0.293 A 
HETATM   15  C13 UNL     1       2.474  -0.891   1.107  1.00  0.00     0.038 A 
HETATM   16  C14 UNL     1       2.823  -2.347   1.093  1.00  0.00     0.036 C 
HETATM   17  O3  UNL     1       4.580  -0.002   1.135  1.00  0.00    -0.259 OA
HETATM   18  O4  UNL     1       0.492   1.618   2.176  1.00  0.00    -0.191 OA
HETATM   19  O5  UNL     1       0.159  -1.449  -1.368  1.00  0.00    -0.356 OA
HETATM   20  C15 UNL     1      -2.285  -2.655  -1.737  1.00  0.00     0.032 C 
ENDROOT
TORSDOF 0
