REMARK  8 active torsions:
REMARK  status: ('A' for Active; 'I' for Inactive)
REMARK    1  A    between atoms: C3_3  and  C30_33 
REMARK    2  A    between atoms: C21_22  and  C24_25 
REMARK    3  A    between atoms: C30_33  and  O4_34 
REMARK    4  A    between atoms: O4_34  and  C31_35 
REMARK    5  A    between atoms: C33_38  and  O9_46 
REMARK    6  A    between atoms: C34_39  and  O7_42 
REMARK    7  A    between atoms: O7_42  and  C36_43 
REMARK    8  A    between atoms: O9_46  and  C38_47 
ROOT
HETATM    1  C1  UNL     1      -0.715  -0.707  -2.829  1.00  0.00     0.066 C 
HETATM    2  C2  UNL     1      -0.841  -2.137  -2.313  1.00  0.00     0.157 C 
HETATM    3  C3  UNL     1      -0.230  -2.299  -0.899  1.00  0.00     0.056 C 
HETATM    4  C4  UNL     1      -0.808  -1.187   0.059  1.00  0.00     0.007 C 
HETATM    5  C5  UNL     1      -1.009   0.287  -0.451  1.00  0.00     0.029 C 
HETATM    6  C6  UNL     1      -1.509   0.219  -1.920  1.00  0.00     0.155 C 
HETATM    7  O1  UNL     1      -1.633   1.480  -2.528  1.00  0.00    -0.223 OA
HETATM    8  C7  UNL     1       0.303   1.136  -0.252  1.00  0.00     0.007 C 
HETATM    9  C8  UNL     1       1.061   1.072   1.113  1.00  0.00     0.004 C 
HETATM   10  C9  UNL     1       1.063  -0.377   1.641  1.00  0.00     0.000 C 
HETATM   11  C10 UNL     1      -0.234  -1.172   1.489  1.00  0.00     0.000 C 
HETATM   12  C11 UNL     1       2.552   1.600   0.930  1.00  0.00     0.015 C 
HETATM   13  C12 UNL     1       2.517   3.026   0.405  1.00  0.00    -0.049 C 
HETATM   14  C13 UNL     1       1.479   3.434  -0.346  1.00  0.00    -0.035 C 
HETATM   15  C14 UNL     1       0.261   2.616  -0.688  1.00  0.00     0.025 C 
HETATM   16  C15 UNL     1       3.714   3.951   0.568  1.00  0.00     0.018 C 
HETATM   17  C16 UNL     1       4.480   3.812   1.903  1.00  0.00     0.004 C 
HETATM   18  C17 UNL     1       4.645   2.328   2.290  1.00  0.00     0.001 C 
HETATM   19  C18 UNL     1       3.325   1.548   2.273  1.00  0.00     0.004 C 
HETATM   20  C19 UNL     1       5.895   4.440   1.781  1.00  0.00     0.001 C 
HETATM   21  C20 UNL     1       5.938   5.587   0.761  1.00  0.00     0.010 C 
HETATM   22  C21 UNL     1       5.658   5.080  -0.674  1.00  0.00     0.079 C 
HETATM   23  C22 UNL     1       4.673   3.889  -0.633  1.00  0.00     0.014 C 
HETATM   24  C23 UNL     1       5.094   6.243  -1.514  1.00  0.00     0.011 C 
HETATM   25  C25 UNL     1       3.694   4.558   3.007  1.00  0.00     0.000 C 
HETATM   26  C26 UNL     1       3.378   0.812  -0.120  1.00  0.00     0.004 C 
HETATM   27  C27 UNL     1       0.354   1.952   2.183  1.00  0.00     0.000 C 
HETATM   28  C28 UNL     1      -2.230   0.902   0.300  1.00  0.00     0.003 C 
HETATM   29  C29 UNL     1      -0.639  -3.712  -0.398  1.00  0.00     0.005 C 
HETATM   30  O11 UNL     1      -2.200  -2.512  -2.330  1.00  0.00    -0.223 OA
ENDROOT
BRANCH   3  31
HETATM   31  C30 UNL     1       1.306  -2.325  -1.098  1.00  0.00     0.147 C 
BRANCH  31  32
HETATM   32  O4  UNL     1       2.003  -3.011  -0.080  1.00  0.00    -0.329 OA
BRANCH  32  33
HETATM   33  C31 UNL     1       3.400  -3.042  -0.313  1.00  0.00     0.270 C 
HETATM   34  O5  UNL     1       3.614  -4.155  -1.150  1.00  0.00    -0.329 OA
HETATM   35  C32 UNL     1       4.943  -4.270  -1.586  1.00  0.00     0.148 C 
HETATM   36  C33 UNL     1       5.932  -4.312  -0.415  1.00  0.00     0.182 C 
HETATM   37  C40 UNL     1       5.273  -3.256  -2.687  1.00  0.00     0.035 C 
HETATM   38  C34 UNL     1       5.675  -3.225   0.634  1.00  0.00     0.190 C 
HETATM   39  C35 UNL     1       4.188  -3.223   0.969  1.00  0.00     0.238 C 
HETATM   40  O6  UNL     1       3.954  -2.173   1.877  1.00  0.00    -0.215 OA
BRANCH  36  41
HETATM   41  O9  UNL     1       5.815  -5.575   0.189  1.00  0.00    -0.299 OA
BRANCH  41  42
HETATM   42  C38 UNL     1       6.865  -6.050   0.911  1.00  0.00     0.273 C 
HETATM   43  C39 UNL     1       6.533  -7.413   1.482  1.00  0.00     0.106 C 
HETATM   44  O10 UNL     1       7.914  -5.471   1.080  1.00  0.00    -0.264 OA
ENDBRANCH  41  42
ENDBRANCH  36  41
BRANCH  38  45
HETATM   45  O7  UNL     1       5.991  -1.943   0.167  1.00  0.00    -0.299 OA
BRANCH  45  46
HETATM   46  C36 UNL     1       7.292  -1.556   0.101  1.00  0.00     0.273 C 
HETATM   47  C37 UNL     1       7.382  -0.122  -0.384  1.00  0.00     0.106 C 
HETATM   48  O8  UNL     1       8.238  -2.251   0.389  1.00  0.00    -0.264 OA
ENDBRANCH  45  46
ENDBRANCH  38  45
ENDBRANCH  32  33
ENDBRANCH  31  32
ENDBRANCH   3  31
BRANCH  22  49
HETATM   49  C24 UNL     1       6.956   4.612  -1.337  1.00  0.00     0.184 C 
HETATM   50  O2  UNL     1       6.740   4.044  -2.539  1.00  0.00    -0.647 OA
HETATM   51  O3  UNL     1       8.077   4.702  -0.895  1.00  0.00    -0.647 OA
ENDBRANCH  22  49
TORSDOF 8
