REMARK  6 active torsions:
REMARK  status: ('A' for Active; 'I' for Inactive)
REMARK    1  A    between atoms: C1_1  and  C12_15 
REMARK    2  A    between atoms: C2_2  and  C11_13 
REMARK    3  A    between atoms: C3_3  and  C8_8 
REMARK    4  A    between atoms: C8_8  and  C9_9 
REMARK    5  A    between atoms: C12_15  and  C13_16 
REMARK    6  A    between atoms: C13_16  and  C14_17 
ROOT
HETATM    1  C1  UNL     1      -0.142   0.244  -1.092  1.00  0.00     0.008 C 
HETATM    2  C2  UNL     1      -0.052  -1.299  -0.969  1.00  0.00     0.065 C 
HETATM    3  C3  UNL     1       0.914  -1.809   0.128  1.00  0.00     0.018 C 
HETATM    4  C4  UNL     1       2.286  -1.135  -0.065  1.00  0.00     0.001 C 
HETATM    5  C5  UNL     1       2.186   0.395  -0.040  1.00  0.00     0.000 C 
HETATM    6  C6  UNL     1       1.241   0.938  -1.127  1.00  0.00     0.000 C 
HETATM    7  C7  UNL     1       1.909   0.896  -2.514  1.00  0.00     0.000 C 
ENDROOT
BRANCH   1   8
HETATM    8  C12 UNL     1      -1.065   0.886  -0.026  1.00  0.00     0.008 C 
BRANCH   8   9
HETATM    9  C13 UNL     1      -1.795   2.147  -0.525  1.00  0.00     0.065 C 
BRANCH   9  10
HETATM   10  C14 UNL     1      -2.671   2.803   0.533  1.00  0.00     0.151 C 
HETATM   11  C15 UNL     1      -3.682   3.823   0.042  1.00  0.00     0.072 C 
HETATM   12  O4  UNL     1      -2.577   2.530   1.708  1.00  0.00    -0.296 OA
ENDBRANCH   9  10
ENDBRANCH   8   9
ENDBRANCH   1   8
BRANCH   2  13
HETATM   13  C11 UNL     1       0.220  -1.998  -2.301  1.00  0.00     0.207 C 
HETATM   14  O3  UNL     1       0.062  -1.471  -3.377  1.00  0.00    -0.288 OA
ENDBRANCH   2  13
BRANCH   3  15
HETATM   15  C8  UNL     1       0.392  -1.723   1.584  1.00  0.00     0.088 C 
HETATM   16  C10 UNL     1      -0.914  -2.506   1.814  1.00  0.00     0.011 C 
BRANCH  15  17
HETATM   17  C9  UNL     1       1.430  -2.259   2.565  1.00  0.00     0.185 C 
HETATM   18  O1  UNL     1       1.889  -1.308   3.398  1.00  0.00    -0.647 OA
HETATM   19  O2  UNL     1       1.830  -3.397   2.624  1.00  0.00    -0.647 OA
ENDBRANCH  15  17
ENDBRANCH   3  15
TORSDOF 6
