REMARK  2 active torsions:
REMARK  status: ('A' for Active; 'I' for Inactive)
REMARK    1  A    between atoms: C4_4  and  C8_9 
REMARK    2  A    between atoms: C9_11  and  C12_14 
ROOT
HETATM    1  C1  UNL     1       1.645  -1.231  -0.483  1.00  0.00     0.029 C 
HETATM    2  C2  UNL     1       1.152   0.091   0.154  1.00  0.00     0.007 C 
HETATM    3  C3  UNL     1      -0.159   0.626  -0.449  1.00  0.00     0.029 C 
HETATM    4  C4  UNL     1      -1.294  -0.342  -0.714  1.00  0.00     0.016 C 
HETATM    5  C5  UNL     1      -1.386  -1.602  -0.234  1.00  0.00    -0.025 C 
HETATM    6  C6  UNL     1      -0.426  -2.265   0.714  1.00  0.00     0.059 C 
HETATM    7  C7  UNL     1       0.993  -2.461   0.180  1.00  0.00     0.156 C 
HETATM    8  O1  UNL     1       1.010  -3.566  -0.693  1.00  0.00    -0.223 OA
HETATM    9  C9  UNL     1       2.323   1.111   0.079  1.00  0.00     0.000 C 
HETATM   10  C10 UNL     1       3.549   0.287  -0.372  1.00  0.00     0.000 C 
HETATM   11  C11 UNL     1       3.154  -1.177  -0.158  1.00  0.00     0.003 C 
HETATM   12  C15 UNL     1       1.478  -1.242  -2.021  1.00  0.00     0.003 C 
ENDROOT
BRANCH   9  13
HETATM   13  C12 UNL     1       2.583   1.901   1.386  1.00  0.00     0.000 C 
HETATM   14  C13 UNL     1       3.664   2.985   1.195  1.00  0.00     0.000 C 
HETATM   15  C14 UNL     1       1.319   2.589   1.936  1.00  0.00     0.000 C 
ENDBRANCH   9  13
BRANCH   4  16
HETATM   16  C8  UNL     1      -2.388   0.143  -1.590  1.00  0.00     0.230 C 
HETATM   17  O2  UNL     1      -3.367  -0.512  -1.920  1.00  0.00    -0.283 OA
ENDBRANCH   4  16
TORSDOF 2
