REMARK  1 active torsions:
REMARK  status: ('A' for Active; 'I' for Inactive)
REMARK    1  A    between atoms: C15_16  and  C18_19 
ROOT
HETATM    1  C1  UNL     1      -1.498  -0.198  -2.108  1.00  0.00     0.066 C 
HETATM    2  C2  UNL     1      -2.291  -1.178  -1.251  1.00  0.00     0.155 C 
HETATM    3  C3  UNL     1      -1.438  -1.966  -0.252  1.00  0.00     0.033 C 
HETATM    4  C4  UNL     1       0.024  -1.482  -0.132  1.00  0.00     0.005 C 
HETATM    5  C5  UNL     1       0.153   0.061  -0.068  1.00  0.00     0.029 C 
HETATM    6  C6  UNL     1      -0.445   0.643  -1.376  1.00  0.00     0.155 C 
HETATM    7  O1  UNL     1      -0.947   1.941  -1.154  1.00  0.00    -0.223 OA
HETATM    8  C7  UNL     1       1.659   0.494   0.084  1.00  0.00     0.005 C 
HETATM    9  C8  UNL     1       2.666  -0.639  -0.210  1.00  0.00     0.028 C 
HETATM   10  C9  UNL     1       2.230  -1.413  -1.461  1.00  0.00     0.002 C 
HETATM   11  C10 UNL     1       0.912  -2.154  -1.201  1.00  0.00     0.000 C 
HETATM   12  C11 UNL     1       4.136  -0.187  -0.266  1.00  0.00     0.127 C 
HETATM   13  C12 UNL     1       4.592   0.645   0.949  1.00  0.00     0.030 C 
HETATM   14  C13 UNL     1       3.517   1.700   1.310  1.00  0.00     0.003 C 
HETATM   15  C14 UNL     1       2.090   1.143   1.414  1.00  0.00     0.000 C 
HETATM   16  C15 UNL     1       5.856   1.389   0.432  1.00  0.00     0.027 C 
HETATM   17  C16 UNL     1       5.529   1.707  -1.039  1.00  0.00     0.007 C 
HETATM   18  C17 UNL     1       4.515   0.646  -1.499  1.00  0.00     0.031 C 
HETATM   19  C23 UNL     1       4.865  -0.210   2.205  1.00  0.00     0.003 C 
HETATM   20  O4  UNL     1       4.912  -1.362  -0.300  1.00  0.00    -0.226 OA
HETATM   21  C24 UNL     1      -0.664   0.551   1.157  1.00  0.00     0.003 C 
HETATM   22  O5  UNL     1      -3.323  -0.480  -0.592  1.00  0.00    -0.223 OA
ENDROOT
BRANCH  16  23
HETATM   23  C18 UNL     1       7.175   0.659   0.644  1.00  0.00     0.003 A 
HETATM   24  C19 UNL     1       7.884   0.857   1.908  1.00  0.00     0.003 A 
HETATM   25  C20 UNL     1       9.072   0.252   2.114  1.00  0.00     0.068 A 
HETATM   26  C21 UNL     1       9.611  -0.604   1.036  1.00  0.00     0.300 A 
HETATM   27  O2  UNL     1       8.931  -0.802  -0.127  1.00  0.00    -0.271 OA
HETATM   28  O3  UNL     1      10.700  -1.144   1.218  1.00  0.00    -0.259 OA
HETATM   29  C22 UNL     1       7.749  -0.140  -0.286  1.00  0.00     0.122 A 
ENDBRANCH  16  23
TORSDOF 1
