REMARK  1 active torsions:
REMARK  status: ('A' for Active; 'I' for Inactive)
REMARK    1  A    between atoms: C16_17  and  C25_27 
ROOT
HETATM    1  C1  UNL     1      -1.860  -0.721  -1.586  1.00  0.00     0.211 C 
HETATM    2  C2  UNL     1      -1.907  -2.233  -1.431  1.00  0.00     0.211 C 
HETATM    3  C3  UNL     1      -1.165  -2.759  -0.185  1.00  0.00     0.035 C 
HETATM    4  C4  UNL     1       0.211  -2.034  -0.040  1.00  0.00     0.006 C 
HETATM    5  C5  UNL     1       0.254  -0.483  -0.195  1.00  0.00     0.036 C 
HETATM    6  C6  UNL     1      -0.480  -0.089  -1.498  1.00  0.00     0.211 C 
HETATM    7  O1  UNL     1       0.235  -0.457  -2.666  1.00  0.00    -0.215 OA
HETATM    8  C7  UNL     1       1.761  -0.041  -0.273  1.00  0.00     0.007 C 
HETATM    9  C8  UNL     1       2.768  -0.562   0.790  1.00  0.00     0.004 C 
HETATM   10  C9  UNL     1       2.509  -2.067   1.050  1.00  0.00     0.000 C 
HETATM   11  C10 UNL     1       1.033  -2.456   1.196  1.00  0.00     0.000 C 
HETATM   12  C11 UNL     1       4.253  -0.323   0.267  1.00  0.00     0.018 C 
HETATM   13  C12 UNL     1       4.463   1.173   0.024  1.00  0.00    -0.032 C 
HETATM   14  C13 UNL     1       3.412   1.927  -0.349  1.00  0.00    -0.031 C 
HETATM   15  C14 UNL     1       1.993   1.458  -0.529  1.00  0.00     0.026 C 
HETATM   16  C15 UNL     1       5.836   1.833   0.146  1.00  0.00    -0.012 C 
HETATM   17  C16 UNL     1       6.702   1.208   1.274  1.00  0.00     0.095 C 
HETATM   18  C17 UNL     1       6.681  -0.331   1.181  1.00  0.00     0.014 C 
HETATM   19  C18 UNL     1       5.262  -0.892   1.294  1.00  0.00     0.005 C 
HETATM   20  C19 UNL     1       8.169   1.685   1.182  1.00  0.00     0.014 C 
HETATM   21  C20 UNL     1       8.265   3.090   0.586  1.00  0.00     0.004 C 
HETATM   22  C21 UNL     1       7.806   3.093  -0.886  1.00  0.00     0.032 C 
HETATM   23  C22 UNL     1       6.609   2.144  -1.158  1.00  0.00     0.142 C 
HETATM   24  O2  UNL     1       7.084   0.941  -1.696  1.00  0.00    -0.222 OA
HETATM   25  C23 UNL     1       5.732   2.761  -2.257  1.00  0.00     0.037 C 
HETATM   26  C24 UNL     1       9.007   2.851  -1.825  1.00  0.00     0.003 C 
HETATM   27  C26 UNL     1       4.557  -1.008  -1.094  1.00  0.00     0.004 C 
HETATM   28  C27 UNL     1       2.546   0.192   2.130  1.00  0.00     0.000 C 
HETATM   29  C28 UNL     1      -0.546   0.231   0.927  1.00  0.00     0.003 C 
HETATM   30  C29 UNL     1      -0.933  -4.279  -0.416  1.00  0.00     0.003 C 
HETATM   31  C30 UNL     1      -2.052  -2.648   1.075  1.00  0.00     0.003 C 
HETATM   32  O5  UNL     1      -3.240  -2.714  -1.476  1.00  0.00    -0.215 OA
HETATM   33  O6  UNL     1      -2.820  -0.046  -1.882  1.00  0.00    -0.291 OA
ENDROOT
BRANCH  17  34
HETATM   34  C25 UNL     1       6.143   1.662   2.632  1.00  0.00     0.188 C 
HETATM   35  O3  UNL     1       5.370   2.569   2.837  1.00  0.00    -0.647 OA
HETATM   36  O4  UNL     1       6.620   0.947   3.668  1.00  0.00    -0.647 OA
ENDBRANCH  17  34
TORSDOF 1
