REMARK  2 active torsions:
REMARK  status: ('A' for Active; 'I' for Inactive)
REMARK    1  A    between atoms: C13_14  and  C17_19 
REMARK    2  A    between atoms: C14_15  and  O2_17 
ROOT
HETATM    1  C1  UNL     1      -2.181  -1.003  -1.454  1.00  0.00     0.035 C 
HETATM    2  C2  UNL     1      -1.504  -2.379  -1.433  1.00  0.00     0.003 C 
HETATM    3  C3  UNL     1      -0.921  -2.775  -0.053  1.00  0.00     0.003 C 
HETATM    4  C4  UNL     1      -0.058  -1.592   0.470  1.00  0.00     0.031 C 
HETATM    5  C5  UNL     1      -0.743  -0.214   0.470  1.00  0.00     0.159 C 
HETATM    6  C6  UNL     1      -1.257   0.097  -0.931  1.00  0.00     0.180 C 
HETATM    7  O1  UNL     1      -1.990   1.298  -0.889  1.00  0.00    -0.221 OA
HETATM    8  C7  UNL     1       0.151   0.890   1.058  1.00  0.00     0.059 C 
HETATM    9  C8  UNL     1       1.599   0.909   0.632  1.00  0.00    -0.022 A 
HETATM   10  C9  UNL     1       2.502  -0.098   0.999  1.00  0.00    -0.026 A 
HETATM   11  C10 UNL     1       2.141  -1.367   1.751  1.00  0.00     0.026 C 
HETATM   12  C11 UNL     1       0.672  -1.823   1.806  1.00  0.00     0.007 C 
HETATM   13  C12 UNL     1       3.847   0.093   0.662  1.00  0.00    -0.007 A 
HETATM   14  C13 UNL     1       4.335   1.224  -0.005  1.00  0.00    -0.001 A 
HETATM   15  C14 UNL     1       3.433   2.228  -0.399  1.00  0.00     0.090 A 
HETATM   16  C15 UNL     1       2.089   2.034  -0.044  1.00  0.00     0.019 A 
HETATM   17  O3  UNL     1      -1.880  -0.228   1.296  1.00  0.00    -0.223 OA
HETATM   18  C20 UNL     1      -0.033  -4.026  -0.288  1.00  0.00     0.000 C 
HETATM   19  C21 UNL     1      -2.048  -3.207   0.909  1.00  0.00     0.000 C 
ENDROOT
BRANCH  14  20
HETATM   20  C17 UNL     1       5.840   1.336  -0.228  1.00  0.00     0.024 C 
HETATM   21  C18 UNL     1       6.260   1.737  -1.651  1.00  0.00     0.005 C 
HETATM   22  C19 UNL     1       6.460   2.268   0.826  1.00  0.00     0.005 C 
ENDBRANCH  14  20
BRANCH  15  23
HETATM   23  O2  UNL     1       3.902   3.377  -0.986  1.00  0.00    -0.328 OA
HETATM   24  C16 UNL     1       3.109   4.541  -0.933  1.00  0.00     0.181 C 
ENDBRANCH  15  23
TORSDOF 2
