REMARK  4 active torsions:
REMARK  status: ('A' for Active; 'I' for Inactive)
REMARK    1  A    between atoms: C9_9  and  O1_10 
REMARK    2  A    between atoms: O1_10  and  C10_11 
REMARK    3  A    between atoms: C13_15  and  O3_16 
REMARK    4  A    between atoms: O3_16  and  C14_17 
ROOT
HETATM    1  C1  UNL     1      -0.366   1.046   2.058  1.00  0.00     0.011 C 
HETATM    2  C2  UNL     1      -0.789  -0.427   1.302  1.00  0.00     0.168 C 
HETATM    3  C3  UNL     1       0.093  -1.123  -0.008  1.00  0.00     0.060 C 
HETATM    4  C4  UNL     1       1.581  -0.229  -0.373  1.00  0.00     0.058 C 
HETATM    5  C5  UNL     1       1.645   1.633  -0.049  1.00  0.00     0.009 C 
HETATM    6  C6  UNL     1       0.795   2.112   1.433  1.00  0.00     0.029 C 
HETATM    7  C7  UNL     1       0.627   2.091  -0.991  1.00  0.00     0.005 A 
HETATM    8  C8  UNL     1       0.252   0.904  -1.777  1.00  0.00     0.030 A 
HETATM    9  C9  UNL     1       1.510   0.113  -1.857  1.00  0.00     0.127 C 
HETATM   10  C12 UNL     1      -0.096   1.011  -0.256  1.00  0.00     0.028 A 
HETATM   11  C13 UNL     1       1.216   0.213   0.939  1.00  0.00     0.127 C 
HETATM   12  C16 UNL     1      -1.576   1.534  -0.109  1.00  0.00     0.003 C 
HETATM   13  C17 UNL     1       3.008   2.334  -0.167  1.00  0.00     0.001 C 
HETATM   14  C18 UNL     1       0.524  -2.615   0.244  1.00  0.00     0.008 C 
HETATM   15  C19 UNL     1      -1.035  -1.414  -1.066  1.00  0.00     0.008 C 
HETATM   16  O5  UNL     1      -1.741  -1.030   1.752  1.00  0.00    -0.292 OA
ENDROOT
BRANCH   9  17
HETATM   17  O1  UNL     1       1.486  -1.025  -2.674  1.00  0.00    -0.304 OA
BRANCH  17  18
HETATM   18  C10 UNL     1       2.508  -1.907  -2.505  1.00  0.00     0.272 C 
HETATM   19  C11 UNL     1       2.321  -3.109  -3.408  1.00  0.00     0.106 C 
HETATM   20  O2  UNL     1       3.431  -1.755  -1.736  1.00  0.00    -0.264 OA
ENDBRANCH  17  18
ENDBRANCH   9  17
BRANCH  11  21
HETATM   21  O3  UNL     1       1.268  -0.845   1.936  1.00  0.00    -0.304 OA
BRANCH  21  22
HETATM   22  C14 UNL     1       2.107  -0.958   3.016  1.00  0.00     0.272 C 
HETATM   23  O4  UNL     1       1.979  -1.861   3.817  1.00  0.00    -0.264 OA
HETATM   24  C15 UNL     1       3.241   0.039   3.180  1.00  0.00     0.106 C 
ENDBRANCH  21  22
ENDBRANCH  11  21
TORSDOF 4
