REMARK  0 active torsions:
REMARK  status: ('A' for Active; 'I' for Inactive)
ROOT
HETATM    1  C1  UNL     1      -0.667   1.872   0.020  1.00  0.00     0.180 A 
HETATM    2  C2  UNL     1      -1.377   0.625  -0.268  1.00  0.00     0.200 C 
HETATM    3  C3  UNL     1      -0.631  -0.655  -0.254  1.00  0.00     0.042 A 
HETATM    4  C4  UNL     1       0.779  -0.646  -0.231  1.00  0.00     0.065 A 
HETATM    5  C5  UNL     1       1.470   0.672  -0.232  1.00  0.00     0.205 C 
HETATM    6  C6  UNL     1       0.768   1.938   0.024  1.00  0.00     0.208 A 
HETATM    7  O1  UNL     1       0.232   2.417  -1.185  1.00  0.00    -0.341 OA
HETATM    8  O2  UNL     1       2.684   0.754  -0.376  1.00  0.00    -0.289 OA
HETATM    9  C7  UNL     1       1.494  -1.855  -0.188  1.00  0.00     0.134 A 
HETATM   10  C8  UNL     1       0.755  -3.050  -0.186  1.00  0.00     0.028 A 
HETATM   11  C9  UNL     1      -0.636  -3.066  -0.211  1.00  0.00     0.002 A 
HETATM   12  C10 UNL     1      -1.338  -1.859  -0.241  1.00  0.00     0.003 A 
HETATM   13  O3  UNL     1       2.853  -1.942  -0.158  1.00  0.00    -0.190 OA
HETATM   14  O4  UNL     1      -2.593   0.656  -0.420  1.00  0.00    -0.289 OA
HETATM   15  C11 UNL     1      -1.444   2.990   0.697  1.00  0.00     0.041 C 
ENDROOT
TORSDOF 0
