REMARK  1 active torsions:
REMARK  status: ('A' for Active; 'I' for Inactive)
REMARK    1  A    between atoms: C2_2  and  O9_37 
ROOT
HETATM    1  C1  UNL     1      -5.690  -0.263  -0.900  1.00  0.00     0.097 C 
HETATM    2  C2  UNL     1      -6.112  -1.247   0.050  1.00  0.00     0.155 C 
HETATM    3  C3  UNL     1      -4.879  -2.135   0.153  1.00  0.00     0.207 C 
HETATM    4  C4  UNL     1      -3.668  -1.383   0.636  1.00  0.00     0.154 A 
HETATM    5  C5  UNL     1      -3.668   0.122   0.636  1.00  0.00     0.079 C 
HETATM    6  C6  UNL     1      -4.984   0.626   0.095  1.00  0.00     0.155 C 
HETATM    7  O1  UNL     1      -5.448   1.686   0.441  1.00  0.00    -0.296 OA
HETATM    8  C7  UNL     1      -2.557   0.702  -0.228  1.00  0.00     0.009 C 
HETATM    9  C8  UNL     1      -1.581  -0.403  -0.610  1.00  0.00     0.003 C 
HETATM   10  C9  UNL     1      -1.124  -1.247   0.528  1.00  0.00     0.032 C 
HETATM   11  C10 UNL     1      -2.376  -2.076   0.636  1.00  0.00     0.143 A 
HETATM   12  O2  UNL     1      -2.977  -1.989   1.738  1.00  0.00    -0.354 OA
HETATM   13  C11 UNL     1      -0.315   0.215  -1.190  1.00  0.00     0.003 C 
HETATM   14  C12 UNL     1       0.350   1.091  -0.137  1.00  0.00     0.005 C 
HETATM   15  C13 UNL     1      -0.410   2.405  -0.015  1.00  0.00     0.000 C 
HETATM   16  C14 UNL     1      -1.820   1.784   0.551  1.00  0.00     0.001 C 
HETATM   17  C15 UNL     1       1.738   1.359  -0.704  1.00  0.00     0.058 C 
HETATM   18  C16 UNL     1       2.073   0.088  -1.474  1.00  0.00     0.120 C 
HETATM   19  C17 UNL     1       0.708  -0.880  -1.458  1.00  0.00     0.030 C 
HETATM   20  O3  UNL     1       3.075  -0.585  -0.761  1.00  0.00    -0.335 OA
HETATM   21  C18 UNL     1       4.259   0.145  -0.941  1.00  0.00     0.226 A 
HETATM   22  C19 UNL     1       4.171   1.384  -0.060  1.00  0.00     0.231 C 
HETATM   23  C20 UNL     1       2.729   1.535   0.440  1.00  0.00     0.162 C 
HETATM   24  O4  UNL     1       2.478   0.562   1.418  1.00  0.00    -0.223 OA
HETATM   25  C21 UNL     1       2.558   2.931   1.024  1.00  0.00     0.036 C 
HETATM   26  O5  UNL     1       4.532   2.517  -0.804  1.00  0.00    -0.215 OA
HETATM   27  O6  UNL     1       4.088   0.559  -2.269  1.00  0.00    -0.278 OA
HETATM   28  C22 UNL     1       5.109  -0.012  -2.920  1.00  0.00     0.273 A 
HETATM   29  C23 UNL     1       6.200  -1.018  -1.743  1.00  0.00     0.091 A 
HETATM   30  C24 UNL     1       5.413  -0.731  -0.471  1.00  0.00     0.064 A 
HETATM   31  C25 UNL     1       6.275   0.008   0.544  1.00  0.00     0.006 C 
HETATM   32  C26 UNL     1       6.223  -2.500  -2.092  1.00  0.00     0.011 C 
HETATM   33  O7  UNL     1       5.308   0.099  -4.106  1.00  0.00    -0.264 OA
HETATM   34  C27 UNL     1       0.385   0.443   1.241  1.00  0.00     0.000 C 
HETATM   35  C28 UNL     1      -3.448   0.566   2.076  1.00  0.00     0.010 C 
HETATM   36  O8  UNL     1      -5.149  -3.177   1.051  1.00  0.00    -0.218 OA
ENDROOT
BRANCH   2  37
HETATM   37  O9  UNL     1      -6.422  -0.662   1.286  1.00  0.00    -0.351 OA
HETATM   38  C29 UNL     1      -7.691  -0.851   1.851  1.00  0.00     0.174 C 
ENDBRANCH   2  37
TORSDOF 1
