REMARK  2 active torsions:
REMARK  status: ('A' for Active; 'I' for Inactive)
REMARK    1  A    between atoms: O1_2  and  C2_3 
REMARK    2  A    between atoms: C9_11  and  C12_15 
ROOT
HETATM    1  C2  UNL     1       0.926  -1.526   1.265  1.00  0.00     0.094 C 
HETATM    2  C3  UNL     1       1.493  -2.852   0.810  1.00  0.00     0.026 C 
HETATM    3  C4  UNL     1       0.744  -4.115   1.157  1.00  0.00     0.035 C 
HETATM    4  C5  UNL     1       2.707  -2.885  -0.073  1.00  0.00     0.132 C 
HETATM    5  C6  UNL     1       3.394  -1.726  -0.271  1.00  0.00     0.069 C 
HETATM    6  C7  UNL     1       3.016  -0.443   0.366  1.00  0.00     0.102 C 
HETATM    7  C8  UNL     1       1.846  -0.367   1.052  1.00  0.00     0.048 C 
HETATM    8  O2  UNL     1       3.722   0.716   0.182  1.00  0.00    -0.304 OA
HETATM    9  C9  UNL     1       4.516   0.799  -0.976  1.00  0.00     0.249 C 
HETATM   10  C10 UNL     1       5.432  -0.399  -1.097  1.00  0.00     0.118 C 
HETATM   11  C11 UNL     1       4.661  -1.704  -1.107  1.00  0.00     0.118 C 
HETATM   12  O3  UNL     1       5.133  -2.719  -1.795  1.00  0.00    -0.195 OA
HETATM   13  O4  UNL     1       3.562   0.776  -2.026  1.00  0.00    -0.190 OA
HETATM   14  O5  UNL     1       3.057  -4.074  -0.636  1.00  0.00    -0.190 OA
ENDROOT
BRANCH   9  15
HETATM   15  C12 UNL     1       5.279   2.110  -0.981  1.00  0.00     0.032 A 
HETATM   16  C13 UNL     1       5.251   2.981  -2.078  1.00  0.00     0.001 A 
HETATM   17  C14 UNL     1       5.965   4.182  -2.058  1.00  0.00    -0.000 A 
HETATM   18  C15 UNL     1       6.726   4.529  -0.941  1.00  0.00    -0.000 A 
HETATM   19  C16 UNL     1       6.770   3.667   0.155  1.00  0.00    -0.000 A 
HETATM   20  C17 UNL     1       6.051   2.470   0.130  1.00  0.00     0.001 A 
ENDBRANCH   9  15
BRANCH   1  21
HETATM   21  O1  UNL     1      -0.186  -1.504   2.066  1.00  0.00    -0.328 OA
HETATM   22  C1  UNL     1      -0.401  -0.363   2.863  1.00  0.00     0.181 C 
ENDBRANCH   1  21
TORSDOF 2
