REMARK  6 active torsions:
REMARK  status: ('A' for Active; 'I' for Inactive)
REMARK    1  A    between atoms: C1_1  and  C11_14 
REMARK    2  A    between atoms: C4_5  and  C6_7 
REMARK    3  A    between atoms: C6_7  and  O1_8 
REMARK    4  A    between atoms: O1_8  and  C7_9 
REMARK    5  A    between atoms: C11_14  and  O3_15 
REMARK    6  A    between atoms: O3_15  and  C12_16 
ROOT
HETATM    1  C1  UNL     1       0.040  -0.899   0.348  1.00  0.00     0.077 A 
HETATM    2  C2  UNL     1      -0.952  -1.007   1.258  1.00  0.00     0.064 A 
HETATM    3  N1  UNL     1      -1.838  -0.110   1.380  1.00  0.00    -0.254 NA
HETATM    4  C3  UNL     1      -1.851   0.937   0.666  1.00  0.00     0.064 A 
HETATM    5  C4  UNL     1      -0.904   1.159  -0.269  1.00  0.00     0.077 A 
HETATM    6  C5  UNL     1       0.045   0.214  -0.411  1.00  0.00     0.013 A 
HETATM    7  C9  UNL     1      -3.013   1.852   0.991  1.00  0.00     0.052 C 
HETATM    8  C10 UNL     1      -1.157  -2.150   2.230  1.00  0.00     0.052 C 
ENDROOT
BRANCH   1   9
HETATM    9  C11 UNL     1       1.009  -1.849   0.171  1.00  0.00     0.297 C 
HETATM   10  O4  UNL     1       1.842  -1.667  -0.693  1.00  0.00    -0.259 OA
BRANCH   9  11
HETATM   11  O3  UNL     1       1.058  -3.018   0.878  1.00  0.00    -0.298 OA
BRANCH  11  12
HETATM   12  C12 UNL     1       1.956  -4.021   0.479  1.00  0.00     0.152 C 
HETATM   13  C13 UNL     1       3.363  -3.750   1.005  1.00  0.00     0.035 C 
ENDBRANCH  11  12
ENDBRANCH   9  11
ENDBRANCH   1   9
BRANCH   5  14
HETATM   14  C6  UNL     1      -0.866   2.272  -1.063  1.00  0.00     0.297 C 
HETATM   15  O2  UNL     1      -1.716   3.127  -0.947  1.00  0.00    -0.259 OA
BRANCH  14  16
HETATM   16  O1  UNL     1       0.126   2.463  -1.990  1.00  0.00    -0.298 OA
BRANCH  16  17
HETATM   17  C7  UNL     1       0.160   3.669  -2.709  1.00  0.00     0.152 C 
HETATM   18  C8  UNL     1       0.654   4.824  -1.841  1.00  0.00     0.035 C 
ENDBRANCH  16  17
ENDBRANCH  14  16
ENDBRANCH   5  14
TORSDOF 6
