REMARK  3 active torsions:
REMARK  status: ('A' for Active; 'I' for Inactive)
REMARK    1  A    between atoms: C7_7  and  O3_14 
REMARK    2  A    between atoms: C9_9  and  O1_11 
REMARK    3  A    between atoms: C16_19  and  O4_20 
ROOT
HETATM    1  C1  UNL     1      -1.298   0.876   0.002  1.00  0.00     0.004 A 
HETATM    2  C2  UNL     1      -0.771   2.110   0.001  1.00  0.00     0.000 A 
HETATM    3  C3  UNL     1       0.546   2.285   0.001  1.00  0.00     0.002 A 
HETATM    4  C4  UNL     1       1.363   1.221   0.002  1.00  0.00     0.024 A 
HETATM    5  C5  UNL     1       0.789  -0.018   0.002  1.00  0.00     0.004 A 
HETATM    6  C6  UNL     1      -0.565  -0.268  -0.000  1.00  0.00     0.025 A 
HETATM    7  C7  UNL     1      -1.328  -1.422  -0.006  1.00  0.00     0.121 A 
HETATM    8  C8  UNL     1      -2.699  -1.339  -0.001  1.00  0.00     0.175 A 
HETATM    9  C9  UNL     1      -3.394  -0.186   0.005  1.00  0.00     0.121 A 
HETATM   10  C10 UNL     1      -2.638   0.911   0.004  1.00  0.00     0.026 A 
HETATM   11  O2  UNL     1      -3.446  -2.489  -0.001  1.00  0.00    -0.186 OA
HETATM   12  C13 UNL     1       1.746  -0.955   0.003  1.00  0.00     0.002 A 
HETATM   13  C14 UNL     1       3.064  -0.745   0.008  1.00  0.00     0.029 A 
HETATM   14  C15 UNL     1       3.574   0.490   0.010  1.00  0.00     0.153 A 
HETATM   15  C16 UNL     1       2.698   1.518   0.005  1.00  0.00     0.119 A 
HETATM   16  O5  UNL     1       4.928   0.600   0.013  1.00  0.00    -0.188 OA
ENDROOT
BRANCH   7  17
HETATM   17  O3  UNL     1      -1.052  -2.784  -0.013  1.00  0.00    -0.326 OA
HETATM   18  C12 UNL     1       0.120  -3.540   0.019  1.00  0.00     0.181 C 
ENDBRANCH   7  17
BRANCH   9  19
HETATM   19  O1  UNL     1      -4.760   0.011   0.008  1.00  0.00    -0.326 OA
HETATM   20  C11 UNL     1      -5.681  -1.051  -0.007  1.00  0.00     0.181 C 
ENDBRANCH   9  19
BRANCH  15  21
HETATM   21  O4  UNL     1       3.063   2.852   0.004  1.00  0.00    -0.326 OA
HETATM   22  C17 UNL     1       4.393   3.305   0.001  1.00  0.00     0.181 C 
ENDBRANCH  15  21
TORSDOF 3
