REMARK  5 active torsions:
REMARK  status: ('A' for Active; 'I' for Inactive)
REMARK    1  A    between atoms: C1_1  and  C14_15 
REMARK    2  A    between atoms: C3_3  and  C9_9 
REMARK    3  A    between atoms: C5_5  and  C7_7 
REMARK    4  A    between atoms: C9_9  and  C10_10 
REMARK    5  A    between atoms: C14_15  and  C15_16 
ROOT
HETATM    1  C1  UNL     1       0.547   1.010  -0.103  1.00  0.00     0.007 A 
HETATM    2  C2  UNL     1       1.034  -0.242  -0.219  1.00  0.00     0.124 A 
HETATM    3  C3  UNL     1       0.223  -1.292   0.024  1.00  0.00     0.007 A 
HETATM    4  C4  UNL     1      -1.054  -1.067   0.382  1.00  0.00    -0.002 A 
HETATM    5  C5  UNL     1      -1.570   0.172   0.500  1.00  0.00    -0.001 A 
HETATM    6  C6  UNL     1      -0.735   1.197   0.255  1.00  0.00    -0.002 A 
HETATM    7  O1  UNL     1       2.335  -0.451  -0.568  1.00  0.00    -0.191 OA
ENDROOT
BRANCH   1   8
HETATM    8  C14 UNL     1       1.427   2.224  -0.351  1.00  0.00     0.054 C 
BRANCH   8   9
HETATM    9  C15 UNL     1       0.833   3.172  -1.364  1.00  0.00    -0.030 C 
HETATM   10  C16 UNL     1       1.133   4.478  -1.489  1.00  0.00    -0.048 C 
HETATM   11  C17 UNL     1       0.476   5.338  -2.543  1.00  0.00     0.026 C 
HETATM   12  C18 UNL     1       2.136   5.205  -0.626  1.00  0.00     0.026 C 
ENDBRANCH   8   9
ENDBRANCH   1   8
BRANCH   3  13
HETATM   13  C9  UNL     1       0.776  -2.703  -0.102  1.00  0.00     0.054 C 
BRANCH  13  14
HETATM   14  C10 UNL     1      -0.226  -3.822   0.040  1.00  0.00    -0.030 C 
HETATM   15  C11 UNL     1      -0.335  -4.706   1.049  1.00  0.00    -0.048 C 
HETATM   16  C12 UNL     1      -1.395  -5.784   1.023  1.00  0.00     0.026 C 
HETATM   17  C13 UNL     1       0.547  -4.745   2.275  1.00  0.00     0.026 C 
ENDBRANCH  13  14
ENDBRANCH   3  13
BRANCH   5  18
HETATM   18  C7  UNL     1      -2.864   0.321   0.853  1.00  0.00    -0.000 C 
HETATM   19  C8  UNL     1      -3.546   1.468   1.008  1.00  0.00    -0.000 C 
ENDBRANCH   5  18
TORSDOF 5
