REMARK  4 active torsions:
REMARK  status: ('A' for Active; 'I' for Inactive)
REMARK    1  A    between atoms: C1_1  and  O6_23 
REMARK    2  A    between atoms: C6_6  and  C7_7 
REMARK    3  A    between atoms: C7_7  and  O1_8 
REMARK    4  A    between atoms: C15_18  and  O4_19 
ROOT
HETATM    1  C1  UNL     1      -0.596   3.470  -0.791  1.00  0.00     0.100 A 
HETATM    2  C2  UNL     1      -0.459   3.819   0.500  1.00  0.00     0.026 A 
HETATM    3  C3  UNL     1      -0.159   2.928   1.441  1.00  0.00     0.027 A 
HETATM    4  C4  UNL     1      -0.086   1.625   1.142  1.00  0.00     0.103 A 
HETATM    5  C5  UNL     1      -0.329   1.231  -0.128  1.00  0.00     0.069 A 
HETATM    6  C6  UNL     1      -0.512   2.147  -1.132  1.00  0.00     0.090 A 
HETATM    7  C9  UNL     1      -0.450  -0.123  -0.295  1.00  0.00     0.202 A 
HETATM    8  C10 UNL     1      -0.196  -1.024   0.702  1.00  0.00     0.084 A 
HETATM    9  C11 UNL     1       0.120  -0.543   1.918  1.00  0.00     0.105 A 
HETATM   10  O3  UNL     1       0.171   0.785   2.181  1.00  0.00    -0.307 OA
HETATM   11  C12 UNL     1       0.368  -1.399   2.923  1.00  0.00     0.021 A 
HETATM   12  C13 UNL     1       0.320  -2.725   2.750  1.00  0.00    -0.018 A 
HETATM   13  C14 UNL     1       0.017  -3.175   1.524  1.00  0.00     0.020 A 
HETATM   14  C15 UNL     1      -0.258  -2.365   0.480  1.00  0.00     0.099 A 
HETATM   15  C17 UNL     1       0.612  -3.661   3.899  1.00  0.00     0.031 C 
HETATM   16  O5  UNL     1      -0.898  -0.533  -1.338  1.00  0.00    -0.286 OA
ENDROOT
BRANCH   6  17
HETATM   17  C7  UNL     1      -0.566   1.863  -2.486  1.00  0.00     0.298 C 
HETATM   18  O2  UNL     1      -1.099   2.678  -3.213  1.00  0.00    -0.259 OA
BRANCH  17  19
HETATM   19  O1  UNL     1      -0.091   0.780  -3.201  1.00  0.00    -0.296 OA
HETATM   20  C8  UNL     1       1.117   0.151  -2.817  1.00  0.00     0.185 C 
ENDBRANCH  17  19
ENDBRANCH   6  17
BRANCH   1  21
HETATM   21  O6  UNL     1      -0.860   4.525  -1.641  1.00  0.00    -0.328 OA
HETATM   22  C18 UNL     1       0.294   5.106  -2.209  1.00  0.00     0.181 C 
ENDBRANCH   1  21
BRANCH  14  23
HETATM   23  O4  UNL     1      -0.532  -2.864  -0.776  1.00  0.00    -0.328 OA
HETATM   24  C16 UNL     1      -0.330  -4.231  -1.052  1.00  0.00     0.181 C 
ENDBRANCH  14  23
TORSDOF 4
