REMARK  7 active torsions:
REMARK  status: ('A' for Active; 'I' for Inactive)
REMARK    1  A    between atoms: C1_1  and  C2_2 
REMARK    2  A    between atoms: C2_2  and  C3_3 
REMARK    3  A    between atoms: C3_3  and  C4_4 
REMARK    4  A    between atoms: C4_4  and  O1_5 
REMARK    5  A    between atoms: O1_5  and  C5_6 
REMARK    6  A    between atoms: C5_6  and  C10_15 
REMARK    7  A    between atoms: C6_8  and  C9_13 
ROOT
HETATM    1  C5  UNL     1      -0.768  -0.888  -1.525  1.00  0.00     0.250 C 
HETATM    2  O2  UNL     1      -1.787   0.065  -1.359  1.00  0.00    -0.328 OA
HETATM    3  C6  UNL     1      -2.780  -0.448  -0.516  1.00  0.00     0.184 C 
HETATM    4  C7  UNL     1      -2.720  -1.962  -0.618  1.00  0.00     0.217 C 
HETATM    5  C8  UNL     1      -1.440  -2.242  -1.384  1.00  0.00     0.238 C 
HETATM    6  O3  UNL     1      -0.620  -3.141  -0.674  1.00  0.00    -0.215 OA
HETATM    7  O4  UNL     1      -3.825  -2.453  -1.339  1.00  0.00    -0.218 OA
ENDROOT
BRANCH   1   8
HETATM    8  O1  UNL     1       0.134  -0.752  -0.448  1.00  0.00    -0.328 OA
BRANCH   8   9
HETATM    9  C4  UNL     1       0.867   0.449  -0.403  1.00  0.00     0.180 C 
BRANCH   9  10
HETATM   10  C3  UNL     1       1.461   0.601   0.992  1.00  0.00     0.212 C 
HETATM   11  O7  UNL     1       2.446  -0.391   1.165  1.00  0.00    -0.218 OA
BRANCH  10  12
HETATM   12  C2  UNL     1       2.046   1.984   1.291  1.00  0.00     0.188 C 
HETATM   13  C11 UNL     1       3.110   2.408   0.275  1.00  0.00     0.038 C 
HETATM   14  O8  UNL     1       1.005   2.926   1.220  1.00  0.00    -0.221 OA
BRANCH  12  15
HETATM   15  C1  UNL     1       2.636   2.064   2.698  1.00  0.00     0.215 C 
HETATM   16  O9  UNL     1       1.718   1.586   3.661  1.00  0.00    -0.218 OA
ENDBRANCH  12  15
ENDBRANCH  10  12
ENDBRANCH   9  10
ENDBRANCH   8   9
ENDBRANCH   1   8
BRANCH   1  17
HETATM   17  C10 UNL     1      -0.071  -0.688  -2.860  1.00  0.00     0.241 C 
HETATM   18  O6  UNL     1      -0.946  -0.975  -3.934  1.00  0.00    -0.215 OA
ENDBRANCH   1  17
BRANCH   3  19
HETATM   19  C9  UNL     1      -2.592   0.077   0.902  1.00  0.00     0.214 C 
HETATM   20  O5  UNL     1      -3.712  -0.266   1.693  1.00  0.00    -0.218 OA
ENDBRANCH   3  19
TORSDOF 7
