REMARK  3 active torsions:
REMARK  status: ('A' for Active; 'I' for Inactive)
REMARK    1  A    between atoms: C1_1  and  C2_2 
REMARK    2  A    between atoms: C2_2  and  C3_3 
REMARK    3  A    between atoms: C3_3  and  C4_4 
ROOT
HETATM    1  C2  UNL     1      -0.117  -0.630  -0.502  1.00  0.00     0.188 C 
HETATM    2  C5  UNL     1      -0.086   0.327  -1.697  1.00  0.00     0.038 C 
HETATM    3  O3  UNL     1       0.882  -1.596  -0.726  1.00  0.00    -0.221 OA
ENDROOT
BRANCH   1   4
HETATM    4  C1  UNL     1      -1.442  -1.391  -0.452  1.00  0.00     0.215 C 
HETATM    5  O4  UNL     1      -2.549  -0.520  -0.563  1.00  0.00    -0.218 OA
ENDBRANCH   1   4
BRANCH   1   6
HETATM    6  C3  UNL     1       0.210   0.049   0.831  1.00  0.00     0.215 C 
HETATM    7  O2  UNL     1      -0.728   1.053   1.137  1.00  0.00    -0.218 OA
BRANCH   6   8
HETATM    8  C4  UNL     1       1.580   0.700   0.908  1.00  0.00     0.218 C 
HETATM    9  O1  UNL     1       1.721   1.258   2.200  1.00  0.00    -0.218 OA
ENDBRANCH   6   8
ENDBRANCH   1   6
TORSDOF 3
