REMARK  5 active torsions:
REMARK  status: ('A' for Active; 'I' for Inactive)
REMARK    1  A    between atoms: C13_15  and  C15_18 
REMARK    2  A    between atoms: C15_18  and  C16_19 
REMARK    3  A    between atoms: C17_20  and  C18_21 
REMARK    4  A    between atoms: C18_21  and  C19_22 
REMARK    5  A    between atoms: C19_22  and  C20_23 
ROOT
HETATM    1  C1  UNL     1      -2.133  -3.423  -0.160  1.00  0.00     0.023 A 
HETATM    2  C2  UNL     1      -1.784  -4.752   0.070  1.00  0.00    -0.020 A 
HETATM    3  C3  UNL     1      -0.438  -5.045   0.316  1.00  0.00    -0.001 A 
HETATM    4  C4  UNL     1       0.529  -4.035   0.320  1.00  0.00     0.044 A 
HETATM    5  C5  UNL     1       0.159  -2.700   0.071  1.00  0.00     0.067 A 
HETATM    6  C6  UNL     1      -1.191  -2.385  -0.166  1.00  0.00     0.134 A 
HETATM    7  O1  UNL     1      -1.627  -1.118  -0.404  1.00  0.00    -0.190 OA
HETATM    8  C7  UNL     1       1.188  -1.625   0.058  1.00  0.00     0.200 A 
HETATM    9  C8  UNL     1       2.623  -1.993   0.238  1.00  0.00     0.067 A 
HETATM   10  C9  UNL     1       2.959  -3.327   0.526  1.00  0.00     0.046 A 
HETATM   11  C10 UNL     1       1.939  -4.402   0.594  1.00  0.00     0.196 A 
HETATM   12  O2  UNL     1       2.251  -5.562   0.851  1.00  0.00    -0.287 OA
HETATM   13  C11 UNL     1       4.295  -3.668   0.734  1.00  0.00     0.030 A 
HETATM   14  C12 UNL     1       5.312  -2.710   0.683  1.00  0.00     0.129 A 
HETATM   15  C13 UNL     1       4.981  -1.383   0.376  1.00  0.00     0.033 A 
HETATM   16  C14 UNL     1       3.637  -1.021   0.127  1.00  0.00     0.132 A 
HETATM   17  O3  UNL     1       3.356   0.248  -0.280  1.00  0.00    -0.190 OA
HETATM   18  O4  UNL     1       6.604  -3.098   0.868  1.00  0.00    -0.190 OA
HETATM   19  O5  UNL     1       0.852  -0.451  -0.055  1.00  0.00    -0.286 OA
HETATM   20  C25 UNL     1      -2.814  -5.854   0.062  1.00  0.00     0.031 C 
ENDROOT
BRANCH  15  21
HETATM   21  C15 UNL     1       6.127  -0.382   0.280  1.00  0.00     0.056 C 
BRANCH  21  22
HETATM   22  C16 UNL     1       5.777   1.075   0.446  1.00  0.00    -0.030 C 
HETATM   23  C17 UNL     1       6.226   2.101  -0.301  1.00  0.00    -0.048 C 
HETATM   24  C24 UNL     1       7.277   1.961  -1.380  1.00  0.00     0.026 C 
BRANCH  23  25
HETATM   25  C18 UNL     1       5.715   3.521  -0.136  1.00  0.00     0.026 C 
BRANCH  25  26
HETATM   26  C19 UNL     1       4.306   3.661   0.466  1.00  0.00     0.030 C 
BRANCH  26  27
HETATM   27  C20 UNL     1       3.781   5.070   0.325  1.00  0.00    -0.034 C 
HETATM   28  C21 UNL     1       2.548   5.439  -0.069  1.00  0.00    -0.048 C 
HETATM   29  C22 UNL     1       2.180   6.898  -0.214  1.00  0.00     0.026 C 
HETATM   30  C23 UNL     1       1.427   4.486  -0.414  1.00  0.00     0.026 C 
ENDBRANCH  26  27
ENDBRANCH  25  26
ENDBRANCH  23  25
ENDBRANCH  21  22
ENDBRANCH  15  21
TORSDOF 5
