REMARK  2 active torsions:
REMARK  status: ('A' for Active; 'I' for Inactive)
REMARK    1  A    between atoms: C4_4  and  C8_9 
REMARK    2  A    between atoms: C6_6  and  O1_7 
ROOT
HETATM    1  C1  UNL     1       1.369  -0.875  -2.592  1.00  0.00     0.026 C 
HETATM    2  C2  UNL     1      -0.033  -0.871  -2.605  1.00  0.00     0.129 C 
HETATM    3  C3  UNL     1      -0.724  -0.703  -1.403  1.00  0.00     0.023 C 
HETATM    4  C4  UNL     1      -0.086  -0.581  -0.163  1.00  0.00    -0.019 C 
HETATM    5  C5  UNL     1       1.313  -0.574  -0.211  1.00  0.00     0.020 C 
HETATM    6  C6  UNL     1       2.062  -0.639  -1.394  1.00  0.00     0.092 C 
HETATM    7  O2  UNL     1      -0.732  -1.027  -3.762  1.00  0.00    -0.190 OA
HETATM    8  C16 UNL     1       2.117  -1.105  -3.888  1.00  0.00     0.035 C 
ENDROOT
BRANCH   4   9
HETATM    9  C8  UNL     1      -0.878  -0.446   1.149  1.00  0.00     0.019 C 
HETATM   10  C9  UNL     1      -1.121   1.054   1.497  1.00  0.00     0.004 C 
HETATM   11  C10 UNL     1       0.213   1.477   2.150  1.00  0.00     0.000 C 
HETATM   12  C13 UNL     1      -2.259   1.260   2.523  1.00  0.00     0.000 C 
HETATM   13  C14 UNL     1      -1.429   1.946   0.279  1.00  0.00     0.000 C 
HETATM   14  C11 UNL     1       0.663   0.266   2.978  1.00  0.00     0.000 C 
HETATM   15  C12 UNL     1      -0.062  -0.948   2.370  1.00  0.00     0.004 C 
HETATM   16  C15 UNL     1      -2.179  -1.278   1.066  1.00  0.00     0.004 C 
ENDBRANCH   4   9
BRANCH   6  17
HETATM   17  O1  UNL     1       3.430  -0.683  -1.326  1.00  0.00    -0.328 OA
HETATM   18  C7  UNL     1       4.039   0.574  -1.518  1.00  0.00     0.181 C 
ENDBRANCH   6  17
TORSDOF 2
