REMARK  1 active torsions:
REMARK  status: ('A' for Active; 'I' for Inactive)
REMARK    1  A    between atoms: C14_16  and  O3_17 
ROOT
HETATM    1  C1  UNL     1      -2.373  -0.868  -0.039  1.00  0.00     0.055 A 
HETATM    2  C2  UNL     1      -2.022  -2.213  -0.135  1.00  0.00     0.133 A 
HETATM    3  C3  UNL     1      -0.659  -2.526  -0.104  1.00  0.00     0.031 A 
HETATM    4  C4  UNL     1       0.313  -1.527   0.008  1.00  0.00     0.046 A 
HETATM    5  C5  UNL     1      -0.066  -0.175   0.095  1.00  0.00     0.068 A 
HETATM    6  C6  UNL     1      -1.431   0.163   0.077  1.00  0.00     0.136 A 
HETATM    7  O1  UNL     1      -1.882   1.444   0.152  1.00  0.00    -0.190 OA
HETATM    8  C7  UNL     1       0.967   0.893   0.198  1.00  0.00     0.200 A 
HETATM    9  C8  UNL     1       2.407   0.510   0.130  1.00  0.00     0.066 A 
HETATM   10  C9  UNL     1       2.762  -0.850   0.049  1.00  0.00     0.044 A 
HETATM   11  C10 UNL     1       1.740  -1.926   0.020  1.00  0.00     0.196 A 
HETATM   12  O2  UNL     1       2.062  -3.112  -0.013  1.00  0.00    -0.287 OA
HETATM   13  C11 UNL     1       4.107  -1.219  -0.002  1.00  0.00     0.001 A 
HETATM   14  C12 UNL     1       5.116  -0.251   0.050  1.00  0.00     0.006 A 
HETATM   15  C13 UNL     1       4.762   1.097   0.136  1.00  0.00     0.149 A 
HETATM   16  C14 UNL     1       3.412   1.499   0.105  1.00  0.00     0.122 A 
HETATM   17  O4  UNL     1       5.728   2.052   0.227  1.00  0.00    -0.188 OA
HETATM   18  C16 UNL     1       6.572  -0.650   0.030  1.00  0.00     0.033 C 
HETATM   19  O5  UNL     1       0.625   2.067   0.312  1.00  0.00    -0.286 OA
HETATM   20  O6  UNL     1      -2.961  -3.188  -0.259  1.00  0.00    -0.190 OA
ENDROOT
BRANCH  16  21
HETATM   21  O3  UNL     1       3.155   2.837   0.268  1.00  0.00    -0.326 OA
HETATM   22  C15 UNL     1       2.996   3.542  -0.944  1.00  0.00     0.181 C 
ENDBRANCH  16  21
TORSDOF 1
