REMARK  7 active torsions:
REMARK  status: ('A' for Active; 'I' for Inactive)
REMARK    1  A    between atoms: C1_2  and  C2_3 
REMARK    2  A    between atoms: C2_3  and  C3_4 
REMARK    3  A    between atoms: C3_4  and  S1_5 
REMARK    4  A    between atoms: S1_5  and  C4_6 
REMARK    5  A    between atoms: C5_8  and  C9_15 
REMARK    6  A    between atoms: N1_17  and  O7_18 
REMARK    7  A    between atoms: O7_18  and  S2_19 
ROOT
HETATM    1  C4  UNL     1       0.922  -0.659  -0.538  1.00  0.00     0.201 C 
HETATM    2  O2  UNL     1       2.228  -0.999  -0.961  1.00  0.00    -0.340 OA
HETATM    3  C5  UNL     1       2.902  -1.832  -0.054  1.00  0.00     0.182 C 
HETATM    4  C6  UNL     1       2.149  -3.150   0.074  1.00  0.00     0.215 C 
HETATM    5  C7  UNL     1       0.729  -2.888   0.533  1.00  0.00     0.218 C 
HETATM    6  C8  UNL     1       0.076  -1.922  -0.434  1.00  0.00     0.223 C 
HETATM    7  O3  UNL     1      -1.213  -1.610   0.033  1.00  0.00    -0.217 OA
HETATM    8  O4  UNL     1       0.018  -4.099   0.555  1.00  0.00    -0.218 OA
HETATM    9  O5  UNL     1       2.760  -3.994   1.018  1.00  0.00    -0.218 OA
ENDROOT
BRANCH   1  10
HETATM   10  S1  UNL     1       0.163   0.433  -1.775  1.00  0.00    -0.066 SA
BRANCH  10  11
HETATM   11  C3  UNL     1      -0.753   1.742  -0.908  1.00  0.00     0.117 C 
HETATM   12  N1  UNL     1      -0.725   2.114   0.321  1.00  0.00    -0.110 NA
BRANCH  11  13
HETATM   13  C2  UNL     1      -1.688   2.561  -1.780  1.00  0.00     0.090 C 
BRANCH  13  14
HETATM   14  C1  UNL     1      -2.180   3.877  -1.177  1.00  0.00     0.189 C 
HETATM   15  O1  UNL     1      -2.962   4.566  -2.132  1.00  0.00    -0.220 OA
ENDBRANCH  13  14
ENDBRANCH  11  13
BRANCH  12  16
HETATM   16  O7  UNL     1       0.038   1.614   1.272  1.00  0.00    -0.106 OA
BRANCH  16  17
HETATM   17  S2  UNL     1       0.013   2.568   2.639  1.00  0.00     0.275 S 
HETATM   18  O8  UNL     1      -1.538   2.634   3.232  1.00  0.00    -0.571 OA
HETATM   19  O9  UNL     1       0.681   1.893   3.739  1.00  0.00    -0.571 OA
HETATM   20  O10 UNL     1       0.496   3.904   2.334  1.00  0.00    -0.571 OA
ENDBRANCH  16  17
ENDBRANCH  12  16
ENDBRANCH  10  11
ENDBRANCH   1  10
BRANCH   3  21
HETATM   21  C9  UNL     1       4.325  -2.030  -0.556  1.00  0.00     0.214 C 
HETATM   22  O6  UNL     1       5.017  -0.797  -0.513  1.00  0.00    -0.218 OA
ENDBRANCH   3  21
TORSDOF 7
