REMARK  9 active torsions:
REMARK  status: ('A' for Active; 'I' for Inactive)
REMARK    1  A    between atoms: C5_6  and  O2_7 
REMARK    2  A    between atoms: O2_7  and  C6_8 
REMARK    3  A    between atoms: C6_8  and  C7_9 
REMARK    4  A    between atoms: C20_26  and  C46_59 
REMARK    5  A    between atoms: C22_28  and  O12_53 
REMARK    6  A    between atoms: C33_39  and  C36_44 
REMARK    7  A    between atoms: O12_53  and  C42_54 
REMARK    8  A    between atoms: C46_59  and  C47_60 
REMARK    9  A    between atoms: C47_60  and  O14_61 
ROOT
HETATM    1  C1  UNL     1       5.279   2.136  -1.188  1.00  0.00     0.209 C 
HETATM    2  C2  UNL     1       4.888   3.389  -0.397  1.00  0.00     0.129 C 
HETATM    3  O1  UNL     1       3.552   3.724  -0.625  1.00  0.00    -0.334 OA
HETATM    4  C3  UNL     1       2.640   2.708  -0.597  1.00  0.00     0.091 C 
HETATM    5  C4  UNL     1       3.045   1.260  -0.697  1.00  0.00     0.012 C 
HETATM    6  C5  UNL     1       4.503   0.894  -0.767  1.00  0.00     0.178 C 
HETATM    7  C11 UNL     1       1.911   0.284  -0.859  1.00  0.00     0.050 C 
HETATM    8  C12 UNL     1       0.570   0.617  -0.316  1.00  0.00    -0.017 C 
HETATM    9  C13 UNL     1       0.262   1.845   0.161  1.00  0.00     0.091 C 
HETATM   10  C14 UNL     1       1.340   2.881   0.157  1.00  0.00     0.047 C 
HETATM   11  O4  UNL     1      -0.952   2.204   0.685  1.00  0.00    -0.304 OA
HETATM   12  C15 UNL     1      -1.976   1.308   0.683  1.00  0.00     0.274 C 
HETATM   13  C16 UNL     1      -1.864  -0.073   0.051  1.00  0.00     0.069 C 
HETATM   14  C17 UNL     1      -0.466  -0.450  -0.346  1.00  0.00     0.030 C 
HETATM   15  O5  UNL     1      -3.139   1.629   1.223  1.00  0.00    -0.190 OA
HETATM   16  C18 UNL     1       5.713   4.593  -0.881  1.00  0.00     0.033 C 
HETATM   17  C19 UNL     1       5.106   3.222   1.115  1.00  0.00     0.033 C 
HETATM   18  O6  UNL     1       6.653   1.874  -1.021  1.00  0.00    -0.218 OA
ENDROOT
BRANCH   6  19
HETATM   19  O2  UNL     1       4.779  -0.140  -1.682  1.00  0.00    -0.294 OA
BRANCH  19  20
HETATM   20  C6  UNL     1       4.669  -1.433  -1.254  1.00  0.00     0.292 C 
HETATM   21  O3  UNL     1       4.244  -1.676  -0.130  1.00  0.00    -0.260 OA
BRANCH  20  22
HETATM   22  C7  UNL     1       4.960  -2.564  -2.182  1.00  0.00     0.037 C 
HETATM   23  C8  UNL     1       5.354  -3.776  -1.735  1.00  0.00    -0.025 C 
HETATM   24  C9  UNL     1       5.627  -4.194  -0.313  1.00  0.00     0.030 C 
HETATM   25  C10 UNL     1       4.798  -2.287  -3.658  1.00  0.00     0.036 C 
ENDBRANCH  20  22
ENDBRANCH  19  20
ENDBRANCH   6  19
TORSDOF 9
