REMARK  2 active torsions:
REMARK  status: ('A' for Active; 'I' for Inactive)
REMARK    1  A    between atoms: C11_11  and  C17_17 
REMARK    2  A    between atoms: C14_14  and  C15_15 
ROOT
HETATM    1  C1  UNL     1      -1.463  -0.911   2.640  1.00  0.00     0.027 C 
HETATM    2  C2  UNL     1      -1.847  -2.059   1.939  1.00  0.00     0.127 C 
HETATM    3  C3  UNL     1      -1.306  -2.273   0.661  1.00  0.00    -0.000 C 
HETATM    4  C4  UNL     1      -0.450  -1.311   0.092  1.00  0.00    -0.024 C 
HETATM    5  C5  UNL     1      -0.168  -0.109   0.757  1.00  0.00    -0.004 C 
HETATM    6  C6  UNL     1      -0.629   0.045   2.071  1.00  0.00     0.002 C 
HETATM    7  C7  UNL     1       0.664   0.925   0.093  1.00  0.00    -0.004 C 
HETATM    8  C8  UNL     1       1.658   0.492  -0.808  1.00  0.00    -0.016 C 
HETATM    9  C9  UNL     1       1.652  -0.967  -1.204  1.00  0.00     0.031 C 
HETATM   10  C10 UNL     1       0.221  -1.522  -1.243  1.00  0.00     0.031 C 
HETATM   11  C11 UNL     1       2.588   1.421  -1.317  1.00  0.00     0.060 C 
HETATM   12  C12 UNL     1       2.459   2.779  -0.991  1.00  0.00     0.006 C 
HETATM   13  C13 UNL     1       1.425   3.212  -0.169  1.00  0.00     0.000 C 
HETATM   14  C14 UNL     1       0.498   2.300   0.347  1.00  0.00    -0.000 C 
HETATM   15  C18 UNL     1      -1.673  -3.519  -0.117  1.00  0.00     0.033 C 
HETATM   16  O3  UNL     1      -2.661  -2.967   2.539  1.00  0.00    -0.191 OA
ENDROOT
BRANCH  11  17
HETATM   17  C17 UNL     1       3.709   1.051  -2.227  1.00  0.00     0.210 C 
HETATM   18  O1  UNL     1       4.399   1.976  -2.930  1.00  0.00    -0.644 OA
HETATM   19  O2  UNL     1       4.106  -0.101  -2.347  1.00  0.00    -0.644 OA
ENDBRANCH  11  17
BRANCH  14  20
HETATM   20  C15 UNL     1      -0.636   2.886   1.101  1.00  0.00    -0.000 C 
HETATM   21  C16 UNL     1      -1.912   2.515   0.906  1.00  0.00    -0.000 C 
ENDBRANCH  14  20
TORSDOF 2
