REMARK  3 active torsions:
REMARK  status: ('A' for Active; 'I' for Inactive)
REMARK    1  A    between atoms: C6_6  and  C7_7 
REMARK    2  A    between atoms: C12_15  and  C16_20 
REMARK    3  A    between atoms: C14_17  and  O4_18 
ROOT
HETATM    1  C1  UNL     1      -2.260   4.233  -1.112  1.00  0.00     0.137 A 
HETATM    2  C2  UNL     1      -2.299   4.496   0.259  1.00  0.00     0.030 A 
HETATM    3  C3  UNL     1      -2.245   3.455   1.185  1.00  0.00     0.027 A 
HETATM    4  C4  UNL     1      -2.156   2.111   0.798  1.00  0.00     0.103 A 
HETATM    5  C5  UNL     1      -2.120   1.842  -0.577  1.00  0.00     0.070 A 
HETATM    6  C6  UNL     1      -2.168   2.897  -1.504  1.00  0.00     0.095 A 
HETATM    7  C8  UNL     1      -2.060   0.425  -1.022  1.00  0.00     0.202 A 
HETATM    8  C9  UNL     1      -1.991  -0.604   0.050  1.00  0.00     0.084 A 
HETATM    9  C10 UNL     1      -2.028  -0.158   1.382  1.00  0.00     0.105 A 
HETATM   10  O3  UNL     1      -2.124   1.150   1.760  1.00  0.00    -0.307 OA
HETATM   11  C11 UNL     1      -1.982  -1.123   2.390  1.00  0.00     0.023 A 
HETATM   12  C12 UNL     1      -1.918  -2.489   2.113  1.00  0.00     0.015 A 
HETATM   13  C13 UNL     1      -1.872  -2.886   0.775  1.00  0.00     0.023 A 
HETATM   14  C14 UNL     1      -1.881  -1.972  -0.291  1.00  0.00     0.099 A 
HETATM   15  O6  UNL     1      -2.121   0.154  -2.219  1.00  0.00    -0.286 OA
HETATM   16  O7  UNL     1      -2.314   5.226  -2.040  1.00  0.00    -0.190 OA
ENDROOT
BRANCH   6  17
HETATM   17  C7  UNL     1      -2.117   2.660  -2.999  1.00  0.00     0.213 C 
HETATM   18  O1  UNL     1      -3.209   2.839  -3.764  1.00  0.00    -0.644 OA
HETATM   19  O2  UNL     1      -1.045   2.494  -3.555  1.00  0.00    -0.644 OA
ENDBRANCH   6  17
BRANCH  14  20
HETATM   20  O4  UNL     1      -1.854  -2.351  -1.611  1.00  0.00    -0.328 OA
HETATM   21  C15 UNL     1      -2.001  -3.713  -1.938  1.00  0.00     0.181 C 
ENDBRANCH  14  20
BRANCH  12  22
HETATM   22  C16 UNL     1      -1.916  -3.496   3.237  1.00  0.00     0.209 C 
HETATM   23  O5  UNL     1      -2.855  -3.147   4.247  1.00  0.00    -0.215 OA
ENDBRANCH  12  22
TORSDOF 3
