REMARK  7 active torsions:
REMARK  status: ('A' for Active; 'I' for Inactive)
REMARK    1  A    between atoms: C7_7  and  C10_12 
REMARK    2  A    between atoms: C19_22  and  C29_34 
REMARK    3  A    between atoms: C21_24  and  O4_25 
REMARK    4  A    between atoms: O4_25  and  C22_26 
REMARK    5  A    between atoms: C22_26  and  C23_27 
REMARK    6  A    between atoms: C29_34  and  C30_36 
REMARK    7  A    between atoms: C30_36  and  O8_38 
ROOT
HETATM    1  C1  UNL     1      -0.050   2.574  -0.605  1.00  0.00     0.022 C 
HETATM    2  C2  UNL     1       0.801   1.620  -1.469  1.00  0.00    -0.043 C 
HETATM    3  C3  UNL     1       2.109   1.173  -0.840  1.00  0.00    -0.034 C 
HETATM    4  C4  UNL     1       2.693   1.898   0.137  1.00  0.00    -0.037 C 
HETATM    5  C5  UNL     1       2.065   3.133   0.754  1.00  0.00     0.045 C 
HETATM    6  C6  UNL     1       0.541   2.902   0.771  1.00  0.00     0.011 C 
HETATM    7  C7  UNL     1       2.558   3.307   2.217  1.00  0.00     0.152 C 
HETATM    8  O1  UNL     1       2.897   2.085   2.833  1.00  0.00    -0.299 OA
HETATM    9  C8  UNL     1       3.712   1.204   2.191  1.00  0.00     0.276 C 
HETATM   10  C9  UNL     1       4.027   1.600   0.763  1.00  0.00     0.118 C 
HETATM   11  O2  UNL     1       4.100   0.171   2.694  1.00  0.00    -0.264 OA
HETATM   12  C14 UNL     1       2.402   4.354  -0.125  1.00  0.00     0.007 C 
HETATM   13  C15 UNL     1       2.831   0.024  -1.509  1.00  0.00     0.065 C 
HETATM   14  C16 UNL     1       1.937  -1.024  -2.166  1.00  0.00     0.207 C 
HETATM   15  C17 UNL     1       0.966  -0.255  -3.029  1.00  0.00     0.183 C 
HETATM   16  C18 UNL     1      -0.046   0.565  -2.251  1.00  0.00     0.072 C 
HETATM   17  C19 UNL     1      -0.893  -0.476  -1.430  1.00  0.00     0.053 C 
HETATM   18  C20 UNL     1      -0.058  -1.436  -0.505  1.00  0.00     0.032 C 
HETATM   19  C21 UNL     1       1.201  -1.983  -1.228  1.00  0.00     0.159 C 
HETATM   20  C27 UNL     1      -0.878  -2.667  -0.023  1.00  0.00     0.003 C 
HETATM   21  C28 UNL     1       0.271  -0.745   0.846  1.00  0.00     0.003 C 
HETATM   22  C32 UNL     1      -0.903   1.374  -3.263  1.00  0.00     0.012 C 
HETATM   23  O9  UNL     1       1.113  -0.281  -4.230  1.00  0.00    -0.293 OA
HETATM   24  O10 UNL     1       2.744  -1.790  -3.045  1.00  0.00    -0.216 OA
ENDROOT
BRANCH  19  25
HETATM   25  O4  UNL     1       2.126  -2.509  -0.315  1.00  0.00    -0.298 OA
BRANCH  25  26
HETATM   26  C22 UNL     1       2.181  -3.848  -0.052  1.00  0.00     0.291 C 
HETATM   27  O5  UNL     1       1.554  -4.651  -0.739  1.00  0.00    -0.260 OA
BRANCH  26  28
HETATM   28  C23 UNL     1       2.880  -4.327   1.174  1.00  0.00     0.037 C 
HETATM   29  C24 UNL     1       2.823  -5.640   1.495  1.00  0.00    -0.025 C 
HETATM   30  C25 UNL     1       3.428  -6.319   2.696  1.00  0.00     0.030 C 
HETATM   31  C26 UNL     1       3.602  -3.273   1.981  1.00  0.00     0.036 C 
ENDBRANCH  26  28
ENDBRANCH  25  26
ENDBRANCH  19  25
BRANCH  17  32
HETATM   32  C29 UNL     1      -1.922  -1.193  -2.343  1.00  0.00     0.238 C 
HETATM   33  O6  UNL     1      -1.262  -2.062  -3.247  1.00  0.00    -0.213 OA
BRANCH  32  34
HETATM   34  C30 UNL     1      -3.080  -1.974  -1.746  1.00  0.00     0.303 C 
HETATM   35  O7  UNL     1      -3.343  -3.082  -2.158  1.00  0.00    -0.261 OA
BRANCH  34  36
HETATM   36  O8  UNL     1      -3.766  -1.282  -0.802  1.00  0.00    -0.297 OA
HETATM   37  C31 UNL     1      -4.857  -1.958  -0.224  1.00  0.00     0.185 C 
ENDBRANCH  34  36
ENDBRANCH  32  34
ENDBRANCH  17  32
BRANCH   7  38
HETATM   38  C10 UNL     1       3.617   4.357   2.472  1.00  0.00     0.032 A 
HETATM   39  C11 UNL     1       3.417   5.776   2.532  1.00  0.00     0.027 A 
HETATM   40  C12 UNL     1       4.626   6.328   2.826  1.00  0.00     0.122 A 
HETATM   41  O3  UNL     1       5.573   5.360   2.970  1.00  0.00    -0.303 OA
HETATM   42  C13 UNL     1       4.936   4.172   2.769  1.00  0.00     0.121 A 
ENDBRANCH   7  38
TORSDOF 7
