REMARK  7 active torsions:
REMARK  status: ('A' for Active; 'I' for Inactive)
REMARK    1  A    between atoms: C1_1  and  C2_2 
REMARK    2  A    between atoms: C1_1  and  O6_13 
REMARK    3  A    between atoms: C2_2  and  C3_3 
REMARK    4  A    between atoms: C3_3  and  C4_4 
REMARK    5  A    between atoms: C3_3  and  C5_8 
REMARK    6  A    between atoms: C5_8  and  C6_9 
REMARK    7  A    between atoms: C6_9  and  O4_10 
ROOT
HETATM    1  C3  UNL     1      -1.794   0.162   0.363  1.00  0.00     0.222 C 
HETATM    2  O3  UNL     1      -3.058  -0.454   0.540  1.00  0.00    -0.214 OA
ENDROOT
BRANCH   1   3
HETATM    3  C2  UNL     1      -2.051   1.679   0.273  1.00  0.00     0.137 C 
BRANCH   3   4
HETATM    4  C1  UNL     1      -0.881   2.652   0.321  1.00  0.00     0.275 C 
HETATM    5  O7  UNL     1      -1.016   3.854   0.390  1.00  0.00    -0.264 OA
BRANCH   4   6
HETATM    6  O6  UNL     1       0.320   2.023   0.280  1.00  0.00    -0.299 OA
HETATM    7  C8  UNL     1       1.464   2.838   0.357  1.00  0.00     0.184 C 
ENDBRANCH   4   6
ENDBRANCH   3   4
ENDBRANCH   1   3
BRANCH   1   8
HETATM    8  C4  UNL     1      -0.916  -0.207   1.557  1.00  0.00     0.215 C 
HETATM    9  O1  UNL     1      -0.067  -1.065   1.571  1.00  0.00    -0.646 OA
HETATM   10  O2  UNL     1      -1.193   0.524   2.651  1.00  0.00    -0.646 OA
ENDBRANCH   1   8
BRANCH   1  11
HETATM   11  C5  UNL     1      -1.198  -0.406  -0.937  1.00  0.00     0.137 C 
BRANCH  11  12
HETATM   12  C6  UNL     1      -1.194  -1.928  -0.991  1.00  0.00     0.275 C 
HETATM   13  O5  UNL     1      -1.961  -2.619  -0.360  1.00  0.00    -0.264 OA
BRANCH  12  14
HETATM   14  O4  UNL     1      -0.226  -2.389  -1.827  1.00  0.00    -0.299 OA
HETATM   15  C7  UNL     1      -0.116  -3.788  -1.936  1.00  0.00     0.184 C 
ENDBRANCH  12  14
ENDBRANCH  11  12
ENDBRANCH   1  11
TORSDOF 7
