REMARK  2 active torsions:
REMARK  status: ('A' for Active; 'I' for Inactive)
REMARK    1  A    between atoms: C1_1  and  O5_19 
REMARK    2  A    between atoms: C13_14  and  O2_15 
ROOT
HETATM    1  C1  UNL     1      -1.138   3.200  -0.709  1.00  0.00     0.094 A 
HETATM    2  C2  UNL     1      -1.442   3.394   0.646  1.00  0.00     0.026 A 
HETATM    3  C3  UNL     1      -1.292   2.376   1.591  1.00  0.00     0.027 A 
HETATM    4  C4  UNL     1      -0.838   1.100   1.243  1.00  0.00     0.103 A 
HETATM    5  C5  UNL     1      -0.512   0.903  -0.104  1.00  0.00     0.064 A 
HETATM    6  C6  UNL     1      -0.663   1.927  -1.049  1.00  0.00     0.029 A 
HETATM    7  C7  UNL     1      -0.052  -0.443  -0.531  1.00  0.00     0.201 C 
HETATM    8  C8  UNL     1      -0.341  -1.539   0.437  1.00  0.00     0.086 A 
HETATM    9  C9  UNL     1      -0.676  -1.161   1.751  1.00  0.00     0.105 A 
HETATM   10  O1  UNL     1      -0.679   0.132   2.189  1.00  0.00    -0.307 OA
HETATM   11  C10 UNL     1      -0.958  -2.185   2.659  1.00  0.00     0.027 A 
HETATM   12  C11 UNL     1      -0.902  -3.525   2.279  1.00  0.00     0.032 A 
HETATM   13  C12 UNL     1      -0.578  -3.883   0.971  1.00  0.00     0.153 A 
HETATM   14  C13 UNL     1      -0.362  -2.883   0.008  1.00  0.00     0.124 A 
HETATM   15  O3  UNL     1      -0.492  -5.191   0.609  1.00  0.00    -0.188 OA
HETATM   16  O4  UNL     1       0.447  -0.616  -1.638  1.00  0.00    -0.286 OA
ENDROOT
BRANCH   1  17
HETATM   17  O5  UNL     1      -1.258   4.147  -1.696  1.00  0.00    -0.328 OA
HETATM   18  C15 UNL     1      -1.670   5.445  -1.336  1.00  0.00     0.181 C 
ENDBRANCH   1  17
BRANCH  14  19
HETATM   19  O2  UNL     1       0.018  -3.274  -1.250  1.00  0.00    -0.326 OA
HETATM   20  C14 UNL     1      -1.044  -3.311  -2.177  1.00  0.00     0.181 C 
ENDBRANCH  14  19
TORSDOF 2
