REMARK  0 active torsions:
REMARK  status: ('A' for Active; 'I' for Inactive)
ROOT
HETATM    1  C1  UNL     1      -1.267  -0.029  -2.367  1.00  0.00     0.161 C 
HETATM    2  C2  UNL     1      -1.825  -1.222  -1.675  1.00  0.00     0.197 C 
HETATM    3  C3  UNL     1      -0.935  -2.034  -0.730  1.00  0.00     0.058 C 
HETATM    4  C4  UNL     1       0.425  -1.328  -0.472  1.00  0.00     0.011 C 
HETATM    5  C5  UNL     1       0.404   0.225  -0.496  1.00  0.00     0.022 C 
HETATM    6  C6  UNL     1      -0.216   0.610  -1.826  1.00  0.00     0.004 C 
HETATM    7  C7  UNL     1       1.865   0.773  -0.404  1.00  0.00     0.015 C 
HETATM    8  C8  UNL     1       2.712   0.152   0.735  1.00  0.00     0.020 C 
HETATM    9  C9  UNL     1       2.627  -1.376   0.777  1.00  0.00     0.004 C 
HETATM   10  C10 UNL     1       1.177  -1.867   0.759  1.00  0.00     0.001 C 
HETATM   11  C11 UNL     1       4.182   0.616   0.562  1.00  0.00     0.015 C 
HETATM   12  C12 UNL     1       4.117   2.073   1.055  1.00  0.00     0.070 C 
HETATM   13  C13 UNL     1       3.384   2.841  -0.037  1.00  0.00     0.153 C 
HETATM   14  C14 UNL     1       2.006   2.316  -0.423  1.00  0.00     0.066 C 
HETATM   15  O1  UNL     1       3.835   3.848  -0.536  1.00  0.00    -0.296 OA
HETATM   16  C15 UNL     1       3.193   1.897   2.234  1.00  0.00    -0.024 C 
HETATM   17  C16 UNL     1       2.419   0.819   2.061  1.00  0.00    -0.031 C 
HETATM   18  C17 UNL     1       5.478   2.666   1.422  1.00  0.00     0.012 C 
HETATM   19  C18 UNL     1      -0.532   0.826   0.574  1.00  0.00     0.004 C 
HETATM   20  C19 UNL     1      -0.695  -3.382  -1.457  1.00  0.00     0.008 C 
HETATM   21  C20 UNL     1      -1.728  -2.358   0.557  1.00  0.00     0.008 C 
HETATM   22  O2  UNL     1      -2.954  -1.610  -1.954  1.00  0.00    -0.289 OA
HETATM   23  O3  UNL     1      -1.825   0.368  -3.541  1.00  0.00    -0.188 OA
ENDROOT
TORSDOF 0
