REMARK  1 active torsions:
REMARK  status: ('A' for Active; 'I' for Inactive)
REMARK    1  A    between atoms: C11_13  and  C13_15 
ROOT
HETATM    1  C1  UNL     1      -2.064   1.297   0.093  1.00  0.00     0.000 A 
HETATM    2  C2  UNL     1      -2.269  -0.079   0.137  1.00  0.00     0.000 A 
HETATM    3  C3  UNL     1      -1.174  -0.952   0.117  1.00  0.00     0.003 A 
HETATM    4  C4  UNL     1       0.132  -0.454   0.053  1.00  0.00     0.044 A 
HETATM    5  C5  UNL     1       0.338   0.944   0.006  1.00  0.00     0.042 A 
HETATM    6  C6  UNL     1      -0.761   1.807   0.027  1.00  0.00     0.003 A 
HETATM    7  C7  UNL     1       1.706   1.526  -0.062  1.00  0.00     0.198 A 
HETATM    8  C8  UNL     1       2.800   0.538  -0.064  1.00  0.00     0.067 A 
HETATM    9  C9  UNL     1       2.617  -0.818  -0.020  1.00  0.00     0.142 A 
HETATM   10  C10 UNL     1       1.267  -1.418   0.039  1.00  0.00     0.218 A 
HETATM   11  O1  UNL     1       1.108  -2.636   0.078  1.00  0.00    -0.284 OA
HETATM   12  O2  UNL     1       3.833  -1.437  -0.034  1.00  0.00    -0.304 OA
HETATM   13  C11 UNL     1       4.792  -0.460  -0.081  1.00  0.00     0.096 A 
HETATM   14  C12 UNL     1       4.201   0.783  -0.104  1.00  0.00     0.030 A 
HETATM   15  O3  UNL     1       1.935   2.731  -0.113  1.00  0.00    -0.286 OA
ENDROOT
BRANCH  13  16
HETATM   16  C13 UNL     1       6.234  -0.729  -0.105  1.00  0.00     0.001 C 
HETATM   17  C14 UNL     1       6.676  -2.004  -0.117  1.00  0.00    -0.003 C 
HETATM   18  C15 UNL     1       7.219   0.416  -0.098  1.00  0.00     0.033 C 
ENDBRANCH  13  16
TORSDOF 1
