REMARK  2 active torsions:
REMARK  status: ('A' for Active; 'I' for Inactive)
REMARK    1  A    between atoms: N1_4  and  C3_6 
REMARK    2  A    between atoms: C3_6  and  C4_7 
ROOT
HETATM    1  C1  UNL     1      -2.217   0.234  -0.795  1.00  0.00     0.204 C 
HETATM    2  C2  UNL     1      -2.046   1.647  -0.289  1.00  0.00     0.204 C 
HETATM    3  O1  UNL     1      -0.764   1.641   0.280  1.00  0.00    -0.256 OA
HETATM    4  N1  UNL     1      -0.142   0.564  -0.178  1.00  0.00    -0.052 NA
HETATM    5  O2  UNL     1      -1.025  -0.397  -0.412  1.00  0.00    -0.256 OA
ENDROOT
BRANCH   4   6
HETATM    6  C3  UNL     1       0.932   0.133   0.704  1.00  0.00     0.132 C 
BRANCH   6   7
HETATM    7  C4  UNL     1       1.816  -0.936   0.039  1.00  0.00     0.022 C 
HETATM    8  C5  UNL     1       2.994  -1.342   0.934  1.00  0.00     0.002 C 
ENDBRANCH   6   7
ENDBRANCH   4   6
TORSDOF 2
