REMARK  8 active torsions:
REMARK  status: ('A' for Active; 'I' for Inactive)
REMARK    1  A    between atoms: C2_2  and  O8_37 
REMARK    2  A    between atoms: C6_6  and  O1_7 
REMARK    3  A    between atoms: O1_7  and  C7_8 
REMARK    4  A    between atoms: C7_8  and  C8_9 
REMARK    5  A    between atoms: C16_18  and  O3_20 
REMARK    6  A    between atoms: O3_20  and  C18_21 
REMARK    7  A    between atoms: C21_25  and  C25_30 
REMARK    8  A    between atoms: O8_37  and  C30_38 
ROOT
HETATM    1  C1  UNL     1       1.945  -0.742  -1.588  1.00  0.00     0.207 C 
HETATM    2  C2  UNL     1       1.212  -1.648  -0.612  1.00  0.00     0.157 C 
HETATM    3  C3  UNL     1       2.166  -2.519   0.240  1.00  0.00     0.028 C 
HETATM    4  C4  UNL     1       3.536  -1.797   0.457  1.00  0.00     0.008 C 
HETATM    5  C5  UNL     1       3.516  -0.238   0.430  1.00  0.00     0.038 C 
HETATM    6  C6  UNL     1       2.880   0.268  -0.912  1.00  0.00     0.158 C 
HETATM    7  C14 UNL     1       4.996   0.261   0.594  1.00  0.00     0.097 C 
HETATM    8  C15 UNL     1       5.783  -0.278   1.797  1.00  0.00     0.209 C 
HETATM    9  C16 UNL     1       5.772  -1.811   1.752  1.00  0.00     0.159 C 
HETATM   10  C17 UNL     1       4.343  -2.355   1.653  1.00  0.00     0.033 C 
HETATM   11  C20 UNL     1       7.233   0.251   1.825  1.00  0.00     0.184 C 
HETATM   12  C21 UNL     1       7.528   1.726   1.507  1.00  0.00     0.079 C 
HETATM   13  C22 UNL     1       6.663   2.182   0.320  1.00  0.00     0.076 C 
HETATM   14  C23 UNL     1       5.218   1.763   0.491  1.00  0.00     0.154 C 
HETATM   15  O5  UNL     1       4.322   2.572   0.515  1.00  0.00    -0.296 OA
HETATM   16  C24 UNL     1       7.200   2.544   2.772  1.00  0.00     0.012 C 
HETATM   17  O6  UNL     1       8.129  -0.485   2.183  1.00  0.00    -0.293 OA
HETATM   18  O7  UNL     1       5.169   0.138   2.999  1.00  0.00    -0.215 OA
HETATM   19  C27 UNL     1       2.647   0.300   1.603  1.00  0.00     0.003 C 
HETATM   20  C28 UNL     1       1.441  -2.867   1.565  1.00  0.00     0.003 C 
HETATM   21  C29 UNL     1       2.428  -3.887  -0.450  1.00  0.00     0.003 C 
HETATM   22  O10 UNL     1       2.677  -1.530  -2.497  1.00  0.00    -0.218 OA
ENDROOT
BRANCH   6  23
HETATM   23  O1  UNL     1       3.847   0.616  -1.865  1.00  0.00    -0.298 OA
BRANCH  23  24
HETATM   24  C7  UNL     1       4.015   1.871  -2.383  1.00  0.00     0.296 C 
HETATM   25  O2  UNL     1       5.021   2.059  -3.064  1.00  0.00    -0.259 OA
BRANCH  24  26
HETATM   26  C8  UNL     1       3.126   3.071  -2.231  1.00  0.00     0.063 A 
HETATM   27  C9  UNL     1       3.720   4.331  -2.078  1.00  0.00     0.005 A 
HETATM   28  C10 UNL     1       2.929   5.473  -1.936  1.00  0.00     0.000 A 
HETATM   29  C11 UNL     1       1.538   5.366  -1.961  1.00  0.00     0.000 A 
HETATM   30  C12 UNL     1       0.941   4.116  -2.142  1.00  0.00     0.000 A 
HETATM   31  C13 UNL     1       1.730   2.973  -2.283  1.00  0.00     0.005 A 
ENDBRANCH  24  26
ENDBRANCH  23  24
ENDBRANCH   6  23
BRANCH   2  32
HETATM   32  O8  UNL     1       0.270  -2.449  -1.273  1.00  0.00    -0.302 OA
BRANCH  32  33
HETATM   33  C30 UNL     1      -0.904  -1.881  -1.663  1.00  0.00     0.272 C 
HETATM   34  C31 UNL     1      -1.775  -2.908  -2.359  1.00  0.00     0.106 C 
HETATM   35  O9  UNL     1      -1.213  -0.725  -1.486  1.00  0.00    -0.264 OA
ENDBRANCH  32  33
ENDBRANCH   2  32
BRANCH   9  36
HETATM   36  O3  UNL     1       6.519  -2.239   0.647  1.00  0.00    -0.301 OA
BRANCH  36  37
HETATM   37  C18 UNL     1       7.127  -3.454   0.698  1.00  0.00     0.272 C 
HETATM   38  C19 UNL     1       7.960  -3.666  -0.550  1.00  0.00     0.106 C 
HETATM   39  O4  UNL     1       7.024  -4.250   1.603  1.00  0.00    -0.264 OA
ENDBRANCH  36  37
ENDBRANCH   9  36
BRANCH  12  40
HETATM   40  C25 UNL     1       8.991   1.938   1.139  1.00  0.00    -0.019 C 
HETATM   41  C26 UNL     1       9.543   3.135   0.888  1.00  0.00    -0.004 C 
ENDBRANCH  12  40
TORSDOF 8
