REMARK  9 active torsions:
REMARK  status: ('A' for Active; 'I' for Inactive)
REMARK    1  A    between atoms: C1_1  and  O11_49 
REMARK    2  A    between atoms: C2_2  and  O5_37 
REMARK    3  A    between atoms: C16_17  and  C25_27 
REMARK    4  A    between atoms: C19_20  and  C22_24 
REMARK    5  A    between atoms: C25_27  and  O3_28 
REMARK    6  A    between atoms: O3_28  and  C26_29 
REMARK    7  A    between atoms: O5_37  and  C33_38 
REMARK    8  A    between atoms: C34_40  and  C38_47 
REMARK    9  A    between atoms: O11_49  and  C39_50 
ROOT
HETATM    1  C1  UNL     1       1.869  -0.439  -0.288  1.00  0.00     0.152 C 
HETATM    2  C2  UNL     1       2.017  -1.716  -1.121  1.00  0.00     0.145 C 
HETATM    3  C3  UNL     1       3.327  -2.493  -0.818  1.00  0.00     0.028 C 
HETATM    4  C4  UNL     1       4.528  -1.491  -0.810  1.00  0.00     0.008 C 
HETATM    5  C5  UNL     1       4.423  -0.264   0.136  1.00  0.00     0.018 C 
HETATM    6  C6  UNL     1       3.115   0.455  -0.278  1.00  0.00     0.036 C 
HETATM    7  C7  UNL     1       5.682   0.634   0.049  1.00  0.00    -0.047 C 
HETATM    8  C8  UNL     1       7.055  -0.047   0.043  1.00  0.00     0.048 C 
HETATM    9  C9  UNL     1       7.025  -1.153  -1.017  1.00  0.00     0.156 C 
HETATM   10  C10 UNL     1       5.912  -2.153  -0.715  1.00  0.00     0.034 C 
HETATM   11  O1  UNL     1       8.227  -1.883  -1.058  1.00  0.00    -0.223 OA
HETATM   12  C11 UNL     1       8.242   0.971  -0.041  1.00  0.00     0.006 C 
HETATM   13  C12 UNL     1       7.982   2.101   1.020  1.00  0.00     0.007 C 
HETATM   14  C13 UNL     1       6.755   2.888   0.508  1.00  0.00     0.025 C 
HETATM   15  C14 UNL     1       5.593   1.968   0.226  1.00  0.00    -0.035 C 
HETATM   16  C15 UNL     1       9.226   3.020   1.142  1.00  0.00     0.033 C 
HETATM   17  C16 UNL     1      10.586   2.364   1.524  1.00  0.00     0.030 C 
HETATM   18  C17 UNL     1      10.815   1.274   0.459  1.00  0.00     0.003 C 
HETATM   19  C18 UNL     1       9.619   0.318   0.261  1.00  0.00     0.001 C 
HETATM   20  C19 UNL     1      11.496   3.628   1.378  1.00  0.00     0.005 C 
HETATM   21  C20 UNL     1      10.661   4.724   2.083  1.00  0.00     0.033 C 
HETATM   22  C21 UNL     1       9.188   4.319   1.949  1.00  0.00     0.152 C 
HETATM   23  O2  UNL     1       8.477   5.330   1.275  1.00  0.00    -0.224 OA
HETATM   24  C28 UNL     1       7.585   1.561   2.418  1.00  0.00     0.000 C 
HETATM   25  C29 UNL     1       8.315   1.492  -1.504  1.00  0.00     0.000 C 
HETATM   26  C30 UNL     1       4.349  -0.598   1.645  1.00  0.00     0.004 C 
HETATM   27  C31 UNL     1       3.542  -3.535  -1.952  1.00  0.00     0.003 C 
HETATM   28  C32 UNL     1       3.207  -3.330   0.477  1.00  0.00     0.003 C 
ENDROOT
BRANCH   2  29
HETATM   29  O5  UNL     1       0.891  -2.514  -0.844  1.00  0.00    -0.329 OA
BRANCH  29  30
HETATM   30  C33 UNL     1       0.204  -3.040  -1.957  1.00  0.00     0.270 C 
HETATM   31  O6  UNL     1      -0.669  -2.031  -2.418  1.00  0.00    -0.326 OA
HETATM   32  C34 UNL     1      -1.431  -2.451  -3.525  1.00  0.00     0.184 C 
HETATM   33  C35 UNL     1      -2.289  -3.656  -3.143  1.00  0.00     0.215 C 
HETATM   34  C36 UNL     1      -1.419  -4.771  -2.599  1.00  0.00     0.220 C 
HETATM   35  O9  UNL     1      -2.986  -4.183  -4.244  1.00  0.00    -0.218 OA
HETATM   36  C37 UNL     1      -0.602  -4.218  -1.458  1.00  0.00     0.241 C 
HETATM   37  O8  UNL     1      -2.229  -5.821  -2.135  1.00  0.00    -0.218 OA
HETATM   38  O7  UNL     1       0.259  -5.224  -0.988  1.00  0.00    -0.215 OA
BRANCH  32  39
HETATM   39  C38 UNL     1      -2.255  -1.261  -3.999  1.00  0.00     0.214 C 
HETATM   40  O10 UNL     1      -2.712  -1.471  -5.320  1.00  0.00    -0.218 OA
ENDBRANCH  32  39
ENDBRANCH  29  30
ENDBRANCH   2  29
BRANCH   1  41
HETATM   41  O11 UNL     1       0.789   0.285  -0.816  1.00  0.00    -0.302 OA
BRANCH  41  42
HETATM   42  C39 UNL     1       0.067   1.083   0.015  1.00  0.00     0.272 C 
HETATM   43  C40 UNL     1      -1.069   1.730  -0.753  1.00  0.00     0.106 C 
HETATM   44  O12 UNL     1       0.289   1.254   1.192  1.00  0.00    -0.264 OA
ENDBRANCH  41  42
ENDBRANCH   1  41
BRANCH  17  45
HETATM   45  C25 UNL     1      10.698   1.845   2.977  1.00  0.00     0.152 C 
BRANCH  45  46
HETATM   46  O3  UNL     1      10.634   0.448   3.055  1.00  0.00    -0.302 OA
BRANCH  46  47
HETATM   47  C26 UNL     1      10.572  -0.118   4.289  1.00  0.00     0.272 C 
HETATM   48  C27 UNL     1      10.399  -1.617   4.159  1.00  0.00     0.106 C 
HETATM   49  O4  UNL     1      10.621   0.490   5.334  1.00  0.00    -0.264 OA
ENDBRANCH  46  47
ENDBRANCH  45  46
ENDBRANCH  17  45
BRANCH  20  50
HETATM   50  C22 UNL     1      12.975   3.627   1.839  1.00  0.00     0.000 C 
HETATM   51  C23 UNL     1      13.771   2.408   1.344  1.00  0.00     0.000 C 
HETATM   52  C24 UNL     1      13.694   4.910   1.374  1.00  0.00     0.000 C 
ENDBRANCH  20  50
TORSDOF 9
