REMARK  5 active torsions:
REMARK  status: ('A' for Active; 'I' for Inactive)
REMARK    1  A    between atoms: C4_5  and  C5_6 
REMARK    2  A    between atoms: C5_6  and  O1_7 
REMARK    3  A    between atoms: O1_7  and  C6_8 
REMARK    4  A    between atoms: C7_9  and  C23_32 
REMARK    5  A    between atoms: C11_13  and  C21_27 
ROOT
HETATM    1  C6  UNL     1       0.346   2.119  -0.136  1.00  0.00     0.183 C 
HETATM    2  C7  UNL     1      -0.049   1.681  -1.656  1.00  0.00     0.161 C 
HETATM    3  C8  UNL     1      -0.957   0.692  -0.960  1.00  0.00     0.109 C 
HETATM    4  C9  UNL     1       0.340   0.149  -0.175  1.00  0.00     0.189 C 
HETATM    5  C10 UNL     1       0.191   0.892   1.124  1.00  0.00     0.187 C 
HETATM    6  C11 UNL     1      -0.616  -0.561   1.440  1.00  0.00     0.094 C 
HETATM    7  C12 UNL     1       0.396  -1.689   1.127  1.00  0.00     0.159 C 
HETATM    8  C13 UNL     1       0.530  -1.364  -0.337  1.00  0.00     0.177 C 
HETATM    9  C14 UNL     1       1.783  -2.068  -0.876  1.00  0.00     0.182 C 
HETATM   10  C15 UNL     1       1.703  -3.597  -0.737  1.00  0.00     0.033 C 
HETATM   11  C16 UNL     1       0.495  -4.062   0.102  1.00  0.00     0.005 C 
HETATM   12  C17 UNL     1       0.181  -3.195   1.336  1.00  0.00     0.033 C 
HETATM   13  C18 UNL     1       3.012  -4.171  -0.164  1.00  0.00     0.003 C 
HETATM   14  O2  UNL     1       1.993  -1.694  -2.220  1.00  0.00    -0.221 OA
HETATM   15  O3  UNL     1      -0.492  -1.684  -1.207  1.00  0.00    -0.330 OA
HETATM   16  C19 UNL     1      -1.458  -0.743  -0.942  1.00  0.00     0.224 C 
HETATM   17  C20 UNL     1      -1.839  -0.988   0.540  1.00  0.00     0.067 C 
HETATM   18  O4  UNL     1      -2.483  -1.030  -1.854  1.00  0.00    -0.195 OA
HETATM   19  O5  UNL     1       1.581  -1.332   1.799  1.00  0.00    -0.223 OA
HETATM   20  O7  UNL     1      -0.843   1.663   1.701  1.00  0.00    -0.221 OA
HETATM   21  O8  UNL     1       1.722   0.385  -0.466  1.00  0.00    -0.221 OA
HETATM   22  C22 UNL     1      -2.258   1.497  -0.581  1.00  0.00     0.010 C 
HETATM   23  O9  UNL     1       0.879   1.013  -2.476  1.00  0.00    -0.223 OA
ENDROOT
BRANCH   1  24
HETATM   24  O1  UNL     1       1.583   2.803  -0.043  1.00  0.00    -0.295 OA
BRANCH  24  25
HETATM   25  C5  UNL     1       2.118   2.771   1.212  1.00  0.00     0.314 C 
HETATM   26  O10 UNL     1       1.395   2.912   2.197  1.00  0.00    -0.257 OA
BRANCH  25  27
HETATM   27  C4  UNL     1       3.474   2.237   1.438  1.00  0.00     0.144 A 
HETATM   28  C1  UNL     1       4.112   2.116   2.663  1.00  0.00     0.026 A 
HETATM   29  C2  UNL     1       5.352   1.492   2.421  1.00  0.00     0.022 A 
HETATM   30  C3  UNL     1       5.446   1.239   1.064  1.00  0.00     0.099 A 
HETATM   31  N1  UNL     1       4.302   1.697   0.473  1.00  0.00    -0.239 NA
ENDBRANCH  25  27
ENDBRANCH  24  25
ENDBRANCH   1  24
BRANCH   2  32
HETATM   32  C23 UNL     1      -0.602   2.827  -2.531  1.00  0.00     0.031 C 
HETATM   33  C24 UNL     1      -1.369   2.308  -3.764  1.00  0.00     0.003 C 
HETATM   34  C25 UNL     1       0.519   3.779  -2.994  1.00  0.00     0.003 C 
ENDBRANCH   2  32
BRANCH   6  35
HETATM   35  C21 UNL     1      -0.974  -0.590   2.946  1.00  0.00     0.187 C 
HETATM   36  O6  UNL     1      -1.108  -1.892   3.466  1.00  0.00    -0.221 OA
ENDBRANCH   6  35
TORSDOF 5
