REMARK  3 active torsions:
REMARK  status: ('A' for Active; 'I' for Inactive)
REMARK    1  A    between atoms: C2_2  and  C20_25 
REMARK    2  A    between atoms: C6_6  and  O2_9 
REMARK    3  A    between atoms: O2_9  and  C8_10 
ROOT
HETATM    1  C1  UNL     1      -1.270  -0.545   0.766  1.00  0.00    -0.016 C 
HETATM    2  C2  UNL     1      -1.537   0.422  -0.373  1.00  0.00     0.046 C 
HETATM    3  C3  UNL     1      -0.334   1.219  -0.928  1.00  0.00     0.010 C 
HETATM    4  C4  UNL     1       0.848   1.326   0.068  1.00  0.00     0.023 C 
HETATM    5  C5  UNL     1       1.797   0.096  -0.041  1.00  0.00     0.032 C 
HETATM    6  C6  UNL     1       1.035  -1.254  -0.190  1.00  0.00     0.159 C 
HETATM    7  C7  UNL     1      -0.100  -1.508   0.828  1.00  0.00     0.198 C 
HETATM    8  O1  UNL     1      -0.607  -2.811   0.605  1.00  0.00    -0.216 OA
HETATM    9  C10 UNL     1       2.752   0.070   1.184  1.00  0.00     0.006 C 
HETATM   10  C11 UNL     1       3.090   1.465   1.750  1.00  0.00     0.037 C 
HETATM   11  C12 UNL     1       3.020   2.588   0.697  1.00  0.00     0.171 C 
HETATM   12  C13 UNL     1       1.682   2.598  -0.025  1.00  0.00    -0.015 C 
HETATM   13  C14 UNL     1       1.273   3.680  -0.719  1.00  0.00    -0.007 C 
HETATM   14  O4  UNL     1       3.258   3.820   1.353  1.00  0.00    -0.219 OA
HETATM   15  C15 UNL     1       2.658   0.238  -1.313  1.00  0.00     0.003 C 
HETATM   16  C16 UNL     1      -2.535   1.418   0.269  1.00  0.00     0.043 C 
HETATM   17  C17 UNL     1      -3.229   0.602   1.373  1.00  0.00     0.170 C 
HETATM   18  C18 UNL     1      -2.205  -0.438   1.721  1.00  0.00    -0.019 C 
HETATM   19  C19 UNL     1      -2.246  -1.246   2.992  1.00  0.00     0.028 C 
HETATM   20  O5  UNL     1      -3.551   1.424   2.477  1.00  0.00    -0.219 OA
ENDROOT
BRANCH   2  21
HETATM   21  C20 UNL     1      -2.277  -0.309  -1.490  1.00  0.00     0.130 C 
HETATM   22  C21 UNL     1      -3.570  -0.908  -0.940  1.00  0.00     0.033 C 
HETATM   23  O6  UNL     1      -1.467  -1.365  -1.955  1.00  0.00    -0.226 OA
HETATM   24  C22 UNL     1      -2.521   0.652  -2.654  1.00  0.00     0.033 C 
ENDBRANCH   2  21
BRANCH   6  25
HETATM   25  O2  UNL     1       1.984  -2.313  -0.108  1.00  0.00    -0.301 OA
BRANCH  25  26
HETATM   26  C8  UNL     1       1.752  -3.270  -1.002  1.00  0.00     0.272 C 
HETATM   27  C9  UNL     1       2.811  -4.338  -1.088  1.00  0.00     0.106 C 
HETATM   28  O3  UNL     1       0.773  -3.307  -1.711  1.00  0.00    -0.264 OA
ENDBRANCH  25  26
ENDBRANCH   6  25
TORSDOF 3
