REMARK  0 active torsions:
REMARK  status: ('A' for Active; 'I' for Inactive)
ROOT
HETATM    1  C1  UNL     1      -2.807   1.324   0.467  1.00  0.00     0.172 C 
HETATM    2  C2  UNL     1      -2.889  -0.115   0.016  1.00  0.00     0.070 C 
HETATM    3  C3  UNL     1      -1.520  -0.809   0.090  1.00  0.00     0.011 C 
HETATM    4  C4  UNL     1      -0.430   0.010  -0.654  1.00  0.00     0.018 C 
HETATM    5  C5  UNL     1      -0.440   1.480  -0.258  1.00  0.00    -0.012 C 
HETATM    6  C6  UNL     1      -1.545   2.057   0.266  1.00  0.00     0.031 C 
HETATM    7  C7  UNL     1       0.828   2.287  -0.469  1.00  0.00     0.171 C 
HETATM    8  C8  UNL     1       2.060   1.646   0.189  1.00  0.00     0.037 C 
HETATM    9  C9  UNL     1       2.170   0.142  -0.100  1.00  0.00     0.003 A 
HETATM   10  C10 UNL     1       0.939  -0.678  -0.453  1.00  0.00     0.004 A 
HETATM   11  C11 UNL     1       1.609  -0.854   0.902  1.00  0.00     0.000 A 
HETATM   12  C12 UNL     1       2.398  -2.139   1.121  1.00  0.00     0.000 C 
HETATM   13  C13 UNL     1       0.941  -0.318   2.166  1.00  0.00     0.000 C 
HETATM   14  O1  UNL     1       1.070   2.437  -1.854  1.00  0.00    -0.219 OA
HETATM   15  C14 UNL     1      -0.668  -0.057  -2.172  1.00  0.00     0.004 C 
HETATM   16  C15 UNL     1      -1.611  -2.258  -0.408  1.00  0.00     0.001 C 
HETATM   17  O2  UNL     1      -3.754   1.869   0.986  1.00  0.00    -0.291 OA
ENDROOT
TORSDOF 0
