REMARK  6 active torsions:
REMARK  status: ('A' for Active; 'I' for Inactive)
REMARK    1  A    between atoms: C1_2  and  C2_3 
REMARK    2  A    between atoms: C3_4  and  C4_5 
REMARK    3  A    between atoms: C5_6  and  C6_7 
REMARK    4  A    between atoms: C6_7  and  C7_8 
REMARK    5  A    between atoms: C7_8  and  C8_9 
REMARK    6  A    between atoms: C8_9  and  C9_10 
ROOT
HETATM    1  C4  UNL     1       1.902   0.822  -0.992  1.00  0.00    -0.004 C 
HETATM    2  C5  UNL     1       1.219  -0.334  -0.992  1.00  0.00    -0.026 C 
ENDROOT
BRANCH   2   3
HETATM    3  C6  UNL     1      -0.285  -0.277  -0.992  1.00  0.00     0.026 C 
BRANCH   3   4
HETATM    4  C7  UNL     1      -0.887  -0.746   0.334  1.00  0.00     0.005 C 
BRANCH   4   5
HETATM    5  C8  UNL     1      -2.414  -0.674   0.346  1.00  0.00     0.000 C 
BRANCH   5   6
HETATM    6  C9  UNL     1      -3.016  -1.144   1.670  1.00  0.00     0.000 C 
HETATM    7  C10 UNL     1      -4.543  -1.072   1.683  1.00  0.00     0.000 C 
ENDBRANCH   5   6
ENDBRANCH   4   5
ENDBRANCH   3   4
ENDBRANCH   2   3
BRANCH   1   8
HETATM    8  C3  UNL     1       3.371   0.822  -0.992  1.00  0.00     0.003 C 
HETATM    9  C2  UNL     1       4.055   1.977  -0.992  1.00  0.00     0.045 C 
BRANCH   9  10
HETATM   10  C1  UNL     1       5.524   1.977  -0.992  1.00  0.00     0.234 C 
HETATM   11  O1  UNL     1       6.135   3.020  -0.992  1.00  0.00    -0.283 OA
ENDBRANCH   9  10
ENDBRANCH   1   8
TORSDOF 6
