REMARK  2 active torsions:
REMARK  status: ('A' for Active; 'I' for Inactive)
REMARK    1  A    between atoms: C2_2  and  C8_9 
REMARK    2  A    between atoms: C5_5  and  O1_7 
ROOT
HETATM    1  C8  UNL     1      -2.871  -0.400   0.799  1.00  0.00     0.059 C 
HETATM    2  C9  UNL     1      -2.346   0.945   1.344  1.00  0.00     0.035 C 
HETATM    3  C10 UNL     1      -0.861   1.023   1.354  1.00  0.00     0.001 A 
HETATM    4  C11 UNL     1      -0.082  -0.166   1.266  1.00  0.00     0.092 A 
HETATM    5  C12 UNL     1       1.334  -0.068   1.260  1.00  0.00     0.044 A 
HETATM    6  C13 UNL     1       2.182  -1.281   1.139  1.00  0.00     0.002 C 
HETATM    7  C14 UNL     1       3.516  -1.176   1.273  1.00  0.00     0.001 C 
HETATM    8  C15 UNL     1       4.156   0.152   1.643  1.00  0.00     0.117 C 
HETATM    9  O2  UNL     1       3.318   1.287   1.352  1.00  0.00    -0.332 OA
HETATM   10  C16 UNL     1       1.971   1.193   1.359  1.00  0.00     0.096 A 
HETATM   11  C17 UNL     1       1.191   2.367   1.447  1.00  0.00     0.024 A 
HETATM   12  C18 UNL     1      -0.221   2.283   1.447  1.00  0.00    -0.000 A 
HETATM   13  C19 UNL     1       4.436   0.152   3.149  1.00  0.00     0.035 C 
HETATM   14  C20 UNL     1       5.465   0.338   0.871  1.00  0.00     0.035 C 
HETATM   15  O3  UNL     1      -0.664  -1.383   1.180  1.00  0.00    -0.331 OA
HETATM   16  C21 UNL     1      -2.064  -1.547   1.434  1.00  0.00     0.153 C 
ENDROOT
BRANCH   1  17
HETATM   17  C2  UNL     1      -2.830  -0.461  -0.691  1.00  0.00     0.006 A 
HETATM   18  C1  UNL     1      -3.563  -1.443  -1.385  1.00  0.00     0.129 A 
HETATM   19  C6  UNL     1      -3.514  -1.486  -2.789  1.00  0.00     0.051 A 
HETATM   20  O4  UNL     1      -4.293  -2.322  -0.728  1.00  0.00    -0.190 OA
HETATM   21  C5  UNL     1      -2.738  -0.555  -3.504  1.00  0.00     0.096 A 
HETATM   22  C4  UNL     1      -2.010   0.424  -2.807  1.00  0.00     0.024 A 
HETATM   23  C3  UNL     1      -2.055   0.471  -1.404  1.00  0.00    -0.000 A 
BRANCH  21  24
HETATM   24  O1  UNL     1      -2.697  -0.602  -4.820  1.00  0.00    -0.328 OA
HETATM   25  C7  UNL     1      -1.949   0.398  -5.498  1.00  0.00     0.181 C 
ENDBRANCH  21  24
ENDBRANCH   1  17
TORSDOF 2
