REMARK  2 active torsions:
REMARK  status: ('A' for Active; 'I' for Inactive)
REMARK    1  A    between atoms: C11_12  and  C13_15 
REMARK    2  A    between atoms: C16_18  and  O5_23 
ROOT
HETATM    1  C1  UNL     1       4.248   0.205   1.736  1.00  0.00     0.117 C 
HETATM    2  O1  UNL     1       3.410   1.338   1.445  1.00  0.00    -0.332 OA
HETATM    3  C2  UNL     1       2.063   1.246   1.453  1.00  0.00     0.096 A 
HETATM    4  C3  UNL     1       1.424  -0.018   1.354  1.00  0.00     0.044 A 
HETATM    5  C4  UNL     1       2.272  -1.228   1.232  1.00  0.00     0.002 C 
HETATM    6  C5  UNL     1       3.607  -1.123   1.367  1.00  0.00     0.001 C 
HETATM    7  C6  UNL     1       0.010  -0.115   1.359  1.00  0.00     0.092 A 
HETATM    8  C7  UNL     1      -0.771   1.076   1.445  1.00  0.00     0.001 A 
HETATM    9  C8  UNL     1      -0.129   2.336   1.541  1.00  0.00    -0.000 A 
HETATM   10  C9  UNL     1       1.281   2.420   1.541  1.00  0.00     0.024 A 
HETATM   11  C10 UNL     1      -2.254   0.996   1.438  1.00  0.00     0.035 C 
HETATM   12  C11 UNL     1      -2.781  -0.348   0.893  1.00  0.00     0.059 C 
HETATM   13  C12 UNL     1      -1.975  -1.496   1.527  1.00  0.00     0.153 C 
HETATM   14  O2  UNL     1      -0.572  -1.332   1.273  1.00  0.00    -0.331 OA
HETATM   15  C20 UNL     1       4.525   0.205   3.240  1.00  0.00     0.035 C 
HETATM   16  C21 UNL     1       5.557   0.391   0.965  1.00  0.00     0.035 C 
ENDROOT
BRANCH  12  17
HETATM   17  C13 UNL     1      -2.740  -0.408  -0.598  1.00  0.00     0.008 A 
HETATM   18  C14 UNL     1      -1.965   0.523  -1.311  1.00  0.00     0.000 A 
HETATM   19  C15 UNL     1      -1.920   0.475  -2.713  1.00  0.00     0.026 A 
HETATM   20  C16 UNL     1      -2.648  -0.504  -3.410  1.00  0.00     0.121 A 
HETATM   21  C17 UNL     1      -3.426  -1.437  -2.697  1.00  0.00     0.178 A 
HETATM   22  C18 UNL     1      -3.473  -1.391  -1.291  1.00  0.00     0.154 A 
HETATM   23  O4  UNL     1      -4.111  -2.355  -3.350  1.00  0.00    -0.186 OA
HETATM   24  O3  UNL     1      -4.203  -2.268  -0.629  1.00  0.00    -0.188 OA
BRANCH  20  25
HETATM   25  O5  UNL     1      -2.602  -0.545  -4.727  1.00  0.00    -0.326 OA
HETATM   26  C19 UNL     1      -1.873   0.473  -5.399  1.00  0.00     0.181 C 
ENDBRANCH  20  25
ENDBRANCH  12  17
TORSDOF 2
