REMARK  9 active torsions:
REMARK  status: ('A' for Active; 'I' for Inactive)
REMARK    1  A    between atoms: C1_1  and  O11_34 
REMARK    2  A    between atoms: C8_9  and  C10_11 
REMARK    3  A    between atoms: C11_12  and  O10_32 
REMARK    4  A    between atoms: C12_13  and  O3_19 
REMARK    5  A    between atoms: C13_14  and  O2_17 
REMARK    6  A    between atoms: O3_19  and  C17_20 
REMARK    7  A    between atoms: C18_22  and  C22_29 
REMARK    8  A    between atoms: O11_34  and  C24_35 
REMARK    9  A    between atoms: C28_42  and  C29_44 
ROOT
HETATM    1  C10 UNL     1      -1.307  -2.211  -1.016  1.00  0.00     0.005 A 
HETATM    2  C11 UNL     1      -2.512  -1.508  -1.213  1.00  0.00     0.114 A 
HETATM    3  C12 UNL     1      -3.744  -2.148  -0.977  1.00  0.00     0.141 A 
HETATM    4  C13 UNL     1      -3.772  -3.488  -0.547  1.00  0.00     0.118 A 
HETATM    5  C14 UNL     1      -2.566  -4.186  -0.352  1.00  0.00     0.026 A 
HETATM    6  C15 UNL     1      -1.336  -3.549  -0.586  1.00  0.00    -0.000 A 
ENDROOT
BRANCH   1   7
HETATM    7  C8  UNL     1       0.000  -1.547  -1.262  1.00  0.00     0.059 C 
HETATM    8  C7  UNL     1       0.146  -0.258  -0.434  1.00  0.00     0.153 C 
HETATM    9  O1  UNL     1       1.400   0.375  -0.721  1.00  0.00    -0.331 OA
HETATM   10  C5  UNL     1       2.527  -0.355  -0.856  1.00  0.00     0.092 A 
HETATM   11  C4  UNL     1       2.488  -1.775  -0.977  1.00  0.00     0.001 A 
HETATM   12  C6  UNL     1       3.773   0.316  -0.885  1.00  0.00     0.048 A 
HETATM   13  C3  UNL     1       3.697  -2.502  -1.109  1.00  0.00    -0.000 A 
HETATM   14  C9  UNL     1       1.186  -2.488  -0.961  1.00  0.00     0.035 C 
HETATM   15  C2  UNL     1       4.938  -1.824  -1.129  1.00  0.00     0.024 A 
HETATM   16  C1  UNL     1       4.977  -0.416  -1.020  1.00  0.00     0.099 A 
BRANCH  16  17
HETATM   17  O11 UNL     1       6.152   0.227  -1.039  1.00  0.00    -0.304 OA
BRANCH  17  18
HETATM   18  C24 UNL     1       6.168   1.604  -0.684  1.00  0.00     0.274 C 
HETATM   19  C25 UNL     1       7.600   2.164  -0.807  1.00  0.00     0.241 C 
HETATM   20  O12 UNL     1       7.990   2.111  -2.168  1.00  0.00    -0.215 OA
HETATM   21  C26 UNL     1       7.676   3.619  -0.295  1.00  0.00     0.220 C 
HETATM   22  O13 UNL     1       9.029   4.041  -0.238  1.00  0.00    -0.218 OA
HETATM   23  C27 UNL     1       7.037   3.713   1.109  1.00  0.00     0.215 C 
HETATM   24  O14 UNL     1       6.924   5.070   1.496  1.00  0.00    -0.218 OA
HETATM   25  C28 UNL     1       5.631   3.072   1.131  1.00  0.00     0.184 C 
HETATM   26  O15 UNL     1       5.711   1.734   0.654  1.00  0.00    -0.326 OA
BRANCH  25  27
HETATM   27  C29 UNL     1       5.027   3.004   2.539  1.00  0.00     0.214 C 
HETATM   28  O16 UNL     1       3.678   2.611   2.422  1.00  0.00    -0.218 OA
ENDBRANCH  25  27
ENDBRANCH  17  18
ENDBRANCH  16  17
ENDBRANCH   1   7
BRANCH   2  29
HETATM   29  O10 UNL     1      -2.490  -0.252  -1.615  1.00  0.00    -0.326 OA
HETATM   30  C23 UNL     1      -2.164   0.006  -2.973  1.00  0.00     0.181 C 
ENDBRANCH   2  29
BRANCH   3  31
HETATM   31  O3  UNL     1      -4.873  -1.494  -1.160  1.00  0.00    -0.300 OA
BRANCH  31  32
HETATM   32  C17 UNL     1      -5.561  -1.018  -0.012  1.00  0.00     0.275 C 
HETATM   33  O4  UNL     1      -4.793   0.020   0.588  1.00  0.00    -0.318 OA
HETATM   34  C18 UNL     1      -5.340   0.561   1.783  1.00  0.00     0.237 C 
HETATM   35  C19 UNL     1      -6.721   1.191   1.475  1.00  0.00     0.223 C 
HETATM   36  C20 UNL     1      -7.664   0.174   0.791  1.00  0.00     0.221 C 
HETATM   37  O7  UNL     1      -7.303   1.639   2.685  1.00  0.00    -0.217 OA
HETATM   38  C21 UNL     1      -6.947  -0.473  -0.414  1.00  0.00     0.241 C 
HETATM   39  O6  UNL     1      -8.846   0.826   0.355  1.00  0.00    -0.218 OA
HETATM   40  O5  UNL     1      -7.723  -1.543  -0.924  1.00  0.00    -0.215 OA
BRANCH  34  41
HETATM   41  C22 UNL     1      -4.348   1.553   2.336  1.00  0.00     0.217 C 
HETATM   42  O8  UNL     1      -4.274   2.674   1.893  1.00  0.00    -0.646 OA
HETATM   43  O9  UNL     1      -3.582   1.096   3.324  1.00  0.00    -0.646 OA
ENDBRANCH  34  41
ENDBRANCH  31  32
ENDBRANCH   3  31
BRANCH   4  44
HETATM   44  O2  UNL     1      -4.922  -4.092  -0.324  1.00  0.00    -0.326 OA
HETATM   45  C16 UNL     1      -4.897  -5.473   0.006  1.00  0.00     0.181 C 
ENDBRANCH   4  44
TORSDOF 9
