REMARK  4 active torsions:
REMARK  status: ('A' for Active; 'I' for Inactive)
REMARK    1  A    between atoms: C7_8  and  O7_45 
REMARK    2  A    between atoms: C8_9  and  O6_43 
REMARK    3  A    between atoms: C11_13  and  O5_41 
REMARK    4  A    between atoms: C28_33  and  O4_39 
ROOT
HETATM    1  C1  UNL     1       5.225  -0.393  -0.051  1.00  0.00     0.255 C 
HETATM    2  N1  UNL     1       4.565  -1.369   0.822  1.00  0.00     0.142 N 
HETATM    3  C2  UNL     1       3.082  -1.299   0.813  1.00  0.00     0.247 C 
HETATM    4  C3  UNL     1       2.465  -1.072  -0.543  1.00  0.00     0.030 A 
HETATM    5  C4  UNL     1       3.289  -0.689  -1.648  1.00  0.00    -0.018 A 
HETATM    6  C5  UNL     1       4.758  -0.541  -1.504  1.00  0.00     0.061 C 
HETATM    7  C6  UNL     1       2.717  -0.469  -2.920  1.00  0.00     0.022 A 
HETATM    8  C7  UNL     1       1.344  -0.693  -3.131  1.00  0.00     0.118 A 
HETATM    9  C8  UNL     1       0.527  -1.133  -2.066  1.00  0.00     0.139 A 
HETATM   10  C9  UNL     1       1.059  -1.260  -0.746  1.00  0.00     0.122 A 
HETATM   11  O1  UNL     1       0.311  -1.580   0.342  1.00  0.00    -0.303 OA
HETATM   12  C10 UNL     1      -1.023  -1.518   0.594  1.00  0.00     0.122 A 
HETATM   13  C11 UNL     1      -1.533  -2.400   1.576  1.00  0.00     0.116 A 
HETATM   14  C12 UNL     1      -2.918  -2.455   1.846  1.00  0.00     0.022 A 
HETATM   15  C13 UNL     1      -3.828  -1.631   1.137  1.00  0.00    -0.019 A 
HETATM   16  C14 UNL     1      -3.326  -0.686   0.192  1.00  0.00     0.014 A 
HETATM   17  C15 UNL     1      -1.926  -0.627  -0.049  1.00  0.00     0.025 A 
HETATM   18  C16 UNL     1      -4.256   0.225  -0.558  1.00  0.00     0.275 C 
HETATM   19  N2  UNL     1      -5.650  -0.428  -0.728  1.00  0.00     0.069 N 
HETATM   20  C17 UNL     1      -6.207  -0.818   0.649  1.00  0.00     0.291 C 
HETATM   21  C18 UNL     1      -5.285  -1.799   1.397  1.00  0.00     0.069 C 
HETATM   22  C19 UNL     1      -5.608  -1.639  -1.672  1.00  0.00     0.330 C 
HETATM   23  O2  UNL     1      -6.545   0.502  -1.326  1.00  0.00    -0.061 OA
HETATM   24  C20 UNL     1      -4.361   1.647   0.074  1.00  0.00     0.071 C 
HETATM   25  C21 UNL     1      -3.049   2.365   0.156  1.00  0.00    -0.019 A 
HETATM   26  C22 UNL     1      -2.459   2.918  -0.996  1.00  0.00    -0.002 A 
HETATM   27  C23 UNL     1      -1.174   3.483  -0.930  1.00  0.00     0.024 A 
HETATM   28  C24 UNL     1      -0.463   3.488   0.285  1.00  0.00     0.100 A 
HETATM   29  C25 UNL     1      -1.109   3.033   1.459  1.00  0.00     0.024 A 
HETATM   30  C26 UNL     1      -2.389   2.471   1.393  1.00  0.00    -0.002 A 
HETATM   31  O3  UNL     1       0.801   3.908   0.303  1.00  0.00    -0.305 OA
HETATM   32  C27 UNL     1       1.775   3.213   0.901  1.00  0.00     0.122 A 
HETATM   33  C28 UNL     1       2.914   3.900   1.371  1.00  0.00     0.117 A 
HETATM   34  C29 UNL     1       3.934   3.203   2.043  1.00  0.00     0.026 A 
HETATM   35  C30 UNL     1       3.832   1.816   2.248  1.00  0.00    -0.002 A 
HETATM   36  C31 UNL     1       2.721   1.109   1.756  1.00  0.00    -0.018 A 
HETATM   37  C32 UNL     1       1.713   1.809   1.076  1.00  0.00     0.022 A 
HETATM   38  C33 UNL     1       2.582  -0.373   1.961  1.00  0.00     0.064 C 
HETATM   39  C38 UNL     1       5.074  -2.719   0.588  1.00  0.00     0.286 C 
ENDROOT
BRANCH   8  40
HETATM   40  O7  UNL     1       0.820  -0.508  -4.351  1.00  0.00    -0.326 OA
HETATM   41  C37 UNL     1       1.688  -0.074  -5.389  1.00  0.00     0.181 C 
ENDBRANCH   8  40
BRANCH   9  42
HETATM   42  O6  UNL     1      -0.740  -1.455  -2.357  1.00  0.00    -0.324 OA
HETATM   43  C36 UNL     1      -1.115  -2.822  -2.275  1.00  0.00     0.182 C 
ENDBRANCH   9  42
BRANCH  13  44
HETATM   44  O5  UNL     1      -0.697  -3.205   2.248  1.00  0.00    -0.326 OA
HETATM   45  C35 UNL     1      -1.252  -4.078   3.221  1.00  0.00     0.181 C 
ENDBRANCH  13  44
BRANCH  33  46
HETATM   46  O4  UNL     1       3.022   5.201   1.190  1.00  0.00    -0.326 OA
HETATM   47  C34 UNL     1       4.154   5.858   1.738  1.00  0.00     0.181 C 
ENDBRANCH  33  46
TORSDOF 4
