REMARK  3 active torsions:
REMARK  status: ('A' for Active; 'I' for Inactive)
REMARK    1  A    between atoms: C7_8  and  O6_42 
REMARK    2  A    between atoms: C11_13  and  O4_39 
REMARK    3  A    between atoms: C27_31  and  O3_37 
ROOT
HETATM    1  C1  UNL     1       4.813   1.658  -1.311  1.00  0.00     0.255 C 
HETATM    2  N1  UNL     1       3.473   1.564  -1.963  1.00  0.00     0.142 N 
HETATM    3  C2  UNL     1       2.354   1.910  -1.068  1.00  0.00     0.247 C 
HETATM    4  C3  UNL     1       2.459   1.125   0.205  1.00  0.00     0.030 C 
HETATM    5  C4  UNL     1       3.674   1.336   0.910  1.00  0.00    -0.018 C 
HETATM    6  C5  UNL     1       4.762   2.055   0.197  1.00  0.00     0.061 C 
HETATM    7  C6  UNL     1       3.828   0.859   2.230  1.00  0.00     0.022 C 
HETATM    8  C7  UNL     1       2.793   0.107   2.826  1.00  0.00     0.121 C 
HETATM    9  C8  UNL     1       1.635  -0.221   2.082  1.00  0.00     0.175 C 
HETATM   10  C9  UNL     1       1.498   0.205   0.727  1.00  0.00     0.125 C 
HETATM   11  O1  UNL     1       0.496  -0.252  -0.065  1.00  0.00    -0.303 OA
HETATM   12  C10 UNL     1       0.002  -1.516  -0.195  1.00  0.00     0.122 A 
HETATM   13  C11 UNL     1       0.668  -2.699   0.252  1.00  0.00     0.116 A 
HETATM   14  C12 UNL     1       0.043  -3.957   0.133  1.00  0.00     0.022 A 
HETATM   15  C13 UNL     1      -1.223  -4.078  -0.481  1.00  0.00    -0.020 A 
HETATM   16  C14 UNL     1      -1.893  -2.928  -0.971  1.00  0.00    -0.002 A 
HETATM   17  C15 UNL     1      -1.256  -1.660  -0.838  1.00  0.00     0.024 A 
HETATM   18  C16 UNL     1      -3.246  -3.051  -1.623  1.00  0.00     0.124 C 
HETATM   19  N2  UNL     1      -3.598  -4.412  -2.100  1.00  0.00    -0.292 NA
HETATM   20  C17 UNL     1      -2.590  -5.473  -1.996  1.00  0.00     0.125 C 
HETATM   21  C18 UNL     1      -1.865  -5.399  -0.643  1.00  0.00     0.052 C 
HETATM   22  C19 UNL     1      -4.426  -2.578  -0.717  1.00  0.00     0.055 C 
HETATM   23  C20 UNL     1      -4.318  -1.141  -0.311  1.00  0.00    -0.020 C 
HETATM   24  C21 UNL     1      -4.486  -0.129  -1.275  1.00  0.00    -0.002 C 
HETATM   25  C22 UNL     1      -4.197   1.203  -0.949  1.00  0.00     0.024 C 
HETATM   26  C23 UNL     1      -3.742   1.533   0.346  1.00  0.00     0.100 C 
HETATM   27  C24 UNL     1      -3.732   0.545   1.346  1.00  0.00     0.024 C 
HETATM   28  C25 UNL     1      -4.016  -0.791   1.019  1.00  0.00    -0.002 C 
HETATM   29  O2  UNL     1      -3.295   2.754   0.615  1.00  0.00    -0.305 OA
HETATM   30  C26 UNL     1      -2.150   3.213   0.096  1.00  0.00     0.122 A 
HETATM   31  C27 UNL     1      -1.871   4.590   0.211  1.00  0.00     0.117 A 
HETATM   32  C28 UNL     1      -0.687   5.121  -0.332  1.00  0.00     0.026 A 
HETATM   33  C29 UNL     1       0.231   4.287  -0.988  1.00  0.00    -0.002 A 
HETATM   34  C30 UNL     1      -0.014   2.906  -1.102  1.00  0.00    -0.018 A 
HETATM   35  C31 UNL     1      -1.199   2.383  -0.561  1.00  0.00     0.022 A 
HETATM   36  C32 UNL     1       0.981   2.008  -1.795  1.00  0.00     0.064 C 
HETATM   37  O5  UNL     1       0.674  -0.953   2.664  1.00  0.00    -0.186 OA
HETATM   38  C36 UNL     1       3.266   0.299  -2.666  1.00  0.00     0.286 C 
ENDROOT
BRANCH   8  39
HETATM   39  O6  UNL     1       2.920  -0.315   4.092  1.00  0.00    -0.326 OA
HETATM   40  C35 UNL     1       4.117   0.008   4.783  1.00  0.00     0.181 C 
ENDBRANCH   8  39
BRANCH  13  41
HETATM   41  O4  UNL     1       1.902  -2.666   0.771  1.00  0.00    -0.326 OA
HETATM   42  C34 UNL     1       2.486  -3.895   1.182  1.00  0.00     0.181 C 
ENDBRANCH  13  41
BRANCH  31  43
HETATM   43  O3  UNL     1      -2.721   5.387   0.828  1.00  0.00    -0.326 OA
HETATM   44  C33 UNL     1      -2.353   6.750   0.996  1.00  0.00     0.181 C 
ENDBRANCH  31  43
TORSDOF 3
