REMARK  4 active torsions:
REMARK  status: ('A' for Active; 'I' for Inactive)
REMARK    1  A    between atoms: C7_8  and  O3_17 
REMARK    2  A    between atoms: C8_9  and  C10_11 
REMARK    3  A    between atoms: C10_11  and  C11_12 
REMARK    4  A    between atoms: C11_12  and  C12_14 
ROOT
HETATM    1  O1  UNL     1      -2.494   0.516  -0.852  1.00  0.00    -0.273 OA
HETATM    2  C1  UNL     1      -3.725   0.035  -1.117  1.00  0.00     0.300 A 
HETATM    3  C2  UNL     1      -3.867  -1.344  -1.635  1.00  0.00     0.069 A 
HETATM    4  C3  UNL     1      -2.773  -2.106  -1.838  1.00  0.00     0.007 A 
HETATM    5  C4  UNL     1      -1.436  -1.533  -1.533  1.00  0.00     0.023 A 
HETATM    6  C5  UNL     1      -0.260  -2.295  -1.730  1.00  0.00     0.004 A 
HETATM    7  C6  UNL     1       0.998  -1.725  -1.428  1.00  0.00     0.024 A 
HETATM    8  C7  UNL     1       1.082  -0.402  -0.932  1.00  0.00     0.092 A 
HETATM    9  C8  UNL     1      -0.098   0.361  -0.736  1.00  0.00     0.026 A 
HETATM   10  C9  UNL     1      -1.363  -0.203  -1.035  1.00  0.00     0.101 A 
HETATM   11  O4  UNL     1      -4.725   0.693  -0.947  1.00  0.00    -0.259 OA
ENDROOT
BRANCH   9  12
HETATM   12  C10 UNL     1      -0.010   1.738  -0.221  1.00  0.00     0.068 C 
BRANCH  12  13
HETATM   13  C11 UNL     1      -0.344   1.803   1.270  1.00  0.00     0.175 C 
HETATM   14  O2  UNL     1      -0.336   3.156   1.664  1.00  0.00    -0.219 OA
BRANCH  13  15
HETATM   15  C12 UNL     1       0.635   1.029   2.113  1.00  0.00    -0.014 C 
HETATM   16  C13 UNL     1       2.082   1.416   2.250  1.00  0.00     0.029 C 
HETATM   17  C14 UNL     1       0.195  -0.057   2.772  1.00  0.00    -0.007 C 
ENDBRANCH  13  15
ENDBRANCH  12  13
ENDBRANCH   9  12
BRANCH   8  18
HETATM   18  O3  UNL     1       2.283   0.123  -0.650  1.00  0.00    -0.328 OA
HETATM   19  C15 UNL     1       3.426  -0.703  -0.813  1.00  0.00     0.181 C 
ENDBRANCH   8  18
TORSDOF 4
