REMARK  5 active torsions:
REMARK  status: ('A' for Active; 'I' for Inactive)
REMARK    1  A    between atoms: C6_6  and  C7_7 
REMARK    2  A    between atoms: C7_7  and  C8_8 
REMARK    3  A    between atoms: C12_13  and  C15_17 
REMARK    4  A    between atoms: C17_19  and  C21_24 
REMARK    5  A    between atoms: C21_24  and  C22_25 
ROOT
HETATM    1  C1  UNL     1      -4.779  -1.289   0.742  1.00  0.00     0.131 A 
HETATM    2  C2  UNL     1      -4.619  -2.596   1.260  1.00  0.00     0.055 A 
HETATM    3  C3  UNL     1      -3.324  -3.127   1.465  1.00  0.00     0.138 A 
HETATM    4  C4  UNL     1      -2.186  -2.342   1.150  1.00  0.00     0.087 A 
HETATM    5  C5  UNL     1      -2.342  -1.029   0.631  1.00  0.00     0.103 A 
HETATM    6  C6  UNL     1      -3.643  -0.504   0.428  1.00  0.00     0.030 A 
HETATM    7  O1  UNL     1      -1.256  -0.279   0.332  1.00  0.00    -0.307 OA
HETATM    8  C12 UNL     1       0.014  -0.705   0.498  1.00  0.00     0.103 A 
HETATM    9  C13 UNL     1       0.285  -1.940   0.982  1.00  0.00     0.067 A 
HETATM   10  C14 UNL     1      -0.805  -2.867   1.351  1.00  0.00     0.202 A 
HETATM   11  O2  UNL     1      -0.484  -3.953   1.777  1.00  0.00    -0.286 OA
HETATM   12  O4  UNL     1      -3.193  -4.369   1.955  1.00  0.00    -0.190 OA
HETATM   13  O5  UNL     1      -6.014  -0.801   0.553  1.00  0.00    -0.190 OA
ENDROOT
BRANCH   8  14
HETATM   14  C15 UNL     1       1.152   0.193   0.141  1.00  0.00     0.023 A 
HETATM   15  C16 UNL     1       2.395  -0.354  -0.229  1.00  0.00     0.000 A 
HETATM   16  C17 UNL     1       3.467   0.492  -0.565  1.00  0.00     0.008 A 
HETATM   17  C18 UNL     1       3.299   1.891  -0.531  1.00  0.00     0.127 A 
HETATM   18  C19 UNL     1       2.057   2.433  -0.160  1.00  0.00     0.027 A 
HETATM   19  O3  UNL     1       4.299   2.691  -0.844  1.00  0.00    -0.191 OA
HETATM   20  C20 UNL     1       0.984   1.590   0.176  1.00  0.00     0.004 A 
BRANCH  16  21
HETATM   21  C21 UNL     1       4.775  -0.100  -0.955  1.00  0.00     0.054 C 
BRANCH  21  22
HETATM   22  C22 UNL     1       5.252  -1.125   0.039  1.00  0.00    -0.030 C 
HETATM   23  C23 UNL     1       5.947  -0.707   1.107  1.00  0.00    -0.048 C 
HETATM   24  C24 UNL     1       6.451  -1.735   2.084  1.00  0.00     0.026 C 
HETATM   25  C25 UNL     1       6.190   0.769   1.275  1.00  0.00     0.026 C 
ENDBRANCH  21  22
ENDBRANCH  16  21
ENDBRANCH   8  14
BRANCH   6  26
HETATM   26  C7  UNL     1      -3.813   0.857  -0.111  1.00  0.00     0.056 C 
BRANCH  26  27
HETATM   27  C8  UNL     1      -3.918   0.863  -1.611  1.00  0.00    -0.030 C 
HETATM   28  C9  UNL     1      -4.400   1.961  -2.215  1.00  0.00    -0.048 C 
HETATM   29  C10 UNL     1      -4.840   3.217  -1.512  1.00  0.00     0.026 C 
HETATM   30  C11 UNL     1      -4.518   1.963  -3.717  1.00  0.00     0.026 C 
ENDBRANCH  26  27
ENDBRANCH   6  26
TORSDOF 5
