REMARK  6 active torsions:
REMARK  status: ('A' for Active; 'I' for Inactive)
REMARK    1  A    between atoms: C1_1  and  C14_21 
REMARK    2  A    between atoms: C4_4  and  O2_9 
REMARK    3  A    between atoms: C5_5  and  O1_7 
REMARK    4  A    between atoms: O2_9  and  C8_10 
REMARK    5  A    between atoms: C9_12  and  C13_19 
REMARK    6  A    between atoms: C14_21  and  C15_22 
ROOT
HETATM    1  O2  UNL     1       0.338   0.629  -1.238  1.00  0.00    -0.302 OA
ENDROOT
BRANCH   1   2
HETATM    2  C4  UNL     1       0.998  -0.201  -0.457  1.00  0.00     0.119 A 
HETATM    3  C3  UNL     1       0.297  -1.014   0.453  1.00  0.00     0.026 A 
HETATM    4  C2  UNL     1       0.992  -1.900   1.291  1.00  0.00    -0.002 A 
HETATM    5  C1  UNL     1       2.393  -1.981   1.221  1.00  0.00    -0.016 A 
HETATM    6  C6  UNL     1       3.096  -1.168   0.312  1.00  0.00     0.022 A 
HETATM    7  C5  UNL     1       2.400  -0.279  -0.527  1.00  0.00     0.116 A 
BRANCH   5   8
HETATM    8  C14 UNL     1       3.133  -2.918   2.105  1.00  0.00     0.052 C 
BRANCH   8   9
HETATM    9  C15 UNL     1       3.289  -2.377   3.500  1.00  0.00    -0.021 C 
HETATM   10  C16 UNL     1       3.512  -3.242   4.502  1.00  0.00    -0.005 C 
ENDBRANCH   8   9
ENDBRANCH   5   8
BRANCH   7  11
HETATM   11  O1  UNL     1       3.066   0.478  -1.377  1.00  0.00    -0.326 OA
HETATM   12  C7  UNL     1       4.484   0.430  -1.344  1.00  0.00     0.181 C 
ENDBRANCH   7  11
ENDBRANCH   1   2
BRANCH   1  13
HETATM   13  C8  UNL     1      -0.926   1.103  -0.793  1.00  0.00     0.274 C 
HETATM   14  O3  UNL     1      -1.939   0.221  -1.254  1.00  0.00    -0.326 OA
HETATM   15  C9  UNL     1      -3.260   0.549  -0.838  1.00  0.00     0.184 C 
HETATM   16  C10 UNL     1      -3.637   1.945  -1.385  1.00  0.00     0.215 C 
HETATM   17  C11 UNL     1      -2.600   3.012  -0.975  1.00  0.00     0.220 C 
HETATM   18  O6  UNL     1      -4.914   2.299  -0.885  1.00  0.00    -0.218 OA
HETATM   19  C12 UNL     1      -1.182   2.523  -1.340  1.00  0.00     0.241 C 
HETATM   20  O5  UNL     1      -2.875   4.234  -1.641  1.00  0.00    -0.218 OA
HETATM   21  O4  UNL     1      -0.211   3.400  -0.797  1.00  0.00    -0.215 OA
BRANCH  15  22
HETATM   22  C13 UNL     1      -4.180  -0.561  -1.356  1.00  0.00     0.214 C 
HETATM   23  O7  UNL     1      -3.873  -1.742  -0.650  1.00  0.00    -0.218 OA
ENDBRANCH  15  22
ENDBRANCH   1  13
TORSDOF 6
