REMARK  4 active torsions:
REMARK  status: ('A' for Active; 'I' for Inactive)
REMARK    1  A    between atoms: C3_3  and  O4_10 
REMARK    2  A    between atoms: C5_6  and  C6_7 
REMARK    3  A    between atoms: O4_10  and  C7_11 
REMARK    4  A    between atoms: C8_13  and  C12_20 
ROOT
HETATM    1  C1  UNL     1      -2.061  -2.006  -0.398  1.00  0.00     0.038 C 
HETATM    2  C2  UNL     1      -2.023  -0.522  -0.006  1.00  0.00     0.064 C 
HETATM    3  C3  UNL     1      -0.615  -0.080   0.416  1.00  0.00     0.242 C 
HETATM    4  O1  UNL     1      -0.072  -0.949   1.416  1.00  0.00    -0.304 OA
HETATM    5  C4  UNL     1      -0.189  -2.276   1.227  1.00  0.00     0.121 C 
HETATM    6  C5  UNL     1      -1.064  -2.854   0.375  1.00  0.00     0.066 C 
HETATM    7  C13 UNL     1      -3.051  -0.436   1.127  1.00  0.00     0.036 C 
HETATM    8  C14 UNL     1      -4.219  -1.238   0.549  1.00  0.00     0.153 C 
HETATM    9  C15 UNL     1      -3.525  -2.416  -0.145  1.00  0.00     0.038 C 
HETATM   10  O10 UNL     1      -4.947  -0.479  -0.400  1.00  0.00    -0.223 OA
HETATM   11  C16 UNL     1      -3.389   1.002   1.516  1.00  0.00     0.003 C 
ENDROOT
BRANCH   3  12
HETATM   12  O4  UNL     1       0.232  -0.037  -0.717  1.00  0.00    -0.304 OA
BRANCH  12  13
HETATM   13  C7  UNL     1       1.537   0.420  -0.420  1.00  0.00     0.272 C 
HETATM   14  O5  UNL     1       1.467   1.801  -0.090  1.00  0.00    -0.326 OA
HETATM   15  C8  UNL     1       2.703   2.394   0.281  1.00  0.00     0.184 C 
HETATM   16  C9  UNL     1       3.692   2.303  -0.904  1.00  0.00     0.215 C 
HETATM   17  C10 UNL     1       3.859   0.846  -1.385  1.00  0.00     0.220 C 
HETATM   18  O8  UNL     1       4.943   2.820  -0.490  1.00  0.00    -0.218 OA
HETATM   19  C11 UNL     1       2.473   0.215  -1.641  1.00  0.00     0.241 C 
HETATM   20  O7  UNL     1       4.629   0.818  -2.576  1.00  0.00    -0.218 OA
HETATM   21  O6  UNL     1       2.625  -1.174  -1.893  1.00  0.00    -0.215 OA
BRANCH  15  22
HETATM   22  C12 UNL     1       2.399   3.840   0.689  1.00  0.00     0.214 C 
HETATM   23  O9  UNL     1       1.625   3.810   1.867  1.00  0.00    -0.218 OA
ENDBRANCH  15  22
ENDBRANCH  12  13
ENDBRANCH   3  12
BRANCH   6  24
HETATM   24  C6  UNL     1      -1.078  -4.315   0.186  1.00  0.00     0.209 C 
HETATM   25  O2  UNL     1      -0.533  -5.039   0.982  1.00  0.00    -0.644 OA
HETATM   26  O3  UNL     1      -1.717  -4.750  -0.896  1.00  0.00    -0.644 OA
ENDBRANCH   6  24
TORSDOF 4
