REMARK  3 active torsions:
REMARK  status: ('A' for Active; 'I' for Inactive)
REMARK    1  A    between atoms: N4_9  and  C6_10 
REMARK    2  A    between atoms: C9_13  and  C10_15 
REMARK    3  A    between atoms: C10_15  and  O2_16 
ROOT
HETATM    1  C1  UNL     1      -3.283   3.492  -0.787  1.00  0.00     0.206 A 
HETATM    2  N1  UNL     1      -4.486   2.797  -0.731  1.00  0.00    -0.202 NA
HETATM    3  C2  UNL     1      -4.396   1.402  -0.572  1.00  0.00     0.202 A 
HETATM    4  N2  UNL     1      -3.182   0.711  -0.473  1.00  0.00    -0.205 NA
HETATM    5  C3  UNL     1      -2.078   1.535  -0.545  1.00  0.00     0.170 A 
HETATM    6  C4  UNL     1      -1.994   2.899  -0.697  1.00  0.00     0.155 A 
HETATM    7  N3  UNL     1      -0.713   3.313  -0.719  1.00  0.00    -0.219 NA
HETATM    8  C5  UNL     1      -0.004   2.135  -0.574  1.00  0.00     0.182 A 
HETATM    9  N4  UNL     1      -0.828   1.027  -0.465  1.00  0.00    -0.270 N 
HETATM   10  N5  UNL     1      -3.242   4.826  -0.938  1.00  0.00    -0.125 N 
ENDROOT
BRANCH   9  11
HETATM   11  C6  UNL     1      -0.410  -0.377  -0.301  1.00  0.00     0.241 C 
HETATM   12  C7  UNL     1       0.568  -0.891  -1.358  1.00  0.00     0.234 C 
HETATM   13  C8  UNL     1       1.297  -2.035  -0.606  1.00  0.00     0.216 C 
HETATM   14  O4  UNL     1      -0.107  -1.291  -2.539  1.00  0.00    -0.216 OA
HETATM   15  C9  UNL     1       1.045  -1.715   0.883  1.00  0.00     0.180 C 
HETATM   16  O3  UNL     1       0.781  -3.324  -0.901  1.00  0.00    -0.218 OA
HETATM   17  O1  UNL     1       0.365  -0.482   0.867  1.00  0.00    -0.331 OA
BRANCH  15  18
HETATM   18  C10 UNL     1       2.320  -1.555   1.701  1.00  0.00     0.175 C 
BRANCH  18  19
HETATM   19  O2  UNL     1       2.940  -2.816   1.805  1.00  0.00    -0.349 OA
HETATM   20  C11 UNL     1       4.137  -2.789   2.549  1.00  0.00     0.174 C 
ENDBRANCH  18  19
ENDBRANCH  15  18
ENDBRANCH   9  11
TORSDOF 3
