REMARK  4 active torsions:
REMARK  status: ('A' for Active; 'I' for Inactive)
REMARK    1  A    between atoms: C7_8  and  C23_31 
REMARK    2  A    between atoms: C8_9  and  C9_10 
REMARK    3  A    between atoms: C12_13  and  O3_19 
REMARK    4  A    between atoms: C13_14  and  O2_17 
ROOT
HETATM    1  C1  UNL     1       5.295  -0.393   0.393  1.00  0.00     0.129 A 
HETATM    2  C2  UNL     1       4.988  -1.768   0.283  1.00  0.00     0.023 A 
HETATM    3  C3  UNL     1       3.641  -2.191   0.240  1.00  0.00    -0.022 A 
HETATM    4  C4  UNL     1       2.592  -1.238   0.303  1.00  0.00     0.054 A 
HETATM    5  C5  UNL     1       2.902   0.146   0.416  1.00  0.00     0.139 A 
HETATM    6  C6  UNL     1       4.254   0.562   0.455  1.00  0.00     0.030 A 
HETATM    7  O1  UNL     1       1.934   1.086   0.479  1.00  0.00     0.000 OA
HETATM    8  C7  UNL     1       0.565   0.719   0.689  1.00  0.00     0.037 A 
HETATM    9  C8  UNL     1       0.217  -0.537  -0.129  1.00  0.00     0.027 A 
HETATM   10  C9  UNL     1       1.178  -1.684   0.252  1.00  0.00     0.012 A 
HETATM   11  C10 UNL     1      -1.207  -0.932   0.049  1.00  0.00     0.002 A 
HETATM   12  C11 UNL     1      -2.221  -0.291  -0.688  1.00  0.00     0.114 A 
HETATM   13  C12 UNL     1      -3.564  -0.672  -0.512  1.00  0.00     0.138 A 
HETATM   14  C13 UNL     1      -3.893  -1.693   0.400  1.00  0.00     0.118 A 
HETATM   15  C14 UNL     1      -2.877  -2.330   1.135  1.00  0.00     0.026 A 
HETATM   16  C15 UNL     1      -1.535  -1.951   0.959  1.00  0.00    -0.000 A 
HETATM   17  O4  UNL     1      -1.916   0.666  -1.545  1.00  0.00    -0.326 OA
HETATM   18  C18 UNL     1      -0.586   1.166  -1.541  1.00  0.00     0.184 C 
HETATM   19  O5  UNL     1       0.102   0.633  -0.416  1.00  0.00     0.000 OA
HETATM   20  C19 UNL     1       1.469   1.012  -0.311  1.00  0.00     0.063 A 
HETATM   21  C20 UNL     1       1.567   2.551  -0.174  1.00  0.00     0.187 C 
HETATM   22  C21 UNL     1       0.834   3.268  -1.328  1.00  0.00     0.215 C 
HETATM   23  C22 UNL     1      -0.598   2.707  -1.463  1.00  0.00     0.215 C 
HETATM   24  O6  UNL     1      -1.211   3.213  -2.635  1.00  0.00    -0.218 OA
HETATM   25  O7  UNL     1       0.781   4.662  -1.074  1.00  0.00    -0.218 OA
HETATM   26  O8  UNL     1       2.934   2.926  -0.172  1.00  0.00    -0.221 OA
HETATM   27  C23 UNL     1       2.063   0.271   0.861  1.00  0.00     0.122 A 
HETATM   28  O9  UNL     1       2.990   0.732   1.484  1.00  0.00    -0.354 OA
HETATM   29  O10 UNL     1       1.490  -0.897   1.143  1.00  0.00     0.000 OA
HETATM   30  O11 UNL     1       6.574   0.008   0.434  1.00  0.00    -0.190 OA
ENDROOT
BRANCH  13  31
HETATM   31  O3  UNL     1      -4.516  -0.074  -1.199  1.00  0.00    -0.324 OA
HETATM   32  C17 UNL     1      -5.855  -0.492  -0.986  1.00  0.00     0.182 C 
ENDBRANCH  13  31
BRANCH  14  33
HETATM   33  O2  UNL     1      -5.148  -2.053   0.570  1.00  0.00    -0.326 OA
HETATM   34  C16 UNL     1      -5.426  -3.088   1.504  1.00  0.00     0.181 C 
ENDBRANCH  14  33
TORSDOF 4
