REMARK  10 active torsions:
REMARK  status: ('A' for Active; 'I' for Inactive)
REMARK    1  A    between atoms: C6_6  and  O1_7 
REMARK    2  A    between atoms: O1_7  and  C7_8 
REMARK    3  A    between atoms: C10_13  and  O11_38 
REMARK    4  A    between atoms: C14_17  and  O6_23 
REMARK    5  A    between atoms: C15_18  and  O4_19 
REMARK    6  A    between atoms: O4_19  and  C16_20 
REMARK    7  A    between atoms: O6_23  and  C18_24 
REMARK    8  A    between atoms: C21_28  and  O8_30 
REMARK    9  A    between atoms: O8_30  and  C23_31 
REMARK   10  A    between atoms: O11_38  and  C28_39 
ROOT
HETATM    1  C1  UNL     1       0.506   1.009  -0.059  1.00  0.00     0.063 C 
HETATM    2  C2  UNL     1       0.661  -0.763   0.480  1.00  0.00     0.056 C 
HETATM    3  C3  UNL     1      -0.751  -1.461   0.144  1.00  0.00    -0.012 C 
HETATM    4  C4  UNL     1      -2.089  -0.673   0.157  1.00  0.00     0.173 C 
HETATM    5  C5  UNL     1      -1.858   0.507   1.051  1.00  0.00     0.068 C 
HETATM    6  C6  UNL     1      -0.778   1.601   0.638  1.00  0.00     0.130 C 
HETATM    7  O3  UNL     1      -3.167  -1.496   0.647  1.00  0.00    -0.219 OA
HETATM    8  C9  UNL     1      -0.816  -2.775  -0.056  1.00  0.00    -0.007 C 
HETATM    9  C10 UNL     1       2.029  -1.844  -0.300  1.00  0.00     0.156 C 
HETATM   10  C11 UNL     1       3.880  -1.520  -0.252  1.00  0.00     0.158 C 
HETATM   11  C12 UNL     1       3.803  -0.129  -0.208  1.00  0.00     0.048 C 
HETATM   12  C13 UNL     1       4.578   0.891   0.037  1.00  0.00    -0.005 C 
HETATM   13  C14 UNL     1       3.612   2.295   0.436  1.00  0.00     0.104 C 
HETATM   14  C15 UNL     1       1.850   2.432  -0.085  1.00  0.00     0.171 C 
HETATM   15  C20 UNL     1       5.857   0.625   0.343  1.00  0.00    -0.019 C 
HETATM   16  C21 UNL     1       6.279  -0.957   0.309  1.00  0.00     0.145 C 
HETATM   17  C22 UNL     1       4.932  -1.783   0.911  1.00  0.00     0.068 C 
HETATM   18  C25 UNL     1       6.738   1.704   0.940  1.00  0.00     0.029 C 
HETATM   19  C26 UNL     1       3.316  -0.055   1.376  1.00  0.00     0.007 C 
HETATM   20  C27 UNL     1       3.249   0.226  -1.628  1.00  0.00     0.007 C 
HETATM   21  O10 UNL     1       4.545  -2.214  -1.351  1.00  0.00    -0.223 OA
HETATM   22  C30 UNL     1       0.125   0.816  -1.588  1.00  0.00     0.006 C 
ENDROOT
BRANCH   6  23
HETATM   23  O1  UNL     1      -1.272   2.601  -0.289  1.00  0.00    -0.304 OA
BRANCH  23  24
HETATM   24  C7  UNL     1      -2.366   3.358   0.170  1.00  0.00     0.272 C 
HETATM   25  C8  UNL     1      -2.972   4.388  -0.743  1.00  0.00     0.106 C 
HETATM   26  O2  UNL     1      -2.810   3.223   1.315  1.00  0.00    -0.264 OA
ENDBRANCH  23  24
ENDBRANCH   6  23
BRANCH  14  27
HETATM   27  O4  UNL     1       1.550   3.571   0.772  1.00  0.00    -0.298 OA
BRANCH  27  28
HETATM   28  C16 UNL     1       0.765   4.565   0.202  1.00  0.00     0.273 C 
HETATM   29  C17 UNL     1       0.411   5.777   1.016  1.00  0.00     0.106 C 
HETATM   30  O5  UNL     1       0.399   4.480  -0.975  1.00  0.00    -0.264 OA
ENDBRANCH  27  28
ENDBRANCH  14  27
BRANCH   9  31
HETATM   31  O11 UNL     1       1.857  -3.223   0.187  1.00  0.00    -0.301 OA
BRANCH  31  32
HETATM   32  C28 UNL     1       2.480  -4.274  -0.509  1.00  0.00     0.272 C 
HETATM   33  C29 UNL     1       2.353  -5.669   0.034  1.00  0.00     0.106 C 
HETATM   34  O12 UNL     1       3.093  -4.091  -1.562  1.00  0.00    -0.264 OA
ENDBRANCH  31  32
ENDBRANCH   9  31
BRANCH  13  35
HETATM   35  O6  UNL     1       4.345   3.536   0.242  1.00  0.00    -0.279 OA
BRANCH  35  36
HETATM   36  C18 UNL     1       4.633   3.894  -1.069  1.00  0.00     0.277 C 
HETATM   37  C19 UNL     1       5.416   5.153  -1.315  1.00  0.00     0.107 C 
HETATM   38  O7  UNL     1       4.283   3.191  -2.020  1.00  0.00    -0.264 OA
ENDBRANCH  35  36
ENDBRANCH  13  35
BRANCH  16  39
HETATM   39  O8  UNL     1       7.500  -1.256   1.040  1.00  0.00    -0.300 OA
BRANCH  39  40
HETATM   40  C23 UNL     1       8.745  -0.904   0.374  1.00  0.00     0.273 C 
HETATM   41  C24 UNL     1       8.820  -0.345  -1.047  1.00  0.00     0.106 C 
HETATM   42  O9  UNL     1       9.806  -1.122   0.965  1.00  0.00    -0.264 OA
ENDBRANCH  39  40
ENDBRANCH  16  39
TORSDOF 10
