REMARK  8 active torsions:
REMARK  status: ('A' for Active; 'I' for Inactive)
REMARK    1  A    between atoms: C4_4  and  O8_28 
REMARK    2  A    between atoms: C7_7  and  O3_13 
REMARK    3  A    between atoms: C8_8  and  O1_9 
REMARK    4  A    between atoms: O1_9  and  C9_10 
REMARK    5  A    between atoms: O3_13  and  C11_14 
REMARK    6  A    between atoms: C13_17  and  O6_23 
REMARK    7  A    between atoms: O6_23  and  C18_24 
REMARK    8  A    between atoms: O8_28  and  C21_29 
ROOT
HETATM    1  C1  UNL     1       0.215   1.151  -1.429  1.00  0.00     0.150 A 
HETATM    2  C2  UNL     1      -0.722   2.295  -0.945  1.00  0.00     0.031 C 
HETATM    3  C3  UNL     1      -2.055   1.570  -0.634  1.00  0.00     0.038 C 
HETATM    4  C4  UNL     1      -2.065   0.591   0.587  1.00  0.00     0.129 C 
HETATM    5  C5  UNL     1      -1.365  -0.806   0.404  1.00  0.00     0.053 C 
HETATM    6  C6  UNL     1       0.079  -0.988   0.997  1.00  0.00     0.060 C 
HETATM    7  C7  UNL     1       1.029   0.235   0.832  1.00  0.00     0.157 C 
HETATM    8  C8  UNL     1       1.411   0.664  -0.604  1.00  0.00     0.179 C 
HETATM    9  C13 UNL     1       0.705  -2.261   0.343  1.00  0.00     0.130 C 
HETATM   10  C14 UNL     1      -0.147  -3.539   0.511  1.00  0.00     0.068 C 
HETATM   11  C15 UNL     1      -1.630  -3.347   0.140  1.00  0.00     0.173 C 
HETATM   12  C16 UNL     1      -2.121  -2.078   0.807  1.00  0.00    -0.012 C 
HETATM   13  C17 UNL     1      -3.108  -2.152   1.726  1.00  0.00    -0.007 C 
HETATM   14  O5  UNL     1      -1.776  -3.281  -1.265  1.00  0.00    -0.219 OA
HETATM   15  C20 UNL     1      -0.044  -1.216   2.518  1.00  0.00     0.005 C 
HETATM   16  C23 UNL     1      -2.713   0.979  -1.916  1.00  0.00     0.070 C 
HETATM   17  C24 UNL     1      -1.757   0.507  -2.995  1.00  0.00     0.177 C 
HETATM   18  C25 UNL     1      -0.330   0.219  -2.576  1.00  0.00     0.168 A 
HETATM   19  O10 UNL     1       0.541   1.281  -2.784  1.00  0.00    -0.349 OA
HETATM   20  C26 UNL     1       0.372  -1.051  -3.040  1.00  0.00     0.040 C 
HETATM   21  O11 UNL     1      -2.120   0.375  -4.141  1.00  0.00    -0.293 OA
HETATM   22  C27 UNL     1      -0.181   3.037   0.280  1.00  0.00     0.003 C 
HETATM   23  C28 UNL     1      -0.967   3.390  -2.003  1.00  0.00     0.003 C 
ENDROOT
BRANCH   4  24
HETATM   24  O8  UNL     1      -3.445   0.418   0.876  1.00  0.00    -0.304 OA
BRANCH  24  25
HETATM   25  C21 UNL     1      -3.933   1.405   1.623  1.00  0.00     0.272 C 
HETATM   26  C22 UNL     1      -5.354   1.217   2.082  1.00  0.00     0.106 C 
HETATM   27  O9  UNL     1      -3.306   2.392   1.927  1.00  0.00    -0.264 OA
ENDBRANCH  24  25
ENDBRANCH   4  24
BRANCH   7  28
HETATM   28  O3  UNL     1       2.243  -0.022   1.528  1.00  0.00    -0.302 OA
BRANCH  28  29
HETATM   29  C11 UNL     1       2.807   1.089   1.992  1.00  0.00     0.272 C 
HETATM   30  C12 UNL     1       4.246   0.951   2.410  1.00  0.00     0.106 C 
HETATM   31  O4  UNL     1       2.231   2.148   2.083  1.00  0.00    -0.264 OA
ENDBRANCH  28  29
ENDBRANCH   7  28
BRANCH   9  32
HETATM   32  O6  UNL     1       1.996  -2.517   0.878  1.00  0.00    -0.304 OA
BRANCH  32  33
HETATM   33  C18 UNL     1       2.713  -3.328   0.106  1.00  0.00     0.272 C 
HETATM   34  C19 UNL     1       4.025  -3.777   0.693  1.00  0.00     0.106 C 
HETATM   35  O7  UNL     1       2.365  -3.695  -0.992  1.00  0.00    -0.264 OA
ENDBRANCH  32  33
ENDBRANCH   9  32
BRANCH   8  36
HETATM   36  O1  UNL     1       2.359   1.721  -0.524  1.00  0.00    -0.299 OA
BRANCH  36  37
HETATM   37  C9  UNL     1       3.135   1.788  -1.602  1.00  0.00     0.273 C 
HETATM   38  C10 UNL     1       3.920   3.063  -1.748  1.00  0.00     0.106 C 
HETATM   39  O2  UNL     1       3.224   0.905  -2.423  1.00  0.00    -0.264 OA
ENDBRANCH  36  37
ENDBRANCH   8  36
TORSDOF 8
