REMARK  4 active torsions:
REMARK  status: ('A' for Active; 'I' for Inactive)
REMARK    1  A    between atoms: C1_1  and  O5_28 
REMARK    2  A    between atoms: C15_16  and  C18_19 
REMARK    3  A    between atoms: O5_28  and  C24_29 
REMARK    4  A    between atoms: C27_33  and  O7_35 
ROOT
HETATM    1  C1  UNL     1      -2.397  -0.131  -0.430  1.00  0.00     0.118 C 
HETATM    2  C2  UNL     1      -2.012  -1.496   0.160  1.00  0.00     0.030 C 
HETATM    3  C3  UNL     1      -0.486  -1.641   0.338  1.00  0.00     0.006 C 
HETATM    4  C4  UNL     1       0.117  -0.490   1.182  1.00  0.00     0.015 C 
HETATM    5  C5  UNL     1      -0.322   0.887   0.611  1.00  0.00     0.006 C 
HETATM    6  C6  UNL     1      -1.842   1.014   0.428  1.00  0.00     0.030 C 
HETATM    7  C7  UNL     1       1.644  -0.531   1.203  1.00  0.00    -0.040 C 
HETATM    8  C8  UNL     1       2.434  -1.547   0.379  1.00  0.00     0.047 C 
HETATM    9  C9  UNL     1       1.680  -2.203  -0.816  1.00  0.00     0.006 C 
HETATM   10  C10 UNL     1       0.232  -1.754  -1.010  1.00  0.00     0.001 C 
HETATM   11  C11 UNL     1       3.801  -0.979  -0.086  1.00  0.00     0.137 C 
HETATM   12  C12 UNL     1       4.635  -0.350   1.064  1.00  0.00     0.085 C 
HETATM   13  C13 UNL     1       3.777   0.441   2.039  1.00  0.00     0.174 C 
HETATM   14  C14 UNL     1       2.312   0.353   1.975  1.00  0.00     0.029 C 
HETATM   15  O1  UNL     1       4.289   1.158   2.869  1.00  0.00    -0.291 OA
HETATM   16  C15 UNL     1       5.592   0.602   0.309  1.00  0.00     0.030 C 
HETATM   17  C16 UNL     1       4.639   1.258  -0.689  1.00  0.00     0.007 C 
HETATM   18  C17 UNL     1       3.660   0.164  -1.115  1.00  0.00     0.032 C 
HETATM   19  C22 UNL     1       5.416  -1.379   1.893  1.00  0.00     0.011 C 
HETATM   20  O4  UNL     1       4.547  -2.035  -0.686  1.00  0.00    -0.225 OA
HETATM   21  C23 UNL     1      -0.393  -0.631   2.627  1.00  0.00     0.004 C 
ENDROOT
BRANCH   1  22
HETATM   22  O5  UNL     1      -3.805  -0.029  -0.490  1.00  0.00    -0.333 OA
BRANCH  22  23
HETATM   23  C24 UNL     1      -4.250   1.125  -1.178  1.00  0.00     0.238 C 
HETATM   24  O6  UNL     1      -4.463   2.230  -0.301  1.00  0.00    -0.331 OA
HETATM   25  C25 UNL     1      -5.504   2.074   0.660  1.00  0.00     0.151 C 
HETATM   26  C26 UNL     1      -6.850   1.820  -0.061  1.00  0.00     0.206 C 
HETATM   27  C30 UNL     1      -5.518   3.354   1.504  1.00  0.00     0.035 C 
HETATM   28  C27 UNL     1      -6.746   0.621  -1.027  1.00  0.00     0.153 C 
HETATM   29  O8  UNL     1      -7.848   1.568   0.912  1.00  0.00    -0.218 OA
HETATM   30  C28 UNL     1      -5.541   0.814  -1.963  1.00  0.00     0.094 C 
BRANCH  28  31
HETATM   31  O7  UNL     1      -7.920   0.508  -1.809  1.00  0.00    -0.351 OA
HETATM   32  C29 UNL     1      -7.947  -0.658  -2.604  1.00  0.00     0.174 C 
ENDBRANCH  28  31
ENDBRANCH  22  23
ENDBRANCH   1  22
BRANCH  16  33
HETATM   33  C18 UNL     1       6.754  -0.068  -0.375  1.00  0.00    -0.009 A 
HETATM   34  C19 UNL     1       6.824  -0.400  -1.664  1.00  0.00     0.062 A 
HETATM   35  C20 UNL     1       8.123  -1.018  -1.875  1.00  0.00     0.296 A 
HETATM   36  O2  UNL     1       8.822  -1.055  -0.732  1.00  0.00    -0.294 OA
HETATM   37  O3  UNL     1       8.496  -1.434  -2.947  1.00  0.00    -0.259 OA
HETATM   38  C21 UNL     1       8.031  -0.467   0.314  1.00  0.00     0.175 A 
ENDBRANCH  16  33
TORSDOF 4
