REMARK  16 active torsions:
REMARK  status: ('A' for Active; 'I' for Inactive)
REMARK    1  A    between atoms: C2_2  and  O8_45 
REMARK    2  A    between atoms: C3_3  and  C36_42 
REMARK    3  A    between atoms: C16_16  and  C32_37 
REMARK    4  A    between atoms: C19_20  and  O4_33 
REMARK    5  A    between atoms: C20_21  and  O2_26 
REMARK    6  A    between atoms: O2_26  and  C25_27 
REMARK    7  A    between atoms: C25_27  and  C26_28 
REMARK    8  A    between atoms: O4_33  and  C30_34 
REMARK    9  A    between atoms: O8_45  and  C38_46 
REMARK   10  A    between atoms: C39_48  and  C55_77 
REMARK   11  A    between atoms: C40_49  and  O17_65 
REMARK   12  A    between atoms: C42_51  and  O10_52 
REMARK   13  A    between atoms: O10_52  and  C43_53 
REMARK   14  A    between atoms: C44_55  and  C48_62 
REMARK   15  A    between atoms: O17_65  and  C49_66 
REMARK   16  A    between atoms: C50_68  and  C54_75 
ROOT
HETATM    1  C1  UNL     1       2.909   0.927   0.759  1.00  0.00     0.030 C 
HETATM    2  C2  UNL     1       3.766  -0.288   1.123  1.00  0.00     0.120 C 
HETATM    3  C3  UNL     1       3.090  -1.172   2.212  1.00  0.00     0.056 C 
HETATM    4  C4  UNL     1       1.531  -1.139   2.068  1.00  0.00     0.005 C 
HETATM    5  C5  UNL     1       1.034  -0.880   0.621  1.00  0.00     0.001 C 
HETATM    6  C6  UNL     1       1.575   0.495   0.127  1.00  0.00     0.003 C 
HETATM    7  C7  UNL     1      -0.529  -0.854   0.563  1.00  0.00     0.005 C 
HETATM    8  C8  UNL     1      -1.240  -2.052   1.243  1.00  0.00     0.004 C 
HETATM    9  C9  UNL     1      -0.672  -2.253   2.671  1.00  0.00     0.000 C 
HETATM   10  C10 UNL     1       0.853  -2.373   2.694  1.00  0.00     0.000 C 
HETATM   11  C11 UNL     1      -2.791  -1.786   1.292  1.00  0.00     0.017 C 
HETATM   12  C12 UNL     1      -3.355  -1.228  -0.016  1.00  0.00    -0.049 C 
HETATM   13  C13 UNL     1      -2.551  -0.764  -1.000  1.00  0.00    -0.035 C 
HETATM   14  C14 UNL     1      -1.049  -0.701  -0.881  1.00  0.00     0.025 C 
HETATM   15  C15 UNL     1      -4.879  -1.185  -0.144  1.00  0.00     0.025 C 
HETATM   16  C16 UNL     1      -5.531  -2.564   0.142  1.00  0.00     0.090 C 
HETATM   17  C17 UNL     1      -5.080  -2.995   1.563  1.00  0.00     0.158 C 
HETATM   18  C18 UNL     1      -3.548  -3.084   1.690  1.00  0.00     0.037 C 
HETATM   19  O1  UNL     1      -5.623  -4.261   1.897  1.00  0.00    -0.223 OA
HETATM   20  C19 UNL     1      -7.094  -2.465   0.066  1.00  0.00     0.157 C 
HETATM   21  C20 UNL     1      -7.621  -1.051  -0.233  1.00  0.00     0.152 C 
HETATM   22  C21 UNL     1      -6.978  -0.417  -1.486  1.00  0.00     0.028 C 
HETATM   23  C22 UNL     1      -5.432  -0.560  -1.449  1.00  0.00     0.007 C 
HETATM   24  C23 UNL     1      -7.366   1.067  -1.536  1.00  0.00     0.003 C 
HETATM   25  C24 UNL     1      -7.525  -1.084  -2.756  1.00  0.00     0.003 C 
HETATM   26  C33 UNL     1      -3.114  -0.699   2.332  1.00  0.00     0.004 C 
HETATM   27  C34 UNL     1      -0.942  -3.325   0.426  1.00  0.00     0.000 C 
HETATM   28  C35 UNL     1       1.581  -1.991  -0.292  1.00  0.00     0.000 C 
HETATM   29  C37 UNL     1       3.435  -0.689   3.633  1.00  0.00     0.005 C 
ENDROOT
BRANCH   2  30
HETATM   30  O8  UNL     1       5.055   0.141   1.521  1.00  0.00    -0.332 OA
BRANCH  30  31
HETATM   31  C38 UNL     1       5.804   0.710   0.465  1.00  0.00     0.267 C 
HETATM   32  O9  UNL     1       5.110   0.478  -0.753  1.00  0.00    -0.318 OA
HETATM   33  C39 UNL     1       5.770   0.947  -1.922  1.00  0.00     0.234 C 
HETATM   34  C40 UNL     1       5.938   2.483  -1.832  1.00  0.00     0.189 C 
HETATM   35  C41 UNL     1       6.666   2.893  -0.532  1.00  0.00     0.214 C 
HETATM   36  C42 UNL     1       5.983   2.234   0.687  1.00  0.00     0.207 C 
HETATM   37  O16 UNL     1       6.642   4.305  -0.392  1.00  0.00    -0.218 OA
BRANCH  33  38
HETATM   38  C55 UNL     1       4.957   0.508  -3.114  1.00  0.00     0.216 C 
HETATM   39  O23 UNL     1       5.650  -0.073  -4.089  1.00  0.00    -0.646 OA
HETATM   40  O24 UNL     1       3.762   0.685  -3.152  1.00  0.00    -0.646 OA
ENDBRANCH  33  38
BRANCH  34  41
HETATM   41  O17 UNL     1       6.680   2.930  -2.954  1.00  0.00    -0.326 OA
BRANCH  41  42
HETATM   42  C49 UNL     1       5.888   3.597  -3.916  1.00  0.00     0.270 C 
HETATM   43  O18 UNL     1       5.822   4.973  -3.566  1.00  0.00    -0.326 OA
HETATM   44  C50 UNL     1       5.013   5.773  -4.419  1.00  0.00     0.184 C 
HETATM   45  C51 UNL     1       5.594   5.743  -5.850  1.00  0.00     0.215 C 
HETATM   46  C52 UNL     1       5.742   4.294  -6.367  1.00  0.00     0.220 C 
HETATM   47  O21 UNL     1       4.730   6.472  -6.706  1.00  0.00    -0.218 OA
HETATM   48  C53 UNL     1       6.506   3.440  -5.329  1.00  0.00     0.241 C 
HETATM   49  O20 UNL     1       6.441   4.292  -7.601  1.00  0.00    -0.218 OA
HETATM   50  O19 UNL     1       6.455   2.076  -5.715  1.00  0.00    -0.215 OA
BRANCH  44  51
HETATM   51  C54 UNL     1       4.989   7.180  -3.813  1.00  0.00     0.214 C 
HETATM   52  O22 UNL     1       4.237   7.134  -2.622  1.00  0.00    -0.218 OA
ENDBRANCH  44  51
ENDBRANCH  41  42
ENDBRANCH  34  41
BRANCH  36  53
HETATM   53  O10 UNL     1       6.777   2.450   1.844  1.00  0.00    -0.324 OA
BRANCH  53  54
HETATM   54  C43 UNL     1       6.036   2.386   3.047  1.00  0.00     0.270 C 
HETATM   55  O11 UNL     1       6.649   1.429   3.900  1.00  0.00    -0.326 OA
HETATM   56  C44 UNL     1       5.985   1.215   5.139  1.00  0.00     0.184 C 
HETATM   57  C45 UNL     1       5.972   2.532   5.946  1.00  0.00     0.215 C 
HETATM   58  C46 UNL     1       5.343   3.684   5.132  1.00  0.00     0.220 C 
HETATM   59  O14 UNL     1       5.233   2.327   7.138  1.00  0.00    -0.218 OA
HETATM   60  C47 UNL     1       6.011   3.773   3.741  1.00  0.00     0.241 C 
HETATM   61  O13 UNL     1       5.510   4.911   5.825  1.00  0.00    -0.218 OA
HETATM   62  O12 UNL     1       5.291   4.689   2.932  1.00  0.00    -0.215 OA
BRANCH  56  63
HETATM   63  C48 UNL     1       6.734   0.085   5.851  1.00  0.00     0.214 C 
HETATM   64  O15 UNL     1       6.700  -1.057   5.025  1.00  0.00    -0.218 OA
ENDBRANCH  56  63
ENDBRANCH  53  54
ENDBRANCH  36  53
ENDBRANCH  30  31
ENDBRANCH   2  30
BRANCH   3  65
HETATM   65  C36 UNL     1       3.642  -2.599   2.066  1.00  0.00     0.184 C 
HETATM   66  O7  UNL     1       4.944  -2.626   2.606  1.00  0.00    -0.221 OA
ENDBRANCH   3  65
BRANCH  16  67
HETATM   67  C32 UNL     1      -5.001  -3.573  -0.899  1.00  0.00     0.187 C 
HETATM   68  O6  UNL     1      -5.557  -4.836  -0.611  1.00  0.00    -0.221 OA
ENDBRANCH  16  67
BRANCH  20  69
HETATM   69  O4  UNL     1      -7.611  -3.361  -0.912  1.00  0.00    -0.302 OA
BRANCH  69  70
HETATM   70  C30 UNL     1      -8.771  -3.898  -0.544  1.00  0.00     0.272 C 
HETATM   71  C31 UNL     1      -9.685  -4.285  -1.675  1.00  0.00     0.106 C 
HETATM   72  O5  UNL     1      -9.096  -4.074   0.607  1.00  0.00    -0.264 OA
ENDBRANCH  69  70
ENDBRANCH  20  69
BRANCH  21  73
HETATM   73  O2  UNL     1      -9.036  -1.091  -0.375  1.00  0.00    -0.299 OA
BRANCH  73  74
HETATM   74  C25 UNL     1      -9.662  -1.082   0.799  1.00  0.00     0.291 C 
HETATM   75  O3  UNL     1      -9.129  -0.794   1.845  1.00  0.00    -0.260 OA
BRANCH  74  76
HETATM   76  C26 UNL     1     -11.083  -1.449   0.765  1.00  0.00     0.037 C 
HETATM   77  C27 UNL     1     -11.919  -1.050  -0.206  1.00  0.00    -0.025 C 
HETATM   78  C28 UNL     1     -11.375  -0.186  -1.312  1.00  0.00     0.030 C 
HETATM   79  C29 UNL     1     -11.627  -2.313   1.871  1.00  0.00     0.036 C 
ENDBRANCH  74  76
ENDBRANCH  73  74
ENDBRANCH  21  73
TORSDOF 16
