REMARK  3 active torsions:
REMARK  status: ('A' for Active; 'I' for Inactive)
REMARK    1  A    between atoms: C4_4  and  C5_5 
REMARK    2  A    between atoms: C5_5  and  O2_7 
REMARK    3  A    between atoms: O2_7  and  C6_8 
ROOT
HETATM    1  C6  UNL     1       1.033   0.561  -0.594  1.00  0.00     0.154 C 
HETATM    2  C7  UNL     1       0.844   0.385  -2.113  1.00  0.00     0.124 C 
HETATM    3  C8  UNL     1       0.916  -1.092  -2.523  1.00  0.00     0.033 C 
HETATM    4  O3  UNL     1      -0.445   0.893  -2.484  1.00  0.00    -0.334 OA
HETATM    5  C9  UNL     1      -1.537   0.674  -1.715  1.00  0.00     0.092 A 
HETATM    6  C10 UNL     1      -1.428   0.160  -0.390  1.00  0.00     0.003 A 
HETATM    7  C11 UNL     1      -0.094  -0.143   0.182  1.00  0.00     0.061 C 
HETATM    8  C12 UNL     1      -2.598  -0.062   0.379  1.00  0.00    -0.000 A 
HETATM    9  C13 UNL     1      -3.865   0.242  -0.166  1.00  0.00     0.023 A 
HETATM   10  C14 UNL     1      -3.981   0.766  -1.482  1.00  0.00     0.105 A 
HETATM   11  C15 UNL     1      -2.813   0.979  -2.250  1.00  0.00     0.049 A 
HETATM   12  O4  UNL     1      -5.196   1.059  -1.998  1.00  0.00    -0.273 OA
HETATM   13  C16 UNL     1      -6.346   0.881  -1.314  1.00  0.00     0.300 A 
HETATM   14  C17 UNL     1      -6.293   0.334   0.063  1.00  0.00     0.069 A 
HETATM   15  C18 UNL     1      -5.108   0.023   0.621  1.00  0.00     0.007 A 
HETATM   16  O5  UNL     1      -7.424   1.150  -1.785  1.00  0.00    -0.259 OA
HETATM   17  C19 UNL     1       1.894   1.180  -2.892  1.00  0.00     0.033 C 
ENDROOT
BRANCH   1  18
HETATM   18  O2  UNL     1       2.289   0.029  -0.191  1.00  0.00    -0.298 OA
BRANCH  18  19
HETATM   19  C5  UNL     1       2.635   0.420   1.031  1.00  0.00     0.295 C 
HETATM   20  O1  UNL     1       2.019   1.234   1.678  1.00  0.00    -0.259 OA
BRANCH  19  21
HETATM   21  C4  UNL     1       3.846  -0.203   1.582  1.00  0.00     0.060 C 
HETATM   22  C2  UNL     1       3.818  -0.809   2.782  1.00  0.00    -0.038 C 
HETATM   23  C1  UNL     1       5.098  -1.391   3.321  1.00  0.00     0.026 C 
HETATM   24  C3  UNL     1       2.512  -0.871   3.526  1.00  0.00     0.026 C 
ENDBRANCH  19  21
ENDBRANCH  18  19
ENDBRANCH   1  18
TORSDOF 3
