REMARK  0 active torsions:
REMARK  status: ('A' for Active; 'I' for Inactive)
ROOT
HETATM    1  C1  UNL     1       2.565   0.154   0.568  1.00  0.00     0.182 C 
HETATM    2  C2  UNL     1       2.201   0.094  -0.953  1.00  0.00     0.127 C 
HETATM    3  O1  UNL     1       1.088  -0.777  -1.170  1.00  0.00    -0.333 OA
HETATM    4  C3  UNL     1      -0.023  -0.664  -0.414  1.00  0.00     0.092 A 
HETATM    5  C4  UNL     1       0.049  -0.248   0.940  1.00  0.00     0.003 A 
HETATM    6  C5  UNL     1       1.385  -0.098   1.567  1.00  0.00     0.064 C 
HETATM    7  C6  UNL     1      -1.150  -0.004   1.676  1.00  0.00    -0.000 A 
HETATM    8  C7  UNL     1      -2.406  -0.215   1.053  1.00  0.00     0.023 A 
HETATM    9  C8  UNL     1      -2.475  -0.711  -0.273  1.00  0.00     0.105 A 
HETATM   10  C9  UNL     1      -1.283  -0.955  -0.988  1.00  0.00     0.049 A 
HETATM   11  O2  UNL     1      -3.664  -0.936  -0.875  1.00  0.00    -0.273 OA
HETATM   12  C10 UNL     1      -4.842  -0.637  -0.281  1.00  0.00     0.300 A 
HETATM   13  C11 UNL     1      -4.854  -0.111   1.104  1.00  0.00     0.069 A 
HETATM   14  C12 UNL     1      -3.689   0.080   1.756  1.00  0.00     0.007 A 
HETATM   15  O3  UNL     1      -5.897  -0.783  -0.851  1.00  0.00    -0.259 OA
HETATM   16  C13 UNL     1       1.838   1.459  -1.574  1.00  0.00     0.033 C 
HETATM   17  C14 UNL     1       3.369  -0.490  -1.766  1.00  0.00     0.033 C 
HETATM   18  O4  UNL     1       3.203   1.393   0.885  1.00  0.00    -0.221 OA
ENDROOT
TORSDOF 0
