REMARK  2 active torsions:
REMARK  status: ('A' for Active; 'I' for Inactive)
REMARK    1  A    between atoms: C17_20  and  O5_25 
REMARK    2  A    between atoms: C18_21  and  O4_23 
ROOT
HETATM    1  C1  UNL     1      -5.719   1.228   0.588  1.00  0.00     0.117 C 
HETATM    2  O1  UNL     1      -4.922   1.592  -0.557  1.00  0.00    -0.332 OA
HETATM    3  C2  UNL     1      -3.652   1.156  -0.703  1.00  0.00     0.096 A 
HETATM    4  C3  UNL     1      -2.924   0.666   0.408  1.00  0.00     0.044 A 
HETATM    5  C4  UNL     1      -3.584   0.652   1.736  1.00  0.00     0.002 C 
HETATM    6  C5  UNL     1      -4.891   0.959   1.832  1.00  0.00     0.001 C 
HETATM    7  C6  UNL     1      -1.588   0.217   0.256  1.00  0.00     0.099 A 
HETATM    8  C7  UNL     1      -0.992   0.232  -1.033  1.00  0.00     0.058 A 
HETATM    9  C8  UNL     1      -1.713   0.744  -2.143  1.00  0.00     0.007 A 
HETATM   10  C9  UNL     1      -3.037   1.207  -1.977  1.00  0.00     0.024 A 
HETATM   11  C10 UNL     1       0.385  -0.303  -1.223  1.00  0.00     0.181 C 
HETATM   12  C11 UNL     1       1.045  -0.930   0.004  1.00  0.00     0.116 C 
HETATM   13  C12 UNL     1       0.522  -0.307   1.318  1.00  0.00     0.163 C 
HETATM   14  O2  UNL     1      -0.906  -0.217   1.336  1.00  0.00    -0.330 OA
HETATM   15  C13 UNL     1       1.148   1.084   1.524  1.00  0.00     0.179 C 
HETATM   16  O3  UNL     1       2.576   0.980   1.553  1.00  0.00    -0.328 OA
HETATM   17  C14 UNL     1       3.229   0.115   0.744  1.00  0.00     0.093 A 
HETATM   18  C15 UNL     1       2.535  -0.857  -0.035  1.00  0.00     0.012 A 
HETATM   19  C16 UNL     1       3.272  -1.760  -0.846  1.00  0.00     0.024 A 
HETATM   20  C17 UNL     1       4.682  -1.690  -0.893  1.00  0.00     0.116 A 
HETATM   21  C18 UNL     1       5.367  -0.717  -0.127  1.00  0.00     0.118 A 
HETATM   22  C19 UNL     1       4.641   0.180   0.690  1.00  0.00     0.050 A 
HETATM   23  O6  UNL     1       1.006  -0.281  -2.264  1.00  0.00    -0.291 OA
HETATM   24  C22 UNL     1      -6.486  -0.047   0.233  1.00  0.00     0.035 C 
HETATM   25  C23 UNL     1      -6.699   2.373   0.846  1.00  0.00     0.035 C 
ENDROOT
BRANCH  20  26
HETATM   26  O5  UNL     1       5.367  -2.547  -1.664  1.00  0.00    -0.326 OA
HETATM   27  C21 UNL     1       4.631  -3.504  -2.410  1.00  0.00     0.181 C 
ENDBRANCH  20  26
BRANCH  21  28
HETATM   28  O4  UNL     1       6.705  -0.645  -0.172  1.00  0.00    -0.326 OA
HETATM   29  C20 UNL     1       7.342   0.379   0.578  1.00  0.00     0.181 C 
ENDBRANCH  21  28
TORSDOF 2
