REMARK  0 active torsions:
REMARK  status: ('A' for Active; 'I' for Inactive)
ROOT
HETATM    1  C1  UNL     1       1.973   0.561   0.350  1.00  0.00     0.158 A 
HETATM    2  C2  UNL     1       0.790   1.314   0.542  1.00  0.00     0.054 A 
HETATM    3  C3  UNL     1      -0.470   0.746   0.241  1.00  0.00     0.105 A 
HETATM    4  C4  UNL     1      -0.536  -0.584  -0.255  1.00  0.00     0.025 A 
HETATM    5  C5  UNL     1       0.644  -1.340  -0.450  1.00  0.00     0.032 A 
HETATM    6  C6  UNL     1       1.900  -0.764  -0.146  1.00  0.00     0.156 A 
HETATM    7  O1  UNL     1       3.021  -1.477  -0.329  1.00  0.00    -0.188 OA
HETATM    8  C7  UNL     1      -1.869  -1.161  -0.563  1.00  0.00     0.007 A 
HETATM    9  C8  UNL     1      -2.966  -0.404  -0.361  1.00  0.00     0.069 A 
HETATM   10  C9  UNL     1      -2.830   0.977   0.157  1.00  0.00     0.300 A 
HETATM   11  O2  UNL     1      -1.600   1.465   0.424  1.00  0.00    -0.273 OA
HETATM   12  O3  UNL     1      -3.833   1.631   0.325  1.00  0.00    -0.259 OA
HETATM   13  O4  UNL     1       3.163   1.107   0.638  1.00  0.00    -0.188 OA
ENDROOT
TORSDOF 0
