REMARK  2 active torsions:
REMARK  status: ('A' for Active; 'I' for Inactive)
REMARK    1  A    between atoms: C10_10  and  C11_11 
REMARK    2  A    between atoms: C11_11  and  C13_13 
ROOT
HETATM    1  C1  UNL     1      -2.435  -1.359   0.834  1.00  0.00     0.022 C 
HETATM    2  C2  UNL     1      -2.588   0.045   0.299  1.00  0.00    -0.044 C 
HETATM    3  C3  UNL     1      -1.504   0.797   0.029  1.00  0.00    -0.013 C 
HETATM    4  C4  UNL     1      -0.117   0.305   0.234  1.00  0.00    -0.027 C 
HETATM    5  C5  UNL     1       0.102  -1.162   0.590  1.00  0.00     0.022 C 
HETATM    6  C6  UNL     1      -1.154  -2.014   0.307  1.00  0.00     0.009 C 
HETATM    7  C7  UNL     1       1.324  -1.711  -0.174  1.00  0.00     0.004 C 
HETATM    8  C8  UNL     1       2.598  -0.891   0.100  1.00  0.00     0.005 C 
HETATM    9  C9  UNL     1       2.346   0.592   0.432  1.00  0.00     0.026 C 
HETATM   10  C10 UNL     1       0.959   1.119   0.117  1.00  0.00    -0.020 C 
HETATM   11  C14 UNL     1       1.568  -3.201   0.100  1.00  0.00     0.000 C 
HETATM   12  C15 UNL     1      -3.977   0.580   0.066  1.00  0.00     0.026 C 
ENDROOT
BRANCH  10  13
HETATM   13  C11 UNL     1       0.842   2.527  -0.299  1.00  0.00     0.060 C 
HETATM   14  C12 UNL     1       0.859   3.516   0.611  1.00  0.00     0.006 C 
BRANCH  13  15
HETATM   15  C13 UNL     1       0.705   2.830  -1.728  1.00  0.00     0.210 C 
HETATM   16  O1  UNL     1       1.754   2.523  -2.488  1.00  0.00    -0.644 OA
HETATM   17  O2  UNL     1      -0.310   3.328  -2.154  1.00  0.00    -0.644 OA
ENDBRANCH  13  15
ENDBRANCH  10  13
TORSDOF 2
