REMARK  5 active torsions:
REMARK  status: ('A' for Active; 'I' for Inactive)
REMARK    1  A    between atoms: C15_15  and  C18_18 
REMARK    2  A    between atoms: C18_18  and  C20_20 
REMARK    3  A    between atoms: C20_20  and  C21_21 
REMARK    4  A    between atoms: C21_21  and  C23_23 
REMARK    5  A    between atoms: C23_23  and  C24_24 
ROOT
HETATM    1  C1  UNL     1       6.678   1.350   0.176  1.00  0.00     0.156 C 
HETATM    2  C2  UNL     1       6.369   0.018   0.891  1.00  0.00     0.055 C 
HETATM    3  C3  UNL     1       4.920  -0.356   0.693  1.00  0.00    -0.042 C 
HETATM    4  C4  UNL     1       4.418  -0.549  -0.731  1.00  0.00     0.019 C 
HETATM    5  C5  UNL     1       5.363   0.207  -1.705  1.00  0.00     0.007 C 
HETATM    6  C6  UNL     1       5.867   1.545  -1.129  1.00  0.00     0.034 C 
HETATM    7  C7  UNL     1       2.938  -0.063  -0.856  1.00  0.00     0.022 C 
HETATM    8  C8  UNL     1       2.066  -0.484   0.326  1.00  0.00    -0.045 C 
HETATM    9  C9  UNL     1       2.641  -0.701   1.527  1.00  0.00    -0.009 C 
HETATM   10  C10 UNL     1       4.082  -0.496   1.736  1.00  0.00    -0.009 C 
HETATM   11  C11 UNL     1       0.557  -0.641   0.187  1.00  0.00     0.018 C 
HETATM   12  C12 UNL     1      -0.031  -0.650  -1.248  1.00  0.00     0.003 C 
HETATM   13  C13 UNL     1       0.856   0.051  -2.289  1.00  0.00     0.001 C 
HETATM   14  C14 UNL     1       2.285  -0.477  -2.190  1.00  0.00     0.004 C 
HETATM   15  C15 UNL     1      -1.346   0.144  -1.129  1.00  0.00     0.000 C 
HETATM   16  C16 UNL     1      -0.984   1.230  -0.121  1.00  0.00     0.000 C 
HETATM   17  C17 UNL     1      -0.201   0.465   0.935  1.00  0.00     0.004 C 
HETATM   18  C27 UNL     1      -0.301  -2.094  -1.680  1.00  0.00     0.000 C 
HETATM   19  C28 UNL     1       4.496  -2.059  -1.018  1.00  0.00     0.004 C 
HETATM   20  O1  UNL     1       8.063   1.393  -0.113  1.00  0.00    -0.223 OA
ENDROOT
BRANCH  15  21
HETATM   21  C18 UNL     1      -2.520  -0.672  -0.580  1.00  0.00     0.000 C 
HETATM   22  C19 UNL     1      -3.176  -1.451  -1.719  1.00  0.00     0.000 C 
BRANCH  21  23
HETATM   23  C20 UNL     1      -3.498   0.262   0.137  1.00  0.00     0.000 C 
BRANCH  23  24
HETATM   24  C21 UNL     1      -4.871  -0.373   0.346  1.00  0.00     0.000 C 
HETATM   25  C22 UNL     1      -4.824  -1.596   1.262  1.00  0.00     0.000 C 
BRANCH  24  26
HETATM   26  C23 UNL     1      -5.934   0.643   0.771  1.00  0.00     0.000 C 
BRANCH  26  27
HETATM   27  C24 UNL     1      -5.574   1.359   2.072  1.00  0.00     0.000 C 
HETATM   28  C25 UNL     1      -5.063   2.781   1.842  1.00  0.00     0.000 C 
HETATM   29  C26 UNL     1      -6.695   1.297   3.109  1.00  0.00     0.000 C 
ENDBRANCH  26  27
ENDBRANCH  24  26
ENDBRANCH  23  24
ENDBRANCH  21  23
ENDBRANCH  15  21
TORSDOF 5
