REMARK  0 active torsions:
REMARK  status: ('A' for Active; 'I' for Inactive)
ROOT
HETATM    1  C1  UNL     1       1.565  -0.519   0.008  1.00  0.00     0.015 A 
HETATM    2  C2  UNL     1       0.754   0.623  -0.582  1.00  0.00     0.071 A 
HETATM    3  C3  UNL     1      -0.580   0.789   0.156  1.00  0.00     0.136 C 
HETATM    4  C4  UNL     1      -1.631  -0.222  -0.316  1.00  0.00     0.056 C 
HETATM    5  C5  UNL     1      -1.429  -1.613   0.287  1.00  0.00     0.011 C 
HETATM    6  C6  UNL     1      -0.201  -2.291  -0.353  1.00  0.00     0.022 C 
HETATM    7  C7  UNL     1       1.153  -1.805   0.127  1.00  0.00    -0.044 C 
HETATM    8  C8  UNL     1       2.051  -2.838   0.760  1.00  0.00     0.026 C 
HETATM    9  C9  UNL     1      -2.859   0.551   0.051  1.00  0.00     0.043 C 
HETATM   10  C10 UNL     1      -2.486   1.959   0.117  1.00  0.00     0.292 C 
HETATM   11  O1  UNL     1      -1.164   2.090  -0.012  1.00  0.00    -0.300 OA
HETATM   12  O2  UNL     1      -3.277   2.863   0.256  1.00  0.00    -0.260 OA
HETATM   13  C11 UNL     1      -4.078   0.029   0.276  1.00  0.00     0.001 C 
HETATM   14  C12 UNL     1       1.707   1.797  -0.414  1.00  0.00    -0.035 A 
HETATM   15  C13 UNL     1       2.871   1.446   0.156  1.00  0.00     0.034 A 
HETATM   16  C14 UNL     1       2.860   0.020   0.440  1.00  0.00     0.191 A 
HETATM   17  O3  UNL     1       3.770  -0.596   0.942  1.00  0.00    -0.287 OA
HETATM   18  C15 UNL     1       1.371   3.197  -0.851  1.00  0.00     0.027 C 
ENDROOT
TORSDOF 0
