REMARK  2 active torsions:
REMARK  status: ('A' for Active; 'I' for Inactive)
REMARK    1  A    between atoms: C15_16  and  C18_19 
REMARK    2  A    between atoms: C18_19  and  C19_21 
ROOT
HETATM    1  C1  UNL     1       4.527  -1.764   1.250  1.00  0.00     0.172 C 
HETATM    2  C2  UNL     1       3.396  -2.611   0.842  1.00  0.00     0.029 C 
HETATM    3  C3  UNL     1       2.342  -2.146   0.133  1.00  0.00    -0.042 C 
HETATM    4  C4  UNL     1       2.205  -0.676  -0.268  1.00  0.00     0.022 C 
HETATM    5  C5  UNL     1       3.113   0.205   0.637  1.00  0.00     0.012 C 
HETATM    6  C6  UNL     1       4.541  -0.332   0.783  1.00  0.00     0.070 C 
HETATM    7  C7  UNL     1       0.725  -0.164  -0.174  1.00  0.00     0.061 C 
HETATM    8  C8  UNL     1      -0.314  -1.185  -0.705  1.00  0.00     0.008 C 
HETATM    9  C9  UNL     1      -0.135  -2.557  -0.039  1.00  0.00     0.005 C 
HETATM   10  C10 UNL     1       1.260  -3.115  -0.293  1.00  0.00     0.022 C 
HETATM   11  C11 UNL     1      -1.801  -0.740  -0.637  1.00  0.00     0.001 C 
HETATM   12  C12 UNL     1      -2.000   0.789  -0.674  1.00  0.00     0.014 C 
HETATM   13  C13 UNL     1      -0.857   1.471  -1.436  1.00  0.00     0.065 C 
HETATM   14  C14 UNL     1       0.506   1.184  -0.852  1.00  0.00     0.150 C 
HETATM   15  O1  UNL     1       1.375   2.020  -0.932  1.00  0.00    -0.296 OA
HETATM   16  C15 UNL     1      -2.059   1.246   0.810  1.00  0.00     0.061 C 
HETATM   17  C16 UNL     1      -2.232  -0.035   1.631  1.00  0.00     0.007 C 
HETATM   18  C17 UNL     1      -2.619  -1.090   0.611  1.00  0.00     0.001 C 
HETATM   19  C20 UNL     1      -3.334   1.043  -1.389  1.00  0.00     0.001 C 
HETATM   20  C21 UNL     1       2.697  -0.596  -1.721  1.00  0.00     0.004 C 
HETATM   21  O4  UNL     1       5.414  -2.209   1.941  1.00  0.00    -0.291 OA
ENDROOT
BRANCH  16  22
HETATM   22  C18 UNL     1      -3.117   2.281   1.115  1.00  0.00     0.183 C 
HETATM   23  O2  UNL     1      -4.150   1.973   1.660  1.00  0.00    -0.293 OA
BRANCH  22  24
HETATM   24  C19 UNL     1      -2.848   3.709   0.719  1.00  0.00     0.246 C 
HETATM   25  O3  UNL     1      -1.900   4.270   1.602  1.00  0.00    -0.212 OA
ENDBRANCH  22  24
ENDBRANCH  16  22
TORSDOF 2
