REMARK  4 active torsions:
REMARK  status: ('A' for Active; 'I' for Inactive)
REMARK    1  A    between atoms: C2_2  and  O4_26 
REMARK    2  A    between atoms: C3_3  and  O3_24 
REMARK    3  A    between atoms: C15_16  and  O2_21 
REMARK    4  A    between atoms: C16_17  and  O1_19 
ROOT
HETATM    1  C1  UNL     1       4.391   0.502   0.984  1.00  0.00     0.026 A 
HETATM    2  C2  UNL     1       4.717  -0.586   0.146  1.00  0.00     0.116 A 
HETATM    3  C3  UNL     1       3.693  -1.301  -0.522  1.00  0.00     0.118 A 
HETATM    4  C4  UNL     1       2.332  -0.920  -0.348  1.00  0.00     0.041 A 
HETATM    5  C5  UNL     1       2.000   0.186   0.492  1.00  0.00     0.001 A 
HETATM    6  C6  UNL     1       3.045   0.885   1.156  1.00  0.00     0.002 A 
HETATM    7  C7  UNL     1       0.637   0.580   0.658  1.00  0.00    -0.006 A 
HETATM    8  C8  UNL     1      -0.412  -0.182   0.041  1.00  0.00     0.056 A 
HETATM    9  N1  UNL     1      -0.057  -1.273  -0.815  1.00  0.00    -0.326 N 
HETATM   10  C9  UNL     1       1.301  -1.631  -1.004  1.00  0.00     0.078 A 
HETATM   11  C10 UNL     1      -1.113  -2.051  -1.512  1.00  0.00     0.111 C 
HETATM   12  C11 UNL     1      -2.293  -1.156  -1.924  1.00  0.00     0.051 C 
HETATM   13  C12 UNL     1      -2.791  -0.365  -0.770  1.00  0.00    -0.017 A 
HETATM   14  C13 UNL     1      -1.869   0.102   0.223  1.00  0.00     0.014 A 
HETATM   15  C14 UNL     1      -2.394   0.801   1.349  1.00  0.00     0.027 A 
HETATM   16  C15 UNL     1      -3.773   1.094   1.447  1.00  0.00     0.116 A 
HETATM   17  C16 UNL     1      -4.664   0.656   0.443  1.00  0.00     0.116 A 
HETATM   18  C17 UNL     1      -4.176  -0.080  -0.658  1.00  0.00     0.022 A 
HETATM   19  C20 UNL     1       0.350   1.793   1.451  1.00  0.00     0.033 C 
ENDROOT
BRANCH   2  20
HETATM   20  O4  UNL     1       6.002  -0.936  -0.010  1.00  0.00    -0.326 OA
HETATM   21  C22 UNL     1       6.940   0.088  -0.307  1.00  0.00     0.181 C 
ENDBRANCH   2  20
BRANCH   3  22
HETATM   22  O3  UNL     1       4.031  -2.326  -1.317  1.00  0.00    -0.326 OA
HETATM   23  C21 UNL     1       4.141  -2.084  -2.711  1.00  0.00     0.181 C 
ENDBRANCH   3  22
BRANCH  16  24
HETATM   24  O2  UNL     1      -4.232   1.789   2.498  1.00  0.00    -0.326 OA
HETATM   25  C19 UNL     1      -3.293   2.221   3.473  1.00  0.00     0.181 C 
ENDBRANCH  16  24
BRANCH  17  26
HETATM   26  O1  UNL     1      -5.975   0.928   0.537  1.00  0.00    -0.326 OA
HETATM   27  C18 UNL     1      -6.822   0.486  -0.512  1.00  0.00     0.181 C 
ENDBRANCH  17  26
TORSDOF 4
