REMARK  0 active torsions:
REMARK  status: ('A' for Active; 'I' for Inactive)
ROOT
HETATM    1  C1  UNL     1       0.502  -2.709   0.116  1.00  0.00     0.026 C 
HETATM    2  C2  UNL     1       1.914  -2.110   0.287  1.00  0.00     0.012 C 
HETATM    3  C3  UNL     1       2.004  -0.571   0.113  1.00  0.00     0.058 C 
HETATM    4  C4  UNL     1       1.505   0.207   1.319  1.00  0.00     0.155 C 
HETATM    5  C5  UNL     1       0.887   1.572   1.094  1.00  0.00     0.093 C 
HETATM    6  C6  UNL     1      -0.558   1.470   0.626  1.00  0.00     0.012 C 
HETATM    7  C7  UNL     1      -1.537   0.874   1.572  1.00  0.00     0.173 C 
HETATM    8  C8  UNL     1      -2.384  -0.311   1.145  1.00  0.00     0.090 C 
HETATM    9  C9  UNL     1      -1.545  -1.257   0.316  1.00  0.00    -0.041 C 
HETATM   10  C10 UNL     1      -0.535  -1.937   0.896  1.00  0.00    -0.034 C 
HETATM   11  C11 UNL     1      -1.854  -1.372  -1.157  1.00  0.00     0.026 C 
HETATM   12  O1  UNL     1      -1.638   1.323   2.690  1.00  0.00    -0.291 OA
HETATM   13  C12 UNL     1      -0.921   1.906  -0.604  1.00  0.00    -0.044 C 
HETATM   14  C13 UNL     1      -2.354   1.864  -1.074  1.00  0.00     0.026 C 
HETATM   15  C14 UNL     1       0.073   2.469  -1.588  1.00  0.00     0.026 C 
HETATM   16  O2  UNL     1       1.600  -0.243   2.437  1.00  0.00    -0.296 OA
HETATM   17  C15 UNL     1       3.444  -0.142  -0.181  1.00  0.00     0.008 C 
ENDROOT
TORSDOF 0
