REMARK  7 active torsions:
REMARK  status: ('A' for Active; 'I' for Inactive)
REMARK    1  A    between atoms: C2_2  and  C18_22 
REMARK    2  A    between atoms: C4_4  and  C8_10 
REMARK    3  A    between atoms: C6_6  and  O1_7 
REMARK    4  A    between atoms: C10_12  and  C15_19 
REMARK    5  A    between atoms: C12_14  and  O4_17 
REMARK    6  A    between atoms: C15_19  and  C16_20 
REMARK    7  A    between atoms: C18_22  and  C19_23 
ROOT
HETATM    1  C1  UNL     1       3.533   0.152   0.332  1.00  0.00     0.022 A 
HETATM    2  C2  UNL     1       2.877  -1.090   0.332  1.00  0.00    -0.016 A 
HETATM    3  C3  UNL     1       1.473  -1.141   0.332  1.00  0.00    -0.002 A 
HETATM    4  C4  UNL     1       0.721   0.051   0.332  1.00  0.00     0.029 A 
HETATM    5  C5  UNL     1       1.383   1.299   0.332  1.00  0.00     0.153 A 
HETATM    6  C6  UNL     1       2.789   1.346   0.332  1.00  0.00     0.119 A 
HETATM    7  O2  UNL     1       0.695   2.426   0.332  1.00  0.00    -0.188 OA
ENDROOT
BRANCH   4   8
HETATM    8  C8  UNL     1      -0.735  -0.020   0.332  1.00  0.00     0.029 A 
HETATM    9  C9  UNL     1      -1.444   0.342  -0.828  1.00  0.00    -0.002 A 
HETATM   10  C10 UNL     1      -2.848   0.279  -0.846  1.00  0.00    -0.016 A 
HETATM   11  C11 UNL     1      -3.543  -0.145   0.299  1.00  0.00     0.022 A 
HETATM   12  C12 UNL     1      -2.840  -0.506   1.461  1.00  0.00     0.119 A 
HETATM   13  C13 UNL     1      -1.434  -0.445   1.481  1.00  0.00     0.153 A 
HETATM   14  O3  UNL     1      -0.785  -0.789   2.578  1.00  0.00    -0.188 OA
BRANCH  10  15
HETATM   15  C15 UNL     1      -3.596   0.662  -2.072  1.00  0.00     0.052 C 
BRANCH  15  16
HETATM   16  C16 UNL     1      -4.272   2.000  -1.930  1.00  0.00    -0.021 C 
HETATM   17  C17 UNL     1      -4.740   2.601  -3.035  1.00  0.00    -0.005 C 
ENDBRANCH  15  16
ENDBRANCH  10  15
BRANCH  12  18
HETATM   18  O4  UNL     1      -3.502  -0.904   2.529  1.00  0.00    -0.326 OA
HETATM   19  C14 UNL     1      -4.920  -0.920   2.469  1.00  0.00     0.181 C 
ENDBRANCH  12  18
ENDBRANCH   4   8
BRANCH   2  20
HETATM   20  C18 UNL     1       3.666  -2.350   0.332  1.00  0.00     0.052 C 
BRANCH  20  21
HETATM   21  C19 UNL     1       4.340  -2.596  -0.992  1.00  0.00    -0.021 C 
HETATM   22  C20 UNL     1       5.365  -3.461  -1.037  1.00  0.00    -0.005 C 
ENDBRANCH  20  21
ENDBRANCH   2  20
BRANCH   6  23
HETATM   23  O1  UNL     1       3.414   2.506   0.332  1.00  0.00    -0.326 OA
HETATM   24  C7  UNL     1       4.828   2.502   0.449  1.00  0.00     0.181 C 
ENDBRANCH   6  23
TORSDOF 7
