REMARK  6 active torsions:
REMARK  status: ('A' for Active; 'I' for Inactive)
REMARK    1  A    between atoms: C16_16  and  C19_19 
REMARK    2  A    between atoms: C19_19  and  C20_20 
REMARK    3  A    between atoms: C19_19  and  C27_27 
REMARK    4  A    between atoms: C20_20  and  C21_21 
REMARK    5  A    between atoms: C21_21  and  C22_22 
REMARK    6  A    between atoms: C22_22  and  C23_23 
ROOT
HETATM    1  C1  UNL     1       6.664   0.278   0.734  1.00  0.00     0.152 C 
HETATM    2  C2  UNL     1       5.895  -1.033   1.037  1.00  0.00     0.029 C 
HETATM    3  C3  UNL     1       4.367  -0.732   1.021  1.00  0.00     0.010 C 
HETATM    4  C4  UNL     1       3.857  -0.064  -0.293  1.00  0.00     0.019 C 
HETATM    5  C5  UNL     1       4.688   1.219  -0.545  1.00  0.00     0.007 C 
HETATM    6  C6  UNL     1       6.199   0.949  -0.566  1.00  0.00     0.033 C 
HETATM    7  C7  UNL     1       2.354   0.213  -0.188  1.00  0.00    -0.031 C 
HETATM    8  C8  UNL     1       1.535  -0.547   0.805  1.00  0.00    -0.031 C 
HETATM    9  C9  UNL     1       2.055  -1.556   1.535  1.00  0.00    -0.031 C 
HETATM   10  C10 UNL     1       3.502  -1.953   1.391  1.00  0.00     0.026 C 
HETATM   11  C11 UNL     1       0.082  -0.146   0.971  1.00  0.00     0.019 C 
HETATM   12  C12 UNL     1      -0.518   0.223  -0.400  1.00  0.00     0.008 C 
HETATM   13  C13 UNL     1       0.273   1.422  -0.934  1.00  0.00     0.026 C 
HETATM   14  C14 UNL     1       1.762   1.129  -0.996  1.00  0.00    -0.031 C 
HETATM   15  C15 UNL     1      -0.430  -0.955  -1.387  1.00  0.00     0.001 C 
HETATM   16  C16 UNL     1      -1.988   0.467  -0.043  1.00  0.00     0.011 C 
HETATM   17  C17 UNL     1      -2.291  -0.672   0.941  1.00  0.00     0.001 C 
HETATM   18  C18 UNL     1      -0.936  -1.195   1.439  1.00  0.00     0.004 C 
HETATM   19  C28 UNL     1       0.020   1.002   1.986  1.00  0.00     0.004 C 
HETATM   20  C29 UNL     1       4.016  -1.014  -1.492  1.00  0.00     0.004 C 
HETATM   21  C30 UNL     1       6.242  -2.131   0.018  1.00  0.00     0.003 C 
HETATM   22  C31 UNL     1       6.303  -1.539   2.430  1.00  0.00     0.003 C 
HETATM   23  O3  UNL     1       8.059   0.037   0.650  1.00  0.00    -0.224 OA
ENDROOT
BRANCH  16  24
HETATM   24  C19 UNL     1      -2.936   0.483  -1.242  1.00  0.00     0.088 C 
BRANCH  24  25
HETATM   25  C20 UNL     1      -4.266   0.758  -0.539  1.00  0.00     0.015 C 
BRANCH  25  26
HETATM   26  C21 UNL     1      -5.441   0.830  -1.514  1.00  0.00     0.022 C 
BRANCH  26  27
HETATM   27  C22 UNL     1      -6.734   1.182  -0.826  1.00  0.00    -0.044 C 
HETATM   28  C26 UNL     1      -7.006   2.475  -0.592  1.00  0.00    -0.009 C 
BRANCH  27  29
HETATM   29  C23 UNL     1      -7.738   0.147  -0.389  1.00  0.00     0.018 C 
HETATM   30  C24 UNL     1      -9.080   0.766   0.006  1.00  0.00     0.004 C 
HETATM   31  C25 UNL     1      -7.182  -0.789   0.684  1.00  0.00     0.004 C 
ENDBRANCH  27  29
ENDBRANCH  26  27
ENDBRANCH  25  26
ENDBRANCH  24  25
BRANCH  24  32
HETATM   32  C27 UNL     1      -2.580   1.555  -2.238  1.00  0.00     0.185 C 
HETATM   33  O1  UNL     1      -2.514   1.149  -3.504  1.00  0.00    -0.647 OA
HETATM   34  O2  UNL     1      -2.377   2.692  -1.883  1.00  0.00    -0.647 OA
ENDBRANCH  24  32
ENDBRANCH  16  24
TORSDOF 6
