REMARK  6 active torsions:
REMARK  status: ('A' for Active; 'I' for Inactive)
REMARK    1  A    between atoms: C16_16  and  C19_19 
REMARK    2  A    between atoms: C19_19  and  C20_20 
REMARK    3  A    between atoms: C19_19  and  C27_27 
REMARK    4  A    between atoms: C20_20  and  C21_21 
REMARK    5  A    between atoms: C21_21  and  C22_22 
REMARK    6  A    between atoms: C22_22  and  C23_23 
ROOT
HETATM    1  C1  UNL     1       6.875   0.437   0.311  1.00  0.00     0.150 C 
HETATM    2  C2  UNL     1       6.067   1.713   0.195  1.00  0.00     0.052 C 
HETATM    3  C3  UNL     1       4.570   1.375  -0.061  1.00  0.00     0.015 C 
HETATM    4  C4  UNL     1       4.002   0.309   0.928  1.00  0.00     0.019 C 
HETATM    5  C5  UNL     1       4.834  -1.006   0.795  1.00  0.00     0.012 C 
HETATM    6  C6  UNL     1       6.160  -0.863   0.023  1.00  0.00     0.065 C 
HETATM    7  C7  UNL     1       2.508   0.080   0.670  1.00  0.00    -0.031 C 
HETATM    8  C8  UNL     1       1.772   0.994  -0.242  1.00  0.00    -0.031 C 
HETATM    9  C9  UNL     1       2.276   2.191  -0.606  1.00  0.00    -0.031 C 
HETATM   10  C10 UNL     1       3.652   2.609  -0.148  1.00  0.00     0.026 C 
HETATM   11  C11 UNL     1       0.426   0.512  -0.744  1.00  0.00     0.019 C 
HETATM   12  C12 UNL     1      -0.391  -0.053   0.430  1.00  0.00     0.008 C 
HETATM   13  C13 UNL     1       0.383  -1.240   1.023  1.00  0.00     0.026 C 
HETATM   14  C14 UNL     1       1.856  -0.943   1.275  1.00  0.00    -0.031 C 
HETATM   15  C15 UNL     1      -0.625   1.020   1.508  1.00  0.00     0.001 C 
HETATM   16  C16 UNL     1      -1.725  -0.371  -0.264  1.00  0.00     0.011 C 
HETATM   17  C17 UNL     1      -1.914   0.783  -1.262  1.00  0.00     0.001 C 
HETATM   18  C18 UNL     1      -0.568   1.518  -1.332  1.00  0.00     0.004 C 
HETATM   19  C28 UNL     1       0.692  -0.537  -1.838  1.00  0.00     0.004 C 
HETATM   20  C29 UNL     1       4.086   0.832   2.371  1.00  0.00     0.004 C 
HETATM   21  C30 UNL     1       6.633   2.520  -0.979  1.00  0.00     0.007 C 
HETATM   22  C31 UNL     1       6.256   2.537   1.475  1.00  0.00     0.007 C 
HETATM   23  O3  UNL     1       8.043   0.453   0.627  1.00  0.00    -0.296 OA
ENDROOT
BRANCH  16  24
HETATM   24  C19 UNL     1      -2.920  -0.529   0.678  1.00  0.00     0.088 C 
BRANCH  24  25
HETATM   25  C20 UNL     1      -4.000  -0.961  -0.314  1.00  0.00     0.015 C 
BRANCH  25  26
HETATM   26  C21 UNL     1      -5.385  -1.053   0.324  1.00  0.00     0.022 C 
BRANCH  26  27
HETATM   27  C22 UNL     1      -6.486  -1.127  -0.701  1.00  0.00    -0.044 C 
HETATM   28  C26 UNL     1      -7.125   0.004  -1.039  1.00  0.00    -0.009 C 
BRANCH  27  29
HETATM   29  C23 UNL     1      -6.904  -2.412  -1.363  1.00  0.00     0.018 C 
HETATM   30  C24 UNL     1      -7.467  -2.190  -2.768  1.00  0.00     0.004 C 
HETATM   31  C25 UNL     1      -7.832  -3.248  -0.481  1.00  0.00     0.004 C 
ENDBRANCH  27  29
ENDBRANCH  26  27
ENDBRANCH  25  26
ENDBRANCH  24  25
BRANCH  24  32
HETATM   32  C27 UNL     1      -2.678  -1.563   1.746  1.00  0.00     0.185 C 
HETATM   33  O1  UNL     1      -2.937  -1.164   2.988  1.00  0.00    -0.647 OA
HETATM   34  O2  UNL     1      -2.273  -2.666   1.463  1.00  0.00    -0.647 OA
ENDBRANCH  24  32
ENDBRANCH  16  24
TORSDOF 6
