REMARK  1 active torsions:
REMARK  status: ('A' for Active; 'I' for Inactive)
REMARK    1  A    between atoms: C5_5  and  C7_8 
ROOT
HETATM    1  C1  UNL     1       0.000  -2.049  -0.205  1.00  0.00     0.023 A 
HETATM    2  C2  UNL     1       0.037  -0.627  -0.178  1.00  0.00    -0.021 A 
HETATM    3  C3  UNL     1       1.299   0.020  -0.039  1.00  0.00    -0.004 A 
HETATM    4  C4  UNL     1       2.492  -0.738   0.049  1.00  0.00    -0.003 A 
HETATM    5  C5  UNL     1       2.437  -2.150   0.020  1.00  0.00     0.003 A 
HETATM    6  C6  UNL     1       1.189  -2.807  -0.101  1.00  0.00     0.127 A 
HETATM    7  O1  UNL     1       1.125  -4.145  -0.125  1.00  0.00    -0.191 OA
HETATM    8  C10 UNL     1       1.371   1.502   0.010  1.00  0.00    -0.005 C 
HETATM    9  C11 UNL     1       0.262   2.250   0.150  1.00  0.00    -0.026 C 
HETATM   10  C12 UNL     1      -1.090   1.588   0.354  1.00  0.00     0.026 C 
HETATM   11  C13 UNL     1      -1.217   0.190  -0.328  1.00  0.00     0.023 C 
HETATM   12  C14 UNL     1      -2.465  -0.519   0.287  1.00  0.00     0.004 C 
HETATM   13  C15 UNL     1      -3.606   0.438   0.693  1.00  0.00     0.000 C 
HETATM   14  C16 UNL     1      -3.604   1.727  -0.135  1.00  0.00     0.000 C 
HETATM   15  C17 UNL     1      -2.291   2.531   0.033  1.00  0.00     0.004 C 
HETATM   16  C18 UNL     1      -2.047   3.336  -1.252  1.00  0.00     0.000 C 
HETATM   17  C19 UNL     1      -2.455   3.535   1.186  1.00  0.00     0.000 C 
HETATM   18  C20 UNL     1      -1.430   0.373  -1.840  1.00  0.00     0.005 C 
ENDROOT
BRANCH   5  19
HETATM   19  C7  UNL     1       3.682  -2.934   0.119  1.00  0.00     0.024 C 
HETATM   20  C8  UNL     1       4.891  -2.127  -0.353  1.00  0.00     0.005 C 
HETATM   21  C9  UNL     1       3.871  -3.514   1.522  1.00  0.00     0.005 C 
ENDBRANCH   5  19
TORSDOF 1
