REMARK  12 active torsions:
REMARK  status: ('A' for Active; 'I' for Inactive)
REMARK    1  A    between atoms: C2_2  and  O4_24 
REMARK    2  A    between atoms: C6_6  and  C7_7 
REMARK    3  A    between atoms: C8_8  and  C9_9 
REMARK    4  A    between atoms: C10_11  and  C11_12 
REMARK    5  A    between atoms: C11_12  and  C12_14 
REMARK    6  A    between atoms: C12_14  and  C13_15 
REMARK    7  A    between atoms: C13_15  and  C14_16 
REMARK    8  A    between atoms: C14_16  and  C15_17 
REMARK    9  A    between atoms: C15_17  and  C16_18 
REMARK   10  A    between atoms: C16_18  and  C17_19 
REMARK   11  A    between atoms: C17_19  and  C18_20 
REMARK   12  A    between atoms: C18_20  and  C19_21 
ROOT
HETATM    1  C9  UNL     1       1.182   0.828   2.871  1.00  0.00     0.134 C 
HETATM    2  O1  UNL     1       1.281  -0.262   2.113  1.00  0.00    -0.190 OA
HETATM    3  C10 UNL     1       0.139   1.662   2.724  1.00  0.00     0.065 C 
ENDROOT
BRANCH   1   4
HETATM    4  C8  UNL     1       2.207   1.131   3.875  1.00  0.00     0.028 C 
HETATM    5  C7  UNL     1       2.537   0.229   4.812  1.00  0.00     0.002 C 
BRANCH   5   6
HETATM    6  C6  UNL     1       1.840  -1.092   4.812  1.00  0.00     0.002 A 
HETATM    7  C1  UNL     1       0.434  -1.146   4.812  1.00  0.00     0.026 A 
HETATM    8  C2  UNL     1      -0.228  -2.387   4.812  1.00  0.00     0.119 A 
HETATM    9  C3  UNL     1       0.520  -3.580   4.812  1.00  0.00     0.153 A 
HETATM   10  C4  UNL     1       1.924  -3.525   4.812  1.00  0.00     0.029 A 
HETATM   11  O3  UNL     1      -0.092  -4.748   4.812  1.00  0.00    -0.188 OA
HETATM   12  C5  UNL     1       2.584  -2.285   4.812  1.00  0.00     0.002 A 
BRANCH   8  13
HETATM   13  O4  UNL     1      -1.545  -2.430   4.812  1.00  0.00    -0.326 OA
HETATM   14  C21 UNL     1      -2.180  -3.445   4.049  1.00  0.00     0.181 C 
ENDBRANCH   8  13
ENDBRANCH   5   6
ENDBRANCH   1   4
BRANCH   3  15
HETATM   15  C11 UNL     1      -0.906   1.389   1.730  1.00  0.00     0.175 C 
HETATM   16  O2  UNL     1      -1.488   0.330   1.732  1.00  0.00    -0.291 OA
BRANCH  15  17
HETATM   17  C12 UNL     1      -1.230   2.453   0.717  1.00  0.00     0.069 C 
BRANCH  17  18
HETATM   18  C13 UNL     1      -1.176   1.926  -0.719  1.00  0.00     0.008 C 
BRANCH  18  19
HETATM   19  C14 UNL     1       0.248   1.619  -1.180  1.00  0.00     0.001 C 
BRANCH  19  20
HETATM   20  C15 UNL     1       0.299   1.041  -2.594  1.00  0.00     0.000 C 
BRANCH  20  21
HETATM   21  C16 UNL     1      -0.033   2.080  -3.666  1.00  0.00     0.000 C 
BRANCH  21  22
HETATM   22  C17 UNL     1       0.166   1.547  -5.086  1.00  0.00     0.000 C 
BRANCH  22  23
HETATM   23  C18 UNL     1      -0.898   0.526  -5.489  1.00  0.00     0.000 C 
BRANCH  23  24
HETATM   24  C19 UNL     1      -0.701  -0.006  -6.907  1.00  0.00     0.000 C 
HETATM   25  C20 UNL     1      -1.025   1.035  -7.979  1.00  0.00     0.000 C 
ENDBRANCH  23  24
ENDBRANCH  22  23
ENDBRANCH  21  22
ENDBRANCH  20  21
ENDBRANCH  19  20
ENDBRANCH  18  19
ENDBRANCH  17  18
ENDBRANCH  15  17
ENDBRANCH   3  15
TORSDOF 12
