REMARK  6 active torsions:
REMARK  status: ('A' for Active; 'I' for Inactive)
REMARK    1  A    between atoms: C4_4  and  C5_5 
REMARK    2  A    between atoms: C5_5  and  C6_6 
REMARK    3  A    between atoms: C6_6  and  C7_7 
REMARK    4  A    between atoms: C7_7  and  C8_8 
REMARK    5  A    between atoms: C11_11  and  C14_14 
REMARK    6  A    between atoms: C14_14  and  O1_15 
ROOT
HETATM    1  C8  UNL     1      -0.559  -0.467  -0.900  1.00  0.00     0.005 C 
HETATM    2  C9  UNL     1      -0.268   0.524  -2.032  1.00  0.00     0.005 C 
HETATM    3  C10 UNL     1      -1.573   1.095  -2.603  1.00  0.00     0.031 C 
HETATM    4  C11 UNL     1      -2.576   1.529  -1.550  1.00  0.00     0.037 C 
HETATM    5  C12 UNL     1      -2.467   1.119  -0.268  1.00  0.00    -0.025 C 
HETATM    6  C13 UNL     1      -1.335   0.241   0.223  1.00  0.00     0.026 C 
ENDROOT
BRANCH   1   7
HETATM    7  C7  UNL     1       0.725  -1.113  -0.369  1.00  0.00     0.008 C 
HETATM    8  C16 UNL     1       1.558  -1.762  -1.475  1.00  0.00     0.001 C 
BRANCH   7   9
HETATM    9  C6  UNL     1       0.469  -2.055   0.807  1.00  0.00     0.069 C 
BRANCH   9  10
HETATM   10  C5  UNL     1       1.743  -2.503   1.471  1.00  0.00     0.172 C 
HETATM   11  O3  UNL     1       2.424  -3.376   0.986  1.00  0.00    -0.291 OA
BRANCH  10  12
HETATM   12  C4  UNL     1       2.146  -1.858   2.727  1.00  0.00     0.029 C 
HETATM   13  C2  UNL     1       3.286  -1.153   2.799  1.00  0.00    -0.041 C 
HETATM   14  C1  UNL     1       3.798  -0.451   4.028  1.00  0.00     0.026 C 
HETATM   15  C3  UNL     1       4.140  -1.039   1.564  1.00  0.00     0.026 C 
ENDBRANCH  10  12
ENDBRANCH   9  10
ENDBRANCH   7   9
ENDBRANCH   1   7
BRANCH   4  16
HETATM   16  C14 UNL     1      -3.679   2.409  -1.964  1.00  0.00     0.291 C 
HETATM   17  O2  UNL     1      -3.828   2.698  -3.128  1.00  0.00    -0.260 OA
BRANCH  16  18
HETATM   18  O1  UNL     1      -4.468   2.845  -0.986  1.00  0.00    -0.296 OA
HETATM   19  C15 UNL     1      -5.501   3.695  -1.463  1.00  0.00     0.185 C 
ENDBRANCH  16  18
ENDBRANCH   4  16
TORSDOF 6
