REMARK  2 active torsions:
REMARK  status: ('A' for Active; 'I' for Inactive)
REMARK    1  A    between atoms: C7_7  and  O1_12 
REMARK    2  A    between atoms: O1_12  and  C12_13 
ROOT
HETATM    1  C1  UNL     1      -2.574   1.414  -0.889  1.00  0.00     0.028 C 
HETATM    2  C2  UNL     1      -1.629   2.256  -0.014  1.00  0.00     0.034 C 
HETATM    3  C3  UNL     1      -0.480   2.871  -0.842  1.00  0.00     0.120 A 
HETATM    4  C4  UNL     1       0.828   2.146  -1.365  1.00  0.00     0.168 A 
HETATM    5  C5  UNL     1       1.299   0.676  -1.225  1.00  0.00     0.160 C 
HETATM    6  C6  UNL     1       1.102  -0.113   0.100  1.00  0.00     0.086 C 
HETATM    7  C7  UNL     1       0.742  -1.608  -0.111  1.00  0.00     0.135 C 
HETATM    8  C8  UNL     1      -0.564  -1.875  -0.893  1.00  0.00     0.052 C 
HETATM    9  C9  UNL     1      -1.607  -0.850  -0.529  1.00  0.00    -0.046 C 
HETATM   10  C10 UNL     1      -1.826   0.195  -1.350  1.00  0.00    -0.034 C 
HETATM   11  C11 UNL     1      -2.332  -1.008   0.783  1.00  0.00     0.026 C 
HETATM   12  C14 UNL     1       2.467   0.041   0.697  1.00  0.00     0.045 C 
HETATM   13  C15 UNL     1       3.379   0.467  -0.350  1.00  0.00     0.292 C 
HETATM   14  O3  UNL     1       2.713   0.685  -1.481  1.00  0.00    -0.298 OA
HETATM   15  O4  UNL     1       4.570   0.590  -0.195  1.00  0.00    -0.260 OA
HETATM   16  C16 UNL     1       2.774  -0.174   1.988  1.00  0.00     0.001 C 
HETATM   17  O5  UNL     1       0.723   2.797  -0.135  1.00  0.00    -0.354 OA
HETATM   18  C17 UNL     1      -0.676   4.305  -1.317  1.00  0.00     0.032 C 
ENDROOT
BRANCH   7  19
HETATM   19  O1  UNL     1       0.629  -2.225   1.164  1.00  0.00    -0.303 OA
BRANCH  19  20
HETATM   20  C12 UNL     1       0.684  -3.553   1.092  1.00  0.00     0.272 C 
HETATM   21  C13 UNL     1       0.371  -4.276   2.375  1.00  0.00     0.106 C 
HETATM   22  O2  UNL     1       0.961  -4.160   0.086  1.00  0.00    -0.264 OA
ENDBRANCH  19  20
ENDBRANCH   7  19
TORSDOF 2
