REMARK  0 active torsions:
REMARK  status: ('A' for Active; 'I' for Inactive)
ROOT
HETATM    1  C1  UNL     1       4.137  -0.695  -0.625  1.00  0.00    -0.026 C 
HETATM    2  C2  UNL     1       4.381   0.769  -0.242  1.00  0.00     0.048 C 
HETATM    3  C3  UNL     1       3.092   1.483   0.117  1.00  0.00    -0.039 C 
HETATM    4  C4  UNL     1       1.774   0.825  -0.169  1.00  0.00     0.030 C 
HETATM    5  C5  UNL     1       1.820  -0.655   0.272  1.00  0.00     0.043 C 
HETATM    6  C6  UNL     1       2.981  -1.335  -0.398  1.00  0.00    -0.027 C 
HETATM    7  C7  UNL     1       0.513  -1.345  -0.091  1.00  0.00     0.002 C 
HETATM    8  C8  UNL     1      -0.603  -0.615  -0.126  1.00  0.00     0.095 A 
HETATM    9  C9  UNL     1      -0.634   0.795   0.163  1.00  0.00     0.002 A 
HETATM   10  C10 UNL     1       0.587   1.595   0.472  1.00  0.00     0.033 C 
HETATM   11  C11 UNL     1      -1.890   1.198   0.117  1.00  0.00     0.040 A 
HETATM   12  C12 UNL     1      -2.699   0.036  -0.232  1.00  0.00     0.296 A 
HETATM   13  O1  UNL     1      -1.876  -1.067  -0.387  1.00  0.00    -0.274 OA
HETATM   14  O2  UNL     1      -3.927   0.036  -0.367  1.00  0.00    -0.259 OA
HETATM   15  C13 UNL     1      -2.390   2.591   0.365  1.00  0.00     0.036 C 
HETATM   16  C14 UNL     1       2.009  -0.765   1.818  1.00  0.00     0.009 C 
HETATM   17  C15 UNL     1       3.133   2.735   0.570  1.00  0.00    -0.009 C 
ENDROOT
TORSDOF 0
