REMARK  0 active torsions:
REMARK  status: ('A' for Active; 'I' for Inactive)
ROOT
HETATM    1  C1  UNL     1       2.258  -1.973  -1.004  1.00  0.00     0.035 C 
HETATM    2  C2  UNL     1       2.547  -0.475  -1.103  1.00  0.00     0.251 C 
HETATM    3  N1  UNL     1       2.484   0.170   0.221  1.00  0.00     0.139 N 
HETATM    4  C3  UNL     1       1.211  -0.018   0.963  1.00  0.00     0.240 C 
HETATM    5  C4  UNL     1       0.799  -1.506   1.000  1.00  0.00     0.058 C 
HETATM    6  C5  UNL     1       0.889  -2.199  -0.373  1.00  0.00     0.006 C 
HETATM    7  C6  UNL     1      -0.606  -1.633   1.596  1.00  0.00     0.111 C 
HETATM    8  N2  UNL     1      -1.594  -0.785   0.865  1.00  0.00    -0.303 N 
HETATM    9  C7  UNL     1      -1.190   0.438   0.324  1.00  0.00     0.034 C 
HETATM   10  C8  UNL     1       0.092   0.889   0.455  1.00  0.00    -0.002 C 
HETATM   11  C9  UNL     1       0.504   2.324   0.149  1.00  0.00     0.027 C 
HETATM   12  C10 UNL     1       1.879   2.445  -0.516  1.00  0.00     0.040 C 
HETATM   13  C11 UNL     1       2.922   1.568   0.190  1.00  0.00     0.251 C 
HETATM   14  C12 UNL     1      -2.209   1.295  -0.420  1.00  0.00     0.044 C 
HETATM   15  C13 UNL     1      -3.377   0.492  -0.994  1.00  0.00     0.016 C 
HETATM   16  C14 UNL     1      -3.967  -0.412   0.080  1.00  0.00     0.089 C 
HETATM   17  C15 UNL     1      -2.902  -1.236   0.768  1.00  0.00     0.237 C 
HETATM   18  O1  UNL     1      -3.219  -2.305   1.240  1.00  0.00    -0.272 OA
ENDROOT
TORSDOF 0
