REMARK  1 active torsions:
REMARK  status: ('A' for Active; 'I' for Inactive)
REMARK    1  A    between atoms: C2_2  and  C7_10 
ROOT
HETATM    1  C1  UNL     1      -1.305   0.584   0.233  1.00  0.00     0.100 C 
HETATM    2  C2  UNL     1      -0.789  -0.830   0.024  1.00  0.00     0.048 C 
HETATM    3  C3  UNL     1       0.530  -1.121  -0.014  1.00  0.00     0.011 C 
HETATM    4  C4  UNL     1       1.602  -0.066   0.152  1.00  0.00     0.211 C 
HETATM    5  C5  UNL     1       1.108   1.342  -0.244  1.00  0.00     0.243 C 
HETATM    6  C6  UNL     1      -0.219   1.621   0.426  1.00  0.00     0.188 C 
HETATM    7  O1  UNL     1      -0.424   2.611   1.092  1.00  0.00    -0.293 OA
HETATM    8  O2  UNL     1       2.076   2.313   0.119  1.00  0.00    -0.212 OA
HETATM    9  O3  UNL     1       2.721  -0.420  -0.639  1.00  0.00    -0.215 OA
ENDROOT
BRANCH   2  10
HETATM   10  C7  UNL     1      -1.785  -1.898  -0.142  1.00  0.00     0.207 C 
HETATM   11  O4  UNL     1      -3.056  -1.506  -0.141  1.00  0.00    -0.644 OA
HETATM   12  O5  UNL     1      -1.435  -3.047  -0.269  1.00  0.00    -0.644 OA
ENDBRANCH   2  10
TORSDOF 1
