REMARK  0 active torsions:
REMARK  status: ('A' for Active; 'I' for Inactive)
ROOT
HETATM    1  C1  UNL     1      -0.936  -0.519  -0.400  1.00  0.00    -0.001 A 
HETATM    2  C2  UNL     1      -1.680   0.318   0.492  1.00  0.00    -0.022 A 
HETATM    3  C3  UNL     1      -0.994   1.272   1.291  1.00  0.00    -0.004 A 
HETATM    4  C4  UNL     1       0.404   1.399   1.223  1.00  0.00     0.002 A 
HETATM    5  C5  UNL     1       1.145   0.574   0.348  1.00  0.00     0.026 A 
HETATM    6  C6  UNL     1       0.492  -0.392  -0.486  1.00  0.00     0.044 A 
HETATM    7  C7  UNL     1       1.322  -1.242  -1.437  1.00  0.00     0.234 A 
HETATM    8  C8  UNL     1       2.803  -1.076  -1.437  1.00  0.00     0.236 A 
HETATM    9  C9  UNL     1       3.385  -0.060  -0.539  1.00  0.00     0.063 A 
HETATM   10  C10 UNL     1       2.627   0.717   0.293  1.00  0.00     0.103 A 
HETATM   11  O1  UNL     1       3.371   1.608   1.045  1.00  0.00    -0.305 OA
HETATM   12  C11 UNL     1       4.691   1.346   0.635  1.00  0.00     0.118 A 
HETATM   13  C12 UNL     1       4.678   0.324  -0.330  1.00  0.00     0.008 A 
HETATM   14  C13 UNL     1       5.900  -0.246  -1.017  1.00  0.00     0.033 C 
HETATM   15  O2  UNL     1       3.514  -1.750  -2.148  1.00  0.00    -0.283 OA
HETATM   16  O3  UNL     1       0.926  -2.062  -2.230  1.00  0.00    -0.283 OA
HETATM   17  C14 UNL     1      -3.168   0.170   0.602  1.00  0.00     0.023 C 
HETATM   18  C15 UNL     1      -3.789  -0.308  -0.728  1.00  0.00     0.030 C 
HETATM   19  C16 UNL     1      -3.029  -1.449  -1.355  1.00  0.00    -0.026 C 
HETATM   20  C17 UNL     1      -1.691  -1.519  -1.219  1.00  0.00    -0.005 C 
HETATM   21  C18 UNL     1      -3.465  -0.857   1.701  1.00  0.00     0.005 C 
HETATM   22  C19 UNL     1      -3.856   1.492   0.983  1.00  0.00     0.005 C 
ENDROOT
TORSDOF 0
