REMARK  2 active torsions:
REMARK  status: ('A' for Active; 'I' for Inactive)
REMARK    1  A    between atoms: C1_1  and  C12_13 
REMARK    2  A    between atoms: C8_8  and  C9_10 
ROOT
HETATM    1  C1  UNL     1      -2.639  -0.197   0.047  1.00  0.00     0.035 A 
HETATM    2  C2  UNL     1      -2.627   1.224  -0.072  1.00  0.00     0.005 A 
HETATM    3  C3  UNL     1      -1.394   1.926  -0.146  1.00  0.00     0.025 A 
HETATM    4  C4  UNL     1      -0.209   1.160  -0.096  1.00  0.00     0.100 A 
HETATM    5  C5  UNL     1      -0.207  -0.203   0.020  1.00  0.00     0.025 A 
HETATM    6  C6  UNL     1      -1.420  -0.930   0.094  1.00  0.00     0.005 A 
HETATM    7  C7  UNL     1       1.055  -0.694   0.045  1.00  0.00     0.026 A 
HETATM    8  C8  UNL     1       1.867   0.455  -0.060  1.00  0.00     0.096 A 
HETATM    9  O1  UNL     1       1.088   1.642  -0.152  1.00  0.00    -0.307 OA
ENDROOT
BRANCH   1  10
HETATM   10  C12 UNL     1      -3.928  -0.916   0.121  1.00  0.00     0.173 C 
HETATM   11  O2  UNL     1      -5.049  -0.465   0.098  1.00  0.00    -0.291 OA
HETATM   12  C13 UNL     1      -3.691  -2.397   0.242  1.00  0.00     0.077 C 
ENDBRANCH   1  10
BRANCH   8  13
HETATM   13  C9  UNL     1       3.338   0.568  -0.088  1.00  0.00     0.001 C 
HETATM   14  C10 UNL     1       4.096  -0.535   0.018  1.00  0.00    -0.003 C 
HETATM   15  C11 UNL     1       4.026   1.900  -0.230  1.00  0.00     0.033 C 
ENDBRANCH   8  13
TORSDOF 2
