REMARK  3 active torsions:
REMARK  status: ('A' for Active; 'I' for Inactive)
REMARK    1  A    between atoms: C1_1  and  C12_18 
REMARK    2  A    between atoms: C5_5  and  O2_7 
REMARK    3  A    between atoms: O2_7  and  C6_8 
ROOT
HETATM    1  C6  UNL     1      -2.213  -0.205  -0.363  1.00  0.00     0.192 C 
HETATM    2  C7  UNL     1      -2.436   1.297  -0.580  1.00  0.00     0.051 C 
HETATM    3  C8  UNL     1      -3.850   1.299  -1.180  1.00  0.00     0.030 C 
HETATM    4  C9  UNL     1      -4.514   0.119  -0.521  1.00  0.00    -0.027 C 
HETATM    5  C10 UNL     1      -3.588  -0.734  -0.059  1.00  0.00     0.010 C 
HETATM    6  C11 UNL     1      -1.748  -0.857  -1.596  1.00  0.00     0.104 C 
HETATM    7  N1  UNL     1      -1.394  -1.369  -2.576  1.00  0.00    -0.194 NA
ENDROOT
BRANCH   1   8
HETATM    8  O2  UNL     1      -1.318  -0.455   0.695  1.00  0.00    -0.316 OA
BRANCH   8   9
HETATM    9  C5  UNL     1      -0.018   0.043   0.453  1.00  0.00     0.271 C 
HETATM   10  C4  UNL     1       0.656   0.469   1.785  1.00  0.00     0.241 C 
HETATM   11  C3  UNL     1       2.129   0.873   1.555  1.00  0.00     0.220 C 
HETATM   12  O3  UNL     1      -0.053   1.566   2.342  1.00  0.00    -0.215 OA
HETATM   13  C2  UNL     1       2.858  -0.230   0.758  1.00  0.00     0.215 C 
HETATM   14  O4  UNL     1       2.775   1.072   2.803  1.00  0.00    -0.218 OA
HETATM   15  C1  UNL     1       2.078  -0.609  -0.520  1.00  0.00     0.184 C 
HETATM   16  O5  UNL     1       4.149   0.217   0.387  1.00  0.00    -0.218 OA
HETATM   17  O1  UNL     1       0.750  -0.980  -0.170  1.00  0.00    -0.326 OA
BRANCH  15  18
HETATM   18  C12 UNL     1       2.692  -1.805  -1.258  1.00  0.00     0.214 C 
HETATM   19  O6  UNL     1       2.024  -1.951  -2.490  1.00  0.00    -0.218 OA
ENDBRANCH  15  18
ENDBRANCH   8   9
ENDBRANCH   1   8
TORSDOF 3
