REMARK  6 active torsions:
REMARK  status: ('A' for Active; 'I' for Inactive)
REMARK    1  A    between atoms: C1_1  and  C12_16 
REMARK    2  A    between atoms: C6_6  and  N1_7 
REMARK       I    between atoms: N1_7  and  C7_8 
REMARK    3  A    between atoms: C7_8  and  C8_10 
REMARK    4  A    between atoms: C8_10  and  C10_12 
REMARK    5  A    between atoms: C10_12  and  C11_13 
REMARK    6  A    between atoms: C12_16  and  O3_17 
ROOT
HETATM    1  C1  UNL     1       1.711  -1.680   0.342  1.00  0.00     0.081 A 
HETATM    2  C2  UNL     1       2.451  -2.877   0.342  1.00  0.00     0.007 A 
HETATM    3  C3  UNL     1       1.793  -4.117   0.342  1.00  0.00     0.000 A 
HETATM    4  C4  UNL     1       0.389  -4.168   0.342  1.00  0.00     0.002 A 
HETATM    5  C5  UNL     1      -0.357  -2.978   0.342  1.00  0.00     0.019 A 
HETATM    6  C6  UNL     1       0.295  -1.730   0.342  1.00  0.00     0.089 A 
ENDROOT
BRANCH   6   7
HETATM    7  N1  UNL     1      -0.461  -0.584   0.342  1.00  0.00    -0.212 NA
HETATM    8  C7  UNL     1      -1.543  -0.480  -0.486  1.00  0.00     0.256 C 
HETATM    9  O1  UNL     1      -1.838  -1.392  -1.221  1.00  0.00    -0.270 OA
BRANCH   8  10
HETATM   10  C8  UNL     1      -2.352   0.789  -0.463  1.00  0.00     0.091 C 
HETATM   11  C9  UNL     1      -3.090   0.985   0.861  1.00  0.00     0.010 C 
BRANCH  10  12
HETATM   12  C10 UNL     1      -1.527   2.014  -0.863  1.00  0.00     0.101 C 
BRANCH  12  13
HETATM   13  C11 UNL     1      -2.389   3.196  -1.219  1.00  0.00     0.274 C 
HETATM   14  N2  UNL     1      -1.799   4.416  -1.369  1.00  0.00    -0.107 N 
HETATM   15  O2  UNL     1      -3.582   3.071  -1.369  1.00  0.00    -0.269 OA
ENDBRANCH  12  13
ENDBRANCH  10  12
ENDBRANCH   8  10
ENDBRANCH   6   7
BRANCH   1  16
HETATM   16  C12 UNL     1       2.449  -0.377   0.342  1.00  0.00     0.297 C 
HETATM   17  O4  UNL     1       1.889   0.654   0.047  1.00  0.00    -0.259 OA
BRANCH  16  18
HETATM   18  O3  UNL     1       3.731  -0.451   0.684  1.00  0.00    -0.296 OA
HETATM   19  C13 UNL     1       4.375   0.815   0.650  1.00  0.00     0.185 C 
ENDBRANCH  16  18
ENDBRANCH   1  16
TORSDOF 6
