REMARK  5 active torsions:
REMARK  status: ('A' for Active; 'I' for Inactive)
REMARK    1  A    between atoms: C3_3  and  C24_31 
REMARK    2  A    between atoms: C11_12  and  O2_13 
REMARK    3  A    between atoms: N1_19  and  C16_21 
REMARK    4  A    between atoms: C19_24  and  O6_29 
REMARK    5  A    between atoms: C24_31  and  O7_32 
ROOT
HETATM    1  C1  UNL     1      -3.129   1.924  -0.777  1.00  0.00     0.033 C 
HETATM    2  C2  UNL     1      -3.839   0.905   0.021  1.00  0.00     0.007 C 
HETATM    3  C3  UNL     1      -3.011  -0.421   0.230  1.00  0.00     0.050 C 
HETATM    4  C4  UNL     1      -1.573  -0.174   0.939  1.00  0.00     0.038 C 
HETATM    5  C5  UNL     1      -0.905   0.895   0.028  1.00  0.00     0.052 C 
HETATM    6  C6  UNL     1      -1.829   2.208  -0.118  1.00  0.00     0.154 C 
HETATM    7  O1  UNL     1      -2.148   2.715   1.199  1.00  0.00    -0.223 OA
HETATM    8  C7  UNL     1       0.456   1.473   0.658  1.00  0.00     0.009 C 
HETATM    9  C8  UNL     1       1.394   0.435   0.998  1.00  0.00     0.058 C 
HETATM   10  C9  UNL     1       1.617  -0.498  -0.153  1.00  0.00     0.127 C 
HETATM   11  C10 UNL     1       0.249  -1.209  -0.613  1.00  0.00     0.161 C 
HETATM   12  C11 UNL     1      -0.676  -1.676   0.800  1.00  0.00     0.144 C 
HETATM   13  O3  UNL     1       0.852  -2.232  -1.461  1.00  0.00    -0.325 OA
HETATM   14  C13 UNL     1       2.263  -2.440  -0.974  1.00  0.00     0.294 C 
HETATM   15  O4  UNL     1       2.437  -1.563   0.205  1.00  0.00    -0.329 OA
HETATM   16  C14 UNL     1      -0.661  -0.098  -1.342  1.00  0.00     0.109 C 
HETATM   17  N1  UNL     1      -1.870  -0.785  -2.004  1.00  0.00    -0.368 N 
HETATM   18  C15 UNL     1      -2.767  -1.316  -1.041  1.00  0.00     0.099 C 
HETATM   19  C18 UNL     1       2.212   0.246  -1.370  1.00  0.00     0.060 C 
HETATM   20  C19 UNL     1       3.328   1.208  -1.017  1.00  0.00     0.120 C 
HETATM   21  C20 UNL     1       2.791   2.099   0.171  1.00  0.00     0.058 C 
HETATM   22  C21 UNL     1       2.557   1.264   1.450  1.00  0.00     0.157 C 
HETATM   23  O5  UNL     1       3.733   0.550   1.912  1.00  0.00    -0.223 OA
HETATM   24  C22 UNL     1       1.320   2.528  -0.239  1.00  0.00     0.005 C 
ENDROOT
BRANCH   3  25
HETATM   25  C24 UNL     1      -4.002  -1.151   1.164  1.00  0.00     0.144 C 
BRANCH  25  26
HETATM   26  O7  UNL     1      -4.591  -0.134   2.139  1.00  0.00    -0.351 OA
HETATM   27  C25 UNL     1      -3.932   0.108   3.419  1.00  0.00     0.174 C 
ENDBRANCH  25  26
ENDBRANCH   3  25
BRANCH  12  28
HETATM   28  O2  UNL     1       0.242  -2.137   1.841  1.00  0.00    -0.351 OA
HETATM   29  C12 UNL     1       0.580  -3.543   1.673  1.00  0.00     0.174 C 
ENDBRANCH  12  28
BRANCH  17  30
HETATM   30  C16 UNL     1      -2.603  -0.149  -3.131  1.00  0.00     0.097 C 
HETATM   31  C17 UNL     1      -3.667  -1.167  -3.651  1.00  0.00     0.026 C 
ENDBRANCH  17  30
BRANCH  20  32
HETATM   32  O6  UNL     1       3.560   1.990  -2.223  1.00  0.00    -0.354 OA
HETATM   33  C23 UNL     1       4.610   2.964  -2.055  1.00  0.00     0.174 C 
ENDBRANCH  20  32
TORSDOF 5
