REMARK  3 active torsions:
REMARK  status: ('A' for Active; 'I' for Inactive)
REMARK    1  A    between atoms: C2_2  and  O5_29 
REMARK    2  A    between atoms: C15_15  and  C18_19 
REMARK    3  A    between atoms: O5_29  and  C25_30 
ROOT
HETATM    1  C1  UNL     1      -3.403  -0.967  -1.498  1.00  0.00     0.030 C 
HETATM    2  C2  UNL     1      -4.158  -2.017  -0.685  1.00  0.00     0.125 C 
HETATM    3  C3  UNL     1      -3.226  -2.843   0.217  1.00  0.00     0.030 C 
HETATM    4  C4  UNL     1      -1.781  -2.308   0.307  1.00  0.00     0.002 C 
HETATM    5  C5  UNL     1      -1.716  -0.775   0.510  1.00  0.00     0.000 C 
HETATM    6  C6  UNL     1      -2.475  -0.074  -0.658  1.00  0.00     0.003 C 
HETATM    7  C7  UNL     1      -0.230  -0.280   0.591  1.00  0.00     0.002 C 
HETATM    8  C8  UNL     1       0.800  -1.250  -0.028  1.00  0.00     0.027 C 
HETATM    9  C9  UNL     1       0.217  -1.915  -1.278  1.00  0.00     0.002 C 
HETATM   10  C10 UNL     1      -0.930  -2.847  -0.866  1.00  0.00     0.000 C 
HETATM   11  C11 UNL     1       2.171  -0.605  -0.161  1.00  0.00     0.117 A 
HETATM   12  C12 UNL     1       2.702   0.389   0.874  1.00  0.00     0.028 C 
HETATM   13  C13 UNL     1       1.608   1.026   1.752  1.00  0.00     0.002 C 
HETATM   14  C14 UNL     1       0.351   0.158   1.955  1.00  0.00     0.000 C 
HETATM   15  C15 UNL     1       3.528   1.387  -0.016  1.00  0.00     0.039 C 
HETATM   16  C16 UNL     1       4.156   0.394  -1.034  1.00  0.00     0.035 C 
HETATM   17  C17 UNL     1       3.018  -0.579  -1.324  1.00  0.00     0.140 A 
HETATM   18  O1  UNL     1       3.204  -1.761  -0.594  1.00  0.00    -0.357 OA
HETATM   19  C23 UNL     1       3.635  -0.334   1.886  1.00  0.00     0.003 C 
HETATM   20  C24 UNL     1      -2.460  -0.413   1.822  1.00  0.00     0.000 C 
ENDROOT
BRANCH  15  21
HETATM   21  C18 UNL     1       2.976   2.699  -0.640  1.00  0.00     0.166 A 
HETATM   22  C19 UNL     1       2.798   3.878   0.190  1.00  0.00     0.011 C 
HETATM   23  C20 UNL     1       1.521   4.237   0.460  1.00  0.00     0.066 C 
HETATM   24  C21 UNL     1       0.425   3.469  -0.224  1.00  0.00     0.298 C 
HETATM   25  O2  UNL     1       0.758   2.535  -1.194  1.00  0.00    -0.270 OA
HETATM   26  O4  UNL     1      -0.747   3.688   0.071  1.00  0.00    -0.259 OA
HETATM   27  C22 UNL     1       1.987   3.047  -1.661  1.00  0.00     0.272 A 
HETATM   28  O3  UNL     1       3.078   2.446  -2.243  1.00  0.00    -0.324 OA
ENDBRANCH  15  21
BRANCH   2  29
HETATM   29  O5  UNL     1      -5.145  -1.398   0.093  1.00  0.00    -0.297 OA
BRANCH  29  30
HETATM   30  C25 UNL     1      -6.311  -1.038  -0.508  1.00  0.00     0.360 C 
HETATM   31  O6  UNL     1      -6.582  -1.216  -1.672  1.00  0.00    -0.253 OA
ENDBRANCH  29  30
ENDBRANCH   2  29
TORSDOF 3
