REMARK  7 active torsions:
REMARK  status: ('A' for Active; 'I' for Inactive)
REMARK    1  A    between atoms: C4_4  and  O3_9 
REMARK    2  A    between atoms: C5_6  and  C6_7 
REMARK    3  A    between atoms: O3_9  and  C7_10 
REMARK    4  A    between atoms: C10_14  and  C11_15 
REMARK    5  A    between atoms: C11_15  and  C12_17 
REMARK    6  A    between atoms: C12_17  and  O6_18 
REMARK    7  A    between atoms: C12_17  and  O7_20 
ROOT
HETATM    1  C7  UNL     1      -1.439  -0.135   1.129  1.00  0.00     0.180 C 
HETATM    2  C8  UNL     1      -1.980  -0.977   2.303  1.00  0.00     0.211 C 
HETATM    3  C9  UNL     1      -2.035  -2.373   1.686  1.00  0.00     0.178 C 
HETATM    4  O4  UNL     1      -0.865  -2.387   0.904  1.00  0.00    -0.349 OA
HETATM    5  C10 UNL     1      -0.726  -1.158   0.221  1.00  0.00     0.180 C 
HETATM    6  O8  UNL     1      -3.269  -0.547   2.701  1.00  0.00    -0.218 OA
ENDROOT
BRANCH   1   7
HETATM    7  O3  UNL     1      -0.533   0.842   1.600  1.00  0.00    -0.326 OA
BRANCH   7   8
HETATM    8  C4  UNL     1      -0.164   1.785   0.609  1.00  0.00     0.270 C 
HETATM    9  C3  UNL     1       0.094   3.174   1.266  1.00  0.00     0.241 C 
HETATM   10  C2  UNL     1       1.088   4.006   0.432  1.00  0.00     0.220 C 
HETATM   11  O9  UNL     1      -1.146   3.852   1.395  1.00  0.00    -0.215 OA
HETATM   12  C1  UNL     1       2.424   3.223   0.246  1.00  0.00     0.215 C 
HETATM   13  O10 UNL     1       1.279   5.303   0.982  1.00  0.00    -0.218 OA
HETATM   14  C5  UNL     1       2.246   1.678   0.330  1.00  0.00     0.184 C 
HETATM   15  O11 UNL     1       3.426   3.617   1.172  1.00  0.00    -0.218 OA
HETATM   16  O1  UNL     1       0.953   1.324  -0.154  1.00  0.00    -0.326 OA
BRANCH  14  17
HETATM   17  C6  UNL     1       2.444   1.053   1.723  1.00  0.00     0.214 C 
HETATM   18  O2  UNL     1       2.322  -0.346   1.602  1.00  0.00    -0.218 OA
ENDBRANCH  14  17
ENDBRANCH   7   8
ENDBRANCH   1   7
BRANCH   5  19
HETATM   19  C11 UNL     1      -1.426  -1.283  -1.133  1.00  0.00     0.237 C 
HETATM   20  O5  UNL     1      -1.310  -0.049  -1.805  1.00  0.00    -0.215 OA
BRANCH  19  21
HETATM   21  C12 UNL     1      -0.725  -2.352  -1.973  1.00  0.00     0.270 C 
BRANCH  21  22
HETATM   22  O6  UNL     1      -1.441  -2.506  -3.176  1.00  0.00    -0.326 OA
HETATM   23  C13 UNL     1      -1.682  -3.855  -3.510  1.00  0.00     0.177 C 
ENDBRANCH  21  22
BRANCH  21  24
HETATM   24  O7  UNL     1       0.584  -1.906  -2.250  1.00  0.00    -0.326 OA
HETATM   25  C14 UNL     1       1.371  -2.875  -2.904  1.00  0.00     0.177 C 
ENDBRANCH  21  24
ENDBRANCH  19  21
ENDBRANCH   5  19
TORSDOF 7
