REMARK  1 active torsions:
REMARK  status: ('A' for Active; 'I' for Inactive)
REMARK    1  A    between atoms: C13_14  and  O1_15 
ROOT
HETATM    1  C1  UNL     1      -4.702  -0.120  -0.064  1.00  0.00     0.005 A 
HETATM    2  C2  UNL     1      -5.470   1.034  -0.204  1.00  0.00     0.000 A 
HETATM    3  C3  UNL     1      -4.859   2.296  -0.234  1.00  0.00     0.002 A 
HETATM    4  C4  UNL     1      -3.476   2.402  -0.120  1.00  0.00     0.019 A 
HETATM    5  C5  UNL     1      -2.697   1.240   0.020  1.00  0.00     0.084 A 
HETATM    6  C6  UNL     1      -3.303  -0.025   0.048  1.00  0.00     0.057 A 
HETATM    7  C7  UNL     1      -2.466  -1.239   0.187  1.00  0.00     0.200 A 
HETATM    8  C8  UNL     1      -0.992  -1.062   0.286  1.00  0.00     0.079 A 
HETATM    9  C9  UNL     1      -0.457   0.239   0.261  1.00  0.00     0.088 A 
HETATM   10  N1  UNL     1      -1.317   1.327   0.129  1.00  0.00    -0.245 NA
HETATM   11  C10 UNL     1       0.934   0.459   0.368  1.00  0.00     0.040 A 
HETATM   12  C11 UNL     1       1.802  -0.622   0.557  1.00  0.00     0.098 A 
HETATM   13  C12 UNL     1       1.235  -1.905   0.543  1.00  0.00     0.049 A 
HETATM   14  C13 UNL     1      -0.122  -2.178   0.347  1.00  0.00     0.101 A 
HETATM   15  O2  UNL     1       3.157  -0.473   0.690  1.00  0.00    -0.332 OA
HETATM   16  C15 UNL     1       3.725   0.670   0.104  1.00  0.00     0.117 C 
HETATM   17  C16 UNL     1       2.866   1.894   0.326  1.00  0.00     0.001 C 
HETATM   18  C17 UNL     1       1.528   1.797   0.408  1.00  0.00     0.001 C 
HETATM   19  C18 UNL     1       5.105   0.869   0.741  1.00  0.00     0.035 C 
HETATM   20  C19 UNL     1       3.875   0.435  -1.404  1.00  0.00     0.035 C 
HETATM   21  O3  UNL     1      -3.011  -2.343   0.195  1.00  0.00    -0.286 OA
ENDROOT
BRANCH  14  22
HETATM   22  O1  UNL     1      -0.561  -3.472   0.464  1.00  0.00    -0.328 OA
HETATM   23  C14 UNL     1      -0.642  -4.155  -0.766  1.00  0.00     0.181 C 
ENDBRANCH  14  22
TORSDOF 1
