REMARK  1 active torsions:
REMARK  status: ('A' for Active; 'I' for Inactive)
REMARK    1  A    between atoms: C7_8  and  C10_12 
ROOT
HETATM    1  C1  UNL     1      -2.851  -1.742   1.597  1.00  0.00     0.131 A 
HETATM    2  C2  UNL     1      -2.455  -2.937   0.986  1.00  0.00     0.029 A 
HETATM    3  C3  UNL     1      -1.321  -2.988   0.158  1.00  0.00     0.134 A 
HETATM    4  C4  UNL     1      -0.571  -1.812  -0.038  1.00  0.00     0.082 A 
HETATM    5  C5  UNL     1      -0.914  -0.604   0.599  1.00  0.00     0.101 A 
HETATM    6  C6  UNL     1      -2.072  -0.603   1.378  1.00  0.00     0.051 A 
HETATM    7  O1  UNL     1      -0.240   0.574   0.422  1.00  0.00    -0.328 OA
HETATM    8  C7  UNL     1       0.494   0.695  -0.769  1.00  0.00     0.151 C 
HETATM    9  C8  UNL     1       1.423  -0.502  -0.933  1.00  0.00     0.104 C 
HETATM   10  C9  UNL     1       0.653  -1.808  -0.882  1.00  0.00     0.180 C 
HETATM   11  O2  UNL     1       1.067  -2.774  -1.510  1.00  0.00    -0.291 OA
HETATM   12  O4  UNL     1      -0.986  -4.182  -0.406  1.00  0.00    -0.190 OA
HETATM   13  C16 UNL     1      -3.253  -4.204   1.207  1.00  0.00     0.035 C 
HETATM   14  O5  UNL     1      -3.956  -1.657   2.385  1.00  0.00    -0.190 OA
ENDROOT
BRANCH   8  15
HETATM   15  C10 UNL     1       1.285   1.990  -0.761  1.00  0.00     0.006 A 
HETATM   16  C11 UNL     1       1.242   2.880  -1.839  1.00  0.00     0.000 A 
HETATM   17  C12 UNL     1       1.982   4.065  -1.821  1.00  0.00     0.027 A 
HETATM   18  C13 UNL     1       2.789   4.403  -0.730  1.00  0.00     0.131 A 
HETATM   19  C14 UNL     1       2.834   3.508   0.343  1.00  0.00     0.027 A 
HETATM   20  O3  UNL     1       3.513   5.552  -0.706  1.00  0.00    -0.190 OA
HETATM   21  C15 UNL     1       2.096   2.324   0.329  1.00  0.00     0.000 A 
ENDBRANCH   8  15
TORSDOF 1
