REMARK  0 active torsions:
REMARK  status: ('A' for Active; 'I' for Inactive)
ROOT
HETATM    1  C1  UNL     1      -4.786  -0.841  -0.307  1.00  0.00     0.005 A 
HETATM    2  C2  UNL     1      -5.624   0.272  -0.311  1.00  0.00     0.000 A 
HETATM    3  C3  UNL     1      -5.091   1.563  -0.189  1.00  0.00     0.002 A 
HETATM    4  C4  UNL     1      -3.716   1.742  -0.055  1.00  0.00     0.019 A 
HETATM    5  C5  UNL     1      -2.865   0.623  -0.044  1.00  0.00     0.084 A 
HETATM    6  C6  UNL     1      -3.395  -0.672  -0.176  1.00  0.00     0.057 A 
HETATM    7  C7  UNL     1      -2.486  -1.839  -0.170  1.00  0.00     0.198 A 
HETATM    8  C8  UNL     1      -1.039  -1.570  -0.002  1.00  0.00     0.057 A 
HETATM    9  C9  UNL     1      -0.567  -0.254   0.136  1.00  0.00     0.086 A 
HETATM   10  N1  UNL     1      -1.492   0.788   0.101  1.00  0.00    -0.245 NA
HETATM   11  C10 UNL     1       0.815  -0.009   0.307  1.00  0.00     0.040 A 
HETATM   12  C11 UNL     1       1.734  -1.066   0.385  1.00  0.00     0.096 A 
HETATM   13  C12 UNL     1       1.238  -2.367   0.192  1.00  0.00     0.024 A 
HETATM   14  C13 UNL     1      -0.117  -2.630   0.011  1.00  0.00     0.007 A 
HETATM   15  O1  UNL     1       3.078  -0.875   0.561  1.00  0.00    -0.332 OA
HETATM   16  C14 UNL     1       3.619   0.361   0.170  1.00  0.00     0.117 C 
HETATM   17  C15 UNL     1       2.680   1.509   0.470  1.00  0.00     0.001 C 
HETATM   18  C16 UNL     1       1.347   1.341   0.500  1.00  0.00     0.001 C 
HETATM   19  C17 UNL     1       4.956   0.535   0.915  1.00  0.00     0.035 C 
HETATM   20  C18 UNL     1       3.855   0.328  -1.347  1.00  0.00     0.035 C 
HETATM   21  O2  UNL     1      -2.916  -2.986  -0.292  1.00  0.00    -0.286 OA
ENDROOT
TORSDOF 0
