REMARK  0 active torsions:
REMARK  status: ('A' for Active; 'I' for Inactive)
ROOT
HETATM    1  C1  UNL     1       3.104  -0.660   0.442  1.00  0.00     0.025 C 
HETATM    2  C2  UNL     1       2.814   0.812   0.266  1.00  0.00    -0.032 C 
HETATM    3  C3  UNL     1       1.578   1.285   0.000  1.00  0.00    -0.024 C 
HETATM    4  C4  UNL     1       0.367   0.369  -0.117  1.00  0.00     0.107 C 
HETATM    5  C5  UNL     1       0.742  -1.123  -0.406  1.00  0.00     0.026 C 
HETATM    6  C6  UNL     1       1.842  -1.524   0.600  1.00  0.00     0.007 C 
HETATM    7  C7  UNL     1      -0.500  -2.035  -0.269  1.00  0.00     0.003 C 
HETATM    8  C8  UNL     1      -1.756  -1.430  -0.924  1.00  0.00     0.003 C 
HETATM    9  C9  UNL     1      -1.904   0.070  -0.598  1.00  0.00     0.028 C 
HETATM   10  C10 UNL     1      -0.686   0.812  -1.148  1.00  0.00     0.034 C 
HETATM   11  C11 UNL     1      -1.756   0.434   0.889  1.00  0.00     0.093 C 
HETATM   12  O1  UNL     1      -0.357   0.451   1.108  1.00  0.00    -0.360 OA
HETATM   13  C12 UNL     1      -2.266   1.852   1.135  1.00  0.00     0.030 C 
HETATM   14  C13 UNL     1      -2.408  -0.547   1.858  1.00  0.00     0.030 C 
HETATM   15  C14 UNL     1       1.297  -1.234  -1.838  1.00  0.00     0.003 C 
HETATM   16  C15 UNL     1       1.383   2.770  -0.178  1.00  0.00     0.028 C 
ENDROOT
TORSDOF 0
