REMARK  5 active torsions:
REMARK  status: ('A' for Active; 'I' for Inactive)
REMARK    1  A    between atoms: C9_10  and  C39_46 
REMARK    2  A    between atoms: C11_12  and  C18_20 
REMARK    3  A    between atoms: C26_29  and  C37_41 
REMARK    4  A    between atoms: C28_31  and  C35_39 
REMARK    5  A    between atoms: C37_41  and  O2_43 
ROOT
HETATM    1  C18 UNL     1       0.840   0.717   1.400  1.00  0.00     0.023 A 
HETATM    2  C19 UNL     1       1.227   0.364   2.709  1.00  0.00     0.130 A 
HETATM    3  C20 UNL     1       1.694  -0.930   2.967  1.00  0.00     0.046 A 
HETATM    4  C21 UNL     1       1.814  -1.833   1.914  1.00  0.00     0.079 A 
HETATM    5  C22 UNL     1       1.431  -1.499   0.607  1.00  0.00     0.002 A 
HETATM    6  C23 UNL     1       0.943  -0.220   0.357  1.00  0.00    -0.003 A 
HETATM    7  C24 UNL     1       1.808  -2.599  -0.364  1.00  0.00     0.087 C 
HETATM    8  C25 UNL     1       1.897  -3.693   0.672  1.00  0.00     0.065 C 
HETATM    9  N3  UNL     1       2.170  -3.192   1.952  1.00  0.00    -0.250 NA
HETATM   10  C26 UNL     1       1.343  -4.931   0.528  1.00  0.00     0.055 C 
HETATM   11  C27 UNL     1       0.424  -5.221  -0.658  1.00  0.00     0.039 C 
HETATM   12  C28 UNL     1      -0.177  -3.936  -1.297  1.00  0.00     0.053 C 
HETATM   13  C29 UNL     1       1.061  -3.099  -1.586  1.00  0.00     0.232 C 
HETATM   14  N4  UNL     1       0.963  -1.945  -2.428  1.00  0.00     0.140 N 
HETATM   15  C30 UNL     1       0.438  -2.258  -3.747  1.00  0.00     0.276 C 
HETATM   16  C31 UNL     1      -0.555  -3.402  -3.716  1.00  0.00     0.004 C 
HETATM   17  C32 UNL     1      -0.810  -4.176  -2.649  1.00  0.00    -0.027 C 
HETATM   18  C33 UNL     1       2.335  -1.423  -2.395  1.00  0.00     0.251 C 
HETATM   19  C34 UNL     1       3.018  -2.020  -1.124  1.00  0.00     0.047 C 
HETATM   20  O3  UNL     1       1.109   1.234   3.748  1.00  0.00    -0.190 OA
ENDROOT
BRANCH   1  21
HETATM   21  C11 UNL     1       0.339   2.122   1.124  1.00  0.00     0.110 C 
HETATM   22  C10 UNL     1       0.880   2.757  -0.181  1.00  0.00     0.034 C 
HETATM   23  C9  UNL     1       0.545   4.266  -0.386  1.00  0.00     0.055 C 
HETATM   24  C4  UNL     1      -0.835   4.660   0.224  1.00  0.00     0.261 C 
HETATM   25  C8  UNL     1       0.518   4.570  -1.874  1.00  0.00    -0.027 C 
HETATM   26  C3  UNL     1      -1.597   3.413   0.560  1.00  0.00     0.065 A 
HETATM   27  N1  UNL     1      -1.687   5.642  -0.465  1.00  0.00     0.146 N 
HETATM   28  C2  UNL     1      -2.950   3.248   0.453  1.00  0.00    -0.005 A 
HETATM   29  N2  UNL     1      -1.119   2.217   1.035  1.00  0.00    -0.328 N 
HETATM   30  C1  UNL     1      -3.789   4.317  -0.155  1.00  0.00     0.063 C 
HETATM   31  C13 UNL     1      -3.282   1.930   0.892  1.00  0.00     0.013 A 
HETATM   32  C5  UNL     1      -2.860   5.070  -1.127  1.00  0.00     0.256 C 
HETATM   33  C12 UNL     1      -2.096   1.273   1.269  1.00  0.00     0.060 A 
HETATM   34  C14 UNL     1      -4.539   1.276   0.965  1.00  0.00     0.001 A 
HETATM   35  C17 UNL     1      -2.139  -0.065   1.742  1.00  0.00     0.017 A 
HETATM   36  C16 UNL     1      -3.368  -0.684   1.823  1.00  0.00     0.002 A 
HETATM   37  C15 UNL     1      -4.564  -0.021   1.430  1.00  0.00     0.000 A 
HETATM   38  C6  UNL     1      -0.941   6.483  -1.389  1.00  0.00     0.277 C 
HETATM   39  C7  UNL     1      -0.153   5.630  -2.341  1.00  0.00     0.004 C 
BRANCH  23  40
HETATM   40  C39 UNL     1       1.712   5.139   0.165  1.00  0.00     0.006 C 
HETATM   41  C40 UNL     1       2.164   4.899   1.613  1.00  0.00     0.000 C 
ENDBRANCH  23  40
ENDBRANCH   1  21
BRANCH  10  42
HETATM   42  C37 UNL     1       1.401  -5.916   1.652  1.00  0.00     0.293 C 
HETATM   43  O1  UNL     1       0.383  -6.586   1.817  1.00  0.00    -0.259 OA
BRANCH  42  44
HETATM   44  O2  UNL     1       2.470  -6.176   2.466  1.00  0.00    -0.296 OA
HETATM   45  C38 UNL     1       3.747  -5.651   2.186  1.00  0.00     0.185 C 
ENDBRANCH  42  44
ENDBRANCH  10  42
BRANCH  12  46
HETATM   46  C35 UNL     1      -1.196  -3.218  -0.386  1.00  0.00     0.006 C 
HETATM   47  C36 UNL     1      -2.518  -3.974  -0.179  1.00  0.00     0.000 C 
ENDBRANCH  12  46
TORSDOF 5
