REMARK  0 active torsions:
REMARK  status: ('A' for Active; 'I' for Inactive)
ROOT
HETATM    1  C1  UNL     1      -3.951  -2.060  -0.446  1.00  0.00     0.135 A 
HETATM    2  C2  UNL     1      -2.716  -2.711  -0.481  1.00  0.00     0.052 A 
HETATM    3  C3  UNL     1      -1.493  -2.032  -0.521  1.00  0.00     0.109 A 
HETATM    4  C4  UNL     1      -1.542  -0.623  -0.518  1.00  0.00     0.070 A 
HETATM    5  C5  UNL     1      -2.761   0.077  -0.477  1.00  0.00     0.137 A 
HETATM    6  C6  UNL     1      -3.945  -0.663  -0.448  1.00  0.00     0.055 A 
HETATM    7  O1  UNL     1      -2.823   1.435  -0.490  1.00  0.00    -0.190 OA
HETATM    8  C7  UNL     1      -0.259   0.071  -0.585  1.00  0.00     0.100 A 
HETATM    9  C8  UNL     1       0.900  -0.613  -0.687  1.00  0.00     0.070 A 
HETATM   10  C9  UNL     1       0.845  -2.083  -0.695  1.00  0.00     0.298 A 
HETATM   11  O2  UNL     1      -0.332  -2.761  -0.567  1.00  0.00    -0.273 OA
HETATM   12  O3  UNL     1       1.903  -2.697  -0.821  1.00  0.00    -0.259 OA
HETATM   13  C10 UNL     1       2.078   0.308  -0.808  1.00  0.00     0.086 A 
HETATM   14  C11 UNL     1       1.362   1.677  -0.807  1.00  0.00     0.154 A 
HETATM   15  O4  UNL     1      -0.029   1.428  -0.606  1.00  0.00    -0.328 OA
HETATM   16  C12 UNL     1       1.873   2.655   0.211  1.00  0.00     0.034 A 
HETATM   17  C13 UNL     1       2.819   2.384   1.131  1.00  0.00     0.154 A 
HETATM   18  C14 UNL     1       3.424   1.054   1.192  1.00  0.00     0.152 A 
HETATM   19  C15 UNL     1       3.066   0.107   0.304  1.00  0.00     0.011 A 
HETATM   20  O5  UNL     1       4.358   0.797   2.144  1.00  0.00    -0.188 OA
HETATM   21  O6  UNL     1       3.226   3.315   2.034  1.00  0.00    -0.188 OA
HETATM   22  O7  UNL     1      -5.120  -2.754  -0.425  1.00  0.00    -0.190 OA
ENDROOT
TORSDOF 0
