REMARK  3 active torsions:
REMARK  status: ('A' for Active; 'I' for Inactive)
REMARK    1  A    between atoms: C2_2  and  O7_22 
REMARK    2  A    between atoms: O7_22  and  C16_23 
REMARK    3  A    between atoms: C17_25  and  C21_32 
ROOT
HETATM    1  C1  UNL     1       0.636  -1.958   0.174  1.00  0.00     0.052 A 
HETATM    2  C2  UNL     1       1.168  -0.667   0.043  1.00  0.00     0.101 A 
HETATM    3  C3  UNL     1       0.220   0.360  -0.065  1.00  0.00     0.049 A 
HETATM    4  C4  UNL     1      -1.167   0.156  -0.082  1.00  0.00     0.109 A 
HETATM    5  C5  UNL     1      -1.624  -1.175   0.012  1.00  0.00     0.071 A 
HETATM    6  C6  UNL     1      -0.728  -2.247   0.154  1.00  0.00     0.137 A 
HETATM    7  O1  UNL     1      -1.147  -3.535   0.271  1.00  0.00    -0.190 OA
HETATM    8  C7  UNL     1      -3.066  -1.383  -0.042  1.00  0.00     0.109 A 
HETATM    9  C8  UNL     1      -3.889  -0.303  -0.148  1.00  0.00     0.088 A 
HETATM   10  C9  UNL     1      -3.337   1.057  -0.217  1.00  0.00     0.302 A 
HETATM   11  O2  UNL     1      -1.987   1.255  -0.198  1.00  0.00    -0.273 OA
HETATM   12  O3  UNL     1      -4.108   2.012  -0.290  1.00  0.00    -0.259 OA
HETATM   13  C10 UNL     1      -5.247  -0.780  -0.181  1.00  0.00     0.032 A 
HETATM   14  C11 UNL     1      -5.115  -2.166  -0.092  1.00  0.00     0.102 A 
HETATM   15  O4  UNL     1      -3.790  -2.558  -0.006  1.00  0.00    -0.307 OA
HETATM   16  C12 UNL     1      -6.256  -2.980  -0.102  1.00  0.00     0.054 A 
HETATM   17  C13 UNL     1      -7.511  -2.383  -0.201  1.00  0.00     0.158 A 
HETATM   18  C14 UNL     1      -7.636  -0.975  -0.291  1.00  0.00     0.156 A 
HETATM   19  C15 UNL     1      -6.505  -0.166  -0.281  1.00  0.00     0.032 A 
HETATM   20  O5  UNL     1      -8.882  -0.438  -0.390  1.00  0.00    -0.188 OA
HETATM   21  O6  UNL     1      -8.633  -3.148  -0.220  1.00  0.00    -0.188 OA
ENDROOT
BRANCH   2  22
HETATM   22  O7  UNL     1       2.534  -0.538   0.085  1.00  0.00    -0.303 OA
BRANCH  22  23
HETATM   23  C16 UNL     1       3.168   0.718   0.203  1.00  0.00     0.274 C 
HETATM   24  O8  UNL     1       3.999   0.811  -0.936  1.00  0.00    -0.326 OA
HETATM   25  C17 UNL     1       4.753   1.997  -0.962  1.00  0.00     0.184 C 
HETATM   26  C18 UNL     1       5.646   2.074   0.272  1.00  0.00     0.215 C 
HETATM   27  C19 UNL     1       4.804   1.990   1.529  1.00  0.00     0.220 C 
HETATM   28  O11 UNL     1       6.354   3.287   0.315  1.00  0.00    -0.218 OA
HETATM   29  C20 UNL     1       4.000   0.713   1.464  1.00  0.00     0.241 C 
HETATM   30  O10 UNL     1       5.642   1.973   2.656  1.00  0.00    -0.218 OA
HETATM   31  O9  UNL     1       3.140   0.638   2.572  1.00  0.00    -0.215 OA
BRANCH  25  32
HETATM   32  C21 UNL     1       5.570   2.023  -2.246  1.00  0.00     0.214 C 
HETATM   33  O12 UNL     1       4.706   2.140  -3.359  1.00  0.00    -0.218 OA
ENDBRANCH  25  32
ENDBRANCH  22  23
ENDBRANCH   2  22
TORSDOF 3
