REMARK  1 active torsions:
REMARK  status: ('A' for Active; 'I' for Inactive)
REMARK    1  A    between atoms: C3_3  and  C14_18 
ROOT
HETATM    1  C1  UNL     1      -0.177   0.107   1.059  1.00  0.00     0.249 C 
HETATM    2  C2  UNL     1      -0.428  -1.390   0.889  1.00  0.00     0.156 C 
HETATM    3  C3  UNL     1      -0.425  -1.661  -0.625  1.00  0.00     0.042 C 
HETATM    4  C4  UNL     1       1.075  -1.397  -0.862  1.00  0.00     0.117 C 
HETATM    5  C5  UNL     1       1.636   0.032  -0.641  1.00  0.00     0.138 C 
HETATM    6  C6  UNL     1       1.264   0.559   0.746  1.00  0.00     0.060 C 
HETATM    7  C7  UNL     1       0.986   2.072   0.701  1.00  0.00     0.038 C 
HETATM    8  C8  UNL     1       0.569   2.293  -0.767  1.00  0.00     0.005 C 
HETATM    9  C9  UNL     1       1.222   1.162  -1.594  1.00  0.00     0.031 C 
HETATM   10  C10 UNL     1      -0.101   2.233   1.802  1.00  0.00     0.250 C 
HETATM   11  N1  UNL     1      -0.483   0.880   2.236  1.00  0.00     0.140 N 
HETATM   12  C11 UNL     1      -1.850   0.785   2.706  1.00  0.00     0.285 C 
HETATM   13  C12 UNL     1       2.322   0.318   1.851  1.00  0.00     0.005 C 
HETATM   14  O1  UNL     1       3.034  -0.075  -0.738  1.00  0.00    -0.225 OA
HETATM   15  C13 UNL     1       1.556  -2.281   0.295  1.00  0.00     0.274 C 
HETATM   16  O2  UNL     1       0.665  -2.143   1.326  1.00  0.00    -0.302 OA
HETATM   17  O3  UNL     1       2.552  -2.968   0.327  1.00  0.00    -0.264 OA
ENDROOT
BRANCH   3  18
HETATM   18  C14 UNL     1      -1.474  -1.007  -1.547  1.00  0.00     0.003 C 
HETATM   19  C15 UNL     1      -1.382  -1.571  -2.977  1.00  0.00     0.000 C 
HETATM   20  C16 UNL     1      -2.899  -1.215  -1.001  1.00  0.00     0.000 C 
ENDBRANCH   3  18
TORSDOF 1
