REMARK  4 active torsions:
REMARK  status: ('A' for Active; 'I' for Inactive)
REMARK    1  A    between atoms: C1_1  and  C2_3 
REMARK    2  A    between atoms: C1_1  and  O4_23 
REMARK    3  A    between atoms: C2_3  and  C3_4 
REMARK    4  A    between atoms: C12_14  and  C15_19 
ROOT
HETATM    1  C3  UNL     1      -1.018   0.457   1.397  1.00  0.00     0.229 C 
HETATM    2  N1  UNL     1      -1.783  -0.043   0.247  1.00  0.00     0.138 N 
HETATM    3  C4  UNL     1      -2.783   0.893  -0.249  1.00  0.00     0.285 C 
HETATM    4  C5  UNL     1      -0.789  -0.361  -0.785  1.00  0.00     0.247 C 
HETATM    5  C6  UNL     1       0.420   0.571  -0.527  1.00  0.00     0.034 C 
HETATM    6  C7  UNL     1       1.745  -0.180  -0.225  1.00  0.00     0.011 C 
HETATM    7  C8  UNL     1       2.202   0.289   1.174  1.00  0.00     0.001 C 
HETATM    8  C9  UNL     1       1.395   1.553   1.481  1.00  0.00     0.002 C 
HETATM    9  C10 UNL     1       0.060   1.346   0.763  1.00  0.00     0.034 C 
HETATM   10  C11 UNL     1       1.715  -1.718  -0.358  1.00  0.00     0.089 C 
HETATM   11  C12 UNL     1       0.833  -2.218  -1.508  1.00  0.00     0.039 C 
HETATM   12  C13 UNL     1      -0.494  -1.875  -0.835  1.00  0.00     0.156 C 
HETATM   13  O2  UNL     1      -0.348  -2.403   0.453  1.00  0.00    -0.302 OA
HETATM   14  C14 UNL     1       0.968  -2.396   0.783  1.00  0.00     0.271 C 
HETATM   15  O3  UNL     1       1.439  -2.856   1.799  1.00  0.00    -0.264 OA
HETATM   16  C18 UNL     1       0.598   1.656  -1.620  1.00  0.00     0.002 C 
ENDROOT
BRANCH   1  17
HETATM   17  C2  UNL     1      -1.870   1.125   2.496  1.00  0.00     0.129 C 
BRANCH  17  18
HETATM   18  C1  UNL     1      -1.195   1.246   3.859  1.00  0.00     0.274 C 
HETATM   19  O1  UNL     1      -0.202   0.611   4.147  1.00  0.00    -0.264 OA
BRANCH  18  20
HETATM   20  O4  UNL     1      -1.774   2.099   4.753  1.00  0.00    -0.299 OA
HETATM   21  C19 UNL     1      -2.955   2.803   4.450  1.00  0.00     0.184 C 
ENDBRANCH  18  20
ENDBRANCH  17  18
ENDBRANCH   1  17
BRANCH  11  22
HETATM   22  C15 UNL     1       1.109  -1.747  -2.941  1.00  0.00     0.003 C 
HETATM   23  C16 UNL     1       0.097  -2.350  -3.931  1.00  0.00     0.000 C 
HETATM   24  C17 UNL     1       2.542  -2.100  -3.372  1.00  0.00     0.000 C 
ENDBRANCH  11  22
TORSDOF 4
