REMARK  3 active torsions:
REMARK  status: ('A' for Active; 'I' for Inactive)
REMARK    1  A    between atoms: C2_2  and  C3_3 
REMARK    2  A    between atoms: C2_2  and  C18_22 
REMARK    3  A    between atoms: C4_4  and  O1_5 
ROOT
HETATM    1  C3  UNL     1      -1.338  -0.467  -0.063  1.00  0.00     0.026 C 
HETATM    2  C4  UNL     1      -0.747   0.737   0.385  1.00  0.00     0.094 C 
HETATM    3  C6  UNL     1       0.642   0.759   0.624  1.00  0.00     0.044 C 
HETATM    4  C7  UNL     1       1.489  -0.297   0.269  1.00  0.00     0.098 C 
HETATM    5  C8  UNL     1       0.886  -1.418  -0.325  1.00  0.00     0.045 A 
HETATM    6  C9  UNL     1      -0.509  -1.533  -0.481  1.00  0.00     0.103 A 
HETATM    7  O2  UNL     1      -1.065  -2.658  -1.025  1.00  0.00    -0.273 OA
HETATM    8  C10 UNL     1      -0.263  -3.669  -1.449  1.00  0.00     0.300 A 
HETATM    9  C11 UNL     1       1.205  -3.622  -1.307  1.00  0.00     0.069 A 
HETATM   10  C12 UNL     1       1.752  -2.520  -0.757  1.00  0.00     0.009 A 
HETATM   11  O3  UNL     1      -0.756  -4.670  -1.964  1.00  0.00    -0.259 OA
HETATM   12  O4  UNL     1       2.851  -0.219   0.407  1.00  0.00    -0.332 OA
HETATM   13  C13 UNL     1       3.409   1.067   0.368  1.00  0.00     0.117 C 
HETATM   14  C14 UNL     1       2.619   2.006   1.244  1.00  0.00     0.001 C 
HETATM   15  C15 UNL     1       1.285   1.872   1.339  1.00  0.00     0.002 C 
HETATM   16  C16 UNL     1       4.854   0.956   0.864  1.00  0.00     0.035 C 
HETATM   17  C17 UNL     1       3.394   1.580  -1.078  1.00  0.00     0.035 C 
ENDROOT
BRANCH   1  18
HETATM   18  C2  UNL     1      -2.881  -0.549  -0.162  1.00  0.00     0.041 C 
HETATM   19  C1  UNL     1      -3.338   0.233  -1.412  1.00  0.00     0.009 C 
HETATM   20  C20 UNL     1      -3.532  -1.950  -0.266  1.00  0.00     0.009 C 
BRANCH  18  21
HETATM   21  C18 UNL     1      -3.506   0.025   1.102  1.00  0.00    -0.023 C 
HETATM   22  C19 UNL     1      -3.195  -0.385   2.340  1.00  0.00    -0.005 C 
ENDBRANCH  18  21
ENDBRANCH   1  18
BRANCH   2  23
HETATM   23  O1  UNL     1      -1.514   1.820   0.743  1.00  0.00    -0.328 OA
HETATM   24  C5  UNL     1      -1.343   2.966  -0.066  1.00  0.00     0.181 C 
ENDBRANCH   2  23
TORSDOF 3
