REMARK  1 active torsions:
REMARK  status: ('A' for Active; 'I' for Inactive)
REMARK    1  A    between atoms: C9_9  and  C12_12 
ROOT
HETATM    1  C1  UNL     1      -2.807   0.359   1.621  1.00  0.00    -0.035 C 
HETATM    2  C2  UNL     1      -3.717  -0.613   0.906  1.00  0.00     0.025 C 
HETATM    3  C3  UNL     1      -2.959  -1.652   0.070  1.00  0.00     0.005 C 
HETATM    4  C4  UNL     1      -1.830  -0.998  -0.742  1.00  0.00     0.004 C 
HETATM    5  C5  UNL     1      -0.814  -0.348   0.236  1.00  0.00     0.015 C 
HETATM    6  C6  UNL     1      -1.498   0.492   1.312  1.00  0.00    -0.049 C 
HETATM    7  C7  UNL     1      -0.674   1.506   2.068  1.00  0.00     0.026 C 
HETATM    8  C8  UNL     1       0.225   0.459  -0.576  1.00  0.00     0.006 C 
HETATM    9  C9  UNL     1       1.578   0.170   0.060  1.00  0.00     0.028 C 
HETATM   10  C10 UNL     1       1.449  -1.332   0.262  1.00  0.00     0.003 C 
HETATM   11  C11 UNL     1       0.066  -1.442   0.890  1.00  0.00     0.004 C 
HETATM   12  C15 UNL     1      -2.398   0.035  -1.729  1.00  0.00     0.000 C 
ENDROOT
BRANCH   9  13
HETATM   13  C12 UNL     1       2.742   0.535  -0.856  1.00  0.00     0.127 C 
HETATM   14  C13 UNL     1       2.695   2.031  -1.168  1.00  0.00     0.033 C 
HETATM   15  O1  UNL     1       2.604  -0.174  -2.065  1.00  0.00    -0.226 OA
HETATM   16  C14 UNL     1       4.059   0.111  -0.201  1.00  0.00     0.033 C 
ENDBRANCH   9  13
TORSDOF 1
