REMARK  5 active torsions:
REMARK  status: ('A' for Active; 'I' for Inactive)
REMARK    1  A    between atoms: C3_3  and  O4_10 
REMARK    2  A    between atoms: C4_5  and  C6_8 
REMARK    3  A    between atoms: O4_10  and  C7_11 
REMARK    4  A    between atoms: C9_14  and  C16_21 
REMARK    5  A    between atoms: C16_21  and  O6_22 
ROOT
HETATM    1  C7  UNL     1      -0.146   1.282  -0.104  1.00  0.00     0.242 C 
HETATM    2  O5  UNL     1      -0.360   2.612  -0.533  1.00  0.00    -0.304 OA
HETATM    3  C8  UNL     1       0.707   3.445  -0.686  1.00  0.00     0.120 C 
HETATM    4  C9  UNL     1       1.996   3.123  -0.459  1.00  0.00     0.065 C 
HETATM    5  C10 UNL     1       2.336   1.727  -0.013  1.00  0.00     0.035 C 
HETATM    6  C11 UNL     1       1.236   0.743  -0.461  1.00  0.00     0.061 C 
HETATM    7  C12 UNL     1       1.578  -0.545   0.322  1.00  0.00     0.005 C 
HETATM    8  C13 UNL     1       2.370  -0.090   1.563  1.00  0.00     0.001 C 
HETATM    9  C14 UNL     1       2.415   1.443   1.495  1.00  0.00     0.005 C 
HETATM   10  C15 UNL     1       2.366  -1.548  -0.534  1.00  0.00     0.000 C 
ENDROOT
BRANCH   1  11
HETATM   11  O4  UNL     1      -1.180   0.622  -0.818  1.00  0.00    -0.304 OA
BRANCH  11  12
HETATM   12  C3  UNL     1      -1.806  -0.450  -0.145  1.00  0.00     0.272 C 
HETATM   13  C2  UNL     1      -3.303  -0.271  -0.237  1.00  0.00     0.241 C 
HETATM   14  C1  UNL     1      -3.966  -1.476   0.391  1.00  0.00     0.220 C 
HETATM   15  O8  UNL     1      -3.680   0.884   0.468  1.00  0.00    -0.215 OA
HETATM   16  C5  UNL     1      -3.478  -2.715  -0.330  1.00  0.00     0.215 C 
HETATM   17  O9  UNL     1      -5.360  -1.373   0.263  1.00  0.00    -0.218 OA
HETATM   18  C4  UNL     1      -1.953  -2.783  -0.314  1.00  0.00     0.184 C 
HETATM   19  O2  UNL     1      -4.038  -3.833   0.313  1.00  0.00    -0.218 OA
HETATM   20  O1  UNL     1      -1.414  -1.605  -0.858  1.00  0.00    -0.326 OA
BRANCH  18  21
HETATM   21  C6  UNL     1      -1.449  -3.966  -1.129  1.00  0.00     0.214 C 
HETATM   22  O3  UNL     1      -0.043  -4.066  -1.018  1.00  0.00    -0.218 OA
ENDBRANCH  18  21
ENDBRANCH  11  12
ENDBRANCH   1  11
BRANCH   4  23
HETATM   23  C16 UNL     1       3.013   4.154  -0.875  1.00  0.00     0.294 C 
HETATM   24  O7  UNL     1       2.738   4.757  -1.911  1.00  0.00    -0.259 OA
BRANCH  23  25
HETATM   25  O6  UNL     1       4.212   4.449  -0.291  1.00  0.00    -0.296 OA
HETATM   26  C17 UNL     1       4.564   3.868   0.933  1.00  0.00     0.185 C 
ENDBRANCH  23  25
ENDBRANCH   4  23
TORSDOF 5
