REMARK  1 active torsions:
REMARK  status: ('A' for Active; 'I' for Inactive)
REMARK    1  A    between atoms: C9_10  and  C10_11 
ROOT
HETATM    1  C1  UNL     1      -2.019  -1.553   1.683  1.00  0.00     0.004 C 
HETATM    2  C2  UNL     1      -0.536  -1.714   2.041  1.00  0.00     0.034 C 
HETATM    3  C3  UNL     1       0.281  -1.629   0.743  1.00  0.00     0.251 C 
HETATM    4  N1  UNL     1       0.089  -0.371   0.026  1.00  0.00     0.137 N 
HETATM    5  C4  UNL     1      -1.305  -0.126  -0.326  1.00  0.00     0.220 C 
HETATM    6  C5  UNL     1      -2.237  -0.256   0.900  1.00  0.00     0.033 C 
HETATM    7  C6  UNL     1      -1.492   1.287  -0.944  1.00  0.00     0.031 C 
HETATM    8  C7  UNL     1      -0.227   1.795  -1.657  1.00  0.00     0.004 C 
HETATM    9  C8  UNL     1       0.522   0.607  -2.253  1.00  0.00     0.038 C 
HETATM   10  C9  UNL     1       0.990  -0.337  -1.131  1.00  0.00     0.243 C 
HETATM   11  C14 UNL     1      -2.710   1.326  -1.887  1.00  0.00     0.002 C 
HETATM   12  C15 UNL     1      -0.048  -0.691   3.080  1.00  0.00     0.002 C 
ENDROOT
BRANCH  10  13
HETATM   13  C10 UNL     1       2.366   0.078  -0.676  1.00  0.00     0.035 A 
HETATM   14  C11 UNL     1       2.695   0.996   0.375  1.00  0.00     0.026 A 
HETATM   15  C12 UNL     1       4.055   1.049   0.415  1.00  0.00     0.122 A 
HETATM   16  O1  UNL     1       4.603   0.234  -0.531  1.00  0.00    -0.303 OA
HETATM   17  C13 UNL     1       3.557  -0.348  -1.183  1.00  0.00     0.120 A 
ENDBRANCH  10  13
TORSDOF 1
