REMARK  4 active torsions:
REMARK  status: ('A' for Active; 'I' for Inactive)
REMARK    1  A    between atoms: C1_1  and  C5_7 
REMARK    2  A    between atoms: C5_7  and  C6_8 
REMARK    3  A    between atoms: C6_8  and  C7_10 
REMARK    4  A    between atoms: C14_17  and  C19_23 
ROOT
HETATM    1  C7  UNL     1      -1.281   0.568   0.725  1.00  0.00     0.076 C 
HETATM    2  C8  UNL     1      -0.170  -0.074  -0.173  1.00  0.00     0.010 C 
HETATM    3  C9  UNL     1      -0.384   0.415  -1.635  1.00  0.00     0.006 C 
HETATM    4  C10 UNL     1      -1.789   0.083  -2.196  1.00  0.00     0.004 C 
HETATM    5  C11 UNL     1      -2.861  -0.195  -1.132  1.00  0.00     0.022 C 
HETATM    6  C12 UNL     1      -2.630   0.696   0.052  1.00  0.00    -0.038 C 
HETATM    7  C13 UNL     1      -3.566   1.554   0.491  1.00  0.00    -0.009 C 
HETATM    8  C14 UNL     1       0.805   0.230  -2.635  1.00  0.00     0.059 C 
HETATM    9  C15 UNL     1       2.050   0.868  -1.973  1.00  0.00     0.154 C 
HETATM   10  C16 UNL     1       2.371   0.274  -0.604  1.00  0.00     0.033 C 
HETATM   11  C17 UNL     1       1.191   0.451   0.359  1.00  0.00     0.003 C 
HETATM   12  O4  UNL     1       3.189   0.748  -2.794  1.00  0.00    -0.223 OA
HETATM   13  C18 UNL     1       0.499   1.025  -3.932  1.00  0.00     0.005 C 
HETATM   14  C20 UNL     1      -0.170  -1.618  -0.104  1.00  0.00     0.001 C 
ENDROOT
BRANCH   1  15
HETATM   15  C6  UNL     1      -1.447  -0.019   2.126  1.00  0.00     0.158 C 
HETATM   16  O3  UNL     1      -2.157  -0.981   2.324  1.00  0.00    -0.295 OA
BRANCH  15  17
HETATM   17  C5  UNL     1      -0.782   0.672   3.310  1.00  0.00     0.096 C 
BRANCH  17  18
HETATM   18  C1  UNL     1       0.260  -0.136   4.022  1.00  0.00     0.046 A 
HETATM   19  C2  UNL     1       0.748  -1.352   3.733  1.00  0.00     0.008 A 
HETATM   20  C3  UNL     1       1.805  -1.756   4.729  1.00  0.00     0.178 A 
HETATM   21  O1  UNL     1       1.906  -0.680   5.656  1.00  0.00    -0.294 OA
HETATM   22  C4  UNL     1       1.006   0.255   5.235  1.00  0.00     0.292 A 
HETATM   23  O2  UNL     1       0.830   1.327   5.803  1.00  0.00    -0.259 OA
ENDBRANCH  17  18
ENDBRANCH  15  17
ENDBRANCH   1  15
BRANCH   8  24
HETATM   24  C19 UNL     1       1.148  -1.214  -3.059  1.00  0.00     0.185 C 
HETATM   25  O5  UNL     1       0.072  -1.890  -3.671  1.00  0.00    -0.221 OA
ENDBRANCH   8  24
TORSDOF 4
