REMARK  7 active torsions:
REMARK  status: ('A' for Active; 'I' for Inactive)
REMARK    1  A    between atoms: C1_1  and  C22_31 
REMARK    2  A    between atoms: C5_5  and  O2_7 
REMARK    3  A    between atoms: O2_7  and  C6_8 
REMARK    4  A    between atoms: C12_15  and  C15_19 
REMARK    5  A    between atoms: C18_22  and  O5_25 
REMARK    6  A    between atoms: C22_31  and  O10_32 
REMARK    7  A    between atoms: O10_32  and  C23_33 
ROOT
HETATM    1  C6  UNL     1      -1.428  -0.355  -1.139  1.00  0.00     0.101 A 
HETATM    2  C7  UNL     1      -1.273  -1.664  -0.621  1.00  0.00     0.052 A 
HETATM    3  C8  UNL     1       0.020  -2.201  -0.414  1.00  0.00     0.138 A 
HETATM    4  C9  UNL     1       1.160  -1.418  -0.729  1.00  0.00     0.087 A 
HETATM    5  C10 UNL     1       1.008  -0.105  -1.246  1.00  0.00     0.107 A 
HETATM    6  C11 UNL     1      -0.287   0.422  -1.451  1.00  0.00     0.049 A 
HETATM    7  O3  UNL     1       2.096   0.643  -1.545  1.00  0.00    -0.307 OA
HETATM    8  C12 UNL     1       3.363   0.213  -1.379  1.00  0.00     0.103 A 
HETATM    9  C13 UNL     1       3.629  -1.021  -0.893  1.00  0.00     0.067 A 
HETATM   10  C14 UNL     1       2.537  -1.947  -0.525  1.00  0.00     0.202 A 
HETATM   11  O4  UNL     1       2.854  -3.035  -0.100  1.00  0.00    -0.286 OA
HETATM   12  O6  UNL     1       0.147  -3.441   0.076  1.00  0.00    -0.190 OA
ENDROOT
BRANCH   1  13
HETATM   13  O2  UNL     1      -2.654   0.149  -1.334  1.00  0.00    -0.303 OA
BRANCH  13  14
HETATM   14  C5  UNL     1      -3.732  -0.418  -0.600  1.00  0.00     0.274 C 
HETATM   15  C4  UNL     1      -5.039   0.340  -0.912  1.00  0.00     0.241 C 
HETATM   16  C3  UNL     1      -6.201  -0.160  -0.025  1.00  0.00     0.220 C 
HETATM   17  O7  UNL     1      -5.357   0.147  -2.279  1.00  0.00    -0.215 OA
HETATM   18  C2  UNL     1      -5.764  -0.160   1.455  1.00  0.00     0.215 C 
HETATM   19  O8  UNL     1      -7.332   0.678  -0.195  1.00  0.00    -0.218 OA
HETATM   20  C1  UNL     1      -4.418  -0.894   1.646  1.00  0.00     0.181 C 
HETATM   21  O9  UNL     1      -6.748  -0.801   2.246  1.00  0.00    -0.218 OA
HETATM   22  O1  UNL     1      -3.439  -0.322   0.787  1.00  0.00    -0.326 OA
BRANCH  20  23
HETATM   23  C22 UNL     1      -3.871  -0.785   3.074  1.00  0.00     0.184 C 
BRANCH  23  24
HETATM   24  O10 UNL     1      -2.584  -1.381   3.137  1.00  0.00    -0.299 OA
BRANCH  24  25
HETATM   25  C23 UNL     1      -2.055  -1.316   4.355  1.00  0.00     0.273 C 
HETATM   26  C24 UNL     1      -0.689  -1.932   4.492  1.00  0.00     0.106 C 
HETATM   27  O11 UNL     1      -2.607  -0.807   5.303  1.00  0.00    -0.264 OA
ENDBRANCH  24  25
ENDBRANCH  23  24
ENDBRANCH  20  23
ENDBRANCH  13  14
ENDBRANCH   1  13
BRANCH   8  28
HETATM   28  C15 UNL     1       4.504   1.108  -1.733  1.00  0.00     0.023 A 
HETATM   29  C16 UNL     1       4.336   2.113  -2.701  1.00  0.00     0.004 A 
HETATM   30  C17 UNL     1       5.410   2.955  -3.035  1.00  0.00     0.024 A 
HETATM   31  C18 UNL     1       6.656   2.799  -2.402  1.00  0.00     0.094 A 
HETATM   32  C19 UNL     1       6.822   1.793  -1.434  1.00  0.00     0.024 A 
HETATM   33  C20 UNL     1       5.748   0.949  -1.098  1.00  0.00     0.004 A 
BRANCH  31  34
HETATM   34  O5  UNL     1       7.662   3.588  -2.715  1.00  0.00    -0.328 OA
HETATM   35  C21 UNL     1       8.871   3.449  -1.984  1.00  0.00     0.181 C 
ENDBRANCH  31  34
ENDBRANCH   8  28
TORSDOF 7
