REMARK  4 active torsions:
REMARK  status: ('A' for Active; 'I' for Inactive)
REMARK    1  A    between atoms: C4_4  and  O4_18 
REMARK    2  A    between atoms: O4_18  and  C15_19 
REMARK    3  A    between atoms: C15_19  and  C16_20 
REMARK    4  A    between atoms: C16_20  and  C19_23 
ROOT
HETATM    1  C1  UNL     1      -1.787   2.341  -1.500  1.00  0.00    -0.032 C 
HETATM    2  C2  UNL     1      -1.034   2.025  -0.426  1.00  0.00    -0.046 C 
HETATM    3  C3  UNL     1       0.480   2.141  -0.471  1.00  0.00     0.052 C 
HETATM    4  C4  UNL     1       1.311   0.845  -0.399  1.00  0.00     0.135 C 
HETATM    5  C5  UNL     1       1.169  -0.122  -1.589  1.00  0.00     0.088 C 
HETATM    6  C6  UNL     1      -0.109  -0.999  -1.654  1.00  0.00     0.152 C 
HETATM    7  C7  UNL     1      -1.255  -0.295  -2.330  1.00  0.00    -0.002 C 
HETATM    8  C8  UNL     1      -2.547  -0.297  -1.950  1.00  0.00    -0.016 C 
HETATM    9  C9  UNL     1      -3.467   0.778  -2.493  1.00  0.00     0.175 C 
HETATM   10  C10 UNL     1      -3.266   2.070  -1.685  1.00  0.00     0.062 C 
HETATM   11  O1  UNL     1      -3.196   1.017  -3.863  1.00  0.00    -0.219 OA
HETATM   12  C11 UNL     1      -3.134  -1.180  -0.877  1.00  0.00     0.029 C 
HETATM   13  O2  UNL     1       0.194  -2.222  -2.296  1.00  0.00    -0.296 OA
HETATM   14  C12 UNL     1       1.542  -2.372  -2.231  1.00  0.00     0.292 C 
HETATM   15  C13 UNL     1       2.227  -1.198  -1.662  1.00  0.00     0.046 C 
HETATM   16  C14 UNL     1       3.530  -1.160  -1.337  1.00  0.00     0.001 C 
HETATM   17  O3  UNL     1       2.123  -3.372  -2.641  1.00  0.00    -0.259 OA
HETATM   18  C20 UNL     1      -1.607   1.524   0.879  1.00  0.00     0.026 C 
ENDROOT
BRANCH   4  19
HETATM   19  O4  UNL     1       1.063   0.135   0.778  1.00  0.00    -0.300 OA
BRANCH  19  20
HETATM   20  C15 UNL     1       1.859   0.273   1.875  1.00  0.00     0.294 C 
HETATM   21  O6  UNL     1       2.781   1.082   1.877  1.00  0.00    -0.259 OA
BRANCH  20  22
HETATM   22  C16 UNL     1       1.537  -0.492   3.116  1.00  0.00     0.070 C 
HETATM   23  C17 UNL     1       2.471  -0.782   4.048  1.00  0.00    -0.022 C 
HETATM   24  C18 UNL     1       3.945  -0.474   4.023  1.00  0.00     0.031 C 
BRANCH  22  25
HETATM   25  C19 UNL     1       0.107  -0.957   3.292  1.00  0.00     0.214 C 
HETATM   26  O5  UNL     1      -0.271  -1.855   2.256  1.00  0.00    -0.215 OA
ENDBRANCH  22  25
ENDBRANCH  20  22
ENDBRANCH  19  20
ENDBRANCH   4  19
TORSDOF 4
