REMARK  0 active torsions:
REMARK  status: ('A' for Active; 'I' for Inactive)
ROOT
HETATM    1  C1  UNL     1      -1.572   1.013   0.998  1.00  0.00     0.065 C 
HETATM    2  C2  UNL     1      -2.313   0.149   1.984  1.00  0.00     0.150 C 
HETATM    3  C3  UNL     1      -1.763  -1.263   2.093  1.00  0.00     0.051 C 
HETATM    4  C4  UNL     1      -0.198  -1.265   2.093  1.00  0.00     0.006 C 
HETATM    5  C5  UNL     1       0.647   0.066   2.012  1.00  0.00     0.001 C 
HETATM    6  C6  UNL     1      -0.222   1.310   1.639  1.00  0.00     0.008 C 
HETATM    7  C7  UNL     1       1.857  -0.070   1.012  1.00  0.00     0.000 C 
HETATM    8  C8  UNL     1       2.730  -1.368   1.061  1.00  0.00     0.004 C 
HETATM    9  C9  UNL     1       1.861  -2.575   1.493  1.00  0.00     0.000 C 
HETATM   10  C10 UNL     1       0.377  -2.375   1.191  1.00  0.00     0.000 C 
HETATM   11  C11 UNL     1       3.302  -1.629  -0.362  1.00  0.00     0.022 C 
HETATM   12  C12 UNL     1       4.614  -0.957  -0.726  1.00  0.00    -0.049 C 
HETATM   13  C13 UNL     1       4.762   0.552  -0.690  1.00  0.00     0.018 C 
HETATM   14  C14 UNL     1       3.426   1.304  -0.540  1.00  0.00     0.004 C 
HETATM   15  C15 UNL     1       2.768   1.171   0.853  1.00  0.00     0.000 C 
HETATM   16  C16 UNL     1       5.722   1.037  -1.831  1.00  0.00     0.004 C 
HETATM   17  C17 UNL     1       7.098   0.349  -1.567  1.00  0.00     0.007 C 
HETATM   18  C18 UNL     1       6.977  -1.184  -1.597  1.00  0.00     0.025 C 
HETATM   19  C19 UNL     1       5.657  -1.715  -1.109  1.00  0.00    -0.035 C 
HETATM   20  C20 UNL     1       8.363   0.900  -2.291  1.00  0.00     0.029 C 
HETATM   21  C21 UNL     1       8.410   2.434  -2.151  1.00  0.00     0.152 C 
HETATM   22  C22 UNL     1       7.107   3.102  -2.573  1.00  0.00     0.033 C 
HETATM   23  C23 UNL     1       5.910   2.573  -1.772  1.00  0.00     0.003 C 
HETATM   24  O1  UNL     1       8.689   2.806  -0.820  1.00  0.00    -0.224 OA
HETATM   25  C24 UNL     1       9.643   0.309  -1.643  1.00  0.00     0.003 C 
HETATM   26  C25 UNL     1       8.461   0.530  -3.790  1.00  0.00     0.003 C 
HETATM   27  C26 UNL     1       5.085   0.666  -3.189  1.00  0.00     0.000 C 
HETATM   28  C27 UNL     1       3.929  -1.366   2.044  1.00  0.00     0.000 C 
HETATM   29  C28 UNL     1       1.215   0.372   3.425  1.00  0.00     0.000 C 
HETATM   30  C29 UNL     1      -2.306  -1.902   3.395  1.00  0.00     0.007 C 
HETATM   31  C30 UNL     1      -2.428  -2.022   0.918  1.00  0.00     0.007 C 
HETATM   32  O2  UNL     1      -3.278   0.552   2.592  1.00  0.00    -0.296 OA
ENDROOT
TORSDOF 0
