REMARK  5 active torsions:
REMARK  status: ('A' for Active; 'I' for Inactive)
REMARK    1  A    between atoms: C15_15  and  C18_18 
REMARK    2  A    between atoms: C20_20  and  C25_27 
REMARK    3  A    between atoms: C21_22  and  O2_23 
REMARK    4  A    between atoms: O2_23  and  C22_24 
REMARK    5  A    between atoms: C25_27  and  C26_28 
ROOT
HETATM    1  C1  UNL     1      -4.928  -2.478   0.563  1.00  0.00     0.065 C 
HETATM    2  C2  UNL     1      -4.882  -3.828  -0.124  1.00  0.00     0.150 C 
HETATM    3  C3  UNL     1      -3.618  -4.689  -0.028  1.00  0.00     0.052 C 
HETATM    4  C4  UNL     1      -2.872  -4.487   1.327  1.00  0.00     0.011 C 
HETATM    5  C5  UNL     1      -2.857  -3.068   1.962  1.00  0.00     0.004 C 
HETATM    6  C6  UNL     1      -4.306  -2.531   1.958  1.00  0.00     0.008 C 
HETATM    7  C7  UNL     1      -1.867  -2.146   1.202  1.00  0.00     0.018 C 
HETATM    8  C8  UNL     1      -0.512  -2.801   0.996  1.00  0.00    -0.049 C 
HETATM    9  C9  UNL     1      -0.360  -4.133   1.058  1.00  0.00    -0.035 C 
HETATM   10  C10 UNL     1      -1.462  -5.107   1.365  1.00  0.00     0.026 C 
HETATM   11  C11 UNL     1       0.689  -1.885   0.834  1.00  0.00     0.015 C 
HETATM   12  C12 UNL     1       0.289  -0.573   0.104  1.00  0.00     0.003 C 
HETATM   13  C13 UNL     1      -0.737   0.186   0.970  1.00  0.00     0.001 C 
HETATM   14  C14 UNL     1      -1.736  -0.708   1.739  1.00  0.00     0.004 C 
HETATM   15  C15 UNL     1       1.673   0.106  -0.068  1.00  0.00     0.005 C 
HETATM   16  C16 UNL     1       2.597  -1.080  -0.444  1.00  0.00     0.001 C 
HETATM   17  C17 UNL     1       1.856  -2.376  -0.046  1.00  0.00     0.004 C 
HETATM   18  C29 UNL     1      -0.290  -0.808  -1.318  1.00  0.00     0.000 C 
HETATM   19  C30 UNL     1       1.282  -1.720   2.261  1.00  0.00     0.004 C 
HETATM   20  C31 UNL     1      -2.425  -3.166   3.450  1.00  0.00     0.000 C 
HETATM   21  C32 UNL     1      -4.078  -6.168  -0.142  1.00  0.00     0.007 C 
HETATM   22  C33 UNL     1      -2.781  -4.389  -1.289  1.00  0.00     0.007 C 
HETATM   23  O5  UNL     1      -5.829  -4.172  -0.798  1.00  0.00    -0.296 OA
ENDROOT
BRANCH  15  24
HETATM   24  C18 UNL     1       1.813   1.308  -1.020  1.00  0.00     0.059 C 
HETATM   25  C19 UNL     1       3.243   1.861  -1.073  1.00  0.00     0.035 C 
HETATM   26  C20 UNL     1       3.034   3.326  -1.481  1.00  0.00     0.126 C 
HETATM   27  O1  UNL     1       1.827   3.691  -0.899  1.00  0.00    -0.333 OA
HETATM   28  C24 UNL     1       2.899   3.409  -3.010  1.00  0.00     0.033 C 
HETATM   29  C21 UNL     1       1.050   2.554  -0.598  1.00  0.00     0.235 C 
BRANCH  26  30
HETATM   30  C25 UNL     1       4.146   4.220  -0.911  1.00  0.00     0.204 C 
HETATM   31  O4  UNL     1       5.323   4.043  -1.664  1.00  0.00    -0.218 OA
BRANCH  30  32
HETATM   32  C26 UNL     1       3.947   5.727  -0.707  1.00  0.00     0.157 C 
HETATM   33  C27 UNL     1       3.592   6.511  -1.969  1.00  0.00     0.036 C 
HETATM   34  C28 UNL     1       2.958   6.077   0.412  1.00  0.00     0.036 C 
HETATM   35  O3  UNL     1       5.204   6.201  -0.281  1.00  0.00    -0.223 OA
ENDBRANCH  30  32
ENDBRANCH  26  30
BRANCH  29  36
HETATM   36  O2  UNL     1      -0.152   2.664  -1.325  1.00  0.00    -0.331 OA
BRANCH  36  37
HETATM   37  C22 UNL     1      -0.999   3.681  -0.847  1.00  0.00     0.145 C 
HETATM   38  C23 UNL     1      -2.344   3.565  -1.558  1.00  0.00     0.035 C 
ENDBRANCH  36  37
ENDBRANCH  29  36
ENDBRANCH  15  24
TORSDOF 5
