REMARK  4 active torsions:
REMARK  status: ('A' for Active; 'I' for Inactive)
REMARK    1  A    between atoms: C15_15  and  C18_18 
REMARK    2  A    between atoms: C18_18  and  C19_19 
REMARK    3  A    between atoms: C20_20  and  C21_21 
REMARK    4  A    between atoms: C21_21  and  C22_22 
ROOT
HETATM    1  C1  UNL     1       2.123   4.208  -1.444  1.00  0.00     0.033 C 
HETATM    2  C2  UNL     1       3.432   3.978  -2.194  1.00  0.00     0.152 C 
HETATM    3  C3  UNL     1       3.686   2.499  -2.555  1.00  0.00     0.029 C 
HETATM    4  C4  UNL     1       2.416   1.875  -3.215  1.00  0.00     0.007 C 
HETATM    5  C5  UNL     1       1.033   2.153  -2.554  1.00  0.00     0.004 C 
HETATM    6  C6  UNL     1       0.934   3.665  -2.244  1.00  0.00     0.003 C 
HETATM    7  C7  UNL     1       0.837   1.269  -1.292  1.00  0.00     0.018 C 
HETATM    8  C8  UNL     1       1.175  -0.187  -1.543  1.00  0.00    -0.049 C 
HETATM    9  C9  UNL     1       1.955  -0.556  -2.572  1.00  0.00    -0.035 C 
HETATM   10  C10 UNL     1       2.550   0.385  -3.579  1.00  0.00     0.025 C 
HETATM   11  C11 UNL     1       0.500  -1.230  -0.667  1.00  0.00     0.015 C 
HETATM   12  C12 UNL     1       0.267  -0.718   0.787  1.00  0.00     0.003 C 
HETATM   13  C13 UNL     1      -0.660   0.515   0.687  1.00  0.00     0.001 C 
HETATM   14  C14 UNL     1      -0.521   1.390  -0.580  1.00  0.00     0.004 C 
HETATM   15  C15 UNL     1      -0.271  -2.004   1.493  1.00  0.00     0.003 C 
HETATM   16  C16 UNL     1       0.645  -3.097   0.857  1.00  0.00     0.000 C 
HETATM   17  C17 UNL     1       1.294  -2.523  -0.416  1.00  0.00     0.004 C 
HETATM   18  C26 UNL     1       1.566  -0.302   1.527  1.00  0.00     0.000 C 
HETATM   19  C27 UNL     1      -0.775  -1.677  -1.436  1.00  0.00     0.004 C 
HETATM   20  C28 UNL     1      -0.097   1.835  -3.570  1.00  0.00     0.000 C 
HETATM   21  C29 UNL     1       4.185   1.748  -1.298  1.00  0.00     0.003 C 
HETATM   22  C30 UNL     1       4.879   2.458  -3.552  1.00  0.00     0.003 C 
HETATM   23  O4  UNL     1       3.412   4.773  -3.360  1.00  0.00    -0.224 OA
ENDROOT
BRANCH  15  24
HETATM   24  C18 UNL     1      -0.337  -2.188   3.037  1.00  0.00     0.030 C 
HETATM   25  C25 UNL     1      -0.659  -3.664   3.384  1.00  0.00     0.003 C 
BRANCH  24  26
HETATM   26  C19 UNL     1      -1.124  -1.335   4.042  1.00  0.00     0.145 A 
HETATM   27  C20 UNL     1      -2.439  -0.856   3.961  1.00  0.00     0.175 A 
HETATM   28  O3  UNL     1      -1.298   0.119   3.608  1.00  0.00    -0.351 OA
BRANCH  27  29
HETATM   29  C21 UNL     1      -3.373  -0.903   2.755  1.00  0.00     0.209 C 
HETATM   30  O2  UNL     1      -3.726   0.434   2.425  1.00  0.00    -0.218 OA
BRANCH  29  31
HETATM   31  C22 UNL     1      -4.652  -1.727   2.929  1.00  0.00     0.157 C 
HETATM   32  C23 UNL     1      -5.617  -1.534   1.754  1.00  0.00     0.036 C 
HETATM   33  C24 UNL     1      -4.324  -3.214   3.079  1.00  0.00     0.036 C 
HETATM   34  O1  UNL     1      -5.306  -1.313   4.102  1.00  0.00    -0.223 OA
ENDBRANCH  29  31
ENDBRANCH  27  29
ENDBRANCH  24  26
ENDBRANCH  15  24
TORSDOF 4
