REMARK  9 active torsions:
REMARK  status: ('A' for Active; 'I' for Inactive)
REMARK    1  A    between atoms: C1_1  and  C33_47 
REMARK    2  A    between atoms: C5_5  and  O2_7 
REMARK    3  A    between atoms: O2_7  and  C6_8 
REMARK    4  A    between atoms: C6_8  and  C8_10 
REMARK    5  A    between atoms: C8_10  and  C9_11 
REMARK    6  A    between atoms: C9_11  and  C10_12 
REMARK    7  A    between atoms: C17_20  and  C26_35 
REMARK    8  A    between atoms: C18_21  and  O5_24 
REMARK    9  A    between atoms: O5_24  and  C20_25 
ROOT
HETATM    1  C10 UNL     1      -1.679   3.734   0.616  1.00  0.00     0.018 A 
HETATM    2  C11 UNL     1      -2.403   4.853   1.075  1.00  0.00     0.132 A 
HETATM    3  O3  UNL     1      -2.276   6.077   0.490  1.00  0.00    -0.190 OA
HETATM    4  C12 UNL     1      -3.266   4.727   2.161  1.00  0.00     0.055 A 
HETATM    5  C13 UNL     1      -3.468   3.525   2.836  1.00  0.00     0.136 A 
HETATM    6  C14 UNL     1      -2.767   2.406   2.357  1.00  0.00     0.063 A 
HETATM    7  C15 UNL     1      -1.884   2.497   1.268  1.00  0.00    -0.011 A 
HETATM    8  C16 UNL     1      -1.136   1.238   0.922  1.00  0.00     0.055 C 
HETATM    9  C17 UNL     1      -1.780  -0.082   1.273  1.00  0.00     0.008 C 
HETATM   10  C18 UNL     1      -2.705  -0.178   2.246  1.00  0.00     0.132 C 
HETATM   11  C19 UNL     1      -2.963   1.083   3.016  1.00  0.00     0.219 C 
HETATM   12  O4  UNL     1      -3.398   0.996   4.158  1.00  0.00    -0.284 OA
HETATM   13  O11 UNL     1      -4.347   3.495   3.875  1.00  0.00    -0.190 OA
ENDROOT
BRANCH   1  14
HETATM   14  C9  UNL     1      -0.743   4.051  -0.554  1.00  0.00    -0.022 C 
BRANCH  14  15
HETATM   15  C8  UNL     1       0.188   3.012  -1.191  1.00  0.00     0.053 C 
BRANCH  15  16
HETATM   16  C6  UNL     1       1.215   3.501  -2.238  1.00  0.00     0.100 C 
HETATM   17  C7  UNL     1       0.514   4.347  -3.316  1.00  0.00     0.030 C 
HETATM   18  C32 UNL     1       2.341   4.343  -1.625  1.00  0.00     0.030 C 
BRANCH  16  19
HETATM   19  O2  UNL     1       1.737   2.398  -2.933  1.00  0.00    -0.334 OA
BRANCH  19  20
HETATM   20  C5  UNL     1       2.527   1.490  -2.192  1.00  0.00     0.270 C 
HETATM   21  C4  UNL     1       2.174   0.087  -2.623  1.00  0.00     0.241 C 
HETATM   22  C3  UNL     1       3.071  -0.878  -1.883  1.00  0.00     0.220 C 
HETATM   23  O12 UNL     1       0.840  -0.191  -2.283  1.00  0.00    -0.215 OA
HETATM   24  C2  UNL     1       4.515  -0.522  -2.169  1.00  0.00     0.215 C 
HETATM   25  O13 UNL     1       2.793  -2.188  -2.313  1.00  0.00    -0.218 OA
HETATM   26  C1  UNL     1       4.779   0.948  -1.844  1.00  0.00     0.184 C 
HETATM   27  O14 UNL     1       5.313  -1.381  -1.390  1.00  0.00    -0.218 OA
HETATM   28  O1  UNL     1       3.868   1.765  -2.536  1.00  0.00    -0.326 OA
BRANCH  26  29
HETATM   29  C33 UNL     1       6.180   1.405  -2.230  1.00  0.00     0.214 C 
HETATM   30  O15 UNL     1       7.134   0.938  -1.297  1.00  0.00    -0.218 OA
ENDBRANCH  26  29
ENDBRANCH  19  20
ENDBRANCH  16  19
ENDBRANCH  15  16
ENDBRANCH  14  15
ENDBRANCH   1  14
BRANCH   9  31
HETATM   31  C26 UNL     1      -1.260  -1.200   0.411  1.00  0.00    -0.002 A 
HETATM   32  C27 UNL     1      -1.928  -1.607  -0.746  1.00  0.00     0.002 A 
HETATM   33  C28 UNL     1      -1.312  -2.499  -1.627  1.00  0.00     0.027 A 
HETATM   34  C29 UNL     1      -0.045  -3.026  -1.361  1.00  0.00     0.131 A 
HETATM   35  C30 UNL     1       0.626  -2.582  -0.220  1.00  0.00     0.027 A 
HETATM   36  O10 UNL     1       0.582  -3.862  -2.229  1.00  0.00    -0.190 OA
HETATM   37  C31 UNL     1       0.050  -1.636   0.624  1.00  0.00     0.002 A 
ENDBRANCH   9  31
BRANCH  10  38
HETATM   38  O5  UNL     1      -3.437  -1.238   2.731  1.00  0.00    -0.301 OA
BRANCH  38  39
HETATM   39  C20 UNL     1      -3.052  -2.589   2.749  1.00  0.00     0.274 C 
HETATM   40  O6  UNL     1      -2.916  -3.121   1.463  1.00  0.00    -0.329 OA
HETATM   41  C21 UNL     1      -3.066  -4.517   1.471  1.00  0.00     0.151 C 
HETATM   42  C22 UNL     1      -2.214  -5.174   2.565  1.00  0.00     0.212 C 
HETATM   43  C25 UNL     1      -2.737  -5.054   0.080  1.00  0.00     0.035 C 
HETATM   44  C23 UNL     1      -1.218  -4.221   3.211  1.00  0.00     0.220 C 
HETATM   45  O9  UNL     1      -3.052  -5.676   3.581  1.00  0.00    -0.218 OA
HETATM   46  C24 UNL     1      -1.872  -2.913   3.636  1.00  0.00     0.241 C 
HETATM   47  O8  UNL     1      -0.199  -3.957   2.276  1.00  0.00    -0.218 OA
HETATM   48  O7  UNL     1      -0.919  -1.884   3.590  1.00  0.00    -0.215 OA
ENDBRANCH  38  39
ENDBRANCH  10  38
TORSDOF 9
