REMARK  4 active torsions:
REMARK  status: ('A' for Active; 'I' for Inactive)
REMARK    1  A    between atoms: C7_8  and  O6_44 
REMARK    2  A    between atoms: C8_9  and  O5_42 
REMARK    3  A    between atoms: C11_13  and  O2_14 
REMARK    4  A    between atoms: C31_36  and  O4_37 
ROOT
HETATM    1  C1  UNL     1      -5.183   2.236   1.323  1.00  0.00     0.295 C 
HETATM    2  N1  UNL     1      -4.454   1.004   1.597  1.00  0.00     0.342 N 
HETATM    3  C2  UNL     1      -3.370   0.755   0.641  1.00  0.00     0.285 C 
HETATM    4  C3  UNL     1      -2.343   1.871   0.745  1.00  0.00     0.034 A 
HETATM    5  C4  UNL     1      -2.788   3.164   1.046  1.00  0.00     0.007 A 
HETATM    6  C5  UNL     1      -4.243   3.445   1.360  1.00  0.00     0.067 C 
HETATM    7  C6  UNL     1      -1.886   4.237   1.077  1.00  0.00     0.151 A 
HETATM    8  C7  UNL     1      -0.512   4.007   0.905  1.00  0.00     0.143 A 
HETATM    9  C8  UNL     1      -0.059   2.688   0.699  1.00  0.00     0.141 A 
HETATM   10  C9  UNL     1      -0.972   1.622   0.556  1.00  0.00     0.122 A 
HETATM   11  O1  UNL     1      -0.546   0.363   0.210  1.00  0.00    -0.303 OA
HETATM   12  C10 UNL     1       0.393  -0.253   0.997  1.00  0.00     0.122 A 
HETATM   13  C11 UNL     1       0.084  -0.777   2.265  1.00  0.00     0.116 A 
HETATM   14  C13 UNL     1       1.118  -1.371   2.997  1.00  0.00     0.022 A 
HETATM   15  C14 UNL     1       2.402  -1.566   2.484  1.00  0.00    -0.020 A 
HETATM   16  C15 UNL     1       3.427  -2.292   3.307  1.00  0.00     0.061 C 
HETATM   17  C16 UNL     1       4.838  -2.069   2.762  1.00  0.00     0.255 C 
HETATM   18  N2  UNL     1       4.884  -2.316   1.326  1.00  0.00     0.142 N 
HETATM   19  C17 UNL     1       4.106  -1.300   0.603  1.00  0.00     0.246 C 
HETATM   20  C18 UNL     1       2.716  -1.101   1.204  1.00  0.00     0.007 A 
HETATM   21  C19 UNL     1       1.693  -0.447   0.507  1.00  0.00     0.024 A 
HETATM   22  C20 UNL     1       4.055  -1.529  -0.928  1.00  0.00     0.064 C 
HETATM   23  C21 UNL     1       2.884  -2.338  -1.443  1.00  0.00    -0.020 C 
HETATM   24  C22 UNL     1       2.367  -1.942  -2.701  1.00  0.00    -0.002 C 
HETATM   25  C23 UNL     1       0.967  -2.099  -2.614  1.00  0.00     0.024 C 
HETATM   26  C24 UNL     1       0.276  -3.106  -1.918  1.00  0.00     0.100 C 
HETATM   27  O3  UNL     1      -1.076  -3.316  -2.006  1.00  0.00    -0.305 OA
HETATM   28  C25 UNL     1      -1.828  -2.242  -2.406  1.00  0.00     0.122 A 
HETATM   29  C26 UNL     1      -2.446  -1.421  -1.452  1.00  0.00     0.022 A 
HETATM   30  C27 UNL     1      -3.199  -0.293  -1.787  1.00  0.00    -0.018 A 
HETATM   31  C28 UNL     1      -3.934   0.570  -0.782  1.00  0.00     0.067 C 
HETATM   32  C29 UNL     1      -3.327  -0.009  -3.150  1.00  0.00    -0.002 A 
HETATM   33  C30 UNL     1      -2.750  -0.833  -4.115  1.00  0.00     0.026 A 
HETATM   34  C31 UNL     1      -2.022  -1.983  -3.778  1.00  0.00     0.117 A 
HETATM   35  C33 UNL     1       1.047  -3.836  -1.004  1.00  0.00     0.024 C 
HETATM   36  C34 UNL     1       2.345  -3.409  -0.718  1.00  0.00    -0.002 C 
HETATM   37  C35 UNL     1       6.281  -2.370   0.906  1.00  0.00     0.286 C 
HETATM   38  O7  UNL     1      -2.358   5.484   1.346  1.00  0.00    -0.188 OA
ENDROOT
BRANCH   8  39
HETATM   39  O6  UNL     1       0.430   5.011   0.898  1.00  0.00    -0.324 OA
HETATM   40  C37 UNL     1       0.114   6.244   0.295  1.00  0.00     0.182 C 
ENDBRANCH   8  39
BRANCH   9  41
HETATM   41  O5  UNL     1       1.280   2.477   0.480  1.00  0.00    -0.324 OA
HETATM   42  C36 UNL     1       2.073   2.524   1.648  1.00  0.00     0.182 C 
ENDBRANCH   9  41
BRANCH  13  43
HETATM   43  O2  UNL     1      -1.149  -0.598   2.832  1.00  0.00    -0.326 OA
HETATM   44  C12 UNL     1      -1.897  -1.787   2.958  1.00  0.00     0.181 C 
ENDBRANCH  13  43
BRANCH  34  45
HETATM   45  O4  UNL     1      -1.418  -2.812  -4.692  1.00  0.00    -0.326 OA
HETATM   46  C32 UNL     1      -1.325  -2.386  -6.031  1.00  0.00     0.181 C 
ENDBRANCH  34  45
TORSDOF 4
