REMARK  1 active torsions:
REMARK  status: ('A' for Active; 'I' for Inactive)
REMARK    1  A    between atoms: C1_2  and  C2_3 
ROOT
HETATM    1  C2  UNL     1      -2.923   0.728  -0.035  1.00  0.00     0.103 A 
HETATM    2  N1  UNL     1      -1.730   0.252  -0.544  1.00  0.00    -0.317 N 
HETATM    3  C3  UNL     1      -0.642   1.017  -0.173  1.00  0.00     0.068 A 
HETATM    4  C4  UNL     1      -1.197   2.017   0.618  1.00  0.00     0.017 A 
HETATM    5  C5  UNL     1      -2.593   1.851   0.706  1.00  0.00     0.022 A 
HETATM    6  C6  UNL     1       0.837   0.946  -0.499  1.00  0.00     0.192 C 
HETATM    7  C7  UNL     1       1.650   0.060   0.472  1.00  0.00     0.064 C 
HETATM    8  C8  UNL     1       1.492  -1.455   0.203  1.00  0.00     0.127 C 
HETATM    9  O2  UNL     1       0.146  -1.735  -0.044  1.00  0.00    -0.303 OA
HETATM   10  C9  UNL     1      -0.279  -1.604  -1.330  1.00  0.00     0.295 C 
HETATM   11  C10 UNL     1      -1.663  -0.982  -1.347  1.00  0.00     0.203 C 
HETATM   12  O3  UNL     1       0.403  -1.759  -2.319  1.00  0.00    -0.262 OA
HETATM   13  C11 UNL     1       1.936  -2.334   1.377  1.00  0.00     0.033 C 
HETATM   14  C12 UNL     1       3.146   0.435   0.451  1.00  0.00     0.006 C 
HETATM   15  O4  UNL     1       1.355   2.267  -0.499  1.00  0.00    -0.217 OA
ENDROOT
BRANCH   1  16
HETATM   16  C1  UNL     1      -4.291   0.209  -0.204  1.00  0.00     0.251 C 
HETATM   17  O1  UNL     1      -5.259   0.694   0.365  1.00  0.00    -0.281 OA
ENDBRANCH   1  16
TORSDOF 1
