REMARK  4 active torsions:
REMARK  status: ('A' for Active; 'I' for Inactive)
REMARK    1  A    between atoms: O1_2  and  C2_3 
REMARK    2  A    between atoms: C8_9  and  C9_10 
REMARK    3  A    between atoms: C11_14  and  C13_17 
REMARK    4  A    between atoms: C13_17  and  C14_18 
ROOT
HETATM    1  C2  UNL     1      -2.582  -0.841   2.389  1.00  0.00     0.097 C 
HETATM    2  C3  UNL     1      -2.173  -2.030   1.567  1.00  0.00     0.026 C 
HETATM    3  C4  UNL     1      -3.059  -3.253   1.576  1.00  0.00     0.035 C 
HETATM    4  C5  UNL     1      -1.027  -2.015   0.832  1.00  0.00     0.132 C 
HETATM    5  C6  UNL     1      -0.146  -0.817   0.860  1.00  0.00     0.069 C 
HETATM    6  C7  UNL     1      -0.511   0.370   1.419  1.00  0.00     0.103 C 
HETATM    7  C8  UNL     1      -1.908   0.439   1.960  1.00  0.00     0.087 C 
HETATM    8  O3  UNL     1       0.268   1.493   1.387  1.00  0.00    -0.332 OA
HETATM    9  C10 UNL     1       1.071   1.627   0.251  1.00  0.00     0.135 C 
HETATM   10  C11 UNL     1       1.999   0.418   0.130  1.00  0.00     0.138 C 
HETATM   11  C12 UNL     1       1.244  -0.895   0.259  1.00  0.00     0.122 C 
HETATM   12  O4  UNL     1       1.809  -2.011  -0.142  1.00  0.00    -0.194 OA
HETATM   13  C20 UNL     1       1.838   2.946   0.351  1.00  0.00     0.034 C 
HETATM   14  O6  UNL     1      -0.699  -3.115   0.098  1.00  0.00    -0.190 OA
ENDROOT
BRANCH  10  15
HETATM   15  C13 UNL     1       2.934   0.485  -1.082  1.00  0.00     0.181 C 
HETATM   16  O5  UNL     1       4.128   0.676  -0.874  1.00  0.00    -0.291 OA
BRANCH  15  17
HETATM   17  C14 UNL     1       2.422   0.362  -2.475  1.00  0.00     0.035 A 
HETATM   18  C15 UNL     1       3.301   0.607  -3.542  1.00  0.00     0.003 A 
HETATM   19  C16 UNL     1       2.861   0.517  -4.865  1.00  0.00     0.000 A 
HETATM   20  C17 UNL     1       1.537   0.176  -5.141  1.00  0.00     0.000 A 
HETATM   21  C18 UNL     1       0.654  -0.075  -4.087  1.00  0.00     0.000 A 
HETATM   22  C19 UNL     1       1.090   0.022  -2.765  1.00  0.00     0.003 A 
ENDBRANCH  15  17
ENDBRANCH  10  15
BRANCH   7  23
HETATM   23  C9  UNL     1      -2.799   1.591   1.559  1.00  0.00     0.238 C 
HETATM   24  O2  UNL     1      -2.384   2.705   1.264  1.00  0.00    -0.283 OA
ENDBRANCH   7  23
BRANCH   1  25
HETATM   25  O1  UNL     1      -3.186  -1.010   3.604  1.00  0.00    -0.328 OA
HETATM   26  C1  UNL     1      -2.937  -0.015   4.572  1.00  0.00     0.181 C 
ENDBRANCH   1  25
TORSDOF 4
