REMARK  5 active torsions:
REMARK  status: ('A' for Active; 'I' for Inactive)
REMARK    1  A    between atoms: C3_3  and  C19_20 
REMARK    2  A    between atoms: C7_7  and  C12_12 
REMARK    3  A    between atoms: C12_12  and  C13_13 
REMARK    4  A    between atoms: C13_13  and  C14_14 
REMARK    5  A    between atoms: C16_16  and  C17_17 
ROOT
HETATM    1  C1  UNL     1      -2.684  -0.586  -0.137  1.00  0.00     0.000 C 
HETATM    2  C2  UNL     1      -2.680  -1.922   0.615  1.00  0.00     0.003 C 
HETATM    3  C3  UNL     1      -1.492  -2.816   0.217  1.00  0.00     0.031 C 
HETATM    4  C4  UNL     1      -0.154  -2.039   0.393  1.00  0.00     0.003 C 
HETATM    5  C5  UNL     1      -0.125  -0.654  -0.320  1.00  0.00     0.004 C 
HETATM    6  C6  UNL     1      -1.369   0.170   0.080  1.00  0.00     0.000 C 
HETATM    7  C7  UNL     1       1.154   0.115   0.115  1.00  0.00     0.019 C 
HETATM    8  C8  UNL     1       2.406  -0.740   0.074  1.00  0.00    -0.044 C 
HETATM    9  C9  UNL     1       2.297  -2.139  -0.488  1.00  0.00     0.022 C 
HETATM   10  C10 UNL     1       1.086  -2.912   0.064  1.00  0.00     0.004 C 
HETATM   11  C11 UNL     1       3.580  -0.273   0.535  1.00  0.00    -0.009 C 
HETATM   12  C18 UNL     1      -0.129  -0.840  -1.850  1.00  0.00     0.000 C 
HETATM   13  C20 UNL     1      -1.676  -3.285  -1.232  1.00  0.00     0.003 C 
ENDROOT
BRANCH   7  14
HETATM   14  C12 UNL     1       1.357   1.406  -0.689  1.00  0.00     0.008 C 
BRANCH  14  15
HETATM   15  C13 UNL     1       1.881   2.559   0.168  1.00  0.00     0.022 C 
BRANCH  15  16
HETATM   16  C14 UNL     1       0.826   3.600   0.436  1.00  0.00    -0.046 C 
HETATM   17  C15 UNL     1      -0.340   3.365   1.357  1.00  0.00     0.026 C 
HETATM   18  C16 UNL     1       0.934   4.791  -0.174  1.00  0.00     0.001 C 
BRANCH  18  19
HETATM   19  C17 UNL     1      -0.121   5.832   0.094  1.00  0.00     0.208 C 
HETATM   20  O1  UNL     1       0.310   7.078  -0.404  1.00  0.00    -0.215 OA
ENDBRANCH  18  19
ENDBRANCH  15  16
ENDBRANCH  14  15
ENDBRANCH   7  14
BRANCH   3  21
HETATM   21  C19 UNL     1      -1.488  -4.059   1.115  1.00  0.00     0.182 C 
HETATM   22  O2  UNL     1      -0.731  -5.063   0.480  1.00  0.00    -0.221 OA
ENDBRANCH   3  21
TORSDOF 5
