REMARK  1 active torsions:
REMARK  status: ('A' for Active; 'I' for Inactive)
REMARK    1  A    between atoms: C16_16  and  C25_27 
ROOT
HETATM    1  C1  UNL     1      -3.640  -1.017  -2.968  1.00  0.00     0.033 C 
HETATM    2  C2  UNL     1      -3.806  -2.529  -3.068  1.00  0.00     0.152 C 
HETATM    3  C3  UNL     1      -2.913  -3.286  -2.065  1.00  0.00     0.028 C 
HETATM    4  C4  UNL     1      -3.083  -2.717  -0.614  1.00  0.00     0.002 C 
HETATM    5  C5  UNL     1      -3.225  -1.175  -0.402  1.00  0.00     0.001 C 
HETATM    6  C6  UNL     1      -4.044  -0.551  -1.568  1.00  0.00     0.003 C 
HETATM    7  C7  UNL     1      -1.820  -0.491  -0.272  1.00  0.00     0.005 C 
HETATM    8  C8  UNL     1      -0.722  -1.122   0.636  1.00  0.00     0.004 C 
HETATM    9  C9  UNL     1      -0.743  -2.663   0.513  1.00  0.00     0.000 C 
HETATM   10  C10 UNL     1      -2.133  -3.308   0.449  1.00  0.00     0.000 C 
HETATM   11  C11 UNL     1       0.700  -0.536   0.224  1.00  0.00     0.015 C 
HETATM   12  C12 UNL     1       0.673   0.992   0.330  1.00  0.00    -0.049 C 
HETATM   13  C13 UNL     1      -0.491   1.655   0.204  1.00  0.00    -0.035 C 
HETATM   14  C14 UNL     1      -1.845   1.029  -0.017  1.00  0.00     0.025 C 
HETATM   15  C15 UNL     1       2.013   1.723   0.394  1.00  0.00     0.023 C 
HETATM   16  C16 UNL     1       2.908   1.166   1.524  1.00  0.00     0.065 C 
HETATM   17  C17 UNL     1       3.124  -0.336   1.182  1.00  0.00     0.006 C 
HETATM   18  C18 UNL     1       1.824  -1.152   1.102  1.00  0.00     0.004 C 
HETATM   19  C19 UNL     1       4.277   1.887   1.554  1.00  0.00     0.185 C 
HETATM   20  C20 UNL     1       4.262   3.404   1.398  1.00  0.00     0.182 C 
HETATM   21  C21 UNL     1       3.342   3.954   0.297  1.00  0.00     0.031 C 
HETATM   22  C22 UNL     1       1.962   3.263   0.349  1.00  0.00     0.007 C 
HETATM   23  C23 UNL     1       3.140   5.480   0.474  1.00  0.00     0.003 C 
HETATM   24  C24 UNL     1       3.988   3.772  -1.098  1.00  0.00     0.003 C 
HETATM   25  O1  UNL     1       3.970   3.998   2.642  1.00  0.00    -0.221 OA
HETATM   26  O2  UNL     1       5.136   1.373   0.560  1.00  0.00    -0.221 OA
HETATM   27  C26 UNL     1       1.109  -0.811  -1.254  1.00  0.00     0.004 C 
HETATM   28  C27 UNL     1      -1.016  -0.788   2.127  1.00  0.00     0.000 C 
HETATM   29  C28 UNL     1      -4.143  -0.925   0.832  1.00  0.00     0.000 C 
HETATM   30  C29 UNL     1      -1.471  -3.262  -2.621  1.00  0.00     0.003 C 
HETATM   31  C30 UNL     1      -3.328  -4.784  -2.106  1.00  0.00     0.003 C 
HETATM   32  O4  UNL     1      -5.163  -2.857  -2.873  1.00  0.00    -0.224 OA
ENDROOT
BRANCH  16  33
HETATM   33  C25 UNL     1       2.234   1.208   2.912  1.00  0.00     0.185 C 
HETATM   34  O3  UNL     1       1.956   2.509   3.376  1.00  0.00    -0.221 OA
ENDBRANCH  16  33
TORSDOF 1
