REMARK  5 active torsions:
REMARK  status: ('A' for Active; 'I' for Inactive)
REMARK    1  A    between atoms: C1_1  and  O1_2 
REMARK    2  A    between atoms: O1_2  and  C2_3 
REMARK    3  A    between atoms: C9_11  and  C10_12 
REMARK    4  A    between atoms: C12_15  and  O5_26 
REMARK    5  A    between atoms: O5_26  and  C22_27 
ROOT
HETATM    1  C2  UNL     1      -1.214   2.452   0.749  1.00  0.00     0.203 C 
HETATM    2  C3  UNL     1       0.123   2.809   0.087  1.00  0.00     0.200 C 
HETATM    3  O2  UNL     1       0.932   3.510   0.685  1.00  0.00    -0.289 OA
HETATM    4  C4  UNL     1       0.412   2.241  -1.262  1.00  0.00     0.011 C 
HETATM    5  C5  UNL     1      -0.708   1.967  -2.235  1.00  0.00     0.034 C 
HETATM    6  C6  UNL     1       1.703   1.945  -1.524  1.00  0.00    -0.025 C 
HETATM    7  C7  UNL     1       2.222   1.171  -2.711  1.00  0.00     0.063 C 
HETATM    8  C8  UNL     1       3.177   0.083  -2.209  1.00  0.00     0.177 C 
HETATM    9  C9  UNL     1       2.658  -0.849  -1.125  1.00  0.00     0.017 C 
HETATM   10  C11 UNL     1       1.349  -1.097  -0.935  1.00  0.00    -0.000 C 
HETATM   11  C12 UNL     1       0.721  -1.983   0.125  1.00  0.00     0.146 C 
HETATM   12  C13 UNL     1      -0.634  -1.462   0.678  1.00  0.00     0.038 C 
HETATM   13  C14 UNL     1      -0.663  -0.071   1.405  1.00  0.00     0.020 C 
HETATM   14  C15 UNL     1      -1.557   0.962   0.685  1.00  0.00    -0.016 C 
HETATM   15  C16 UNL     1      -2.742   0.551   0.177  1.00  0.00    -0.019 C 
HETATM   16  C17 UNL     1      -3.038  -0.924   0.025  1.00  0.00     0.170 C 
HETATM   17  C18 UNL     1      -1.755  -1.639  -0.363  1.00  0.00     0.040 C 
HETATM   18  O4  UNL     1      -3.991  -1.173  -0.996  1.00  0.00    -0.219 OA
HETATM   19  C19 UNL     1      -3.865   1.454  -0.288  1.00  0.00     0.028 C 
HETATM   20  C20 UNL     1      -1.325  -0.259   2.805  1.00  0.00     0.004 C 
HETATM   21  C21 UNL     1       0.759   0.426   1.749  1.00  0.00     0.004 C 
HETATM   22  O7  UNL     1       3.614  -0.710  -3.297  1.00  0.00    -0.218 OA
ENDROOT
BRANCH   1  23
HETATM   23  O1  UNL     1      -1.297   2.898   2.095  1.00  0.00    -0.292 OA
BRANCH  23  24
HETATM   24  C1  UNL     1      -1.514   4.221   2.325  1.00  0.00     0.273 C 
HETATM   25  C24 UNL     1      -1.407   4.515   3.807  1.00  0.00     0.106 C 
HETATM   26  O8  UNL     1      -1.745   5.047   1.470  1.00  0.00    -0.264 OA
ENDBRANCH  23  24
ENDBRANCH   1  23
BRANCH  11  27
HETATM   27  O5  UNL     1       0.520  -3.271  -0.425  1.00  0.00    -0.300 OA
BRANCH  27  28
HETATM   28  C22 UNL     1       1.241  -4.330   0.030  1.00  0.00     0.273 C 
HETATM   29  C23 UNL     1       0.827  -5.592  -0.702  1.00  0.00     0.106 C 
HETATM   30  O6  UNL     1       2.079  -4.295   0.901  1.00  0.00    -0.264 OA
ENDBRANCH  27  28
ENDBRANCH  11  27
BRANCH   9  31
HETATM   31  C10 UNL     1       3.767  -1.480  -0.315  1.00  0.00     0.207 C 
HETATM   32  O3  UNL     1       4.744  -2.040  -1.183  1.00  0.00    -0.216 OA
ENDBRANCH   9  31
TORSDOF 5
