REMARK  8 active torsions:
REMARK  status: ('A' for Active; 'I' for Inactive)
REMARK    1  A    between atoms: C1_2  and  O2_4 
REMARK    2  A    between atoms: O2_4  and  C3_5 
REMARK    3  A    between atoms: C10_12  and  O3_13 
REMARK    4  A    between atoms: O3_13  and  C11_14 
REMARK    5  A    between atoms: C20_25  and  O6_28 
REMARK    6  A    between atoms: O6_28  and  C23_29 
REMARK    7  A    between atoms: C23_29  and  C24_30 
REMARK    8  A    between atoms: C25_31  and  C26_32 
ROOT
HETATM    1  C3  UNL     1      -1.726   1.827   1.521  1.00  0.00     0.155 C 
HETATM    2  C4  UNL     1      -0.490   2.121   2.374  1.00  0.00     0.180 C 
HETATM    3  C5  UNL     1       0.459   0.898   2.333  1.00  0.00     0.036 C 
HETATM    4  C6  UNL     1      -0.373  -0.157   1.492  1.00  0.00     0.048 C 
HETATM    5  C7  UNL     1      -1.895   0.295   1.534  1.00  0.00     0.040 C 
HETATM    6  C8  UNL     1      -2.571  -0.263   2.839  1.00  0.00     0.006 C 
HETATM    7  C9  UNL     1      -1.942  -1.680   2.757  1.00  0.00     0.036 C 
HETATM    8  C10 UNL     1      -0.526  -1.561   2.121  1.00  0.00     0.128 C 
HETATM    9  C13 UNL     1      -2.895  -2.537   1.907  1.00  0.00     0.067 C 
HETATM   10  C14 UNL     1      -3.231  -1.817   0.610  1.00  0.00     0.150 C 
HETATM   11  C15 UNL     1      -2.696  -0.395   0.363  1.00  0.00     0.060 C 
HETATM   12  C16 UNL     1      -3.742   0.505  -0.325  1.00  0.00     0.008 C 
HETATM   13  O5  UNL     1      -3.921  -2.380  -0.211  1.00  0.00    -0.296 OA
HETATM   14  C17 UNL     1      -4.136  -0.225   2.855  1.00  0.00     0.000 C 
HETATM   15  C18 UNL     1      -2.335   0.399   4.220  1.00  0.00     0.000 C 
HETATM   16  C19 UNL     1       0.355  -0.145   0.103  1.00  0.00    -0.015 C 
HETATM   17  C20 UNL     1       1.794  -0.683   0.054  1.00  0.00     0.143 C 
HETATM   18  C21 UNL     1       2.521  -0.098   1.266  1.00  0.00     0.035 C 
HETATM   19  C22 UNL     1       1.822   1.219   1.648  1.00  0.00     0.006 C 
HETATM   20  C32 UNL     1      -0.092   0.482  -1.004  1.00  0.00    -0.007 C 
HETATM   21  C33 UNL     1       0.945   0.528   3.774  1.00  0.00     0.003 C 
HETATM   22  O8  UNL     1       0.128   3.298   1.916  1.00  0.00    -0.221 OA
ENDROOT
BRANCH  17  23
HETATM   23  O6  UNL     1       2.553  -0.251  -1.056  1.00  0.00    -0.297 OA
BRANCH  23  24
HETATM   24  C23 UNL     1       2.532  -0.939  -2.233  1.00  0.00     0.296 C 
HETATM   25  O7  UNL     1       1.922  -1.999  -2.339  1.00  0.00    -0.259 OA
BRANCH  24  26
HETATM   26  C24 UNL     1       3.199  -0.337  -3.413  1.00  0.00     0.068 C 
HETATM   27  C25 UNL     1       3.334  -0.951  -4.612  1.00  0.00     0.005 C 
BRANCH  27  28
HETATM   28  C26 UNL     1       4.019  -0.346  -5.767  1.00  0.00     0.000 A 
HETATM   29  C27 UNL     1       4.459  -1.177  -6.811  1.00  0.00     0.000 A 
HETATM   30  C28 UNL     1       5.109  -0.649  -7.927  1.00  0.00     0.000 A 
HETATM   31  C29 UNL     1       5.313   0.729  -8.033  1.00  0.00     0.000 A 
HETATM   32  C30 UNL     1       4.853   1.572  -7.021  1.00  0.00     0.000 A 
HETATM   33  C31 UNL     1       4.206   1.040  -5.904  1.00  0.00     0.000 A 
ENDBRANCH  27  28
ENDBRANCH  24  26
ENDBRANCH  23  24
ENDBRANCH  17  23
BRANCH   8  34
HETATM   34  O3  UNL     1      -0.315  -2.543   1.146  1.00  0.00    -0.304 OA
BRANCH  34  35
HETATM   35  C11 UNL     1       0.025  -3.795   1.558  1.00  0.00     0.272 C 
HETATM   36  C12 UNL     1       0.206  -4.706   0.362  1.00  0.00     0.106 C 
HETATM   37  O4  UNL     1       0.156  -4.134   2.713  1.00  0.00    -0.264 OA
ENDBRANCH  34  35
ENDBRANCH   8  34
BRANCH   1  38
HETATM   38  O2  UNL     1      -2.856   2.481   2.012  1.00  0.00    -0.302 OA
BRANCH  38  39
HETATM   39  C1  UNL     1      -3.346   3.663   1.538  1.00  0.00     0.272 C 
HETATM   40  O1  UNL     1      -4.309   4.196   2.047  1.00  0.00    -0.264 OA
HETATM   41  C2  UNL     1      -2.665   4.278   0.329  1.00  0.00     0.106 C 
ENDBRANCH  38  39
ENDBRANCH   1  38
TORSDOF 8
