REMARK  7 active torsions:
REMARK  status: ('A' for Active; 'I' for Inactive)
REMARK    1  A    between atoms: C1_1  and  C23_32 
REMARK    2  A    between atoms: C5_5  and  C6_7 
REMARK    3  A    between atoms: C12_14  and  C15_18 
REMARK    4  A    between atoms: C18_21  and  O4_24 
REMARK    5  A    between atoms: O4_24  and  C21_25 
REMARK    6  A    between atoms: C23_32  and  O10_33 
REMARK    7  A    between atoms: O10_33  and  C24_34 
ROOT
HETATM    1  C6  UNL     1      -2.084   2.568   0.224  1.00  0.00     0.065 C 
HETATM    2  C7  UNL     1      -3.070   3.703   0.311  1.00  0.00     0.116 C 
HETATM    3  C8  UNL     1      -2.977   4.594   1.519  1.00  0.00     0.080 C 
HETATM    4  C9  UNL     1      -2.404   3.995   2.754  1.00  0.00    -0.015 C 
HETATM    5  C10 UNL     1      -1.679   2.857   2.650  1.00  0.00     0.040 C 
HETATM    6  C11 UNL     1      -1.436   2.179   1.359  1.00  0.00     0.099 C 
HETATM    7  O2  UNL     1      -0.657   1.070   1.326  1.00  0.00    -0.328 OA
HETATM    8  C12 UNL     1      -0.623   0.265   2.473  1.00  0.00     0.150 C 
HETATM    9  C13 UNL     1      -0.124   1.075   3.663  1.00  0.00     0.089 C 
HETATM   10  C14 UNL     1      -1.012   2.288   3.886  1.00  0.00     0.113 C 
HETATM   11  O3  UNL     1      -1.176   2.796   5.090  1.00  0.00    -0.195 OA
HETATM   12  O6  UNL     1      -4.187   3.738  -0.459  1.00  0.00    -0.194 OA
ENDROOT
BRANCH   1  13
HETATM   13  C5  UNL     1      -1.964   1.849  -1.124  1.00  0.00     0.108 C 
HETATM   14  C4  UNL     1      -2.896   0.658  -1.293  1.00  0.00     0.229 C 
HETATM   15  C3  UNL     1      -2.222  -0.656  -0.993  1.00  0.00     0.221 C 
HETATM   16  O7  UNL     1      -4.004   0.788  -0.435  1.00  0.00    -0.214 OA
HETATM   17  C2  UNL     1      -0.964  -0.750  -1.821  1.00  0.00     0.215 C 
HETATM   18  O8  UNL     1      -3.078  -1.719  -1.328  1.00  0.00    -0.217 OA
HETATM   19  C1  UNL     1      -0.042   0.417  -1.508  1.00  0.00     0.184 C 
HETATM   20  O9  UNL     1      -0.345  -1.970  -1.488  1.00  0.00    -0.218 OA
HETATM   21  O1  UNL     1      -0.666   1.667  -1.665  1.00  0.00    -0.330 OA
BRANCH  19  22
HETATM   22  C23 UNL     1       1.223   0.392  -2.367  1.00  0.00     0.184 C 
BRANCH  22  23
HETATM   23  O10 UNL     1       2.101   1.388  -1.909  1.00  0.00    -0.299 OA
BRANCH  23  24
HETATM   24  C24 UNL     1       3.417   1.412  -2.261  1.00  0.00     0.273 C 
HETATM   25  O11 UNL     1       4.180   2.261  -1.850  1.00  0.00    -0.264 OA
HETATM   26  C25 UNL     1       3.884   0.324  -3.213  1.00  0.00     0.106 C 
ENDBRANCH  23  24
ENDBRANCH  22  23
ENDBRANCH  19  22
ENDBRANCH   1  13
BRANCH   8  27
HETATM   27  C15 UNL     1       0.210  -0.946   2.101  1.00  0.00     0.006 A 
HETATM   28  C16 UNL     1      -0.369  -2.214   1.984  1.00  0.00     0.000 A 
HETATM   29  C17 UNL     1       0.348  -3.278   1.436  1.00  0.00     0.025 A 
HETATM   30  C18 UNL     1       1.659  -3.130   0.962  1.00  0.00     0.103 A 
HETATM   31  C19 UNL     1       2.248  -1.871   1.145  1.00  0.00     0.025 A 
HETATM   32  C20 UNL     1       1.541  -0.801   1.697  1.00  0.00     0.000 A 
BRANCH  30  33
HETATM   33  O4  UNL     1       2.295  -4.192   0.379  1.00  0.00    -0.276 OA
BRANCH  33  34
HETATM   34  C21 UNL     1       3.222  -3.919  -0.581  1.00  0.00     0.277 C 
HETATM   35  C22 UNL     1       4.425  -4.830  -0.441  1.00  0.00     0.107 C 
HETATM   36  O5  UNL     1       3.089  -3.091  -1.454  1.00  0.00    -0.264 OA
ENDBRANCH  33  34
ENDBRANCH  30  33
ENDBRANCH   8  27
TORSDOF 7
