REMARK  3 active torsions:
REMARK  status: ('A' for Active; 'I' for Inactive)
REMARK    1  A    between atoms: C1_2  and  C2_3 
REMARK    2  A    between atoms: C2_3  and  C3_4 
REMARK    3  A    between atoms: C3_4  and  C4_5 
ROOT
HETATM    1  C3  UNL     1       0.580   0.692   0.117  1.00  0.00     0.389 C 
HETATM    2  N2  UNL     1       1.401   0.451  -1.081  1.00  0.00     0.628 N 
ENDROOT
BRANCH   1   3
HETATM    3  C2  UNL     1      -0.691  -0.173   0.087  1.00  0.00     0.092 C 
BRANCH   3   4
HETATM    4  C1  UNL     1      -0.399  -1.678   0.185  1.00  0.00     0.341 C 
HETATM    5  N1  UNL     1      -1.651  -2.452   0.161  1.00  0.00     0.618 N 
ENDBRANCH   3   4
ENDBRANCH   1   3
BRANCH   1   6
HETATM    6  C4  UNL     1       0.287   2.177   0.221  1.00  0.00     0.224 C 
HETATM    7  O1  UNL     1       1.426   2.896   0.210  1.00  0.00    -0.646 OA
HETATM    8  O2  UNL     1      -0.792   2.709   0.317  1.00  0.00    -0.646 OA
ENDBRANCH   1   6
TORSDOF 3
