REMARK  2 active torsions:
REMARK  status: ('A' for Active; 'I' for Inactive)
REMARK    1  A    between atoms: C2_2  and  C3_3 
REMARK    2  A    between atoms: C3_3  and  C4_4 
ROOT
HETATM    1  C3  UNL     1       0.452   0.611   0.060  1.00  0.00     0.423 C 
HETATM    2  N1  UNL     1      -0.767   1.105   0.724  1.00  0.00     0.630 N 
ENDROOT
BRANCH   1   3
HETATM    3  C2  UNL     1       0.544  -0.919   0.196  1.00  0.00     0.349 C 
HETATM    4  C1  UNL     1      -0.655  -1.673  -0.398  1.00  0.00     0.044 C 
HETATM    5  N2  UNL     1       0.647  -1.245   1.631  1.00  0.00     0.619 N 
ENDBRANCH   1   3
BRANCH   1   6
HETATM    6  C4  UNL     1       0.497   1.116  -1.369  1.00  0.00     0.226 C 
HETATM    7  O1  UNL     1       0.178   2.423  -1.430  1.00  0.00    -0.646 OA
HETATM    8  O2  UNL     1       0.784   0.495  -2.363  1.00  0.00    -0.646 OA
ENDBRANCH   1   6
TORSDOF 2
