REMARK  2 active torsions:
REMARK  status: ('A' for Active; 'I' for Inactive)
REMARK    1  A    between atoms: C1_2  and  C2_3 
REMARK    2  A    between atoms: C2_3  and  C3_4 
ROOT
HETATM    1  C2  UNL     1       0.127   0.356  -0.311  1.00  0.00     0.426 C 
HETATM    2  N2  UNL     1       1.413   1.054  -0.160  1.00  0.00     0.630 N 
ENDROOT
BRANCH   1   3
HETATM    3  C1  UNL     1       0.367  -1.161  -0.402  1.00  0.00     0.389 C 
HETATM    4  N1  UNL     1      -0.921  -1.907  -0.601  1.00  0.00     0.621 N 
ENDBRANCH   1   3
BRANCH   1   5
HETATM    5  C3  UNL     1      -0.788   0.745   0.832  1.00  0.00     0.226 C 
HETATM    6  O1  UNL     1      -0.925   2.080   0.925  1.00  0.00    -0.646 OA
HETATM    7  O2  UNL     1      -1.358  -0.009   1.584  1.00  0.00    -0.646 OA
ENDBRANCH   1   5
TORSDOF 2
