REMARK  0 active torsions:
REMARK  status: ('A' for Active; 'I' for Inactive)
ROOT
HETATM    1  C1  UNL     1      -1.071   1.312  -1.335  1.00  0.00     0.002 A 
HETATM    2  C2  UNL     1      -2.451   1.494  -1.358  1.00  0.00     0.000 A 
HETATM    3  C3  UNL     1      -3.293   0.786  -0.478  1.00  0.00     0.002 A 
HETATM    4  C4  UNL     1      -2.778  -0.124   0.442  1.00  0.00     0.025 A 
HETATM    5  C5  UNL     1      -1.391  -0.317   0.463  1.00  0.00     0.100 A 
HETATM    6  C6  UNL     1      -0.558   0.396  -0.407  1.00  0.00     0.025 A 
HETATM    7  C7  UNL     1       0.790  -0.032  -0.094  1.00  0.00     0.025 A 
HETATM    8  C8  UNL     1       0.658  -0.967   0.938  1.00  0.00     0.100 A 
HETATM    9  O1  UNL     1      -0.665  -1.153   1.290  1.00  0.00    -0.307 OA
HETATM   10  C9  UNL     1       1.788  -1.574   1.500  1.00  0.00     0.025 A 
HETATM   11  C10 UNL     1       3.036  -1.223   0.988  1.00  0.00     0.002 A 
HETATM   12  C11 UNL     1       3.162  -0.288  -0.058  1.00  0.00     0.000 A 
HETATM   13  C12 UNL     1       2.041   0.323  -0.613  1.00  0.00     0.002 A 
ENDROOT
TORSDOF 0
