REMARK  15 active torsions:
REMARK  status: ('A' for Active; 'I' for Inactive)
REMARK    1  A    between atoms: C1_1  and  O12_48 
REMARK    2  A    between atoms: C2_2  and  C33_43 
REMARK    3  A    between atoms: C4_4  and  C8_9 
REMARK    4  A    between atoms: C8_9  and  C9_10 
REMARK    5  A    between atoms: C11_13  and  C28_36 
REMARK    6  A    between atoms: C13_15  and  C15_18 
REMARK    7  A    between atoms: C15_18  and  C16_19 
REMARK    8  A    between atoms: C19_23  and  O7_32 
REMARK    9  A    between atoms: C20_24  and  C22_27 
REMARK   10  A    between atoms: C22_27  and  C23_29 
REMARK   11  A    between atoms: C23_29  and  C24_30 
REMARK   12  A    between atoms: C28_36  and  C29_37 
REMARK   13  A    between atoms: C29_37  and  C30_38 
REMARK   14  A    between atoms: C33_43  and  C34_44 
REMARK   15  A    between atoms: C34_44  and  C35_45 
ROOT
HETATM    1  C9  UNL     1       1.791   2.039   0.801  1.00  0.00     0.033 A 
HETATM    2  C10 UNL     1       3.105   2.008   0.295  1.00  0.00     0.134 A 
HETATM    3  O2  UNL     1       4.131   1.961   1.123  1.00  0.00    -0.190 OA
HETATM    4  C11 UNL     1       3.318   2.025  -1.098  1.00  0.00     0.085 A 
HETATM    5  C12 UNL     1       2.221   2.076  -1.982  1.00  0.00     0.134 A 
HETATM    6  C13 UNL     1       0.910   2.107  -1.469  1.00  0.00     0.033 A 
HETATM    7  C14 UNL     1       0.693   2.088  -0.078  1.00  0.00     0.128 A 
HETATM    8  O3  UNL     1      -0.537   2.119   0.400  1.00  0.00    -0.191 OA
HETATM    9  O8  UNL     1       2.420   2.094  -3.285  1.00  0.00    -0.190 OA
ENDROOT
BRANCH   1  10
HETATM   10  C8  UNL     1       1.564   2.020   2.272  1.00  0.00     0.061 C 
BRANCH  10  11
HETATM   11  C4  UNL     1       0.445   1.090   2.588  1.00  0.00     0.033 A 
HETATM   12  C3  UNL     1      -0.799   1.604   3.006  1.00  0.00     0.134 A 
HETATM   13  C2  UNL     1      -1.856   0.723   3.305  1.00  0.00     0.082 A 
HETATM   14  O10 UNL     1      -0.969   2.908   3.115  1.00  0.00    -0.190 OA
HETATM   15  C1  UNL     1      -1.672  -0.670   3.188  1.00  0.00     0.097 A 
HETATM   16  C6  UNL     1      -0.426  -1.178   2.770  1.00  0.00     0.026 A 
HETATM   17  C5  UNL     1       0.633  -0.301   2.469  1.00  0.00     0.127 A 
HETATM   18  C7  UNL     1      -0.229  -2.648   2.645  1.00  0.00     0.035 C 
HETATM   19  O1  UNL     1       1.799  -0.779   2.078  1.00  0.00    -0.191 OA
BRANCH  13  20
HETATM   20  C33 UNL     1      -3.178   1.266   3.748  1.00  0.00     0.177 C 
HETATM   21  O11 UNL     1      -3.553   2.356   3.389  1.00  0.00    -0.291 OA
BRANCH  20  22
HETATM   22  C34 UNL     1      -4.024   0.414   4.654  1.00  0.00     0.069 C 
BRANCH  22  23
HETATM   23  C35 UNL     1      -5.070   1.230   5.414  1.00  0.00     0.008 C 
HETATM   24  C36 UNL     1      -5.922   0.375   6.352  1.00  0.00     0.001 C 
ENDBRANCH  22  23
ENDBRANCH  20  22
ENDBRANCH  13  20
BRANCH  15  25
HETATM   25  O12 UNL     1      -2.660  -1.498   3.467  1.00  0.00    -0.328 OA
HETATM   26  C37 UNL     1      -3.387  -2.059   2.383  1.00  0.00     0.181 C 
ENDBRANCH  15  25
ENDBRANCH  10  11
ENDBRANCH   1  10
BRANCH   4  27
HETATM   27  C28 UNL     1       4.711   1.992  -1.641  1.00  0.00     0.176 C 
HETATM   28  O9  UNL     1       5.012   1.242  -2.539  1.00  0.00    -0.291 OA
BRANCH  27  29
HETATM   29  C29 UNL     1       5.730   2.922  -1.035  1.00  0.00     0.062 C 
HETATM   30  C32 UNL     1       5.162   4.316  -0.768  1.00  0.00     0.008 C 
BRANCH  29  31
HETATM   31  C30 UNL     1       7.033   2.959  -1.832  1.00  0.00     0.008 C 
HETATM   32  C31 UNL     1       7.873   1.695  -1.650  1.00  0.00     0.001 C 
ENDBRANCH  29  31
ENDBRANCH  27  29
ENDBRANCH   4  27
BRANCH   6  33
HETATM   33  C15 UNL     1      -0.250   2.160  -2.400  1.00  0.00     0.061 C 
BRANCH  33  34
HETATM   34  C16 UNL     1      -0.945   0.844  -2.400  1.00  0.00     0.033 A 
HETATM   35  C17 UNL     1      -2.354   0.797  -2.400  1.00  0.00     0.127 A 
HETATM   36  O4  UNL     1      -3.053   1.914  -2.400  1.00  0.00    -0.191 OA
HETATM   37  C18 UNL     1      -3.010  -0.449  -2.400  1.00  0.00     0.026 A 
HETATM   38  C19 UNL     1      -2.264  -1.645  -2.400  1.00  0.00     0.097 A 
HETATM   39  C27 UNL     1      -4.496  -0.502  -2.400  1.00  0.00     0.035 C 
HETATM   40  C20 UNL     1      -0.858  -1.590  -2.400  1.00  0.00     0.082 A 
HETATM   41  C21 UNL     1      -0.195  -0.348  -2.400  1.00  0.00     0.134 A 
HETATM   42  O5  UNL     1       1.123  -0.295  -2.400  1.00  0.00    -0.190 OA
BRANCH  38  43
HETATM   43  O7  UNL     1      -2.885  -2.809  -2.400  1.00  0.00    -0.328 OA
HETATM   44  C26 UNL     1      -3.102  -3.447  -1.150  1.00  0.00     0.181 C 
ENDBRANCH  38  43
BRANCH  40  45
HETATM   45  C22 UNL     1      -0.063  -2.857  -2.400  1.00  0.00     0.177 C 
HETATM   46  O6  UNL     1       0.898  -2.990  -1.678  1.00  0.00    -0.291 OA
BRANCH  45  47
HETATM   47  C23 UNL     1      -0.492  -3.965  -3.324  1.00  0.00     0.069 C 
BRANCH  47  48
HETATM   48  C24 UNL     1       0.652  -4.918  -3.666  1.00  0.00     0.008 C 
HETATM   49  C25 UNL     1       0.228  -6.029  -4.627  1.00  0.00     0.001 C 
ENDBRANCH  47  48
ENDBRANCH  45  47
ENDBRANCH  40  45
ENDBRANCH  33  34
ENDBRANCH   6  33
TORSDOF 15
