REMARK  18 active torsions:
REMARK  status: ('A' for Active; 'I' for Inactive)
REMARK    1  A    between atoms: C4_4  and  C16_18 
REMARK    2  A    between atoms: C5_5  and  C7_7 
REMARK    3  A    between atoms: C7_7  and  O1_8 
REMARK    4  A    between atoms: O1_8  and  C8_9 
REMARK    5  A    between atoms: C8_9  and  C9_10 
REMARK    6  A    between atoms: C9_10  and  C10_11 
REMARK    7  A    between atoms: C10_11  and  C11_12 
REMARK    8  A    between atoms: C11_12  and  C12_13 
REMARK    9  A    between atoms: C12_13  and  C13_14 
REMARK   10  A    between atoms: C13_14  and  C14_15 
REMARK   11  A    between atoms: C16_18  and  O3_19 
REMARK   12  A    between atoms: O3_19  and  C17_20 
REMARK   13  A    between atoms: C17_20  and  C18_21 
REMARK   14  A    between atoms: C18_21  and  C19_22 
REMARK   15  A    between atoms: C19_22  and  C20_23 
REMARK   16  A    between atoms: C20_23  and  C21_24 
REMARK   17  A    between atoms: C21_24  and  C22_25 
REMARK   18  A    between atoms: C22_25  and  C23_26 
ROOT
HETATM    1  C1  UNL     1       5.938  -3.234   0.484  1.00  0.00     0.000 A 
HETATM    2  C2  UNL     1       5.850  -4.553   0.907  1.00  0.00     0.000 A 
HETATM    3  C3  UNL     1       4.596  -5.162   1.018  1.00  0.00     0.005 A 
HETATM    4  C4  UNL     1       3.375  -4.520   0.712  1.00  0.00     0.068 A 
HETATM    5  C5  UNL     1       3.502  -3.180   0.270  1.00  0.00     0.068 A 
HETATM    6  C6  UNL     1       4.755  -2.568   0.167  1.00  0.00     0.005 A 
ENDROOT
BRANCH   4   7
HETATM    7  C16 UNL     1       2.142  -5.370   0.922  1.00  0.00     0.296 C 
HETATM    8  O4  UNL     1       2.388  -6.486   1.383  1.00  0.00    -0.259 OA
BRANCH   7   9
HETATM    9  O3  UNL     1       0.804  -5.154   0.731  1.00  0.00    -0.298 OA
BRANCH   9  10
HETATM   10  C17 UNL     1       0.264  -3.987   0.208  1.00  0.00     0.152 C 
BRANCH  10  11
HETATM   11  C18 UNL     1      -1.257  -4.126   0.122  1.00  0.00     0.033 C 
BRANCH  11  12
HETATM   12  C19 UNL     1      -1.876  -2.832  -0.431  1.00  0.00     0.003 C 
BRANCH  12  13
HETATM   13  C20 UNL     1      -3.402  -2.928  -0.571  1.00  0.00     0.000 C 
BRANCH  13  14
HETATM   14  C21 UNL     1      -3.994  -1.618  -1.116  1.00  0.00     0.000 C 
BRANCH  14  15
HETATM   15  C22 UNL     1      -5.521  -1.697  -1.279  1.00  0.00     0.000 C 
BRANCH  15  16
HETATM   16  C23 UNL     1      -6.112  -0.399  -1.853  1.00  0.00     0.000 C 
HETATM   17  C24 UNL     1      -7.632  -0.495  -2.041  1.00  0.00     0.000 C 
ENDBRANCH  15  16
ENDBRANCH  14  15
ENDBRANCH  13  14
ENDBRANCH  12  13
ENDBRANCH  11  12
ENDBRANCH  10  11
ENDBRANCH   9  10
ENDBRANCH   7   9
ENDBRANCH   4   7
BRANCH   5  18
HETATM   18  C7  UNL     1       2.425  -2.233  -0.242  1.00  0.00     0.296 C 
HETATM   19  O2  UNL     1       2.239  -2.279  -1.450  1.00  0.00    -0.259 OA
BRANCH  18  20
HETATM   20  O1  UNL     1       2.053  -1.136   0.492  1.00  0.00    -0.298 OA
BRANCH  20  21
HETATM   21  C8  UNL     1       2.042   0.100  -0.174  1.00  0.00     0.152 C 
BRANCH  21  22
HETATM   22  C9  UNL     1       1.122   1.112   0.520  1.00  0.00     0.033 C 
BRANCH  22  23
HETATM   23  C10 UNL     1       1.730   2.521   0.412  1.00  0.00     0.003 C 
BRANCH  23  24
HETATM   24  C11 UNL     1       0.760   3.680   0.686  1.00  0.00     0.000 C 
BRANCH  24  25
HETATM   25  C12 UNL     1       1.544   5.003   0.754  1.00  0.00     0.000 C 
BRANCH  25  26
HETATM   26  C13 UNL     1       0.659   6.257   0.801  1.00  0.00     0.000 C 
BRANCH  26  27
HETATM   27  C14 UNL     1       1.519   7.531   0.877  1.00  0.00     0.000 C 
HETATM   28  C15 UNL     1       0.660   8.802   0.876  1.00  0.00     0.000 C 
ENDBRANCH  26  27
ENDBRANCH  25  26
ENDBRANCH  24  25
ENDBRANCH  23  24
ENDBRANCH  22  23
ENDBRANCH  21  22
ENDBRANCH  20  21
ENDBRANCH  18  20
ENDBRANCH   5  18
TORSDOF 18
