REMARK  3 active torsions:
REMARK  status: ('A' for Active; 'I' for Inactive)
REMARK    1  A    between atoms: C2_2  and  N2_26 
REMARK    2  A    between atoms: C15_15  and  C18_18 
REMARK    3  A    between atoms: C18_18  and  N1_19 
ROOT
HETATM    1  C1  UNL     1      -3.584  -0.072  -1.471  1.00  0.00     0.036 C 
HETATM    2  C2  UNL     1      -4.389  -0.859  -0.424  1.00  0.00     0.249 C 
HETATM    3  C3  UNL     1      -3.434  -1.661   0.478  1.00  0.00     0.183 C 
HETATM    4  C4  UNL     1      -2.007  -1.095   0.524  1.00  0.00     0.033 C 
HETATM    5  C5  UNL     1      -1.936   0.454   0.497  1.00  0.00     0.003 C 
HETATM    6  C6  UNL     1      -2.612   0.934  -0.820  1.00  0.00     0.002 C 
HETATM    7  C7  UNL     1      -0.430   0.850   0.509  1.00  0.00     0.000 C 
HETATM    8  C8  UNL     1       0.350   0.289   1.715  1.00  0.00     0.000 C 
HETATM    9  C9  UNL     1       0.301  -1.248   1.623  1.00  0.00     0.000 C 
HETATM   10  C10 UNL     1      -1.158  -1.738   1.635  1.00  0.00     0.003 C 
HETATM   11  C11 UNL     1       1.713   1.000   1.957  1.00  0.00     0.000 C 
HETATM   12  C12 UNL     1       2.389   1.687   0.735  1.00  0.00     0.002 C 
HETATM   13  C13 UNL     1       1.350   2.468  -0.108  1.00  0.00     0.000 C 
HETATM   14  C14 UNL     1      -0.102   2.343   0.380  1.00  0.00     0.000 C 
HETATM   15  C15 UNL     1       3.072   0.472   0.033  1.00  0.00     0.031 C 
HETATM   16  C16 UNL     1       3.519  -0.418   1.220  1.00  0.00     0.002 C 
HETATM   17  C17 UNL     1       2.818   0.082   2.491  1.00  0.00     0.000 C 
HETATM   18  C22 UNL     1       3.455   2.700   1.231  1.00  0.00     0.000 C 
HETATM   19  C23 UNL     1      -2.662   1.101   1.701  1.00  0.00     0.000 C 
HETATM   20  O1  UNL     1      -3.984  -1.723   1.775  1.00  0.00    -0.221 OA
ENDROOT
BRANCH  15  21
HETATM   21  C18 UNL     1       4.196   0.719  -1.013  1.00  0.00     0.219 C 
HETATM   22  C21 UNL     1       3.815   1.758  -2.093  1.00  0.00     0.035 C 
BRANCH  21  23
HETATM   23  N1  UNL     1       4.721  -0.460  -1.723  1.00  0.00     0.139 N 
HETATM   24  C19 UNL     1       5.575  -1.332  -0.931  1.00  0.00     0.285 C 
HETATM   25  C20 UNL     1       3.702  -1.256  -2.396  1.00  0.00     0.285 C 
ENDBRANCH  21  23
ENDBRANCH  15  21
BRANCH   2  26
HETATM   26  N2  UNL     1      -5.463  -1.706  -0.951  1.00  0.00     0.142 N 
HETATM   27  C24 UNL     1      -6.629  -0.930  -1.355  1.00  0.00     0.285 C 
HETATM   28  C25 UNL     1      -5.049  -2.569  -2.050  1.00  0.00     0.285 C 
ENDBRANCH   2  26
TORSDOF 3
