REMARK  12 active torsions:
REMARK  status: ('A' for Active; 'I' for Inactive)
REMARK    1  A    between atoms: C1_1  and  O12_47 
REMARK    2  A    between atoms: C2_2  and  C32_42 
REMARK    3  A    between atoms: C4_4  and  C8_9 
REMARK    4  A    between atoms: C8_9  and  C9_10 
REMARK    5  A    between atoms: C11_13  and  C28_36 
REMARK    6  A    between atoms: C13_15  and  C15_18 
REMARK    7  A    between atoms: C15_18  and  C16_19 
REMARK    8  A    between atoms: C19_23  and  O7_32 
REMARK    9  A    between atoms: C20_24  and  C22_27 
REMARK   10  A    between atoms: C22_27  and  C23_28 
REMARK   11  A    between atoms: C28_36  and  C29_37 
REMARK   12  A    between atoms: C32_42  and  C33_44 
ROOT
HETATM    1  C9  UNL     1       0.268   2.191   0.451  1.00  0.00     0.033 A 
HETATM    2  C10 UNL     1      -1.127   2.281   0.266  1.00  0.00     0.134 A 
HETATM    3  O2  UNL     1      -1.930   2.295   1.312  1.00  0.00    -0.190 OA
HETATM    4  C11 UNL     1      -1.656   2.359  -1.037  1.00  0.00     0.085 A 
HETATM    5  C12 UNL     1      -0.795   2.346  -2.152  1.00  0.00     0.134 A 
HETATM    6  C13 UNL     1       0.596   2.254  -1.961  1.00  0.00     0.033 A 
HETATM    7  C14 UNL     1       1.131   2.176  -0.662  1.00  0.00     0.128 A 
HETATM    8  O3  UNL     1       2.436   2.090  -0.484  1.00  0.00    -0.191 OA
HETATM    9  O8  UNL     1      -1.289   2.418  -3.375  1.00  0.00    -0.190 OA
ENDROOT
BRANCH   1  10
HETATM   10  C8  UNL     1       0.828   2.109   1.826  1.00  0.00     0.061 C 
BRANCH  10  11
HETATM   11  C4  UNL     1       0.266   0.920   2.523  1.00  0.00     0.033 A 
HETATM   12  C3  UNL     1      -0.492   1.088   3.697  1.00  0.00     0.134 A 
HETATM   13  C2  UNL     1      -1.023  -0.041   4.353  1.00  0.00     0.082 A 
HETATM   14  O10 UNL     1      -0.701   2.297   4.180  1.00  0.00    -0.190 OA
HETATM   15  C1  UNL     1      -0.799  -1.332   3.838  1.00  0.00     0.097 A 
HETATM   16  C6  UNL     1      -0.039  -1.492   2.664  1.00  0.00     0.026 A 
HETATM   17  C5  UNL     1       0.494  -0.369   2.004  1.00  0.00     0.127 A 
HETATM   18  C7  UNL     1       0.199  -2.858   2.115  1.00  0.00     0.035 C 
HETATM   19  O1  UNL     1       1.205  -0.524   0.902  1.00  0.00    -0.191 OA
BRANCH  13  20
HETATM   20  C32 UNL     1      -1.828   0.135   5.603  1.00  0.00     0.176 C 
HETATM   21  O11 UNL     1      -1.365   0.697   6.566  1.00  0.00    -0.291 OA
BRANCH  20  22
HETATM   22  C33 UNL     1      -3.232  -0.410   5.623  1.00  0.00     0.062 C 
HETATM   23  C34 UNL     1      -3.971  -0.070   6.918  1.00  0.00     0.008 C 
HETATM   24  C35 UNL     1      -4.023  -0.025   4.373  1.00  0.00     0.008 C 
ENDBRANCH  20  22
ENDBRANCH  13  20
BRANCH  15  25
HETATM   25  O12 UNL     1      -1.295  -2.389   4.453  1.00  0.00    -0.328 OA
HETATM   26  C36 UNL     1      -2.227  -3.194   3.746  1.00  0.00     0.181 C 
ENDBRANCH  15  25
ENDBRANCH  10  11
ENDBRANCH   1  10
BRANCH   4  27
HETATM   27  C28 UNL     1      -3.135   2.457  -1.236  1.00  0.00     0.176 C 
HETATM   28  O9  UNL     1      -3.791   1.478  -1.512  1.00  0.00    -0.291 OA
BRANCH  27  29
HETATM   29  C29 UNL     1      -3.783   3.807  -1.086  1.00  0.00     0.062 C 
HETATM   30  C30 UNL     1      -3.268   4.818  -2.110  1.00  0.00     0.008 C 
HETATM   31  C31 UNL     1      -5.311   3.721  -1.059  1.00  0.00     0.008 C 
ENDBRANCH  27  29
ENDBRANCH   4  27
BRANCH   6  32
HETATM   32  C15 UNL     1       1.508   2.238  -3.139  1.00  0.00     0.061 C 
BRANCH  32  33
HETATM   33  C16 UNL     1       2.297   0.976  -3.139  1.00  0.00     0.033 A 
HETATM   34  C17 UNL     1       3.705   1.031  -3.139  1.00  0.00     0.127 A 
HETATM   35  O4  UNL     1       4.322   2.197  -3.139  1.00  0.00    -0.191 OA
HETATM   36  C18 UNL     1       4.449  -0.162  -3.139  1.00  0.00     0.026 A 
HETATM   37  C19 UNL     1       3.793  -1.408  -3.139  1.00  0.00     0.097 A 
HETATM   38  C27 UNL     1       5.938  -0.109  -3.139  1.00  0.00     0.035 C 
HETATM   39  C20 UNL     1       2.385  -1.457  -3.139  1.00  0.00     0.082 A 
HETATM   40  C21 UNL     1       1.635  -0.266  -3.139  1.00  0.00     0.134 A 
HETATM   41  O5  UNL     1       0.316  -0.309  -3.139  1.00  0.00    -0.190 OA
BRANCH  37  42
HETATM   42  O7  UNL     1       4.498  -2.526  -3.139  1.00  0.00    -0.328 OA
HETATM   43  C26 UNL     1       5.193  -2.873  -4.326  1.00  0.00     0.181 C 
ENDBRANCH  37  42
BRANCH  39  44
HETATM   44  C22 UNL     1       1.686  -2.779  -3.139  1.00  0.00     0.176 C 
HETATM   45  O6  UNL     1       0.807  -3.018  -3.934  1.00  0.00    -0.291 OA
BRANCH  44  46
HETATM   46  C23 UNL     1       2.106  -3.805  -2.119  1.00  0.00     0.062 C 
HETATM   47  C24 UNL     1       0.982  -4.151  -1.143  1.00  0.00     0.008 C 
HETATM   48  C25 UNL     1       2.731  -5.043  -2.762  1.00  0.00     0.008 C 
ENDBRANCH  44  46
ENDBRANCH  39  44
ENDBRANCH  32  33
ENDBRANCH   6  32
TORSDOF 12
