REMARK  8 active torsions:
REMARK  status: ('A' for Active; 'I' for Inactive)
REMARK    1  A    between atoms: C5_5  and  C7_7 
REMARK    2  A    between atoms: C8_8  and  C9_9 
REMARK    3  A    between atoms: C9_9  and  O2_11 
REMARK    4  A    between atoms: O2_11  and  C10_12 
REMARK    5  A    between atoms: C11_13  and  O4_23 
REMARK    6  A    between atoms: C13_15  and  C17_20 
REMARK    7  A    between atoms: C15_17  and  O3_18 
REMARK    8  A    between atoms: C17_20  and  C18_21 
ROOT
HETATM    1  C10 UNL     1      -0.919   0.259   0.193  1.00  0.00     0.147 A 
HETATM    2  C11 UNL     1      -1.760  -0.868   0.282  1.00  0.00     0.118 A 
HETATM    3  C12 UNL     1      -3.143  -0.663   0.207  1.00  0.00     0.022 A 
HETATM    4  C13 UNL     1      -3.699   0.604   0.024  1.00  0.00    -0.014 A 
HETATM    5  C14 UNL     1      -2.834   1.697  -0.040  1.00  0.00     0.022 A 
HETATM    6  C15 UNL     1      -1.444   1.562   0.069  1.00  0.00     0.118 A 
ENDROOT
BRANCH   1   7
HETATM    7  O2  UNL     1       0.436   0.064   0.276  1.00  0.00    -0.269 OA
BRANCH   7   8
HETATM    8  C9  UNL     1       1.179   0.336  -0.839  1.00  0.00     0.300 C 
HETATM    9  O1  UNL     1       0.647   0.670  -1.894  1.00  0.00    -0.259 OA
BRANCH   8  10
HETATM   10  C8  UNL     1       2.660   0.194  -0.834  1.00  0.00     0.069 C 
HETATM   11  C7  UNL     1       3.322  -0.328   0.224  1.00  0.00     0.005 C 
BRANCH  11  12
HETATM   12  C5  UNL     1       4.780  -0.521   0.285  1.00  0.00     0.000 A 
HETATM   13  C4  UNL     1       5.300  -1.479   1.172  1.00  0.00     0.000 A 
HETATM   14  C3  UNL     1       6.675  -1.688   1.278  1.00  0.00     0.000 A 
HETATM   15  C2  UNL     1       7.559  -0.920   0.517  1.00  0.00     0.000 A 
HETATM   16  C1  UNL     1       7.059   0.060  -0.342  1.00  0.00     0.000 A 
HETATM   17  C6  UNL     1       5.681   0.260  -0.456  1.00  0.00     0.000 A 
ENDBRANCH  11  12
ENDBRANCH   8  10
ENDBRANCH   7   8
ENDBRANCH   1   7
BRANCH   2  18
HETATM   18  O4  UNL     1      -1.172  -2.097   0.463  1.00  0.00    -0.326 OA
HETATM   19  C20 UNL     1      -1.993  -3.218   0.690  1.00  0.00     0.181 C 
ENDBRANCH   2  18
BRANCH   6  20
HETATM   20  O3  UNL     1      -0.563   2.617   0.033  1.00  0.00    -0.326 OA
HETATM   21  C16 UNL     1      -1.054   3.904  -0.259  1.00  0.00     0.181 C 
ENDBRANCH   6  20
BRANCH   4  22
HETATM   22  C17 UNL     1      -5.198   0.772  -0.067  1.00  0.00     0.052 C 
BRANCH  22  23
HETATM   23  C18 UNL     1      -5.765  -0.086  -1.169  1.00  0.00    -0.021 C 
HETATM   24  C19 UNL     1      -6.641  -1.080  -0.965  1.00  0.00    -0.005 C 
ENDBRANCH  22  23
ENDBRANCH   4  22
TORSDOF 8
