REMARK  11 active torsions:
REMARK  status: ('A' for Active; 'I' for Inactive)
REMARK    1  A    between atoms: C5_5  and  C7_7 
REMARK    2  A    between atoms: C7_7  and  O1_8 
REMARK    3  A    between atoms: O1_8  and  C8_9 
REMARK    4  A    between atoms: C8_9  and  C9_10 
REMARK    5  A    between atoms: C12_13  and  O8_28 
REMARK    6  A    between atoms: C13_14  and  O3_16 
REMARK    7  A    between atoms: O3_16  and  C14_17 
REMARK    8  A    between atoms: C14_17  and  C15_18 
REMARK    9  A    between atoms: O8_28  and  C21_29 
REMARK   10  A    between atoms: C21_29  and  C22_30 
REMARK   11  A    between atoms: C23_31  and  C24_32 
ROOT
HETATM    1  C9  UNL     1       0.582  -2.193  -0.484  1.00  0.00     0.181 C 
HETATM    2  C10 UNL     1       0.967  -1.724  -1.882  1.00  0.00     0.214 C 
HETATM    3  C11 UNL     1       0.200  -0.469  -2.247  1.00  0.00     0.217 C 
HETATM    4  C12 UNL     1       0.471   0.597  -1.196  1.00  0.00     0.211 C 
HETATM    5  C13 UNL     1       0.015   0.013   0.130  1.00  0.00     0.274 C 
HETATM    6  O2  UNL     1       0.765  -1.149   0.436  1.00  0.00    -0.326 OA
HETATM    7  O9  UNL     1       0.634  -0.016  -3.504  1.00  0.00    -0.218 OA
HETATM    8  O10 UNL     1       0.662  -2.707  -2.840  1.00  0.00    -0.218 OA
ENDROOT
BRANCH   1   9
HETATM    9  C8  UNL     1       1.429  -3.385  -0.032  1.00  0.00     0.183 C 
BRANCH   9  10
HETATM   10  O1  UNL     1       0.862  -3.928   1.130  1.00  0.00    -0.306 OA
BRANCH  10  11
HETATM   11  C7  UNL     1       1.488  -4.952   1.777  1.00  0.00     0.229 C 
HETATM   12  O11 UNL     1       0.902  -5.491   2.835  1.00  0.00    -0.163 OA
BRANCH  11  13
HETATM   13  C5  UNL     1       2.845  -5.549   1.421  1.00  0.00     0.053 C 
HETATM   14  C4  UNL     1       2.946  -6.886   1.226  1.00  0.00     0.034 C 
HETATM   15  C3  UNL     1       4.280  -7.501   0.954  1.00  0.00     0.158 C 
HETATM   16  C2  UNL     1       5.426  -6.566   0.656  1.00  0.00     0.181 C 
HETATM   17  O12 UNL     1       4.532  -8.804   1.241  1.00  0.00    -0.188 OA
HETATM   18  C1  UNL     1       5.271  -5.137   1.082  1.00  0.00     0.158 C 
HETATM   19  O13 UNL     1       6.658  -7.117   0.512  1.00  0.00    -0.186 OA
HETATM   20  C6  UNL     1       4.041  -4.694   1.443  1.00  0.00     0.034 C 
HETATM   21  O14 UNL     1       6.346  -4.306   1.127  1.00  0.00    -0.188 OA
ENDBRANCH  11  13
ENDBRANCH  10  11
ENDBRANCH   9  10
ENDBRANCH   1   9
BRANCH   5  22
HETATM   22  O3  UNL     1       0.329   0.883   1.196  1.00  0.00    -0.270 OA
BRANCH  22  23
HETATM   23  C14 UNL     1      -0.580   1.179   2.173  1.00  0.00     0.298 C 
HETATM   24  O7  UNL     1      -0.198   1.799   3.161  1.00  0.00    -0.259 OA
BRANCH  23  25
HETATM   25  C15 UNL     1      -2.048   0.848   2.164  1.00  0.00     0.068 A 
HETATM   26  C16 UNL     1      -2.849   1.128   1.055  1.00  0.00     0.035 A 
HETATM   27  C17 UNL     1      -4.209   0.808   1.058  1.00  0.00     0.158 A 
HETATM   28  C18 UNL     1      -4.769   0.221   2.199  1.00  0.00     0.181 A 
HETATM   29  O6  UNL     1      -5.008   1.066  -0.009  1.00  0.00    -0.188 OA
HETATM   30  C19 UNL     1      -3.987  -0.036   3.328  1.00  0.00     0.158 A 
HETATM   31  O5  UNL     1      -6.090  -0.096   2.222  1.00  0.00    -0.186 OA
HETATM   32  C20 UNL     1      -2.627   0.290   3.306  1.00  0.00     0.035 A 
HETATM   33  O4  UNL     1      -4.555  -0.596   4.427  1.00  0.00    -0.188 OA
ENDBRANCH  23  25
ENDBRANCH  22  23
ENDBRANCH   5  22
BRANCH   4  34
HETATM   34  O8  UNL     1      -0.253   1.738  -1.562  1.00  0.00    -0.325 OA
BRANCH  34  35
HETATM   35  C21 UNL     1       0.150   2.997  -1.177  1.00  0.00     0.094 C 
HETATM   36  C30 UNL     1       1.272   3.283  -0.479  1.00  0.00     0.026 C 
BRANCH  35  37
HETATM   37  C22 UNL     1      -0.772   4.111  -1.485  1.00  0.00     0.024 C 
HETATM   38  C23 UNL     1      -0.447   5.424  -1.550  1.00  0.00     0.002 C 
BRANCH  38  39
HETATM   39  C24 UNL     1      -1.369   6.531  -1.854  1.00  0.00     0.000 A 
HETATM   40  C25 UNL     1      -0.826   7.805  -2.100  1.00  0.00     0.000 A 
HETATM   41  C26 UNL     1      -1.646   8.902  -2.363  1.00  0.00     0.000 A 
HETATM   42  C27 UNL     1      -3.034   8.750  -2.375  1.00  0.00     0.000 A 
HETATM   43  C28 UNL     1      -3.591   7.496  -2.119  1.00  0.00     0.000 A 
HETATM   44  C29 UNL     1      -2.766   6.399  -1.858  1.00  0.00     0.000 A 
ENDBRANCH  38  39
ENDBRANCH  35  37
ENDBRANCH  34  35
ENDBRANCH   4  34
TORSDOF 11
