REMARK  7 active torsions:
REMARK  status: ('A' for Active; 'I' for Inactive)
REMARK    1  A    between atoms: C1_1  and  C20_33 
REMARK    2  A    between atoms: C3_3  and  O8_20 
REMARK    3  A    between atoms: C4_4  and  O3_8 
REMARK    4  A    between atoms: O3_8  and  C6_9 
REMARK    5  A    between atoms: C6_9  and  C7_10 
REMARK    6  A    between atoms: O8_20  and  C13_21 
REMARK    7  A    between atoms: C13_21  and  C14_22 
ROOT
HETATM    1  C1  UNL     1       2.893   1.079  -0.686  1.00  0.00     0.184 C 
HETATM    2  C2  UNL     1       2.260  -0.290  -0.438  1.00  0.00     0.212 C 
HETATM    3  C3  UNL     1       0.918  -0.126   0.269  1.00  0.00     0.189 C 
HETATM    4  C4  UNL     1       0.056   0.758  -0.628  1.00  0.00     0.214 C 
HETATM    5  C5  UNL     1       0.784   2.067  -0.830  1.00  0.00     0.300 C 
HETATM    6  O1  UNL     1       2.029   1.875  -1.453  1.00  0.00    -0.324 OA
HETATM    7  O2  UNL     1       0.133   2.835  -1.826  1.00  0.00    -0.187 OA
HETATM    8  O13 UNL     1       3.095  -1.069   0.385  1.00  0.00    -0.218 OA
ENDROOT
BRANCH   3   9
HETATM    9  O8  UNL     1       0.305  -1.367   0.415  1.00  0.00    -0.306 OA
BRANCH   9  10
HETATM   10  C13 UNL     1      -0.319  -1.785   1.558  1.00  0.00     0.229 C 
HETATM   11  O12 UNL     1      -0.922  -2.962   1.480  1.00  0.00    -0.163 OA
BRANCH  10  12
HETATM   12  C14 UNL     1      -0.397  -1.108   2.927  1.00  0.00     0.053 C 
HETATM   13  C15 UNL     1      -0.525  -1.906   4.019  1.00  0.00     0.034 C 
HETATM   14  C16 UNL     1      -0.616  -1.278   5.371  1.00  0.00     0.158 C 
HETATM   15  C17 UNL     1       0.141   0.017   5.492  1.00  0.00     0.181 C 
HETATM   16  O11 UNL     1      -1.005  -1.938   6.488  1.00  0.00    -0.188 OA
HETATM   17  C18 UNL     1      -0.064   0.921   4.323  1.00  0.00     0.158 C 
HETATM   18  O10 UNL     1       0.299   0.574   6.719  1.00  0.00    -0.186 OA
HETATM   19  C19 UNL     1      -0.365   0.355   3.127  1.00  0.00     0.034 C 
HETATM   20  O9  UNL     1      -0.019   2.265   4.502  1.00  0.00    -0.188 OA
ENDBRANCH  10  12
ENDBRANCH   9  10
ENDBRANCH   3   9
BRANCH   4  21
HETATM   21  O3  UNL     1      -1.192   0.997  -0.044  1.00  0.00    -0.293 OA
BRANCH  21  22
HETATM   22  C6  UNL     1      -2.348   0.793  -0.749  1.00  0.00     0.296 C 
HETATM   23  O7  UNL     1      -3.412   1.150  -0.257  1.00  0.00    -0.259 OA
BRANCH  22  24
HETATM   24  C7  UNL     1      -2.440   0.104  -2.089  1.00  0.00     0.067 A 
HETATM   25  C8  UNL     1      -3.004   0.772  -3.176  1.00  0.00     0.035 A 
HETATM   26  C9  UNL     1      -3.065   0.151  -4.429  1.00  0.00     0.158 A 
HETATM   27  C10 UNL     1      -2.572  -1.149  -4.573  1.00  0.00     0.181 A 
HETATM   28  O6  UNL     1      -3.583   0.783  -5.514  1.00  0.00    -0.188 OA
HETATM   29  C11 UNL     1      -2.041  -1.843  -3.479  1.00  0.00     0.158 A 
HETATM   30  O5  UNL     1      -2.617  -1.765  -5.783  1.00  0.00    -0.186 OA
HETATM   31  C12 UNL     1      -1.991  -1.209  -2.237  1.00  0.00     0.035 A 
HETATM   32  O4  UNL     1      -1.604  -3.119  -3.633  1.00  0.00    -0.188 OA
ENDBRANCH  22  24
ENDBRANCH  21  22
ENDBRANCH   4  21
BRANCH   1  33
HETATM   33  C20 UNL     1       4.237   0.991  -1.405  1.00  0.00     0.214 C 
HETATM   34  O14 UNL     1       5.211   1.720  -0.686  1.00  0.00    -0.218 OA
ENDBRANCH   1  33
TORSDOF 7
