REMARK  7 active torsions:
REMARK  status: ('A' for Active; 'I' for Inactive)
REMARK    1  A    between atoms: O1_1  and  C1_2 
REMARK    2  A    between atoms: O1_1  and  C8_13 
REMARK    3  A    between atoms: C1_2  and  C2_3 
REMARK    4  A    between atoms: C10_16  and  C13_22 
REMARK    5  A    between atoms: C13_22  and  O10_23 
REMARK    6  A    between atoms: O10_23  and  C14_24 
REMARK    7  A    between atoms: C14_24  and  C15_26 
ROOT
HETATM    1  C8  UNL     1      -1.368   0.747  -0.676  1.00  0.00     0.192 C 
HETATM    2  C9  UNL     1      -1.725   1.826   0.339  1.00  0.00     0.212 C 
HETATM    3  O6  UNL     1      -1.604   1.317   1.646  1.00  0.00    -0.218 OA
HETATM    4  C10 UNL     1      -0.821   3.044   0.141  1.00  0.00     0.181 C 
HETATM    5  O7  UNL     1      -1.002   3.565  -1.151  1.00  0.00    -0.324 OA
HETATM    6  C11 UNL     1      -0.805   2.626  -2.182  1.00  0.00     0.303 C 
HETATM    7  C12 UNL     1      -1.634   1.370  -2.037  1.00  0.00     0.241 C 
HETATM    8  O8  UNL     1      -1.262   0.481  -3.062  1.00  0.00    -0.215 OA
HETATM    9  O9  UNL     1      -1.277   3.374  -3.288  1.00  0.00    -0.187 OA
ENDROOT
BRANCH   4  10
HETATM   10  C13 UNL     1       0.640   2.721   0.451  1.00  0.00     0.184 C 
BRANCH  10  11
HETATM   11  O10 UNL     1       1.459   3.848   0.537  1.00  0.00    -0.296 OA
BRANCH  11  12
HETATM   12  C14 UNL     1       2.827   3.691   0.559  1.00  0.00     0.296 C 
HETATM   13  O11 UNL     1       3.486   4.729   0.626  1.00  0.00    -0.259 OA
BRANCH  12  14
HETATM   14  C15 UNL     1       3.641   2.424   0.489  1.00  0.00     0.067 A 
HETATM   15  C16 UNL     1       4.987   2.518   0.100  1.00  0.00     0.035 A 
HETATM   16  C17 UNL     1       5.806   1.392  -0.038  1.00  0.00     0.158 A 
HETATM   17  C18 UNL     1       5.268   0.123   0.189  1.00  0.00     0.181 A 
HETATM   18  O14 UNL     1       7.104   1.493  -0.424  1.00  0.00    -0.188 OA
HETATM   19  C19 UNL     1       3.939  -0.013   0.600  1.00  0.00     0.158 A 
HETATM   20  O13 UNL     1       6.030  -0.988   0.021  1.00  0.00    -0.186 OA
HETATM   21  C20 UNL     1       3.162   1.133   0.768  1.00  0.00     0.035 A 
HETATM   22  O12 UNL     1       3.416  -1.250   0.810  1.00  0.00    -0.188 OA
ENDBRANCH  12  14
ENDBRANCH  11  12
ENDBRANCH  10  11
ENDBRANCH   4  10
BRANCH   1  23
HETATM   23  O1  UNL     1      -2.132  -0.407  -0.477  1.00  0.00    -0.306 OA
BRANCH  23  24
HETATM   24  C1  UNL     1      -1.538  -1.466   0.158  1.00  0.00     0.229 C 
HETATM   25  O5  UNL     1      -0.275  -1.419   0.555  1.00  0.00    -0.163 OA
BRANCH  24  26
HETATM   26  C2  UNL     1      -2.327  -2.728   0.461  1.00  0.00     0.053 C 
HETATM   27  C3  UNL     1      -1.677  -3.882   0.753  1.00  0.00     0.034 C 
HETATM   28  C4  UNL     1      -2.459  -5.130   0.998  1.00  0.00     0.158 C 
HETATM   29  C5  UNL     1      -3.921  -4.942   1.307  1.00  0.00     0.181 C 
HETATM   30  O4  UNL     1      -1.883  -6.327   1.265  1.00  0.00    -0.188 OA
HETATM   31  C6  UNL     1      -4.576  -3.733   0.728  1.00  0.00     0.158 C 
HETATM   32  O3  UNL     1      -4.687  -6.014   1.625  1.00  0.00    -0.186 OA
HETATM   33  C7  UNL     1      -3.795  -2.691   0.351  1.00  0.00     0.034 C 
HETATM   34  O2  UNL     1      -5.928  -3.695   0.626  1.00  0.00    -0.188 OA
ENDBRANCH  24  26
ENDBRANCH  23  24
ENDBRANCH   1  23
TORSDOF 7
