REMARK  2 active torsions:
REMARK  status: ('A' for Active; 'I' for Inactive)
REMARK    1  A    between atoms: C4_4  and  O2_8 
REMARK    2  A    between atoms: O2_8  and  C7_9 
ROOT
HETATM    1  C7  UNL     1      -1.644   0.992  -0.846  1.00  0.00     0.118 C 
HETATM    2  C8  UNL     1      -0.291   0.305  -1.183  1.00  0.00     0.030 C 
HETATM    3  C9  UNL     1      -0.102  -1.154  -0.669  1.00  0.00     0.002 C 
HETATM    4  C10 UNL     1      -0.387  -1.222   0.870  1.00  0.00     0.000 C 
HETATM    5  C11 UNL     1      -1.738  -0.541   1.214  1.00  0.00     0.003 C 
HETATM    6  C12 UNL     1      -2.059   0.833   0.620  1.00  0.00     0.030 C 
HETATM    7  C13 UNL     1       0.815  -0.637   1.707  1.00  0.00     0.002 C 
HETATM    8  C14 UNL     1       2.176  -1.378   1.420  1.00  0.00     0.028 C 
HETATM    9  C15 UNL     1       2.503  -1.449  -0.083  1.00  0.00     0.002 C 
HETATM   10  C16 UNL     1       1.297  -1.765  -0.970  1.00  0.00     0.000 C 
HETATM   11  C17 UNL     1       3.328  -0.899   2.344  1.00  0.00     0.127 C 
HETATM   12  C18 UNL     1       3.335   0.626   2.380  1.00  0.00     0.029 C 
HETATM   13  C19 UNL     1       2.348   1.324   1.456  1.00  0.00     0.030 C 
HETATM   14  C20 UNL     1       0.933   0.918   1.812  1.00  0.00     0.003 C 
HETATM   15  C21 UNL     1       2.936   2.733   1.304  1.00  0.00     0.129 C 
HETATM   16  C22 UNL     1       4.451   2.541   1.586  1.00  0.00     0.055 C 
HETATM   17  C23 UNL     1       4.582   1.032   1.580  1.00  0.00     0.009 C 
HETATM   18  C24 UNL     1       5.632   0.089   2.156  1.00  0.00     0.003 C 
HETATM   19  C25 UNL     1       4.814  -1.234   2.059  1.00  0.00     0.030 C 
HETATM   20  C26 UNL     1       5.192   3.089   0.557  1.00  0.00     0.044 C 
HETATM   21  C27 UNL     1       4.088   3.436  -0.402  1.00  0.00     0.292 C 
HETATM   22  O3  UNL     1       2.805   3.212  -0.011  1.00  0.00    -0.301 OA
HETATM   23  O4  UNL     1       4.361   3.868  -1.513  1.00  0.00    -0.260 OA
HETATM   24  C28 UNL     1       3.283   1.203   3.814  1.00  0.00     0.003 C 
HETATM   25  O5  UNL     1       3.055  -1.423   3.623  1.00  0.00    -0.226 OA
HETATM   26  C29 UNL     1      -0.603  -2.692   1.353  1.00  0.00     0.000 C 
HETATM   27  C30 UNL     1      -1.024  -2.023  -1.573  1.00  0.00     0.000 C 
ENDROOT
BRANCH   1  28
HETATM   28  O2  UNL     1      -2.644   0.546  -1.730  1.00  0.00    -0.333 OA
BRANCH  28  29
HETATM   29  C4  UNL     1      -3.902   1.185  -1.641  1.00  0.00     0.238 C 
HETATM   30  C3  UNL     1      -4.383   1.694  -2.986  1.00  0.00     0.097 C 
HETATM   31  C2  UNL     1      -4.622   0.521  -3.919  1.00  0.00     0.190 C 
HETATM   32  C1  UNL     1      -5.648  -0.404  -3.290  1.00  0.00     0.209 C 
HETATM   33  O6  UNL     1      -5.060   0.987  -5.173  1.00  0.00    -0.221 OA
HETATM   34  C5  UNL     1      -5.277  -0.788  -1.863  1.00  0.00     0.151 C 
HETATM   35  O7  UNL     1      -6.915   0.210  -3.265  1.00  0.00    -0.218 OA
HETATM   36  O1  UNL     1      -4.812   0.271  -1.060  1.00  0.00    -0.331 OA
HETATM   37  C6  UNL     1      -4.378  -2.021  -1.823  1.00  0.00     0.035 C 
ENDBRANCH  28  29
ENDBRANCH   1  28
TORSDOF 2
