REMARK  14 active torsions:
REMARK  status: ('A' for Active; 'I' for Inactive)
REMARK    1  A    between atoms: C24_27  and  O4_29 
REMARK    2  A    between atoms: O4_29  and  C26_30 
REMARK    3  A    between atoms: C27_32  and  C54_81 
REMARK    4  A    between atoms: C28_33  and  O8_38 
REMARK    5  A    between atoms: O8_38  and  C31_39 
REMARK    6  A    between atoms: C32_41  and  C53_79 
REMARK    7  A    between atoms: C34_43  and  O21_68 
REMARK    8  A    between atoms: C35_44  and  O10_45 
REMARK    9  A    between atoms: O10_45  and  C36_46 
REMARK   10  A    between atoms: C37_48  and  C47_66 
REMARK   11  A    between atoms: C39_50  and  O13_53 
REMARK   12  A    between atoms: O13_53  and  C41_54 
REMARK   13  A    between atoms: C42_56  and  C46_63 
REMARK   14  A    between atoms: O21_68  and  C48_69 
ROOT
HETATM    1  C31 UNL     1       0.964  -3.854  -1.563  1.00  0.00     0.267 C 
HETATM    2  O9  UNL     1       2.178  -4.475  -1.937  1.00  0.00    -0.326 OA
HETATM    3  C32 UNL     1       2.282  -5.794  -1.494  1.00  0.00     0.184 C 
HETATM    4  C33 UNL     1       1.239  -6.603  -2.245  1.00  0.00     0.211 C 
HETATM    5  C34 UNL     1      -0.155  -6.095  -1.917  1.00  0.00     0.183 C 
HETATM    6  C35 UNL     1      -0.246  -4.572  -2.148  1.00  0.00     0.204 C 
HETATM    7  O26 UNL     1       1.306  -7.961  -1.880  1.00  0.00    -0.218 OA
ENDROOT
BRANCH   1   8
HETATM    8  O8  UNL     1       1.149  -2.584  -2.159  1.00  0.00    -0.326 OA
BRANCH   8   9
HETATM    9  C28 UNL     1       1.556  -1.543  -1.315  1.00  0.00     0.181 C 
HETATM   10  C27 UNL     1       1.749  -0.280  -2.174  1.00  0.00     0.181 C 
HETATM   11  O5  UNL     1       2.034   0.830  -1.361  1.00  0.00    -0.326 OA
HETATM   12  C26 UNL     1       3.234   0.680  -0.639  1.00  0.00     0.270 C 
HETATM   13  C30 UNL     1       3.176  -0.551   0.231  1.00  0.00     0.241 C 
HETATM   14  C29 UNL     1       2.864  -1.797  -0.570  1.00  0.00     0.217 C 
HETATM   15  O6  UNL     1       4.407  -0.735   0.884  1.00  0.00    -0.215 OA
HETATM   16  O7  UNL     1       2.793  -2.835   0.378  1.00  0.00    -0.218 OA
BRANCH  10  17
HETATM   17  C54 UNL     1       0.560   0.113  -3.045  1.00  0.00     0.214 C 
HETATM   18  O28 UNL     1       0.354  -0.809  -4.096  1.00  0.00    -0.218 OA
ENDBRANCH  10  17
BRANCH  12  19
HETATM   19  O4  UNL     1       3.269   1.795   0.228  1.00  0.00    -0.329 OA
BRANCH  19  20
HETATM   20  C24 UNL     1       4.193   2.810  -0.061  1.00  0.00     0.148 C 
HETATM   21  C23 UNL     1       3.950   3.859   1.027  1.00  0.00     0.179 C 
HETATM   22  C22 UNL     1       5.125   4.780   1.353  1.00  0.00     0.035 C 
HETATM   23  O29 UNL     1       2.828   4.629   0.657  1.00  0.00    -0.221 OA
HETATM   24  C21 UNL     1       6.439   3.996   1.600  1.00  0.00     0.003 C 
HETATM   25  C2  UNL     1       7.629   4.956   1.922  1.00  0.00     0.000 C 
HETATM   26  C20 UNL     1       6.720   3.284   0.250  1.00  0.00     0.003 C 
HETATM   27  C55 UNL     1       6.220   2.987   2.757  1.00  0.00     0.000 C 
HETATM   28  C1  UNL     1       7.420   5.854   3.167  1.00  0.00     0.000 C 
HETATM   29  C3  UNL     1       8.970   4.176   1.920  1.00  0.00     0.003 C 
HETATM   30  C6  UNL     1       8.680   6.592   3.663  1.00  0.00     0.000 C 
HETATM   31  C5  UNL     1       9.863   5.620   3.823  1.00  0.00     0.005 C 
HETATM   32  C4  UNL     1      10.128   5.046   2.412  1.00  0.00     0.033 C 
HETATM   33  C7  UNL     1      11.229   6.301   4.092  1.00  0.00     0.035 C 
HETATM   34  C17 UNL     1       9.509   4.555   4.887  1.00  0.00     0.000 C 
HETATM   35  C9  UNL     1      11.535   4.452   2.485  1.00  0.00     0.179 C 
HETATM   36  C8  UNL     1      12.253   5.332   3.502  1.00  0.00     0.148 C 
HETATM   37  O1  UNL     1      11.507   3.113   2.922  1.00  0.00    -0.221 OA
HETATM   38  O2  UNL     1      12.730   4.574   4.570  1.00  0.00    -0.335 OA
HETATM   39  C10 UNL     1      12.817   5.402   5.702  1.00  0.00     0.187 C 
HETATM   40  C11 UNL     1      11.734   6.478   5.532  1.00  0.00     0.054 C 
HETATM   41  C13 UNL     1      12.604   4.580   6.968  1.00  0.00     0.056 C 
HETATM   42  O3  UNL     1      14.098   5.988   5.707  1.00  0.00    -0.335 OA
HETATM   43  C12 UNL     1      12.216   7.915   5.790  1.00  0.00     0.005 C 
HETATM   44  C14 UNL     1      13.705   3.533   7.148  1.00  0.00     0.008 C 
HETATM   45  C15 UNL     1      15.051   4.260   7.126  1.00  0.00     0.032 C 
HETATM   46  C16 UNL     1      15.167   5.085   5.849  1.00  0.00     0.145 C 
HETATM   47  C18 UNL     1       9.228   3.589   0.525  1.00  0.00     0.000 C 
HETATM   48  C19 UNL     1       8.102   2.611   0.175  1.00  0.00     0.000 C 
HETATM   49  C25 UNL     1       5.625   2.265  -0.099  1.00  0.00     0.032 C 
ENDBRANCH  19  20
ENDBRANCH  12  19
ENDBRANCH   8   9
ENDBRANCH   1   8
BRANCH   6  50
HETATM   50  O10 UNL     1      -1.437  -4.177  -1.524  1.00  0.00    -0.324 OA
BRANCH  50  51
HETATM   51  C36 UNL     1      -1.848  -2.831  -1.596  1.00  0.00     0.270 C 
HETATM   52  O11 UNL     1      -1.670  -2.319  -0.294  1.00  0.00    -0.326 OA
HETATM   53  C37 UNL     1      -2.151  -1.008  -0.148  1.00  0.00     0.184 C 
HETATM   54  C38 UNL     1      -3.640  -0.938  -0.478  1.00  0.00     0.211 C 
HETATM   55  C39 UNL     1      -3.920  -1.466  -1.877  1.00  0.00     0.186 C 
HETATM   56  O19 UNL     1      -4.092   0.394  -0.429  1.00  0.00    -0.218 OA
HETATM   57  C40 UNL     1      -3.318  -2.857  -1.930  1.00  0.00     0.238 C 
HETATM   58  O12 UNL     1      -3.445  -3.386  -3.220  1.00  0.00    -0.215 OA
BRANCH  53  59
HETATM   59  C47 UNL     1      -1.868  -0.548   1.277  1.00  0.00     0.214 C 
HETATM   60  O20 UNL     1      -0.474  -0.469   1.495  1.00  0.00    -0.218 OA
ENDBRANCH  53  59
BRANCH  55  61
HETATM   61  O13 UNL     1      -5.306  -1.526  -2.070  1.00  0.00    -0.326 OA
BRANCH  61  62
HETATM   62  C41 UNL     1      -5.710  -1.593  -3.425  1.00  0.00     0.270 C 
HETATM   63  O14 UNL     1      -6.226  -0.306  -3.694  1.00  0.00    -0.326 OA
HETATM   64  C42 UNL     1      -6.678  -0.185  -5.018  1.00  0.00     0.184 C 
HETATM   65  C43 UNL     1      -7.832  -1.157  -5.236  1.00  0.00     0.215 C 
HETATM   66  C44 UNL     1      -7.365  -2.574  -4.975  1.00  0.00     0.220 C 
HETATM   67  O17 UNL     1      -8.320  -1.108  -6.553  1.00  0.00    -0.218 OA
HETATM   68  C45 UNL     1      -6.775  -2.659  -3.585  1.00  0.00     0.241 C 
HETATM   69  O16 UNL     1      -8.456  -3.453  -5.080  1.00  0.00    -0.218 OA
HETATM   70  O15 UNL     1      -6.217  -3.945  -3.418  1.00  0.00    -0.215 OA
BRANCH  64  71
HETATM   71  C46 UNL     1      -7.055   1.270  -5.259  1.00  0.00     0.214 C 
HETATM   72  O18 UNL     1      -7.007   1.562  -6.642  1.00  0.00    -0.218 OA
ENDBRANCH  64  71
ENDBRANCH  61  62
ENDBRANCH  55  61
ENDBRANCH  50  51
ENDBRANCH   6  50
BRANCH   3  73
HETATM   73  C53 UNL     1       3.698  -6.278  -1.774  1.00  0.00     0.214 C 
HETATM   74  O27 UNL     1       4.623  -5.529  -1.008  1.00  0.00    -0.218 OA
ENDBRANCH   3  73
BRANCH   5  75
HETATM   75  O21 UNL     1      -1.042  -6.827  -2.727  1.00  0.00    -0.326 OA
BRANCH  75  76
HETATM   76  C48 UNL     1      -2.361  -6.936  -2.232  1.00  0.00     0.270 C 
HETATM   77  O22 UNL     1      -2.435  -8.173  -1.556  1.00  0.00    -0.326 OA
HETATM   78  C49 UNL     1      -3.689  -8.339  -0.929  1.00  0.00     0.181 C 
HETATM   79  C50 UNL     1      -4.834  -8.234  -1.932  1.00  0.00     0.215 C 
HETATM   80  C51 UNL     1      -4.731  -6.949  -2.731  1.00  0.00     0.220 C 
HETATM   81  O25 UNL     1      -6.070  -8.233  -1.262  1.00  0.00    -0.218 OA
HETATM   82  C52 UNL     1      -3.357  -6.941  -3.372  1.00  0.00     0.241 C 
HETATM   83  O24 UNL     1      -5.742  -6.884  -3.705  1.00  0.00    -0.218 OA
HETATM   84  O23 UNL     1      -3.220  -5.794  -4.167  1.00  0.00    -0.215 OA
ENDBRANCH  75  76
ENDBRANCH   5  75
TORSDOF 14
