REMARK  1 active torsions:
REMARK  status: ('A' for Active; 'I' for Inactive)
REMARK    1  A    between atoms: C16_16  and  C19_19 
ROOT
HETATM    1  C1  UNL     1      -2.446   3.146   1.798  1.00  0.00     0.033 C 
HETATM    2  C2  UNL     1      -2.783   4.009   0.588  1.00  0.00     0.152 C 
HETATM    3  C3  UNL     1      -2.349   3.321  -0.702  1.00  0.00     0.033 C 
HETATM    4  C4  UNL     1      -2.914   1.892  -0.845  1.00  0.00     0.003 C 
HETATM    5  C5  UNL     1      -2.599   0.978   0.370  1.00  0.00     0.000 C 
HETATM    6  C6  UNL     1      -3.037   1.738   1.651  1.00  0.00     0.003 C 
HETATM    7  C7  UNL     1      -1.085   0.595   0.369  1.00  0.00     0.002 C 
HETATM    8  C8  UNL     1      -0.612  -0.015  -0.968  1.00  0.00     0.028 C 
HETATM    9  C9  UNL     1      -0.975   0.894  -2.157  1.00  0.00     0.002 C 
HETATM   10  C10 UNL     1      -2.464   1.256  -2.171  1.00  0.00     0.000 C 
HETATM   11  C11 UNL     1       0.874  -0.407  -0.984  1.00  0.00     0.127 C 
HETATM   12  C12 UNL     1       1.331  -1.300   0.194  1.00  0.00     0.029 C 
HETATM   13  C13 UNL     1       0.832  -0.678   1.535  1.00  0.00     0.003 C 
HETATM   14  C14 UNL     1      -0.670  -0.336   1.522  1.00  0.00     0.000 C 
HETATM   15  C15 UNL     1       1.125  -1.536   2.785  1.00  0.00     0.000 C 
HETATM   16  C16 UNL     1       2.884  -1.194   0.111  1.00  0.00     0.023 C 
HETATM   17  C17 UNL     1       3.218   0.086  -0.681  1.00  0.00     0.007 C 
HETATM   18  C18 UNL     1       1.870   0.757  -0.977  1.00  0.00     0.031 C 
HETATM   19  C23 UNL     1       0.821  -2.752   0.082  1.00  0.00     0.003 C 
HETATM   20  O3  UNL     1       1.105  -1.097  -2.187  1.00  0.00    -0.226 OA
HETATM   21  C24 UNL     1      -3.498  -0.285   0.312  1.00  0.00     0.000 C 
HETATM   22  O4  UNL     1      -4.168   4.261   0.547  1.00  0.00    -0.224 OA
ENDROOT
BRANCH  16  23
HETATM   23  C19 UNL     1       3.627  -2.418  -0.374  1.00  0.00    -0.009 A 
HETATM   24  C20 UNL     1       4.280  -3.279   0.427  1.00  0.00     0.062 A 
HETATM   25  C21 UNL     1       4.839  -4.303  -0.473  1.00  0.00     0.296 A 
HETATM   26  O1  UNL     1       4.541  -4.084  -1.784  1.00  0.00    -0.294 OA
HETATM   27  O2  UNL     1       5.507  -5.253  -0.080  1.00  0.00    -0.259 OA
HETATM   28  C22 UNL     1       3.757  -2.894  -1.808  1.00  0.00     0.175 A 
ENDBRANCH  16  23
TORSDOF 1
