REMARK  1 active torsions:
REMARK  status: ('A' for Active; 'I' for Inactive)
REMARK    1  A    between atoms: C17_17  and  C19_19 
ROOT
HETATM    1  C1  UNL     1       1.351  -2.679  -0.819  1.00  0.00     0.033 C 
HETATM    2  C2  UNL     1       0.970  -2.767   0.882  1.00  0.00     0.152 C 
HETATM    3  C3  UNL     1      -0.565  -2.268   1.558  1.00  0.00     0.028 C 
HETATM    4  C4  UNL     1      -1.472  -1.137   0.424  1.00  0.00     0.002 A 
HETATM    5  C5  UNL     1      -0.863  -0.654  -1.279  1.00  0.00     0.001 C 
HETATM    6  C6  UNL     1       0.493  -1.681  -1.971  1.00  0.00     0.003 C 
HETATM    7  C7  UNL     1       0.059   0.444  -1.003  1.00  0.00     0.005 C 
HETATM    8  C8  UNL     1       0.520  -0.703  -0.069  1.00  0.00     0.004 C 
HETATM    9  C9  UNL     1      -0.680  -2.310  -0.464  1.00  0.00     0.000 A 
HETATM   10  C10 UNL     1      -2.217  -2.203  -0.246  1.00  0.00     0.000 A 
HETATM   11  C11 UNL     1       2.208  -0.130  -0.360  1.00  0.00     0.018 C 
HETATM   12  C12 UNL     1       2.251   1.471  -0.188  1.00  0.00    -0.035 C 
HETATM   13  C13 UNL     1       1.172   2.292  -0.272  1.00  0.00    -0.031 C 
HETATM   14  C14 UNL     1      -0.246   1.838  -0.521  1.00  0.00     0.026 C 
HETATM   15  C15 UNL     1       3.581   2.197   0.025  1.00  0.00    -0.046 C 
HETATM   16  C16 UNL     1       4.595   1.518   0.967  1.00  0.00     0.051 C 
HETATM   17  C17 UNL     1       4.700  -0.003   0.752  1.00  0.00     0.040 C 
HETATM   18  C18 UNL     1       3.286  -0.635   0.666  1.00  0.00     0.007 C 
HETATM   19  C20 UNL     1       5.913   2.316   1.075  1.00  0.00     0.156 C 
HETATM   20  C21 UNL     1       5.962   3.583   0.221  1.00  0.00     0.034 C 
HETATM   21  C22 UNL     1       5.547   3.359  -1.244  1.00  0.00     0.006 C 
HETATM   22  C23 UNL     1       4.095   2.840  -1.283  1.00  0.00     0.022 C 
HETATM   23  C24 UNL     1       5.648   4.704  -2.001  1.00  0.00     0.000 C 
HETATM   24  C25 UNL     1       6.478   2.365  -1.972  1.00  0.00     0.000 C 
HETATM   25  O2  UNL     1       7.051   1.542   0.770  1.00  0.00    -0.223 OA
HETATM   26  C26 UNL     1       2.944  -0.247  -1.742  1.00  0.00     0.004 C 
HETATM   27  C27 UNL     1       0.481   0.008   1.372  1.00  0.00     0.000 C 
HETATM   28  C28 UNL     1      -1.878  -0.212  -2.349  1.00  0.00     0.000 C 
HETATM   29  C29 UNL     1      -0.563  -1.803   3.074  1.00  0.00     0.003 C 
HETATM   30  C30 UNL     1      -1.302  -3.649   1.920  1.00  0.00     0.003 C 
HETATM   31  O3  UNL     1       1.241  -4.107   1.243  1.00  0.00    -0.224 OA
ENDROOT
BRANCH  17  32
HETATM   32  C19 UNL     1       5.461  -0.702   1.898  1.00  0.00     0.183 C 
HETATM   33  O1  UNL     1       5.685  -2.062   1.582  1.00  0.00    -0.221 OA
ENDBRANCH  17  32
TORSDOF 1
