REMARK  1 active torsions:
REMARK  status: ('A' for Active; 'I' for Inactive)
REMARK    1  A    between atoms: C21_21  and  C23_23 
ROOT
HETATM    1  C1  UNL     1      -1.547  -0.130  -2.682  1.00  0.00     0.065 C 
HETATM    2  C2  UNL     1      -2.465  -0.792  -1.675  1.00  0.00     0.150 C 
HETATM    3  C3  UNL     1      -1.832  -1.833  -0.755  1.00  0.00     0.052 C 
HETATM    4  C4  UNL     1      -0.328  -1.472  -0.533  1.00  0.00     0.007 C 
HETATM    5  C5  UNL     1       0.033   0.037  -0.609  1.00  0.00     0.004 C 
HETATM    6  C6  UNL     1      -0.311   0.529  -2.047  1.00  0.00     0.008 C 
HETATM    7  C7  UNL     1       1.547   0.309  -0.284  1.00  0.00     0.022 C 
HETATM    8  C8  UNL     1       2.566  -0.853  -0.469  1.00  0.00     0.007 C 
HETATM    9  C9  UNL     1       2.047  -1.735  -1.618  1.00  0.00     0.001 C 
HETATM   10  C10 UNL     1       0.648  -2.325  -1.378  1.00  0.00     0.000 C 
HETATM   11  C11 UNL     1       4.010  -0.257  -0.748  1.00  0.00     0.015 C 
HETATM   12  C12 UNL     1       4.361   0.859   0.297  1.00  0.00    -0.045 C 
HETATM   13  C13 UNL     1       3.245   1.186   1.277  1.00  0.00    -0.013 C 
HETATM   14  C14 UNL     1       1.950   0.948   1.023  1.00  0.00    -0.027 C 
HETATM   15  C15 UNL     1       5.753   0.895   1.008  1.00  0.00     0.021 C 
HETATM   16  C16 UNL     1       6.734  -0.284   0.770  1.00  0.00     0.032 C 
HETATM   17  C17 UNL     1       6.505  -0.895  -0.623  1.00  0.00     0.003 C 
HETATM   18  C18 UNL     1       5.069  -1.389  -0.804  1.00  0.00     0.004 C 
HETATM   19  C19 UNL     1       8.212   0.156   0.915  1.00  0.00     0.153 C 
HETATM   20  C20 UNL     1       8.390   1.198   2.017  1.00  0.00     0.043 C 
HETATM   21  C21 UNL     1       7.662   2.520   1.693  1.00  0.00     0.081 C 
HETATM   22  C22 UNL     1       6.441   2.263   0.780  1.00  0.00     0.014 C 
HETATM   23  C24 UNL     1       7.229   3.183   3.019  1.00  0.00     0.011 C 
HETATM   24  O3  UNL     1       8.724   0.679  -0.291  1.00  0.00    -0.223 OA
HETATM   25  C25 UNL     1       6.496  -1.375   1.852  1.00  0.00     0.003 C 
HETATM   26  C26 UNL     1       4.091   0.402  -2.164  1.00  0.00     0.004 C 
HETATM   27  C27 UNL     1       2.614  -1.733   0.814  1.00  0.00     0.001 C 
HETATM   28  C28 UNL     1      -0.848   0.887   0.341  1.00  0.00     0.000 C 
HETATM   29  C29 UNL     1      -2.608  -1.891   0.586  1.00  0.00     0.007 C 
HETATM   30  C30 UNL     1      -2.086  -3.211  -1.413  1.00  0.00     0.007 C 
HETATM   31  O4  UNL     1      -3.650  -0.544  -1.654  1.00  0.00    -0.296 OA
ENDROOT
BRANCH  21  32
HETATM   32  C23 UNL     1       8.637   3.431   0.943  1.00  0.00     0.184 C 
HETATM   33  O1  UNL     1       8.307   4.734   1.012  1.00  0.00    -0.647 OA
HETATM   34  O2  UNL     1       9.607   3.069   0.320  1.00  0.00    -0.647 OA
ENDBRANCH  21  32
TORSDOF 1
