REMARK  5 active torsions:
REMARK  status: ('A' for Active; 'I' for Inactive)
REMARK    1  A    between atoms: C15_15  and  C18_18 
REMARK    2  A    between atoms: C18_18  and  C19_19 
REMARK    3  A    between atoms: C19_19  and  C20_20 
REMARK    4  A    between atoms: C20_20  and  C22_22 
REMARK    5  A    between atoms: C23_23  and  C25_25 
ROOT
HETATM    1  C1  UNL     1      -4.684  -1.630  -2.716  1.00  0.00     0.033 C 
HETATM    2  C2  UNL     1      -5.637  -2.155  -1.641  1.00  0.00     0.152 C 
HETATM    3  C3  UNL     1      -4.915  -2.986  -0.547  1.00  0.00     0.028 C 
HETATM    4  C4  UNL     1      -3.452  -2.474  -0.372  1.00  0.00     0.002 C 
HETATM    5  C5  UNL     1      -3.334  -0.978  -0.655  1.00  0.00     0.000 A 
HETATM    6  C6  UNL     1      -3.663  -0.647  -2.112  1.00  0.00     0.003 C 
HETATM    7  C7  UNL     1      -2.342  -0.138   0.124  1.00  0.00     0.000 A 
HETATM    8  C8  UNL     1      -1.551  -0.772   1.273  1.00  0.00     0.000 C 
HETATM    9  C9  UNL     1      -2.193  -2.044   1.860  1.00  0.00     0.000 C 
HETATM   10  C10 UNL     1      -2.660  -3.062   0.814  1.00  0.00     0.000 C 
HETATM   11  C11 UNL     1      -0.039  -0.879   0.949  1.00  0.00     0.000 C 
HETATM   12  C12 UNL     1       0.486   0.532   0.570  1.00  0.00     0.000 C 
HETATM   13  C13 UNL     1      -0.170   0.958  -0.751  1.00  0.00     0.000 C 
HETATM   14  C14 UNL     1      -1.683   1.089  -0.510  1.00  0.00     0.000 C 
HETATM   15  C15 UNL     1       2.024   0.456   0.672  1.00  0.00     0.000 C 
HETATM   16  C16 UNL     1       2.246  -0.634   1.752  1.00  0.00     0.000 C 
HETATM   17  C17 UNL     1       0.864  -1.171   2.161  1.00  0.00     0.000 C 
HETATM   18  C27 UNL     1       0.245  -1.933  -0.142  1.00  0.00     0.000 C 
HETATM   19  C28 UNL     1      -3.827   0.014   0.373  1.00  0.00     0.000 A 
HETATM   20  C29 UNL     1      -4.883  -4.464  -1.014  1.00  0.00     0.003 C 
HETATM   21  C30 UNL     1      -5.735  -2.953   0.762  1.00  0.00     0.003 C 
HETATM   22  O3  UNL     1      -6.315  -1.052  -1.084  1.00  0.00    -0.224 OA
ENDROOT
BRANCH  15  23
HETATM   23  C18 UNL     1       2.794   1.764   1.002  1.00  0.00     0.000 C 
HETATM   24  C26 UNL     1       2.404   2.913   0.061  1.00  0.00     0.000 C 
BRANCH  23  25
HETATM   25  C19 UNL     1       4.319   1.489   0.981  1.00  0.00     0.004 C 
BRANCH  25  26
HETATM   26  C20 UNL     1       5.302   2.647   1.265  1.00  0.00     0.022 C 
HETATM   27  C21 UNL     1       4.903   3.487   2.490  1.00  0.00     0.005 C 
BRANCH  26  28
HETATM   28  C22 UNL     1       5.553   3.497   0.038  1.00  0.00    -0.025 C 
HETATM   29  C23 UNL     1       6.265   3.129  -1.050  1.00  0.00     0.038 C 
HETATM   30  C24 UNL     1       6.972   1.802  -1.202  1.00  0.00     0.037 C 
BRANCH  29  31
HETATM   31  C25 UNL     1       6.363   4.084  -2.189  1.00  0.00     0.206 C 
HETATM   32  O1  UNL     1       5.755   5.290  -2.208  1.00  0.00    -0.644 OA
HETATM   33  O2  UNL     1       7.010   3.782  -3.184  1.00  0.00    -0.644 OA
ENDBRANCH  29  31
ENDBRANCH  26  28
ENDBRANCH  25  26
ENDBRANCH  23  25
ENDBRANCH  15  23
TORSDOF 5
