REMARK  5 active torsions:
REMARK  status: ('A' for Active; 'I' for Inactive)
REMARK    1  A    between atoms: C17_19  and  C26_35 
REMARK    2  A    between atoms: C19_22  and  O2_23 
REMARK    3  A    between atoms: O2_23  and  C20_24 
REMARK    4  A    between atoms: C21_26  and  C25_33 
REMARK    5  A    between atoms: C26_35  and  O8_36 
ROOT
HETATM    1  C1  UNL     1      -7.090  -0.059   1.791  1.00  0.00     0.002 A 
HETATM    2  C2  UNL     1      -5.889  -0.689   2.211  1.00  0.00     0.019 A 
HETATM    3  C3  UNL     1      -4.898  -0.963   1.242  1.00  0.00     0.081 A 
HETATM    4  C4  UNL     1      -5.076  -0.631  -0.080  1.00  0.00     0.015 A 
HETATM    5  C5  UNL     1      -6.262  -0.002  -0.529  1.00  0.00     0.001 A 
HETATM    6  C6  UNL     1      -7.275   0.283   0.424  1.00  0.00     0.000 A 
HETATM    7  C7  UNL     1      -4.012  -0.986  -0.834  1.00  0.00    -0.003 A 
HETATM    8  C8  UNL     1      -3.096  -1.582   0.041  1.00  0.00     0.075 A 
HETATM    9  N1  UNL     1      -3.648  -1.561   1.346  1.00  0.00    -0.248 NA
HETATM   10  C9  UNL     1      -1.748  -2.164  -0.395  1.00  0.00     0.118 C 
HETATM   11  N2  UNL     1      -1.467  -1.848  -1.824  1.00  0.00    -0.363 N 
HETATM   12  C10 UNL     1      -2.646  -1.873  -2.729  1.00  0.00     0.102 C 
HETATM   13  C11 UNL     1      -3.729  -0.844  -2.316  1.00  0.00     0.051 C 
HETATM   14  C12 UNL     1      -0.490  -0.785  -2.121  1.00  0.00     0.131 C 
HETATM   15  C13 UNL     1       0.961  -1.314  -2.139  1.00  0.00     0.179 C 
HETATM   16  C14 UNL     1       1.623  -1.541  -0.752  1.00  0.00     0.094 C 
HETATM   17  C15 UNL     1       0.781  -2.367   0.256  1.00  0.00     0.039 C 
HETATM   18  C16 UNL     1      -0.613  -1.768   0.580  1.00  0.00     0.033 C 
HETATM   19  C17 UNL     1       1.565  -2.500   1.551  1.00  0.00     0.065 C 
HETATM   20  C18 UNL     1       2.502  -1.584   1.883  1.00  0.00     0.120 C 
HETATM   21  O1  UNL     1       2.850  -0.529   1.123  1.00  0.00    -0.304 OA
HETATM   22  C19 UNL     1       2.088  -0.238  -0.053  1.00  0.00     0.244 C 
HETATM   23  O10 UNL     1       1.031  -2.512  -2.897  1.00  0.00    -0.221 OA
ENDROOT
BRANCH  22  24
HETATM   24  O2  UNL     1       2.912   0.527  -0.908  1.00  0.00    -0.304 OA
BRANCH  24  25
HETATM   25  C20 UNL     1       3.268   1.783  -0.363  1.00  0.00     0.272 C 
HETATM   26  O3  UNL     1       2.113   2.613  -0.365  1.00  0.00    -0.326 OA
HETATM   27  C21 UNL     1       2.299   3.900   0.205  1.00  0.00     0.184 C 
HETATM   28  C22 UNL     1       3.359   4.676  -0.611  1.00  0.00     0.215 C 
HETATM   29  C23 UNL     1       4.680   3.879  -0.715  1.00  0.00     0.220 C 
HETATM   30  O6  UNL     1       3.598   5.920   0.021  1.00  0.00    -0.218 OA
HETATM   31  C24 UNL     1       4.391   2.441  -1.203  1.00  0.00     0.241 C 
HETATM   32  O5  UNL     1       5.561   4.527  -1.619  1.00  0.00    -0.218 OA
HETATM   33  O4  UNL     1       5.572   1.664  -1.100  1.00  0.00    -0.215 OA
BRANCH  27  34
HETATM   34  C25 UNL     1       0.928   4.586   0.203  1.00  0.00     0.214 C 
HETATM   35  O7  UNL     1       0.088   3.891   1.098  1.00  0.00    -0.218 OA
ENDBRANCH  27  34
ENDBRANCH  24  25
ENDBRANCH  22  24
BRANCH  19  36
HETATM   36  C26 UNL     1       1.285  -3.645   2.434  1.00  0.00     0.294 C 
HETATM   37  O9  UNL     1       0.301  -4.326   2.258  1.00  0.00    -0.259 OA
BRANCH  36  38
HETATM   38  O8  UNL     1       2.172  -3.859   3.400  1.00  0.00    -0.296 OA
HETATM   39  C27 UNL     1       1.834  -4.979   4.205  1.00  0.00     0.185 C 
ENDBRANCH  36  38
ENDBRANCH  19  36
TORSDOF 5
