REMARK  10 active torsions:
REMARK  status: ('A' for Active; 'I' for Inactive)
REMARK    1  A    between atoms: C1_1  and  O3_21 
REMARK    2  A    between atoms: C5_5  and  C7_7 
REMARK    3  A    between atoms: C7_7  and  N1_8 
REMARK       I    between atoms: N1_8  and  C8_9 
REMARK    4  A    between atoms: C8_9  and  C9_10 
REMARK    5  A    between atoms: C9_10  and  C10_11 
REMARK    6  A    between atoms: C10_11  and  C11_12 
REMARK    7  A    between atoms: C11_12  and  C12_13 
REMARK    8  A    between atoms: C12_13  and  C13_14 
REMARK    9  A    between atoms: C13_14  and  C14_15 
REMARK   10  A    between atoms: C14_15  and  C15_16 
ROOT
HETATM    1  N1  UNL     1       1.371   1.721   1.836  1.00  0.00    -0.233 NA
HETATM    2  C8  UNL     1       0.738   0.525   1.650  1.00  0.00     0.252 C 
HETATM    3  O1  UNL     1       0.383  -0.131   2.602  1.00  0.00    -0.271 OA
ENDROOT
BRANCH   1   4
HETATM    4  C7  UNL     1       1.617   2.203   3.203  1.00  0.00     0.155 C 
BRANCH   4   5
HETATM    5  C5  UNL     1       2.315   3.516   3.203  1.00  0.00     0.004 A 
HETATM    6  C4  UNL     1       3.719   3.568   3.203  1.00  0.00    -0.000 A 
HETATM    7  C3  UNL     1       4.375   4.811   3.203  1.00  0.00     0.029 A 
HETATM    8  C2  UNL     1       3.631   6.004   3.203  1.00  0.00     0.153 A 
HETATM    9  C1  UNL     1       2.225   5.951   3.203  1.00  0.00     0.119 A 
HETATM   10  O2  UNL     1       4.254   7.166   3.203  1.00  0.00    -0.188 OA
HETATM   11  C6  UNL     1       1.570   4.707   3.203  1.00  0.00     0.024 A 
BRANCH   9  12
HETATM   12  O3  UNL     1       1.520   7.067   3.203  1.00  0.00    -0.326 OA
HETATM   13  C18 UNL     1       0.109   6.961   3.084  1.00  0.00     0.181 C 
ENDBRANCH   9  12
ENDBRANCH   4   5
ENDBRANCH   1   4
BRANCH   2  14
HETATM   14  C9  UNL     1       0.496   0.047   0.244  1.00  0.00     0.090 C 
BRANCH  14  15
HETATM   15  C10 UNL     1      -0.258  -1.285   0.203  1.00  0.00     0.010 C 
BRANCH  15  16
HETATM   16  C11 UNL     1      -0.518  -1.772  -1.223  1.00  0.00     0.001 C 
BRANCH  16  17
HETATM   17  C12 UNL     1      -1.268  -3.102  -1.264  1.00  0.00     0.000 C 
BRANCH  17  18
HETATM   18  C13 UNL     1      -1.527  -3.588  -2.691  1.00  0.00     0.000 C 
BRANCH  18  19
HETATM   19  C14 UNL     1      -2.283  -4.918  -2.733  1.00  0.00     0.000 C 
BRANCH  19  20
HETATM   20  C15 UNL     1      -2.420  -5.475  -4.150  1.00  0.00     0.000 C 
HETATM   21  C16 UNL     1      -2.941  -6.912  -4.172  1.00  0.00     0.000 C 
HETATM   22  C17 UNL     1      -3.209  -4.547  -5.074  1.00  0.00     0.000 C 
ENDBRANCH  19  20
ENDBRANCH  18  19
ENDBRANCH  17  18
ENDBRANCH  16  17
ENDBRANCH  15  16
ENDBRANCH  14  15
ENDBRANCH   2  14
TORSDOF 10
