REMARK  1 active torsions:
REMARK  status: ('A' for Active; 'I' for Inactive)
REMARK    1  A    between atoms: C4_4  and  C7_7 
ROOT
HETATM    1  C1  UNL     1      -1.439  -1.328   0.164  1.00  0.00     0.030 C 
HETATM    2  C2  UNL     1      -1.717   0.170  -0.080  1.00  0.00     0.152 C 
HETATM    3  C3  UNL     1      -0.513   1.051   0.309  1.00  0.00     0.037 C 
HETATM    4  C4  UNL     1       0.768   0.610  -0.418  1.00  0.00     0.021 C 
HETATM    5  C5  UNL     1       1.051  -0.883  -0.170  1.00  0.00     0.004 C 
HETATM    6  C6  UNL     1      -0.148  -1.762  -0.553  1.00  0.00     0.003 C 
HETATM    7  O1  UNL     1      -2.840   0.576   0.680  1.00  0.00    -0.224 OA
HETATM    8  C10 UNL     1      -2.617  -2.213  -0.269  1.00  0.00     0.003 C 
ENDROOT
BRANCH   4   9
HETATM    9  C7  UNL     1       1.946   1.461  -0.014  1.00  0.00    -0.044 C 
HETATM   10  C8  UNL     1       2.528   1.449   1.375  1.00  0.00     0.026 C 
HETATM   11  C9  UNL     1       2.502   2.264  -0.935  1.00  0.00    -0.009 C 
ENDBRANCH   4   9
TORSDOF 1
