REMARK  2 active torsions:
REMARK  status: ('A' for Active; 'I' for Inactive)
REMARK    1  A    between atoms: C1_1  and  O3_25 
REMARK    2  A    between atoms: C2_2  and  O2_23 
ROOT
HETATM    1  C1  UNL     1       4.328  -0.109   0.729  1.00  0.00     0.116 A 
HETATM    2  C2  UNL     1       3.408   0.869   0.293  1.00  0.00     0.114 A 
HETATM    3  C3  UNL     1       2.027   0.555   0.172  1.00  0.00     0.024 A 
HETATM    4  C4  UNL     1       1.557  -0.750   0.494  1.00  0.00     0.001 A 
HETATM    5  C5  UNL     1       2.502  -1.727   0.934  1.00  0.00     0.002 A 
HETATM    6  C6  UNL     1       3.871  -1.406   1.047  1.00  0.00     0.026 A 
HETATM    7  C7  UNL     1       0.102  -1.039   0.356  1.00  0.00     0.015 A 
HETATM    8  C8  UNL     1      -0.840  -0.004  -0.027  1.00  0.00     0.056 A 
HETATM    9  N1  UNL     1      -0.359   1.287  -0.201  1.00  0.00    -0.342 N 
HETATM   10  C9  UNL     1       1.098   1.609  -0.295  1.00  0.00     0.131 C 
HETATM   11  C10 UNL     1      -1.209   2.502  -0.271  1.00  0.00     0.126 C 
HETATM   12  C11 UNL     1      -2.234  -0.391  -0.191  1.00  0.00     0.015 A 
HETATM   13  C12 UNL     1      -2.646  -1.727   0.117  1.00  0.00     0.003 A 
HETATM   14  C13 UNL     1      -1.719  -2.695   0.514  1.00  0.00     0.000 A 
HETATM   15  C14 UNL     1      -0.363  -2.365   0.617  1.00  0.00     0.001 A 
HETATM   16  C15 UNL     1      -4.004  -2.127   0.031  1.00  0.00     0.024 A 
HETATM   17  C16 UNL     1      -5.016  -1.234  -0.373  1.00  0.00     0.090 A 
HETATM   18  C17 UNL     1      -4.627   0.065  -0.711  1.00  0.00     0.003 A 
HETATM   19  C18 UNL     1      -3.270   0.477  -0.652  1.00  0.00    -0.001 A 
HETATM   20  C19 UNL     1      -5.850   0.828  -1.105  1.00  0.00     0.061 A 
HETATM   21  C20 UNL     1      -6.981  -0.240  -0.951  1.00  0.00     0.154 A 
HETATM   22  O1  UNL     1      -6.328  -1.437  -0.492  1.00  0.00    -0.331 OA
ENDROOT
BRANCH   1  23
HETATM   23  O3  UNL     1       5.631   0.191   0.842  1.00  0.00    -0.326 OA
HETATM   24  C22 UNL     1       6.506  -0.816   1.326  1.00  0.00     0.181 C 
ENDBRANCH   1  23
BRANCH   2  25
HETATM   25  O2  UNL     1       3.838   2.104  -0.010  1.00  0.00    -0.326 OA
HETATM   26  C21 UNL     1       5.072   2.229  -0.703  1.00  0.00     0.181 C 
ENDBRANCH   2  25
TORSDOF 2
