REMARK  5 active torsions:
REMARK  status: ('A' for Active; 'I' for Inactive)
REMARK    1  A    between atoms: C6_6  and  O1_8 
REMARK    2  A    between atoms: O1_8  and  C8_9 
REMARK    3  A    between atoms: C8_9  and  C9_10 
REMARK    4  A    between atoms: C9_10  and  C10_11 
REMARK    5  A    between atoms: C19_24  and  C22_28 
ROOT
HETATM    1  C1  UNL     1       2.080   0.344   0.150  1.00  0.00    -0.043 C 
HETATM    2  C2  UNL     1       2.906  -0.721   0.295  1.00  0.00     0.007 C 
HETATM    3  C3  UNL     1       2.494  -2.111   0.732  1.00  0.00     0.060 C 
HETATM    4  C4  UNL     1       1.285  -2.656  -0.043  1.00  0.00     0.136 C 
HETATM    5  C5  UNL     1      -0.059  -2.074   0.410  1.00  0.00     0.084 C 
HETATM    6  C6  UNL     1      -0.297  -0.686  -0.193  1.00  0.00     0.135 C 
HETATM    7  C7  UNL     1       0.607   0.340   0.516  1.00  0.00     0.052 C 
HETATM    8  C16 UNL     1      -0.945  -3.213   0.002  1.00  0.00     0.045 C 
HETATM    9  C17 UNL     1      -0.115  -4.406  -0.096  1.00  0.00     0.292 C 
HETATM   10  O4  UNL     1       1.168  -4.084   0.063  1.00  0.00    -0.300 OA
HETATM   11  O5  UNL     1      -0.549  -5.520  -0.283  1.00  0.00    -0.260 OA
HETATM   12  C18 UNL     1      -2.270  -3.141  -0.225  1.00  0.00     0.001 C 
HETATM   13  C19 UNL     1       3.738  -2.992   0.449  1.00  0.00     0.079 C 
HETATM   14  C20 UNL     1       4.937  -2.033   0.436  1.00  0.00     0.077 C 
HETATM   15  C21 UNL     1       4.350  -0.711   0.055  1.00  0.00     0.169 C 
HETATM   16  O6  UNL     1       4.992   0.215  -0.385  1.00  0.00    -0.292 OA
HETATM   17  C23 UNL     1       2.613   1.650  -0.387  1.00  0.00     0.026 C 
ENDROOT
BRANCH   6  18
HETATM   18  O1  UNL     1      -1.651  -0.307   0.025  1.00  0.00    -0.303 OA
BRANCH  18  19
HETATM   19  C8  UNL     1      -2.024   0.705  -0.752  1.00  0.00     0.276 C 
HETATM   20  O3  UNL     1      -1.297   1.242  -1.555  1.00  0.00    -0.264 OA
BRANCH  19  21
HETATM   21  C9  UNL     1      -3.449   1.158  -0.572  1.00  0.00     0.122 C 
BRANCH  21  22
HETATM   22  C10 UNL     1      -3.559   2.637  -0.490  1.00  0.00    -0.012 A 
HETATM   23  C11 UNL     1      -4.018   3.371  -1.600  1.00  0.00    -0.002 A 
HETATM   24  C12 UNL     1      -4.123   4.770  -1.522  1.00  0.00     0.027 A 
HETATM   25  C13 UNL     1      -3.768   5.441  -0.338  1.00  0.00     0.131 A 
HETATM   26  C14 UNL     1      -3.309   4.705   0.770  1.00  0.00     0.027 A 
HETATM   27  O2  UNL     1      -3.865   6.754  -0.266  1.00  0.00    -0.190 OA
HETATM   28  C15 UNL     1      -3.203   3.307   0.693  1.00  0.00    -0.002 A 
ENDBRANCH  21  22
ENDBRANCH  19  21
ENDBRANCH  18  19
ENDBRANCH   6  18
BRANCH  13  29
HETATM   29  C22 UNL     1       3.910  -4.143   1.412  1.00  0.00     0.208 C 
HETATM   30  O7  UNL     1       4.920  -4.260   2.066  1.00  0.00    -0.288 OA
ENDBRANCH  13  29
TORSDOF 5
