REMARK  1 active torsions:
REMARK  status: ('A' for Active; 'I' for Inactive)
REMARK    1  A    between atoms: C7_8  and  C10_13 
ROOT
HETATM    1  C1  UNL     1      -3.195  -0.328  -0.451  1.00  0.00     0.052 A 
HETATM    2  C2  UNL     1      -4.369   0.334  -0.881  1.00  0.00     0.133 A 
HETATM    3  C3  UNL     1      -4.291   1.647  -1.400  1.00  0.00     0.028 A 
HETATM    4  C4  UNL     1      -3.043   2.307  -1.471  1.00  0.00     0.007 A 
HETATM    5  C5  UNL     1      -1.869   1.652  -1.019  1.00  0.00     0.060 A 
HETATM    6  C6  UNL     1      -1.940   0.318  -0.535  1.00  0.00     0.099 A 
HETATM    7  O1  UNL     1      -0.832  -0.348  -0.148  1.00  0.00    -0.326 OA
HETATM    8  C7  UNL     1       0.463   0.078  -0.590  1.00  0.00     0.181 C 
HETATM    9  C8  UNL     1       0.617   1.613  -0.435  1.00  0.00     0.245 C 
HETATM   10  C9  UNL     1      -0.561   2.365  -1.039  1.00  0.00     0.208 C 
HETATM   11  O2  UNL     1      -0.367   3.479  -1.478  1.00  0.00    -0.288 OA
HETATM   12  O3  UNL     1       1.834   2.020  -1.041  1.00  0.00    -0.212 OA
HETATM   13  O6  UNL     1      -5.557  -0.285  -0.799  1.00  0.00    -0.190 OA
ENDROOT
BRANCH   8  14
HETATM   14  C10 UNL     1       1.488  -0.697   0.166  1.00  0.00     0.010 A 
HETATM   15  C11 UNL     1       1.453  -0.725   1.572  1.00  0.00     0.028 A 
HETATM   16  C12 UNL     1       2.418  -1.453   2.289  1.00  0.00     0.156 A 
HETATM   17  C13 UNL     1       3.422  -2.158   1.600  1.00  0.00     0.156 A 
HETATM   18  O5  UNL     1       2.379  -1.475   3.608  1.00  0.00    -0.188 OA
HETATM   19  C14 UNL     1       3.455  -2.129   0.193  1.00  0.00     0.029 A 
HETATM   20  O4  UNL     1       4.330  -2.844   2.264  1.00  0.00    -0.188 OA
HETATM   21  C15 UNL     1       2.490  -1.400  -0.523  1.00  0.00     0.000 A 
ENDBRANCH   8  14
TORSDOF 1
