REMARK  12 active torsions:
REMARK  status: ('A' for Active; 'I' for Inactive)
REMARK    1  A    between atoms: C3_3  and  O4_10 
REMARK    2  A    between atoms: C4_5  and  C6_8 
REMARK    3  A    between atoms: O4_10  and  C7_11 
REMARK    4  A    between atoms: C11_16  and  C12_17 
REMARK    5  A    between atoms: C15_20  and  O8_24 
REMARK    6  A    between atoms: O8_24  and  C17_25 
REMARK    7  A    between atoms: C17_25  and  C18_26 
REMARK    8  A    between atoms: C18_26  and  C19_27 
REMARK    9  A    between atoms: C19_27  and  C20_28 
REMARK   10  A    between atoms: C20_28  and  C21_29 
REMARK   11  A    between atoms: C21_29  and  C22_30 
REMARK   12  A    between atoms: C23_31  and  C24_32 
ROOT
HETATM    1  C7  UNL     1       3.289  -1.725   2.176  1.00  0.00     0.246 C 
HETATM    2  O5  UNL     1       2.924  -0.713   3.125  1.00  0.00    -0.303 OA
HETATM    3  C8  UNL     1       1.617  -0.478   3.373  1.00  0.00     0.120 C 
HETATM    4  C9  UNL     1       0.590  -1.234   2.920  1.00  0.00     0.066 C 
HETATM    5  C10 UNL     1       0.887  -2.418   2.029  1.00  0.00     0.044 C 
HETATM    6  C11 UNL     1       2.324  -2.930   2.240  1.00  0.00     0.083 C 
HETATM    7  C14 UNL     1      -0.207  -3.484   2.182  1.00  0.00     0.068 C 
HETATM    8  C15 UNL     1      -1.582  -2.832   1.982  1.00  0.00     0.250 C 
HETATM    9  O6  UNL     1      -1.820  -1.811   2.957  1.00  0.00    -0.272 OA
HETATM   10  C16 UNL     1      -0.828  -0.959   3.281  1.00  0.00     0.296 C 
HETATM   11  O7  UNL     1      -1.072   0.053   3.898  1.00  0.00    -0.259 OA
ENDROOT
BRANCH   8  12
HETATM   12  O8  UNL     1      -1.668  -2.275   0.676  1.00  0.00    -0.275 OA
BRANCH  12  13
HETATM   13  C17 UNL     1      -2.881  -1.803   0.408  1.00  0.00     0.273 C 
HETATM   14  O10 UNL     1      -3.811  -1.855   1.178  1.00  0.00    -0.264 OA
BRANCH  13  15
HETATM   15  C18 UNL     1      -3.037  -1.176  -0.951  1.00  0.00     0.087 C 
HETATM   16  C26 UNL     1      -3.084  -2.215  -2.072  1.00  0.00     0.010 C 
BRANCH  15  17
HETATM   17  C19 UNL     1      -4.207  -0.191  -1.010  1.00  0.00     0.010 C 
BRANCH  17  18
HETATM   18  C20 UNL     1      -4.139   0.734  -2.225  1.00  0.00     0.005 C 
BRANCH  18  19
HETATM   19  C21 UNL     1      -5.248   1.787  -2.229  1.00  0.00     0.022 C 
BRANCH  19  20
HETATM   20  C22 UNL     1      -5.182   2.688  -3.432  1.00  0.00    -0.046 C 
HETATM   21  C23 UNL     1      -5.939   2.389  -4.498  1.00  0.00     0.001 C 
HETATM   22  C25 UNL     1      -4.303   3.908  -3.494  1.00  0.00     0.026 C 
BRANCH  21  23
HETATM   23  C24 UNL     1      -6.818   1.170  -4.436  1.00  0.00     0.208 C 
HETATM   24  O9  UNL     1      -7.412   0.953  -5.695  1.00  0.00    -0.215 OA
ENDBRANCH  21  23
ENDBRANCH  19  20
ENDBRANCH  18  19
ENDBRANCH  17  18
ENDBRANCH  15  17
ENDBRANCH  13  15
ENDBRANCH  12  13
ENDBRANCH   8  12
BRANCH   6  25
HETATM   25  C12 UNL     1       2.494  -3.664   3.549  1.00  0.00    -0.021 C 
HETATM   26  C13 UNL     1       3.352  -3.168   4.457  1.00  0.00    -0.005 C 
ENDBRANCH   6  25
BRANCH   1  27
HETATM   27  O4  UNL     1       3.303  -1.178   0.869  1.00  0.00    -0.303 OA
BRANCH  27  28
HETATM   28  C3  UNL     1       4.297  -0.187   0.693  1.00  0.00     0.272 C 
HETATM   29  C2  UNL     1       4.520   0.096  -0.814  1.00  0.00     0.241 C 
HETATM   30  C1  UNL     1       5.486   1.283  -1.021  1.00  0.00     0.220 C 
HETATM   31  O11 UNL     1       5.057  -1.061  -1.436  1.00  0.00    -0.215 OA
HETATM   32  C5  UNL     1       5.031   2.488  -0.168  1.00  0.00     0.215 C 
HETATM   33  O12 UNL     1       5.514   1.648  -2.391  1.00  0.00    -0.218 OA
HETATM   34  C4  UNL     1       4.793   2.078   1.303  1.00  0.00     0.184 C 
HETATM   35  O2  UNL     1       6.020   3.502  -0.201  1.00  0.00    -0.218 OA
HETATM   36  O1  UNL     1       3.869   0.998   1.350  1.00  0.00    -0.326 OA
BRANCH  34  37
HETATM   37  C6  UNL     1       4.194   3.205   2.148  1.00  0.00     0.214 C 
HETATM   38  O3  UNL     1       4.176   2.787   3.494  1.00  0.00    -0.218 OA
ENDBRANCH  34  37
ENDBRANCH  27  28
ENDBRANCH   1  27
TORSDOF 12
