REMARK  0 active torsions:
REMARK  status: ('A' for Active; 'I' for Inactive)
ROOT
HETATM    1  C1  UNL     1       3.336   0.689   0.521  1.00  0.00     0.004 C 
HETATM    2  C2  UNL     1       3.258  -0.590  -0.326  1.00  0.00     0.022 C 
HETATM    3  C3  UNL     1       1.908  -1.264  -0.238  1.00  0.00    -0.044 C 
HETATM    4  C4  UNL     1       0.689  -0.406  -0.547  1.00  0.00     0.018 C 
HETATM    5  C5  UNL     1       0.844   1.066  -0.033  1.00  0.00     0.006 C 
HETATM    6  C6  UNL     1       1.965   1.176   1.025  1.00  0.00     0.001 C 
HETATM    7  C7  UNL     1      -0.463   1.582   0.615  1.00  0.00     0.030 C 
HETATM    8  C8  UNL     1      -1.709   1.277  -0.219  1.00  0.00     0.125 C 
HETATM    9  C9  UNL     1      -1.803  -0.199  -0.670  1.00  0.00     0.038 C 
HETATM   10  C10 UNL     1      -0.651  -1.049  -0.109  1.00  0.00     0.007 C 
HETATM   11  C11 UNL     1      -3.221  -0.611  -0.258  1.00  0.00     0.089 C 
HETATM   12  C12 UNL     1      -3.705   0.566   0.529  1.00  0.00     0.271 C 
HETATM   13  O1  UNL     1      -2.861   1.588   0.563  1.00  0.00    -0.304 OA
HETATM   14  O2  UNL     1      -4.779   0.562   1.082  1.00  0.00    -0.264 OA
HETATM   15  C13 UNL     1      -3.305  -1.914   0.535  1.00  0.00     0.011 C 
HETATM   16  C14 UNL     1       1.199   1.988  -1.213  1.00  0.00     0.000 C 
HETATM   17  C15 UNL     1       1.814  -2.563   0.105  1.00  0.00    -0.009 C 
ENDROOT
TORSDOF 0
