REMARK  6 active torsions:
REMARK  status: ('A' for Active; 'I' for Inactive)
REMARK    1  A    between atoms: C3_3  and  O3_12 
REMARK    2  A    between atoms: C4_4  and  C7_7 
REMARK    3  A    between atoms: C7_7  and  C8_8 
REMARK    4  A    between atoms: C8_8  and  C9_9 
REMARK    5  A    between atoms: O3_12  and  C10_13 
REMARK    6  A    between atoms: C11_15  and  C15_22 
ROOT
HETATM    1  O3  UNL     1       0.583   0.995   0.675  1.00  0.00    -0.304 OA
ENDROOT
BRANCH   1   2
HETATM    2  C3  UNL     1       0.840   1.604  -0.466  1.00  0.00     0.093 A 
HETATM    3  C2  UNL     1       1.883   1.137  -1.287  1.00  0.00     0.024 A 
HETATM    4  C1  UNL     1       2.166   1.778  -2.505  1.00  0.00     0.002 A 
HETATM    5  C6  UNL     1       1.405   2.889  -2.907  1.00  0.00    -0.000 A 
HETATM    6  C5  UNL     1       0.363   3.359  -2.091  1.00  0.00    -0.002 A 
HETATM    7  C4  UNL     1       0.079   2.718  -0.871  1.00  0.00     0.001 A 
BRANCH   7   8
HETATM    8  C7  UNL     1      -1.027   3.223  -0.015  1.00  0.00     0.040 C 
BRANCH   8   9
HETATM    9  C8  UNL     1      -2.291   2.377  -0.170  1.00  0.00     0.102 C 
BRANCH   9  10
HETATM   10  C9  UNL     1      -3.420   2.867   0.696  1.00  0.00     0.186 C 
HETATM   11  O1  UNL     1      -4.574   2.223   0.540  1.00  0.00    -0.647 OA
HETATM   12  O2  UNL     1      -3.259   3.782   1.470  1.00  0.00    -0.647 OA
ENDBRANCH   9  10
ENDBRANCH   8   9
ENDBRANCH   7   8
ENDBRANCH   1   2
BRANCH   1  13
HETATM   13  C10 UNL     1       0.954  -0.372   0.800  1.00  0.00     0.274 C 
HETATM   14  O4  UNL     1       0.384  -1.102  -0.278  1.00  0.00    -0.326 OA
HETATM   15  C11 UNL     1       0.713  -2.484  -0.306  1.00  0.00     0.184 C 
HETATM   16  C12 UNL     1       0.188  -3.165   0.979  1.00  0.00     0.215 C 
HETATM   17  C13 UNL     1       0.712  -2.455   2.247  1.00  0.00     0.220 C 
HETATM   18  O7  UNL     1       0.606  -4.519   0.979  1.00  0.00    -0.218 OA
HETATM   19  C14 UNL     1       0.443  -0.938   2.142  1.00  0.00     0.241 C 
HETATM   20  O6  UNL     1       0.065  -2.980   3.395  1.00  0.00    -0.218 OA
HETATM   21  O5  UNL     1       1.095  -0.256   3.198  1.00  0.00    -0.215 OA
BRANCH  15  22
HETATM   22  C15 UNL     1       0.094  -3.059  -1.584  1.00  0.00     0.214 C 
HETATM   23  O8  UNL     1       0.775  -2.512  -2.690  1.00  0.00    -0.218 OA
ENDBRANCH  15  22
ENDBRANCH   1  13
TORSDOF 6
