REMARK  0 active torsions:
REMARK  status: ('A' for Active; 'I' for Inactive)
ROOT
HETATM    1  C1  UNL     1      -3.424   2.975   3.303  1.00  0.00     0.002 A 
HETATM    2  C2  UNL     1      -2.211   2.389   2.885  1.00  0.00     0.017 A 
HETATM    3  C3  UNL     1      -2.203   1.658   1.668  1.00  0.00     0.056 A 
HETATM    4  C4  UNL     1      -3.330   1.453   0.865  1.00  0.00    -0.003 A 
HETATM    5  C5  UNL     1      -4.531   2.068   1.312  1.00  0.00    -0.003 A 
HETATM    6  C6  UNL     1      -4.586   2.820   2.512  1.00  0.00    -0.000 A 
HETATM    7  C7  UNL     1      -3.065   0.586  -0.357  1.00  0.00     0.074 C 
HETATM    8  C8  UNL     1      -1.572   0.123  -0.137  1.00  0.00     0.111 C 
HETATM    9  N1  UNL     1      -1.096   0.977   0.973  1.00  0.00    -0.325 N 
HETATM   10  C9  UNL     1       0.211   1.312   1.408  1.00  0.00     0.070 C 
HETATM   11  C10 UNL     1       1.412   0.939   0.900  1.00  0.00    -0.003 C 
HETATM   12  C11 UNL     1       1.598  -0.061  -0.242  1.00  0.00     0.111 C 
HETATM   13  N2  UNL     1       1.139  -1.432   0.078  1.00  0.00    -0.325 N 
HETATM   14  C12 UNL     1      -0.162  -1.975   0.252  1.00  0.00     0.070 C 
HETATM   15  C13 UNL     1      -1.369  -1.369   0.144  1.00  0.00    -0.003 C 
HETATM   16  C14 UNL     1      -2.584  -2.287   0.256  1.00  0.00     0.043 C 
HETATM   17  C15 UNL     1      -3.906  -1.590   0.551  1.00  0.00     0.042 C 
HETATM   18  C16 UNL     1      -4.110  -0.518  -0.518  1.00  0.00     0.226 C 
HETATM   19  N3  UNL     1      -4.022  -0.977  -1.914  1.00  0.00     0.140 N 
HETATM   20  C17 UNL     1      -3.799   0.262  -2.668  1.00  0.00     0.251 C 
HETATM   21  C18 UNL     1      -3.301   1.328  -1.686  1.00  0.00     0.043 C 
HETATM   22  C19 UNL     1      -3.024  -2.022  -2.240  1.00  0.00     0.273 C 
HETATM   23  C20 UNL     1      -2.768  -2.965  -1.086  1.00  0.00    -0.012 C 
HETATM   24  C21 UNL     1      -2.717  -4.301  -1.268  1.00  0.00    -0.032 C 
HETATM   25  C22 UNL     1      -2.467  -5.262  -0.133  1.00  0.00     0.030 C 
HETATM   26  C23 UNL     1       2.242  -2.408   0.103  1.00  0.00     0.056 A 
HETATM   27  C24 UNL     1       3.348  -1.732  -0.426  1.00  0.00    -0.003 A 
HETATM   28  C25 UNL     1       3.084  -0.268  -0.731  1.00  0.00     0.074 C 
HETATM   29  C26 UNL     1       4.178   0.633  -0.137  1.00  0.00     0.226 C 
HETATM   30  C27 UNL     1       3.930   0.811   1.359  1.00  0.00     0.042 C 
HETATM   31  C28 UNL     1       2.639   1.613   1.506  1.00  0.00     0.043 C 
HETATM   32  C29 UNL     1       2.832   2.984   0.879  1.00  0.00    -0.012 C 
HETATM   33  C30 UNL     1       2.092   4.041   1.281  1.00  0.00    -0.032 C 
HETATM   34  C31 UNL     1       2.258   5.414   0.682  1.00  0.00     0.030 C 
HETATM   35  C32 UNL     1       3.894   3.129  -0.201  1.00  0.00     0.273 C 
HETATM   36  N4  UNL     1       4.164   1.875  -0.918  1.00  0.00     0.140 N 
HETATM   37  C33 UNL     1       3.334   1.619  -2.094  1.00  0.00     0.251 C 
HETATM   38  C34 UNL     1       3.232   0.102  -2.213  1.00  0.00     0.043 C 
HETATM   39  C35 UNL     1       4.533  -2.506  -0.580  1.00  0.00    -0.003 A 
HETATM   40  C36 UNL     1       4.598  -3.863  -0.182  1.00  0.00    -0.000 A 
HETATM   41  C37 UNL     1       3.463  -4.488   0.387  1.00  0.00     0.002 A 
HETATM   42  C38 UNL     1       2.264  -3.758   0.537  1.00  0.00     0.017 A 
ENDROOT
TORSDOF 0
