REMARK  2 active torsions:
REMARK  status: ('A' for Active; 'I' for Inactive)
REMARK    1  A    between atoms: C3_3  and  C10_10 
REMARK    2  A    between atoms: C6_6  and  C7_7 
ROOT
HETATM    1  C1  UNL     1       1.205  -0.611  -0.111  1.00  0.00     0.004 C 
HETATM    2  C2  UNL     1       0.168  -1.705  -0.410  1.00  0.00     0.003 C 
HETATM    3  C3  UNL     1      -1.180  -1.420   0.272  1.00  0.00     0.033 C 
HETATM    4  C4  UNL     1      -1.699  -0.021  -0.107  1.00  0.00     0.003 C 
HETATM    5  C5  UNL     1      -0.666   1.074   0.191  1.00  0.00     0.004 C 
HETATM    6  C6  UNL     1       0.686   0.787  -0.490  1.00  0.00     0.018 C 
ENDROOT
BRANCH   6   7
HETATM    7  C7  UNL     1       1.699   1.854  -0.160  1.00  0.00    -0.044 C 
HETATM    8  C8  UNL     1       2.242   2.068   1.229  1.00  0.00     0.026 C 
HETATM    9  C9  UNL     1       2.139   2.648  -1.148  1.00  0.00    -0.009 C 
ENDBRANCH   6   7
BRANCH   3  10
HETATM   10  C10 UNL     1      -2.211  -2.502  -0.060  1.00  0.00     0.182 C 
HETATM   11  O1  UNL     1      -3.322  -2.326   0.787  1.00  0.00    -0.221 OA
ENDBRANCH   3  10
TORSDOF 2
