REMARK  3 active torsions:
REMARK  status: ('A' for Active; 'I' for Inactive)
REMARK    1  A    between atoms: C4_4  and  C7_8 
REMARK    2  A    between atoms: C7_8  and  C8_9 
REMARK    3  A    between atoms: C8_9  and  C9_10 
ROOT
HETATM    1  C1  UNL     1      -2.231   3.561  -0.664  1.00  0.00     0.055 A 
HETATM    2  C2  UNL     1      -0.826   3.617  -0.662  1.00  0.00     0.133 A 
HETATM    3  C3  UNL     1      -0.082   2.424  -0.662  1.00  0.00     0.023 A 
HETATM    4  C4  UNL     1      -0.740   1.182  -0.664  1.00  0.00    -0.018 A 
HETATM    5  C5  UNL     1      -2.145   1.131  -0.664  1.00  0.00     0.023 A 
HETATM    6  C6  UNL     1      -2.895   2.320  -0.664  1.00  0.00     0.133 A 
HETATM    7  O1  UNL     1      -4.211   2.273  -0.664  1.00  0.00    -0.190 OA
HETATM    8  O2  UNL     1      -0.211   4.781  -0.662  1.00  0.00    -0.190 OA
ENDROOT
BRANCH   4   9
HETATM    9  C7  UNL     1       0.049  -0.078  -0.664  1.00  0.00     0.031 C 
BRANCH   9  10
HETATM   10  C8  UNL     1       0.348  -0.557   0.758  1.00  0.00     0.031 C 
BRANCH  10  11
HETATM   11  C9  UNL     1       1.137  -1.815   0.758  1.00  0.00    -0.022 A 
HETATM   12  C10 UNL     1       0.479  -3.059   0.758  1.00  0.00    -0.004 A 
HETATM   13  C11 UNL     1       1.227  -4.250   0.758  1.00  0.00    -0.000 A 
HETATM   14  C12 UNL     1       2.631  -4.197   0.758  1.00  0.00    -0.000 A 
HETATM   15  C13 UNL     1       3.289  -2.957   0.758  1.00  0.00    -0.000 A 
HETATM   16  C14 UNL     1       2.543  -1.766   0.758  1.00  0.00    -0.004 A 
ENDBRANCH  10  11
ENDBRANCH   9  10
ENDBRANCH   4   9
TORSDOF 3
