REMARK  3 active torsions:
REMARK  status: ('A' for Active; 'I' for Inactive)
REMARK    1  A    between atoms: C4_4  and  C7_8 
REMARK    2  A    between atoms: C7_8  and  C8_9 
REMARK    3  A    between atoms: C8_9  and  C9_10 
ROOT
HETATM    1  C7  UNL     1       3.361  -0.174   0.047  1.00  0.00     0.031 C 
ENDROOT
BRANCH   1   2
HETATM    2  C4  UNL     1       4.256   1.011  -0.264  1.00  0.00    -0.018 A 
HETATM    3  C3  UNL     1       5.645   0.841  -0.216  1.00  0.00     0.023 A 
HETATM    4  C2  UNL     1       6.536   1.883  -0.489  1.00  0.00     0.133 A 
HETATM    5  C1  UNL     1       6.000   3.129  -0.821  1.00  0.00     0.055 A 
HETATM    6  O3  UNL     1       7.879   1.682  -0.434  1.00  0.00    -0.190 OA
HETATM    7  C6  UNL     1       4.622   3.351  -0.883  1.00  0.00     0.133 A 
HETATM    8  C5  UNL     1       3.770   2.279  -0.601  1.00  0.00     0.023 A 
HETATM    9  O1  UNL     1       4.132   4.576  -1.210  1.00  0.00    -0.190 OA
ENDBRANCH   1   2
BRANCH   1  10
HETATM   10  C8  UNL     1       1.848   0.078  -0.021  1.00  0.00     0.031 C 
BRANCH  10  11
HETATM   11  C9  UNL     1       0.939  -1.094   0.288  1.00  0.00    -0.022 A 
HETATM   12  C10 UNL     1      -0.448  -0.904   0.233  1.00  0.00    -0.002 A 
HETATM   13  C11 UNL     1      -1.337  -1.944   0.506  1.00  0.00     0.027 A 
HETATM   14  C12 UNL     1      -0.877  -3.219   0.846  1.00  0.00     0.131 A 
HETATM   15  C13 UNL     1       0.506  -3.409   0.903  1.00  0.00     0.027 A 
HETATM   16  O2  UNL     1      -1.735  -4.238   1.115  1.00  0.00    -0.190 OA
HETATM   17  C14 UNL     1       1.400  -2.371   0.630  1.00  0.00    -0.002 A 
ENDBRANCH  10  11
ENDBRANCH   1  10
TORSDOF 3
