REMARK  3 active torsions:
REMARK  status: ('A' for Active; 'I' for Inactive)
REMARK    1  A    between atoms: C7_7  and  C12_13 
REMARK    2  A    between atoms: C12_13  and  C13_14 
REMARK    3  A    between atoms: C13_14  and  C14_15 
ROOT
HETATM    1  C1  UNL     1      -3.174  -0.023   0.129  1.00  0.00     0.000 C 
HETATM    2  C2  UNL     1      -3.383  -1.447  -0.402  1.00  0.00     0.000 C 
HETATM    3  C3  UNL     1      -2.260  -2.412   0.025  1.00  0.00     0.007 C 
HETATM    4  C4  UNL     1      -0.871  -1.820  -0.367  1.00  0.00     0.060 C 
HETATM    5  C5  UNL     1      -0.633  -0.367   0.150  1.00  0.00     0.032 C 
HETATM    6  C6  UNL     1      -1.811   0.535  -0.297  1.00  0.00     0.003 C 
HETATM    7  C7  UNL     1       0.738   0.186  -0.357  1.00  0.00     0.128 C 
HETATM    8  C8  UNL     1       1.908  -0.760   0.027  1.00  0.00     0.035 C 
HETATM    9  C9  UNL     1       1.666  -2.211  -0.428  1.00  0.00     0.067 C 
HETATM   10  C10 UNL     1       0.305  -2.709  -0.006  1.00  0.00     0.150 C 
HETATM   11  O1  UNL     1       0.180  -3.756   0.588  1.00  0.00    -0.296 OA
HETATM   12  C11 UNL     1       3.273  -0.258  -0.465  1.00  0.00     0.003 C 
HETATM   13  O3  UNL     1       0.713   0.299  -1.769  1.00  0.00    -0.226 OA
HETATM   14  C18 UNL     1      -0.598  -0.365   1.690  1.00  0.00     0.003 C 
HETATM   15  C19 UNL     1      -2.479  -3.754  -0.689  1.00  0.00     0.000 C 
HETATM   16  C20 UNL     1      -2.359  -2.668   1.535  1.00  0.00     0.000 C 
ENDROOT
BRANCH   7  17
HETATM   17  C12 UNL     1       1.002   1.607   0.160  1.00  0.00     0.035 C 
BRANCH  17  18
HETATM   18  C13 UNL     1       1.650   2.504  -0.894  1.00  0.00     0.031 C 
BRANCH  18  19
HETATM   19  C14 UNL     1       2.109   3.815  -0.293  1.00  0.00     0.005 A 
HETATM   20  C15 UNL     1       1.627   5.090  -0.586  1.00  0.00     0.025 A 
HETATM   21  C16 UNL     1       2.361   5.967   0.219  1.00  0.00     0.122 A 
HETATM   22  O2  UNL     1       3.273   5.313   0.996  1.00  0.00    -0.303 OA
HETATM   23  C17 UNL     1       3.107   3.998   0.670  1.00  0.00     0.118 A 
ENDBRANCH  18  19
ENDBRANCH  17  18
ENDBRANCH   7  17
TORSDOF 3
