REMARK  13 active torsions:
REMARK  status: ('A' for Active; 'I' for Inactive)
REMARK    1  A    between atoms: C1_1  and  C44_58 
REMARK    2  A    between atoms: C8_9  and  O3_12 
REMARK    3  A    between atoms: O3_12  and  C10_13 
REMARK    4  A    between atoms: C13_16  and  O6_32 
REMARK    5  A    between atoms: C18_21  and  C19_23 
REMARK    6  A    between atoms: C19_23  and  C20_24 
REMARK    7  A    between atoms: C20_24  and  C21_25 
REMARK    8  A    between atoms: O6_32  and  C27_33 
REMARK    9  A    between atoms: C33_43  and  C36_47 
REMARK   10  A    between atoms: C36_47  and  C37_48 
REMARK   11  A    between atoms: C37_48  and  C38_49 
REMARK   12  A    between atoms: C44_58  and  C45_59 
REMARK   13  A    between atoms: C45_59  and  C46_60 
ROOT
HETATM    1  C10 UNL     1       1.840  -2.184   1.195  1.00  0.00     0.099 A 
HETATM    2  C11 UNL     1       2.201  -2.768  -0.041  1.00  0.00     0.026 A 
HETATM    3  C12 UNL     1       3.145  -2.129  -0.881  1.00  0.00     0.028 A 
HETATM    4  C13 UNL     1       3.731  -0.902  -0.488  1.00  0.00     0.117 A 
HETATM    5  C14 UNL     1       3.375  -0.310   0.746  1.00  0.00     0.127 A 
HETATM    6  C15 UNL     1       2.428  -0.955   1.590  1.00  0.00     0.086 A 
HETATM    7  C16 UNL     1       2.076  -0.309   2.885  1.00  0.00     0.201 A 
HETATM    8  C17 UNL     1       2.764   0.971   3.160  1.00  0.00     0.062 A 
HETATM    9  C18 UNL     1       3.648   1.488   2.277  1.00  0.00     0.081 A 
HETATM   10  O4  UNL     1       3.936   0.861   1.117  1.00  0.00    -0.309 OA
HETATM   11  O5  UNL     1       1.299  -0.709   3.723  1.00  0.00    -0.286 OA
ENDROOT
BRANCH   1  12
HETATM   12  O3  UNL     1       0.945  -2.803   1.980  1.00  0.00    -0.327 OA
BRANCH  12  13
HETATM   13  C8  UNL     1      -0.287  -3.209   1.397  1.00  0.00     0.189 C 
HETATM   14  C7  UNL     1      -1.289  -2.049   1.391  1.00  0.00     0.219 C 
HETATM   15  C6  UNL     1      -2.611  -2.494   0.725  1.00  0.00     0.229 C 
HETATM   16  O12 UNL     1      -0.734  -0.957   0.680  1.00  0.00    -0.217 OA
HETATM   17  C5  UNL     1      -3.107  -3.889   1.088  1.00  0.00     0.112 A 
HETATM   18  O13 UNL     1      -3.617  -1.545   1.031  1.00  0.00    -0.214 OA
HETATM   19  C4  UNL     1      -2.289  -4.762   1.738  1.00  0.00     0.070 A 
HETATM   20  O1  UNL     1      -4.381  -4.197   0.723  1.00  0.00    -0.313 OA
HETATM   21  C3  UNL     1      -2.799  -6.107   2.035  1.00  0.00     0.198 A 
HETATM   22  C9  UNL     1      -0.875  -4.406   2.164  1.00  0.00     0.209 C 
HETATM   23  C2  UNL     1      -4.166  -6.395   1.613  1.00  0.00     0.062 A 
HETATM   24  O14 UNL     1      -2.129  -6.941   2.598  1.00  0.00    -0.287 OA
HETATM   25  C1  UNL     1      -4.871  -5.430   0.990  1.00  0.00     0.081 A 
HETATM   26  O2  UNL     1      -0.881  -4.127   3.551  1.00  0.00    -0.216 OA
BRANCH  25  27
HETATM   27  C44 UNL     1      -6.281  -5.764   0.576  1.00  0.00     0.056 C 
BRANCH  27  28
HETATM   28  C45 UNL     1      -7.283  -4.691   1.006  1.00  0.00     0.033 C 
BRANCH  28  29
HETATM   29  C46 UNL     1      -8.668  -5.039   0.590  1.00  0.00    -0.022 A 
HETATM   30  C47 UNL     1      -9.486  -5.805   1.439  1.00  0.00    -0.004 A 
HETATM   31  C48 UNL     1     -10.795  -6.133   1.047  1.00  0.00    -0.000 A 
HETATM   32  C49 UNL     1     -11.287  -5.697  -0.195  1.00  0.00    -0.000 A 
HETATM   33  C50 UNL     1     -10.471  -4.932  -1.045  1.00  0.00    -0.000 A 
HETATM   34  C51 UNL     1      -9.160  -4.602  -0.652  1.00  0.00    -0.004 A 
ENDBRANCH  28  29
ENDBRANCH  27  28
ENDBRANCH  25  27
ENDBRANCH  12  13
ENDBRANCH   1  12
BRANCH   4  35
HETATM   35  O6  UNL     1       4.623  -0.303  -1.289  1.00  0.00    -0.324 OA
BRANCH  35  36
HETATM   36  C27 UNL     1       4.315  -0.203  -2.674  1.00  0.00     0.181 C 
HETATM   37  C28 UNL     1       3.029   0.590  -2.805  1.00  0.00     0.068 A 
HETATM   38  C29 UNL     1       3.045   1.936  -2.650  1.00  0.00     0.112 A 
HETATM   39  C35 UNL     1       1.754  -0.072  -3.102  1.00  0.00     0.197 A 
HETATM   40  C30 UNL     1       4.395   2.566  -2.354  1.00  0.00     0.230 C 
HETATM   41  O10 UNL     1       1.936   2.715  -2.748  1.00  0.00    -0.313 OA
HETATM   42  C31 UNL     1       5.492   2.025  -3.309  1.00  0.00     0.222 C 
HETATM   43  O9  UNL     1       4.316   3.979  -2.467  1.00  0.00    -0.214 OA
HETATM   44  C32 UNL     1       5.504   0.469  -3.400  1.00  0.00     0.217 C 
HETATM   45  O8  UNL     1       6.766   2.473  -2.875  1.00  0.00    -0.217 OA
HETATM   46  O7  UNL     1       5.471   0.086  -4.764  1.00  0.00    -0.218 OA
HETATM   47  C33 UNL     1       0.742   2.125  -3.012  1.00  0.00     0.081 A 
HETATM   48  C34 UNL     1       0.584   0.797  -3.190  1.00  0.00     0.062 A 
HETATM   49  O11 UNL     1       1.666  -1.268  -3.268  1.00  0.00    -0.287 OA
BRANCH  47  50
HETATM   50  C36 UNL     1      -0.490   2.986  -3.115  1.00  0.00     0.056 C 
BRANCH  50  51
HETATM   51  C37 UNL     1      -0.625   3.957  -1.943  1.00  0.00     0.033 C 
BRANCH  51  52
HETATM   52  C38 UNL     1      -1.848   4.793  -2.063  1.00  0.00    -0.022 A 
HETATM   53  C39 UNL     1      -3.063   4.346  -1.512  1.00  0.00    -0.004 A 
HETATM   54  C40 UNL     1      -4.219   5.137  -1.625  1.00  0.00    -0.000 A 
HETATM   55  C41 UNL     1      -4.162   6.375  -2.287  1.00  0.00    -0.000 A 
HETATM   56  C42 UNL     1      -2.949   6.822  -2.838  1.00  0.00    -0.000 A 
HETATM   57  C43 UNL     1      -1.791   6.031  -2.727  1.00  0.00    -0.004 A 
ENDBRANCH  51  52
ENDBRANCH  50  51
ENDBRANCH  47  50
ENDBRANCH  35  36
ENDBRANCH   4  35
BRANCH   9  58
HETATM   58  C19 UNL     1       4.316   2.795   2.615  1.00  0.00     0.056 C 
BRANCH  58  59
HETATM   59  C20 UNL     1       5.832   2.740   2.426  1.00  0.00     0.033 C 
BRANCH  59  60
HETATM   60  C21 UNL     1       6.473   4.039   2.766  1.00  0.00    -0.022 A 
HETATM   61  C22 UNL     1       6.889   4.293   4.084  1.00  0.00    -0.004 A 
HETATM   62  C23 UNL     1       7.494   5.522   4.406  1.00  0.00    -0.000 A 
HETATM   63  C24 UNL     1       7.686   6.494   3.410  1.00  0.00    -0.000 A 
HETATM   64  C25 UNL     1       7.270   6.238   2.092  1.00  0.00    -0.000 A 
HETATM   65  C26 UNL     1       6.662   5.012   1.770  1.00  0.00    -0.004 A 
ENDBRANCH  59  60
ENDBRANCH  58  59
ENDBRANCH   9  58
TORSDOF 13
