REMARK  0 active torsions:
REMARK  status: ('A' for Active; 'I' for Inactive)
ROOT
HETATM    1  C1  UNL     1      -3.938  -0.008   1.762  1.00  0.00    -0.000 A 
HETATM    2  C2  UNL     1      -4.541  -0.555   0.613  1.00  0.00    -0.004 A 
HETATM    3  C3  UNL     1      -3.768  -0.818  -0.537  1.00  0.00    -0.022 A 
HETATM    4  C4  UNL     1      -2.371  -0.533  -0.537  1.00  0.00    -0.004 A 
HETATM    5  C5  UNL     1      -1.740   0.027   0.629  1.00  0.00     0.003 A 
HETATM    6  C6  UNL     1      -2.555   0.281   1.773  1.00  0.00     0.000 A 
HETATM    7  C7  UNL     1      -0.326   0.311   0.605  1.00  0.00     0.044 A 
HETATM    8  C8  UNL     1       0.414   0.023  -0.586  1.00  0.00     0.025 A 
HETATM    9  C9  UNL     1      -0.225  -0.527  -1.719  1.00  0.00     0.002 A 
HETATM   10  C10 UNL     1      -1.602  -0.803  -1.697  1.00  0.00    -0.000 A 
HETATM   11  C11 UNL     1       1.877   0.295  -0.666  1.00  0.00     0.093 A 
HETATM   12  C12 UNL     1       2.520   0.809   0.391  1.00  0.00     0.044 A 
HETATM   13  C13 UNL     1       1.854   1.147   1.652  1.00  0.00     0.232 A 
HETATM   14  C14 UNL     1       0.400   0.900   1.793  1.00  0.00     0.234 A 
HETATM   15  O1  UNL     1      -0.049   1.207   2.871  1.00  0.00    -0.283 OA
HETATM   16  O2  UNL     1       2.494   1.621   2.563  1.00  0.00    -0.283 OA
HETATM   17  C15 UNL     1       3.981   0.984   0.117  1.00  0.00     0.058 C 
HETATM   18  C16 UNL     1       4.004   0.627  -1.371  1.00  0.00     0.153 C 
HETATM   19  O3  UNL     1       2.715   0.096  -1.688  1.00  0.00    -0.331 OA
HETATM   20  C17 UNL     1       4.844   0.033   0.939  1.00  0.00     0.007 C 
HETATM   21  C18 UNL     1      -4.449  -1.393  -1.715  1.00  0.00     0.031 C 
ENDROOT
TORSDOF 0
