REMARK  1 active torsions:
REMARK  status: ('A' for Active; 'I' for Inactive)
REMARK    1  A    between atoms: C12_14  and  C15_18 
ROOT
HETATM    1  C1  UNL     1       3.176  -1.736  -0.818  1.00  0.00     0.001 C 
HETATM    2  C2  UNL     1       3.930  -0.674  -0.012  1.00  0.00     0.004 C 
HETATM    3  C3  UNL     1       3.351   0.734  -0.262  1.00  0.00     0.018 C 
HETATM    4  C4  UNL     1       1.820   0.734  -0.229  1.00  0.00    -0.013 A 
HETATM    5  C5  UNL     1       1.119  -0.531   0.277  1.00  0.00     0.036 A 
HETATM    6  C6  UNL     1       1.664  -1.758  -0.518  1.00  0.00     0.008 C 
HETATM    7  C7  UNL     1      -0.377  -0.498   0.213  1.00  0.00    -0.014 A 
HETATM    8  C8  UNL     1      -1.084   0.645  -0.254  1.00  0.00     0.037 A 
HETATM    9  C9  UNL     1      -0.344   1.859  -0.682  1.00  0.00     0.220 A 
HETATM   10  C10 UNL     1       1.131   1.828  -0.635  1.00  0.00     0.162 A 
HETATM   11  O1  UNL     1       1.787   2.926  -1.014  1.00  0.00    -0.187 OA
HETATM   12  O2  UNL     1      -0.838   2.893  -1.074  1.00  0.00    -0.284 OA
HETATM   13  C11 UNL     1      -2.500   0.639  -0.313  1.00  0.00     0.001 A 
HETATM   14  C12 UNL     1      -3.227  -0.498   0.103  1.00  0.00     0.003 A 
HETATM   15  C13 UNL     1      -2.537  -1.635   0.586  1.00  0.00     0.127 A 
HETATM   16  C14 UNL     1      -1.125  -1.633   0.637  1.00  0.00     0.023 A 
HETATM   17  O3  UNL     1      -3.213  -2.719   0.992  1.00  0.00    -0.191 OA
HETATM   18  C18 UNL     1       1.492  -0.660   1.766  1.00  0.00     0.009 C 
HETATM   19  C19 UNL     1       3.846   1.201  -1.641  1.00  0.00     0.004 C 
HETATM   20  C20 UNL     1       3.875   1.699   0.807  1.00  0.00     0.004 C 
ENDROOT
BRANCH  14  21
HETATM   21  C15 UNL     1      -4.697  -0.492   0.031  1.00  0.00     0.024 C 
HETATM   22  C16 UNL     1      -5.326  -0.244   1.404  1.00  0.00     0.005 C 
HETATM   23  C17 UNL     1      -5.207   0.477  -1.035  1.00  0.00     0.005 C 
ENDBRANCH  14  21
TORSDOF 1
