REMARK  0 active torsions:
REMARK  status: ('A' for Active; 'I' for Inactive)
ROOT
HETATM    1  C1  UNL     1       3.662   1.180  -0.451  1.00  0.00     0.033 C 
HETATM    2  C2  UNL     1       4.231  -0.232  -0.668  1.00  0.00     0.152 C 
HETATM    3  C3  UNL     1       3.676  -1.233   0.363  1.00  0.00     0.033 C 
HETATM    4  C4  UNL     1       2.133  -1.236   0.391  1.00  0.00     0.003 C 
HETATM    5  C5  UNL     1       1.557   0.185   0.641  1.00  0.00     0.000 C 
HETATM    6  C6  UNL     1       2.125   1.172  -0.410  1.00  0.00     0.003 C 
HETATM    7  C7  UNL     1       0.000   0.139   0.623  1.00  0.00     0.000 C 
HETATM    8  C8  UNL     1      -0.564  -0.525  -0.652  1.00  0.00     0.000 C 
HETATM    9  C9  UNL     1       0.027  -1.928  -0.861  1.00  0.00     0.000 C 
HETATM   10  C10 UNL     1       1.557  -1.885  -0.885  1.00  0.00     0.000 C 
HETATM   11  C11 UNL     1      -2.106  -0.592  -0.649  1.00  0.00     0.003 C 
HETATM   12  C12 UNL     1      -2.772   0.758  -0.334  1.00  0.00     0.028 C 
HETATM   13  C13 UNL     1      -2.191   1.391   0.947  1.00  0.00     0.002 C 
HETATM   14  C14 UNL     1      -0.664   1.512   0.848  1.00  0.00     0.000 C 
HETATM   15  C15 UNL     1      -4.223   0.271  -0.195  1.00  0.00     0.152 C 
HETATM   16  C16 UNL     1      -4.131  -0.992   0.660  1.00  0.00     0.033 C 
HETATM   17  C17 UNL     1      -2.740  -1.553   0.365  1.00  0.00     0.003 C 
HETATM   18  O1  UNL     1      -5.061   1.238   0.408  1.00  0.00    -0.224 OA
HETATM   19  C18 UNL     1      -2.650   1.697  -1.535  1.00  0.00     0.003 C 
HETATM   20  C19 UNL     1       2.002   0.654   2.037  1.00  0.00     0.000 C 
HETATM   21  O2  UNL     1       5.639  -0.190  -0.561  1.00  0.00    -0.224 OA
ENDROOT
TORSDOF 0
