REMARK  4 active torsions:
REMARK  status: ('A' for Active; 'I' for Inactive)
REMARK    1  A    between atoms: C4_4  and  O3_9 
REMARK    2  A    between atoms: C5_6  and  C6_7 
REMARK    3  A    between atoms: O3_9  and  C7_10 
REMARK    4  A    between atoms: C10_13  and  C13_16 
ROOT
HETATM    1  C1  UNL     1      -1.273   3.170  -0.356  1.00  0.00     0.215 C 
HETATM    2  C2  UNL     1       0.148   3.650   0.008  1.00  0.00     0.220 C 
HETATM    3  C3  UNL     1       1.180   2.578  -0.404  1.00  0.00     0.241 C 
HETATM    4  C4  UNL     1       0.787   1.189   0.143  1.00  0.00     0.274 C 
HETATM    5  O1  UNL     1      -0.533   0.863  -0.272  1.00  0.00    -0.326 OA
HETATM    6  C5  UNL     1      -1.545   1.750   0.191  1.00  0.00     0.184 C 
HETATM    7  O6  UNL     1       2.461   2.920   0.096  1.00  0.00    -0.215 OA
HETATM    8  O7  UNL     1       0.428   4.871  -0.660  1.00  0.00    -0.218 OA
HETATM    9  O8  UNL     1      -2.234   4.057   0.187  1.00  0.00    -0.218 OA
ENDROOT
BRANCH   4  10
HETATM   10  O3  UNL     1       1.682   0.201  -0.350  1.00  0.00    -0.301 OA
BRANCH  10  11
HETATM   11  C7  UNL     1       1.412  -1.061  -0.088  1.00  0.00     0.122 A 
HETATM   12  C8  UNL     1       1.785  -2.070  -0.996  1.00  0.00     0.153 A 
HETATM   13  C9  UNL     1       1.492  -3.414  -0.709  1.00  0.00     0.028 A 
HETATM   14  O5  UNL     1       2.408  -1.758  -2.115  1.00  0.00    -0.188 OA
HETATM   15  C10 UNL     1       0.828  -3.756   0.482  1.00  0.00     0.013 A 
HETATM   16  C11 UNL     1       0.457  -2.748   1.389  1.00  0.00     0.000 A 
HETATM   17  C12 UNL     1       0.748  -1.402   1.103  1.00  0.00     0.026 A 
BRANCH  15  18
HETATM   18  C13 UNL     1       0.521  -5.178   0.783  1.00  0.00     0.209 C 
HETATM   19  O4  UNL     1      -0.660  -5.555   0.113  1.00  0.00    -0.215 OA
ENDBRANCH  15  18
ENDBRANCH  10  11
ENDBRANCH   4  10
BRANCH   6  20
HETATM   20  C6  UNL     1      -2.887   1.178  -0.275  1.00  0.00     0.214 C 
HETATM   21  O2  UNL     1      -3.102  -0.037   0.404  1.00  0.00    -0.218 OA
ENDBRANCH   6  20
TORSDOF 4
