REMARK  1 active torsions:
REMARK  status: ('A' for Active; 'I' for Inactive)
REMARK    1  A    between atoms: C5_5  and  C7_7 
ROOT
HETATM    1  C1  UNL     1       1.535   0.086   0.000  1.00  0.00     0.030 A 
HETATM    2  C2  UNL     1       0.791   1.279   0.000  1.00  0.00     0.156 A 
HETATM    3  C3  UNL     1      -0.615   1.227   0.000  1.00  0.00     0.156 A 
HETATM    4  C4  UNL     1      -1.270  -0.017   0.000  1.00  0.00     0.033 A 
HETATM    5  C5  UNL     1      -0.525  -1.209   0.000  1.00  0.00     0.044 A 
HETATM    6  C6  UNL     1       0.879  -1.158   0.000  1.00  0.00     0.005 A 
HETATM    7  O2  UNL     1      -1.320   2.342   0.000  1.00  0.00    -0.188 OA
HETATM    8  O3  UNL     1       1.414   2.442   0.000  1.00  0.00    -0.188 OA
ENDROOT
BRANCH   5   9
HETATM    9  C7  UNL     1      -1.227  -2.529   0.000  1.00  0.00     0.234 C 
HETATM   10  O1  UNL     1      -0.602  -3.564   0.000  1.00  0.00    -0.283 OA
ENDBRANCH   5   9
TORSDOF 1
