REMARK  2 active torsions:
REMARK  status: ('A' for Active; 'I' for Inactive)
REMARK    1  A    between atoms: C11_12  and  O4_19 
REMARK    2  A    between atoms: C13_14  and  O3_17 
ROOT
HETATM    1  C1  UNL     1       3.713   1.582   0.273  1.00  0.00     0.005 A 
HETATM    2  C2  UNL     1       4.902   0.846   0.472  1.00  0.00     0.028 A 
HETATM    3  C3  UNL     1       4.846  -0.559   0.603  1.00  0.00     0.131 A 
HETATM    4  C4  UNL     1       3.602  -1.223   0.533  1.00  0.00     0.031 A 
HETATM    5  C5  UNL     1       2.398  -0.492   0.332  1.00  0.00     0.044 A 
HETATM    6  C6  UNL     1       2.455   0.924   0.201  1.00  0.00     0.042 A 
HETATM    7  C7  UNL     1       1.225   1.748  -0.010  1.00  0.00     0.198 A 
HETATM    8  C8  UNL     1      -0.076   1.002  -0.096  1.00  0.00     0.071 A 
HETATM    9  C9  UNL     1      -0.133  -0.420   0.033  1.00  0.00     0.066 A 
HETATM   10  C10 UNL     1       1.105  -1.238   0.261  1.00  0.00     0.198 A 
HETATM   11  O1  UNL     1       1.066  -2.443   0.383  1.00  0.00    -0.286 OA
HETATM   12  C11 UNL     1      -1.393  -1.080  -0.057  1.00  0.00     0.099 A 
HETATM   13  C12 UNL     1      -2.576  -0.342  -0.274  1.00  0.00     0.051 A 
HETATM   14  C13 UNL     1      -2.522   1.061  -0.399  1.00  0.00     0.121 A 
HETATM   15  C14 UNL     1      -1.283   1.731  -0.311  1.00  0.00     0.156 A 
HETATM   16  O2  UNL     1      -1.270   3.067  -0.436  1.00  0.00    -0.188 OA
HETATM   17  O5  UNL     1       1.283   2.953  -0.110  1.00  0.00    -0.286 OA
HETATM   18  O6  UNL     1       5.971  -1.262   0.791  1.00  0.00    -0.190 OA
ENDROOT
BRANCH  12  19
HETATM   19  O4  UNL     1      -1.490  -2.412   0.058  1.00  0.00    -0.328 OA
HETATM   20  C16 UNL     1      -2.785  -2.990   0.043  1.00  0.00     0.181 C 
ENDBRANCH  12  19
BRANCH  14  21
HETATM   21  O3  UNL     1      -3.651   1.754  -0.604  1.00  0.00    -0.326 OA
HETATM   22  C15 UNL     1      -4.862   1.027  -0.752  1.00  0.00     0.181 C 
ENDBRANCH  14  21
TORSDOF 2
