REMARK  3 active torsions:
REMARK  status: ('A' for Active; 'I' for Inactive)
REMARK    1  A    between atoms: C2_2  and  O7_23 
REMARK    2  A    between atoms: C7_8  and  C10_13 
REMARK    3  A    between atoms: C13_16  and  O5_20 
ROOT
HETATM    1  C1  UNL     1       2.918  -0.188  -0.262  1.00  0.00     0.049 A 
HETATM    2  C2  UNL     1       4.125   0.517  -0.471  1.00  0.00     0.098 A 
HETATM    3  C3  UNL     1       4.115   1.932  -0.539  1.00  0.00     0.052 A 
HETATM    4  C4  UNL     1       2.899   2.643  -0.412  1.00  0.00     0.138 A 
HETATM    5  C5  UNL     1       1.684   1.934  -0.221  1.00  0.00     0.085 A 
HETATM    6  C6  UNL     1       1.699   0.514  -0.117  1.00  0.00     0.101 A 
HETATM    7  O1  UNL     1       0.568  -0.184   0.119  1.00  0.00    -0.326 OA
HETATM    8  C7  UNL     1      -0.580   0.471   0.672  1.00  0.00     0.181 C 
HETATM    9  C8  UNL     1      -0.863   1.799  -0.074  1.00  0.00     0.245 C 
HETATM   10  C9  UNL     1       0.383   2.662  -0.137  1.00  0.00     0.210 C 
HETATM   11  O2  UNL     1       0.225   3.861  -0.119  1.00  0.00    -0.288 OA
HETATM   12  O3  UNL     1      -1.299   1.547  -1.398  1.00  0.00    -0.212 OA
HETATM   13  O6  UNL     1       2.912   3.980  -0.488  1.00  0.00    -0.190 OA
ENDROOT
BRANCH   8  14
HETATM   14  C10 UNL     1      -1.732  -0.475   0.697  1.00  0.00     0.010 A 
HETATM   15  C11 UNL     1      -1.914  -1.389  -0.355  1.00  0.00     0.000 A 
HETATM   16  C12 UNL     1      -3.000  -2.279  -0.330  1.00  0.00     0.026 A 
HETATM   17  C13 UNL     1      -3.908  -2.260   0.744  1.00  0.00     0.119 A 
HETATM   18  C14 UNL     1      -3.727  -1.344   1.799  1.00  0.00     0.153 A 
HETATM   19  C15 UNL     1      -2.637  -0.453   1.772  1.00  0.00     0.028 A 
HETATM   20  O4  UNL     1      -4.570  -1.318   2.809  1.00  0.00    -0.188 OA
BRANCH  17  21
HETATM   21  O5  UNL     1      -4.926  -3.098   0.762  1.00  0.00    -0.326 OA
HETATM   22  C16 UNL     1      -5.063  -4.000  -0.326  1.00  0.00     0.181 C 
ENDBRANCH  17  21
ENDBRANCH   8  14
BRANCH   2  23
HETATM   23  O7  UNL     1       5.277  -0.152  -0.601  1.00  0.00    -0.328 OA
HETATM   24  C17 UNL     1       6.457   0.596  -0.859  1.00  0.00     0.181 C 
ENDBRANCH   2  23
TORSDOF 3
