REMARK  5 active torsions:
REMARK  status: ('A' for Active; 'I' for Inactive)
REMARK    1  A    between atoms: C2_2  and  O10_30 
REMARK    2  A    between atoms: C5_5  and  O1_7 
REMARK    3  A    between atoms: O1_7  and  C7_8 
REMARK    4  A    between atoms: C8_10  and  C12_17 
REMARK    5  A    between atoms: C16_23  and  O8_27 
ROOT
HETATM    1  C1  UNL     1      -2.594   2.107  -0.268  1.00  0.00     0.157 A 
HETATM    2  C2  UNL     1      -1.318   2.713  -0.328  1.00  0.00     0.142 A 
HETATM    3  C3  UNL     1      -0.184   2.035   0.180  1.00  0.00     0.129 A 
HETATM    4  C4  UNL     1      -0.326   0.736   0.750  1.00  0.00     0.086 A 
HETATM    5  C5  UNL     1      -1.613   0.135   0.811  1.00  0.00     0.104 A 
HETATM    6  C6  UNL     1      -2.740   0.822   0.303  1.00  0.00     0.054 A 
HETATM    7  C13 UNL     1       0.881   0.016   1.281  1.00  0.00     0.201 A 
HETATM    8  C14 UNL     1       2.164   0.781   1.156  1.00  0.00     0.064 A 
HETATM    9  C15 UNL     1       2.168   2.078   0.570  1.00  0.00     0.125 A 
HETATM   10  O7  UNL     1       1.025   2.633   0.117  1.00  0.00    -0.303 OA
HETATM   11  C16 UNL     1       3.383   2.797   0.459  1.00  0.00     0.117 A 
HETATM   12  C17 UNL     1       4.590   2.227   0.926  1.00  0.00     0.026 A 
HETATM   13  C18 UNL     1       4.588   0.937   1.506  1.00  0.00     0.002 A 
HETATM   14  C19 UNL     1       3.379   0.215   1.621  1.00  0.00     0.005 A 
HETATM   15  O9  UNL     1       0.828  -1.090   1.772  1.00  0.00    -0.286 OA
HETATM   16  O11 UNL     1      -3.668   2.748  -0.750  1.00  0.00    -0.188 OA
ENDROOT
BRANCH   5  17
HETATM   17  O1  UNL     1      -1.783  -1.084   1.346  1.00  0.00    -0.303 OA
BRANCH  17  18
HETATM   18  C7  UNL     1      -2.785  -1.926   0.785  1.00  0.00     0.274 C 
HETATM   19  O2  UNL     1      -2.623  -2.008  -0.627  1.00  0.00    -0.326 OA
HETATM   20  C8  UNL     1      -1.389  -2.563  -1.066  1.00  0.00     0.184 C 
HETATM   21  C9  UNL     1      -1.248  -4.008  -0.537  1.00  0.00     0.215 C 
HETATM   22  C10 UNL     1      -1.420  -4.070   0.998  1.00  0.00     0.220 C 
HETATM   23  O5  UNL     1       0.029  -4.502  -0.898  1.00  0.00    -0.218 OA
HETATM   24  C11 UNL     1      -2.721  -3.342   1.398  1.00  0.00     0.241 C 
HETATM   25  O4  UNL     1      -1.475  -5.422   1.422  1.00  0.00    -0.218 OA
HETATM   26  O3  UNL     1      -2.815  -3.236   2.809  1.00  0.00    -0.215 OA
BRANCH  20  27
HETATM   27  C12 UNL     1      -1.393  -2.490  -2.598  1.00  0.00     0.214 C 
HETATM   28  O6  UNL     1      -1.315  -1.135  -2.977  1.00  0.00    -0.218 OA
ENDBRANCH  20  27
ENDBRANCH  17  18
ENDBRANCH   5  17
BRANCH   2  29
HETATM   29  O10 UNL     1      -1.182   3.934  -0.867  1.00  0.00    -0.324 OA
HETATM   30  C21 UNL     1      -0.084   4.158  -1.740  1.00  0.00     0.182 C 
ENDBRANCH   2  29
BRANCH  11  31
HETATM   31  O8  UNL     1       3.393   4.020  -0.090  1.00  0.00    -0.326 OA
HETATM   32  C20 UNL     1       4.627   4.721  -0.135  1.00  0.00     0.181 C 
ENDBRANCH  11  31
TORSDOF 5
