REMARK  2 active torsions:
REMARK  status: ('A' for Active; 'I' for Inactive)
REMARK    1  A    between atoms: C15_17  and  C18_20 
REMARK    2  A    between atoms: C18_20  and  C19_21 
ROOT
HETATM    1  C1  UNL     1      -5.406  -2.965   0.511  1.00  0.00     0.011 C 
HETATM    2  C2  UNL     1      -5.125  -3.871   1.587  1.00  0.00     0.032 C 
HETATM    3  C3  UNL     1      -3.859  -4.664   1.498  1.00  0.00     0.038 C 
HETATM    4  C4  UNL     1      -3.022  -4.157   0.332  1.00  0.00     0.160 C 
HETATM    5  C5  UNL     1      -3.022  -2.634   0.332  1.00  0.00     0.083 C 
HETATM    6  C6  UNL     1      -4.426  -2.172   0.025  1.00  0.00     0.170 C 
HETATM    7  O1  UNL     1      -4.656  -1.169  -0.608  1.00  0.00    -0.292 OA
HETATM    8  C7  UNL     1      -2.112  -2.126  -0.779  1.00  0.00     0.012 C 
HETATM    9  C8  UNL     1      -0.737  -2.402  -0.200  1.00  0.00     0.030 C 
HETATM   10  C9  UNL     1      -0.536  -3.893  -0.171  1.00  0.00     0.145 A 
HETATM   11  C10 UNL     1      -1.631  -4.730   0.332  1.00  0.00     0.170 A 
HETATM   12  O2  UNL     1      -1.077  -4.978  -0.969  1.00  0.00    -0.352 OA
HETATM   13  C11 UNL     1       0.318  -1.691  -1.037  1.00  0.00     0.003 C 
HETATM   14  C12 UNL     1       0.155  -0.184  -0.887  1.00  0.00     0.002 C 
HETATM   15  C13 UNL     1      -1.054   0.278  -1.689  1.00  0.00     0.000 C 
HETATM   16  C14 UNL     1      -2.302  -0.624  -0.944  1.00  0.00     0.001 C 
HETATM   17  C15 UNL     1       1.423   0.388  -1.506  1.00  0.00     0.030 C 
HETATM   18  C16 UNL     1       2.509  -0.734  -0.824  1.00  0.00     0.003 C 
HETATM   19  C17 UNL     1       1.699  -1.971  -0.459  1.00  0.00     0.000 C 
HETATM   20  C27 UNL     1      -0.050   0.251   0.558  1.00  0.00     0.000 C 
HETATM   21  C28 UNL     1      -2.541  -2.112   1.679  1.00  0.00     0.010 C 
HETATM   22  O6  UNL     1      -3.607  -4.602  -0.862  1.00  0.00    -0.223 OA
ENDROOT
BRANCH  17  23
HETATM   23  C18 UNL     1       1.700   1.815  -1.052  1.00  0.00     0.152 C 
HETATM   24  O5  UNL     1       0.695   2.663  -1.540  1.00  0.00    -0.224 OA
HETATM   25  C26 UNL     1       3.051   2.266  -1.592  1.00  0.00     0.035 C 
BRANCH  23  26
HETATM   26  C19 UNL     1       1.717   1.872   0.469  1.00  0.00     0.152 C 
HETATM   27  O3  UNL     1       0.740   2.768   0.926  1.00  0.00    -0.302 OA
HETATM   28  C20 UNL     1       0.841   3.927   0.265  1.00  0.00     0.271 C 
HETATM   29  C21 UNL     1       2.054   4.642   0.806  1.00  0.00     0.086 C 
HETATM   30  O4  UNL     1       0.100   4.326  -0.602  1.00  0.00    -0.264 OA
HETATM   31  C22 UNL     1       3.278   3.808   0.466  1.00  0.00     0.012 C 
HETATM   32  C25 UNL     1       2.172   6.018   0.164  1.00  0.00     0.010 C 
HETATM   33  C23 UNL     1       3.068   2.381   0.955  1.00  0.00     0.033 C 
HETATM   34  C24 UNL     1       4.504   4.403   1.147  1.00  0.00     0.001 C 
ENDBRANCH  23  26
ENDBRANCH  17  23
TORSDOF 2
