REMARK  8 active torsions:
REMARK  status: ('A' for Active; 'I' for Inactive)
REMARK    1  A    between atoms: C2_2  and  O8_40 
REMARK    2  A    between atoms: C11_11  and  C28_33 
REMARK    3  A    between atoms: C12_12  and  C15_15 
REMARK    4  A    between atoms: C17_19  and  C21_23 
REMARK    5  A    between atoms: C21_23  and  C22_24 
REMARK    6  A    between atoms: C21_23  and  O4_28 
REMARK    7  A    between atoms: O4_28  and  C25_29 
REMARK    8  A    between atoms: O8_40  and  C33_41 
ROOT
HETATM    1  C1  UNL     1       0.596  -1.317  -0.744  1.00  0.00     0.030 C 
HETATM    2  C2  UNL     1       0.733  -2.812  -1.062  1.00  0.00     0.118 C 
HETATM    3  C3  UNL     1       2.224  -3.249  -1.087  1.00  0.00     0.025 C 
HETATM    4  C4  UNL     1       2.887  -2.914   0.287  1.00  0.00     0.007 C 
HETATM    5  C5  UNL     1       2.721  -1.439   0.663  1.00  0.00     0.004 A 
HETATM    6  C6  UNL     1       1.270  -0.970   0.589  1.00  0.00     0.003 C 
HETATM    7  C7  UNL     1       3.889  -0.496   0.408  1.00  0.00     0.015 A 
HETATM    8  C8  UNL     1       5.149  -1.087  -0.124  1.00  0.00    -0.040 C 
HETATM    9  C9  UNL     1       5.325  -2.421  -0.115  1.00  0.00    -0.034 C 
HETATM   10  C10 UNL     1       4.336  -3.402   0.441  1.00  0.00     0.025 C 
HETATM   11  C11 UNL     1       6.213  -0.155  -0.711  1.00  0.00     0.094 C 
HETATM   12  C12 UNL     1       6.170   1.305  -0.106  1.00  0.00     0.021 C 
HETATM   13  C13 UNL     1       4.749   1.833  -0.445  1.00  0.00     0.002 C 
HETATM   14  C14 UNL     1       3.570   0.918  -0.060  1.00  0.00     0.004 C 
HETATM   15  C27 UNL     1       6.261   1.351   1.442  1.00  0.00     0.001 C 
HETATM   16  C29 UNL     1       5.914  -0.196  -2.238  1.00  0.00     0.015 C 
HETATM   17  C30 UNL     1       3.508  -0.882   1.824  1.00  0.00     0.004 A 
HETATM   18  C31 UNL     1       2.953  -2.538  -2.250  1.00  0.00     0.002 C 
HETATM   19  C32 UNL     1       2.299  -4.763  -1.407  1.00  0.00     0.002 C 
ENDROOT
BRANCH  12  20
HETATM   20  C15 UNL     1       7.312   2.262  -0.644  1.00  0.00     0.087 C 
HETATM   21  C16 UNL     1       8.691   2.029  -0.003  1.00  0.00     0.271 C 
HETATM   22  O1  UNL     1       9.353   1.039  -0.231  1.00  0.00    -0.264 OA
HETATM   23  O2  UNL     1       9.101   2.905   0.952  1.00  0.00    -0.302 OA
HETATM   24  C17 UNL     1       8.726   4.244   0.963  1.00  0.00     0.154 C 
HETATM   25  C18 UNL     1       8.210   4.620  -0.423  1.00  0.00     0.033 C 
HETATM   26  C19 UNL     1       6.978   3.770  -0.759  1.00  0.00     0.012 C 
HETATM   27  C20 UNL     1       6.481   4.201  -2.154  1.00  0.00     0.001 C 
BRANCH  24  28
HETATM   28  C21 UNL     1       9.933   5.111   1.379  1.00  0.00     0.179 C 
BRANCH  28  29
HETATM   29  C22 UNL     1      10.550   4.800   2.760  1.00  0.00     0.155 C 
HETATM   30  C23 UNL     1      11.188   3.408   2.863  1.00  0.00     0.036 C 
HETATM   31  C24 UNL     1      11.628   5.828   3.142  1.00  0.00     0.036 C 
HETATM   32  O3  UNL     1       9.531   4.871   3.722  1.00  0.00    -0.223 OA
ENDBRANCH  28  29
BRANCH  28  33
HETATM   33  O4  UNL     1       9.520   6.455   1.369  1.00  0.00    -0.299 OA
BRANCH  33  34
HETATM   34  C25 UNL     1      10.018   7.419   0.541  1.00  0.00     0.273 C 
HETATM   35  O5  UNL     1       9.617   8.564   0.582  1.00  0.00    -0.264 OA
HETATM   36  C26 UNL     1      11.095   7.013  -0.449  1.00  0.00     0.106 C 
ENDBRANCH  33  34
ENDBRANCH  28  33
ENDBRANCH  24  28
ENDBRANCH  12  20
BRANCH  11  37
HETATM   37  C28 UNL     1       7.584  -0.822  -0.556  1.00  0.00     0.188 C 
HETATM   38  O6  UNL     1       8.311  -1.180  -1.455  1.00  0.00    -0.647 OA
HETATM   39  O7  UNL     1       7.908  -1.071   0.726  1.00  0.00    -0.647 OA
ENDBRANCH  11  37
BRANCH   2  40
HETATM   40  O8  UNL     1       0.013  -3.513  -0.078  1.00  0.00    -0.332 OA
BRANCH  40  41
HETATM   41  C33 UNL     1      -0.845  -4.527  -0.552  1.00  0.00     0.270 C 
HETATM   42  O9  UNL     1      -1.986  -3.887  -1.081  1.00  0.00    -0.326 OA
HETATM   43  C34 UNL     1      -2.923  -4.819  -1.572  1.00  0.00     0.181 C 
HETATM   44  C35 UNL     1      -3.398  -5.742  -0.461  1.00  0.00     0.215 C 
HETATM   45  C36 UNL     1      -2.219  -6.433   0.191  1.00  0.00     0.220 C 
HETATM   46  O12 UNL     1      -4.255  -6.732  -0.974  1.00  0.00    -0.218 OA
HETATM   47  C37 UNL     1      -1.239  -5.372   0.639  1.00  0.00     0.241 C 
HETATM   48  O11 UNL     1      -2.655  -7.172   1.303  1.00  0.00    -0.218 OA
HETATM   49  O10 UNL     1      -0.099  -5.994   1.172  1.00  0.00    -0.215 OA
ENDBRANCH  40  41
ENDBRANCH   2  40
TORSDOF 8
