REMARK  2 active torsions:
REMARK  status: ('A' for Active; 'I' for Inactive)
REMARK    1  A    between atoms: C5_5  and  C7_7 
REMARK    2  A    between atoms: C7_7  and  C8_8 
ROOT
HETATM    1  C7  UNL     1       0.354   0.914  -1.378  1.00  0.00     0.053 C 
ENDROOT
BRANCH   1   2
HETATM    2  C5  UNL     1       0.689   1.297   0.018  1.00  0.00    -0.018 A 
HETATM    3  C4  UNL     1      -0.178   2.131   0.747  1.00  0.00    -0.002 A 
HETATM    4  C3  UNL     1       0.141   2.492   2.067  1.00  0.00     0.027 A 
HETATM    5  C2  UNL     1       1.324   2.024   2.665  1.00  0.00     0.131 A 
HETATM    6  C1  UNL     1       2.189   1.190   1.932  1.00  0.00     0.027 A 
HETATM    7  O2  UNL     1       1.623   2.363   3.903  1.00  0.00    -0.190 OA
HETATM    8  C6  UNL     1       1.873   0.828   0.612  1.00  0.00    -0.002 A 
ENDBRANCH   1   2
BRANCH   1   9
HETATM    9  C8  UNL     1      -0.342  -0.398  -1.378  1.00  0.00    -0.018 A 
HETATM   10  C9  UNL     1      -1.746  -0.451  -1.378  1.00  0.00    -0.002 A 
HETATM   11  C10 UNL     1      -2.404  -1.693  -1.378  1.00  0.00     0.027 A 
HETATM   12  C11 UNL     1      -1.660  -2.887  -1.378  1.00  0.00     0.131 A 
HETATM   13  C12 UNL     1      -0.256  -2.832  -1.378  1.00  0.00     0.027 A 
HETATM   14  O1  UNL     1      -2.277  -4.051  -1.378  1.00  0.00    -0.190 OA
HETATM   15  C13 UNL     1       0.404  -1.590  -1.378  1.00  0.00    -0.002 A 
ENDBRANCH   1   9
TORSDOF 2
