REMARK  1 active torsions:
REMARK  status: ('A' for Active; 'I' for Inactive)
REMARK    1  A    between atoms: C7_9  and  C10_13 
ROOT
HETATM    1  C1  UNL     1      -4.090  -2.033   0.801  1.00  0.00     0.028 A 
HETATM    2  C2  UNL     1      -2.793  -2.564   1.006  1.00  0.00     0.007 A 
HETATM    3  C3  UNL     1      -1.658  -1.779   0.691  1.00  0.00     0.062 A 
HETATM    4  C4  UNL     1      -1.812  -0.467   0.174  1.00  0.00     0.105 A 
HETATM    5  C5  UNL     1      -3.111   0.057  -0.029  1.00  0.00     0.052 A 
HETATM    6  C6  UNL     1      -4.248  -0.724   0.283  1.00  0.00     0.133 A 
HETATM    7  O1  UNL     1      -5.477  -0.226   0.090  1.00  0.00    -0.190 OA
HETATM    8  O2  UNL     1      -0.727   0.281  -0.125  1.00  0.00    -0.307 OA
HETATM    9  C7  UNL     1       0.541  -0.146   0.041  1.00  0.00     0.103 A 
HETATM   10  C8  UNL     1       0.811  -1.381   0.525  1.00  0.00     0.067 A 
HETATM   11  C9  UNL     1      -0.281  -2.308   0.895  1.00  0.00     0.200 A 
HETATM   12  O3  UNL     1       0.031  -3.396   1.320  1.00  0.00    -0.286 OA
ENDROOT
BRANCH   9  13
HETATM   13  C10 UNL     1       1.682   0.750  -0.314  1.00  0.00     0.023 A 
HETATM   14  C11 UNL     1       1.512   1.756  -1.281  1.00  0.00     0.004 A 
HETATM   15  C12 UNL     1       2.586   2.600  -1.615  1.00  0.00     0.028 A 
HETATM   16  C13 UNL     1       3.832   2.442  -0.984  1.00  0.00     0.131 A 
HETATM   17  C14 UNL     1       4.000   1.436  -0.018  1.00  0.00     0.028 A 
HETATM   18  O4  UNL     1       4.838   3.233  -1.299  1.00  0.00    -0.190 OA
HETATM   19  C15 UNL     1       2.928   0.590   0.318  1.00  0.00     0.004 A 
ENDBRANCH   9  13
TORSDOF 1
