REMARK  6 active torsions:
REMARK  status: ('A' for Active; 'I' for Inactive)
REMARK    1  A    between atoms: C3_3  and  C8_10 
REMARK    2  A    between atoms: C6_6  and  C7_7 
REMARK    3  A    between atoms: C8_10  and  C9_11 
REMARK    4  A    between atoms: C9_11  and  O3_12 
REMARK    5  A    between atoms: O3_12  and  C10_13 
REMARK    6  A    between atoms: C10_13  and  C11_14 
ROOT
HETATM    1  C8  UNL     1       1.574   0.771   1.226  1.00  0.00     0.175 C 
HETATM    2  C14 UNL     1       3.027   0.627   1.676  1.00  0.00     0.040 C 
HETATM    3  O5  UNL     1       0.924   1.654   2.111  1.00  0.00    -0.219 OA
ENDROOT
BRANCH   1   4
HETATM    4  C3  UNL     1       0.867  -0.539   1.226  1.00  0.00     0.033 A 
HETATM    5  C2  UNL     1       1.613  -1.730   1.226  1.00  0.00    -0.000 A 
HETATM    6  C1  UNL     1       0.957  -2.973   1.226  1.00  0.00    -0.002 A 
HETATM    7  C6  UNL     1      -0.447  -3.025   1.226  1.00  0.00     0.013 A 
HETATM    8  C5  UNL     1      -1.193  -1.832   1.226  1.00  0.00     0.025 A 
HETATM    9  C4  UNL     1      -0.539  -0.586   1.226  1.00  0.00     0.129 A 
HETATM   10  O2  UNL     1      -1.248   0.525   1.226  1.00  0.00    -0.190 OA
BRANCH   7  11
HETATM   11  C7  UNL     1      -1.145  -4.338   1.226  1.00  0.00     0.209 C 
HETATM   12  O1  UNL     1      -1.494  -4.684   2.547  1.00  0.00    -0.215 OA
ENDBRANCH   7  11
ENDBRANCH   1   4
BRANCH   1  13
HETATM   13  C9  UNL     1       1.582   1.406  -0.164  1.00  0.00     0.186 C 
BRANCH  13  14
HETATM   14  O3  UNL     1       0.246   1.648  -0.582  1.00  0.00    -0.299 OA
BRANCH  14  15
HETATM   15  C10 UNL     1       0.184   2.174  -1.803  1.00  0.00     0.271 C 
HETATM   16  O4  UNL     1       1.154   2.428  -2.475  1.00  0.00    -0.264 OA
BRANCH  15  17
HETATM   17  C11 UNL     1      -1.207   2.443  -2.313  1.00  0.00     0.086 C 
HETATM   18  C12 UNL     1      -2.061   1.176  -2.377  1.00  0.00     0.010 C 
HETATM   19  C13 UNL     1      -1.203   3.219  -3.631  1.00  0.00     0.010 C 
ENDBRANCH  15  17
ENDBRANCH  14  15
ENDBRANCH  13  14
ENDBRANCH   1  13
TORSDOF 6
