REMARK  2 active torsions:
REMARK  status: ('A' for Active; 'I' for Inactive)
REMARK    1  A    between atoms: C3_3  and  C20_22 
REMARK    2  A    between atoms: C15_15  and  C17_18 
ROOT
HETATM    1  C1  UNL     1      -2.621   1.572   0.726  1.00  0.00     0.001 C 
HETATM    2  C2  UNL     1      -3.576   0.373   0.570  1.00  0.00     0.010 C 
HETATM    3  C3  UNL     1      -2.939  -0.848  -0.151  1.00  0.00     0.078 C 
HETATM    4  C4  UNL     1      -1.392  -0.752  -0.090  1.00  0.00     0.010 C 
HETATM    5  C5  UNL     1      -0.812   0.518  -0.783  1.00  0.00     0.001 C 
HETATM    6  C6  UNL     1      -1.724   1.748  -0.504  1.00  0.00     0.000 C 
HETATM    7  C7  UNL     1       0.621   0.719  -0.213  1.00  0.00     0.000 C 
HETATM    8  C8  UNL     1       1.469  -0.606  -0.207  1.00  0.00     0.003 C 
HETATM    9  C9  UNL     1       0.809  -1.803  -0.918  1.00  0.00     0.000 C 
HETATM   10  C10 UNL     1      -0.654  -2.041  -0.508  1.00  0.00     0.001 C 
HETATM   11  C11 UNL     1       2.889  -0.449  -0.787  1.00  0.00     0.003 C 
HETATM   12  C12 UNL     1       3.461   0.615   0.146  1.00  0.00     0.031 C 
HETATM   13  C13 UNL     1       2.854   1.973  -0.272  1.00  0.00     0.003 C 
HETATM   14  C14 UNL     1       1.438   1.853  -0.869  1.00  0.00     0.000 C 
HETATM   15  C15 UNL     1       3.024   0.057   1.525  1.00  0.00     0.157 C 
HETATM   16  C16 UNL     1       1.873  -0.930   1.236  1.00  0.00     0.033 C 
HETATM   17  O1  UNL     1       4.104  -0.656   2.103  1.00  0.00    -0.223 OA
HETATM   18  C18 UNL     1      -0.742   0.330  -2.311  1.00  0.00     0.000 C 
HETATM   19  C19 UNL     1      -3.428  -2.141   0.515  1.00  0.00     0.011 C 
ENDROOT
BRANCH   3  20
HETATM   20  C20 UNL     1      -3.406  -0.902  -1.588  1.00  0.00     0.184 C 
HETATM   21  O3  UNL     1      -3.771   0.096  -2.162  1.00  0.00    -0.647 OA
HETATM   22  O4  UNL     1      -3.377  -2.109  -2.145  1.00  0.00    -0.647 OA
ENDBRANCH   3  20
BRANCH  15  23
HETATM   23  C17 UNL     1       2.615   1.117   2.545  1.00  0.00     0.212 C 
HETATM   24  O2  UNL     1       2.229   0.463   3.730  1.00  0.00    -0.218 OA
ENDBRANCH  15  23
TORSDOF 2
