REMARK  0 active torsions:
REMARK  status: ('A' for Active; 'I' for Inactive)
ROOT
HETATM    1  C1  UNL     1      -3.631  -0.398   0.504  1.00  0.00     0.009 C 
HETATM    2  C2  UNL     1      -2.971   0.768  -0.252  1.00  0.00     0.080 C 
HETATM    3  C3  UNL     1      -1.459   0.559  -0.475  1.00  0.00     0.039 C 
HETATM    4  C4  UNL     1      -0.832  -0.643   0.268  1.00  0.00     0.003 C 
HETATM    5  C5  UNL     1      -1.633  -1.855  -0.266  1.00  0.00     0.000 C 
HETATM    6  C6  UNL     1      -3.158  -1.760  -0.037  1.00  0.00     0.001 C 
HETATM    7  C7  UNL     1       0.658  -0.650  -0.176  1.00  0.00     0.005 C 
HETATM    8  C8  UNL     1       1.401   0.707   0.133  1.00  0.00     0.035 C 
HETATM    9  C9  UNL     1       0.461   1.809   0.693  1.00  0.00     0.180 C 
HETATM   10  C10 UNL     1      -0.848   1.920  -0.096  1.00  0.00     0.155 C 
HETATM   11  O1  UNL     1      -1.812   2.627   0.680  1.00  0.00    -0.302 OA
HETATM   12  C11 UNL     1      -2.998   2.043   0.541  1.00  0.00     0.271 C 
HETATM   13  O2  UNL     1      -4.025   2.475   1.014  1.00  0.00    -0.264 OA
HETATM   14  O3  UNL     1       1.086   3.078   0.740  1.00  0.00    -0.221 OA
HETATM   15  C12 UNL     1       2.572   0.453   1.115  1.00  0.00     0.009 C 
HETATM   16  C13 UNL     1       3.506  -0.420   0.268  1.00  0.00     0.049 C 
HETATM   17  C14 UNL     1       2.938  -1.848   0.131  1.00  0.00     0.156 C 
HETATM   18  C15 UNL     1       1.412  -1.889   0.377  1.00  0.00     0.033 C 
HETATM   19  O4  UNL     1       3.570  -2.701   1.065  1.00  0.00    -0.223 OA
HETATM   20  C16 UNL     1       3.438   0.297  -1.047  1.00  0.00    -0.042 C 
HETATM   21  C17 UNL     1       2.201   1.139  -1.121  1.00  0.00     0.025 C 
HETATM   22  C18 UNL     1       4.363   0.205  -2.019  1.00  0.00    -0.009 C 
HETATM   23  C19 UNL     1      -0.955  -0.563   1.799  1.00  0.00     0.000 C 
HETATM   24  C20 UNL     1      -3.644   0.990  -1.607  1.00  0.00     0.010 C 
ENDROOT
TORSDOF 0
