REMARK  0 active torsions:
REMARK  status: ('A' for Active; 'I' for Inactive)
ROOT
HETATM    1  C1  UNL     1       2.279  -2.051   0.314  1.00  0.00     0.036 C 
HETATM    2  C2  UNL     1       3.228  -1.307   1.266  1.00  0.00     0.038 C 
HETATM    3  C3  UNL     1       3.477   0.139   0.801  1.00  0.00     0.251 C 
HETATM    4  N1  UNL     1       2.228   0.902   0.584  1.00  0.00     0.140 N 
HETATM    5  C4  UNL     1       0.976   0.117   0.750  1.00  0.00     0.251 C 
HETATM    6  C5  UNL     1       1.010  -1.221  -0.043  1.00  0.00     0.176 C 
HETATM    7  C6  UNL     1      -0.274  -2.031   0.236  1.00  0.00     0.136 C 
HETATM    8  N2  UNL     1      -1.531  -1.250   0.057  1.00  0.00    -0.319 N 
HETATM    9  C7  UNL     1      -1.604   0.103   0.709  1.00  0.00     0.086 C 
HETATM   10  C8  UNL     1      -0.309   0.953   0.533  1.00  0.00     0.057 C 
HETATM   11  C9  UNL     1      -0.240   1.807  -0.750  1.00  0.00     0.039 C 
HETATM   12  C10 UNL     1       1.051   2.637  -0.764  1.00  0.00     0.186 C 
HETATM   13  C11 UNL     1       2.305   1.766  -0.609  1.00  0.00     0.283 C 
HETATM   14  O1  UNL     1       1.129   3.355  -1.977  1.00  0.00    -0.221 OA
HETATM   15  C12 UNL     1      -2.891   0.889   0.361  1.00  0.00     0.023 C 
HETATM   16  C13 UNL     1      -4.121  -0.012   0.328  1.00  0.00     0.012 C 
HETATM   17  C14 UNL     1      -3.918  -1.065  -0.764  1.00  0.00     0.088 C 
HETATM   18  C15 UNL     1      -2.600  -1.799  -0.635  1.00  0.00     0.234 C 
HETATM   19  O2  UNL     1      -2.502  -2.893  -1.145  1.00  0.00    -0.272 OA
HETATM   20  O3  UNL     1       1.047  -0.969  -1.440  1.00  0.00    -0.222 OA
ENDROOT
TORSDOF 0
