REMARK  6 active torsions:
REMARK  status: ('A' for Active; 'I' for Inactive)
REMARK    1  A    between atoms: C3_3  and  C8_10 
REMARK    2  A    between atoms: C5_5  and  O2_8 
REMARK    3  A    between atoms: C8_10  and  C9_11 
REMARK    4  A    between atoms: C12_15  and  C13_16 
REMARK    5  A    between atoms: C13_16  and  C14_17 
REMARK    6  A    between atoms: C16_19  and  O5_24 
ROOT
HETATM    1  C9  UNL     1      -0.443  -1.227   0.781  1.00  0.00     0.039 C 
HETATM    2  C10 UNL     1       0.037  -2.617   0.363  1.00  0.00     0.143 C 
HETATM    3  O3  UNL     1      -0.965  -3.518   0.791  1.00  0.00    -0.354 OA
HETATM    4  C11 UNL     1      -2.106  -2.828   1.258  1.00  0.00     0.145 C 
HETATM    5  C12 UNL     1      -1.965  -1.402   0.725  1.00  0.00     0.067 C 
ENDROOT
BRANCH   5   6
HETATM    6  C13 UNL     1      -2.475  -1.307  -0.713  1.00  0.00     0.177 C 
HETATM    7  O6  UNL     1      -3.860  -1.574  -0.709  1.00  0.00    -0.218 OA
BRANCH   6   8
HETATM    8  C14 UNL     1      -2.233   0.041  -1.291  1.00  0.00     0.010 A 
HETATM    9  C15 UNL     1      -1.578   0.168  -2.529  1.00  0.00     0.025 A 
HETATM   10  C16 UNL     1      -1.348   1.442  -3.080  1.00  0.00     0.119 A 
HETATM   11  C17 UNL     1      -1.774   2.592  -2.389  1.00  0.00     0.153 A 
HETATM   12  C18 UNL     1      -2.428   2.463  -1.150  1.00  0.00     0.029 A 
HETATM   13  O4  UNL     1      -1.561   3.789  -2.897  1.00  0.00    -0.188 OA
HETATM   14  C19 UNL     1      -2.658   1.190  -0.602  1.00  0.00     0.000 A 
BRANCH  10  15
HETATM   15  O5  UNL     1      -0.733   1.555  -4.240  1.00  0.00    -0.326 OA
HETATM   16  C20 UNL     1      -1.238   2.498  -5.174  1.00  0.00     0.181 C 
ENDBRANCH  10  15
ENDBRANCH   6   8
ENDBRANCH   5   6
BRANCH   1  17
HETATM   17  C8  UNL     1       0.014  -0.904   2.205  1.00  0.00     0.029 C 
BRANCH  17  18
HETATM   18  C3  UNL     1       1.496  -0.842   2.303  1.00  0.00    -0.020 A 
HETATM   19  C2  UNL     1       2.213  -1.935   2.814  1.00  0.00    -0.002 A 
HETATM   20  C1  UNL     1       3.615  -1.875   2.906  1.00  0.00     0.029 A 
HETATM   21  C6  UNL     1       4.301  -0.723   2.486  1.00  0.00     0.153 A 
HETATM   22  C5  UNL     1       3.582   0.375   1.973  1.00  0.00     0.119 A 
HETATM   23  O1  UNL     1       5.615  -0.672   2.574  1.00  0.00    -0.188 OA
HETATM   24  C4  UNL     1       2.182   0.311   1.883  1.00  0.00     0.022 A 
BRANCH  22  25
HETATM   25  O2  UNL     1       4.219   1.459   1.578  1.00  0.00    -0.326 OA
HETATM   26  C7  UNL     1       3.447   2.531   1.057  1.00  0.00     0.181 C 
ENDBRANCH  22  25
ENDBRANCH  17  18
ENDBRANCH   1  17
TORSDOF 6
