REMARK  4 active torsions:
REMARK  status: ('A' for Active; 'I' for Inactive)
REMARK    1  A    between atoms: C2_2  and  O4_19 
REMARK    2  A    between atoms: C5_5  and  C7_8 
REMARK    3  A    between atoms: C7_8  and  C8_9 
REMARK    4  A    between atoms: C9_10  and  C10_11 
ROOT
HETATM    1  C1  UNL     1       1.010   3.033   0.324  1.00  0.00     0.052 A 
HETATM    2  C2  UNL     1       0.336   3.912   1.188  1.00  0.00     0.098 A 
HETATM    3  C3  UNL     1      -0.988   3.633   1.567  1.00  0.00     0.052 A 
HETATM    4  C4  UNL     1      -1.641   2.485   1.086  1.00  0.00     0.138 A 
HETATM    5  C5  UNL     1      -0.959   1.606   0.219  1.00  0.00     0.090 A 
HETATM    6  C6  UNL     1       0.369   1.881  -0.164  1.00  0.00     0.138 A 
HETATM    7  O1  UNL     1       1.018   1.069  -0.974  1.00  0.00    -0.190 OA
HETATM    8  O3  UNL     1      -2.883   2.238   1.451  1.00  0.00    -0.190 OA
ENDROOT
BRANCH   5   9
HETATM    9  C7  UNL     1      -1.647   0.383  -0.297  1.00  0.00     0.200 C 
HETATM   10  O2  UNL     1      -2.791   0.428  -0.685  1.00  0.00    -0.286 OA
BRANCH   9  11
HETATM   11  C8  UNL     1      -0.904  -0.885  -0.322  1.00  0.00     0.042 C 
HETATM   12  C9  UNL     1      -1.430  -1.974  -0.906  1.00  0.00     0.003 C 
BRANCH  12  13
HETATM   13  C10 UNL     1      -0.637  -3.238  -0.906  1.00  0.00     0.000 A 
HETATM   14  C11 UNL     1      -1.293  -4.482  -0.906  1.00  0.00     0.000 A 
HETATM   15  C12 UNL     1      -0.547  -5.674  -0.906  1.00  0.00     0.000 A 
HETATM   16  C13 UNL     1       0.857  -5.623  -0.906  1.00  0.00     0.000 A 
HETATM   17  C14 UNL     1       1.516  -4.381  -0.906  1.00  0.00     0.000 A 
HETATM   18  C15 UNL     1       0.769  -3.189  -0.906  1.00  0.00     0.000 A 
ENDBRANCH  12  13
ENDBRANCH   9  11
ENDBRANCH   5   9
BRANCH   2  19
HETATM   19  O4  UNL     1       0.941   4.990   1.643  1.00  0.00    -0.328 OA
HETATM   20  C16 UNL     1       2.303   5.188   1.293  1.00  0.00     0.181 C 
ENDBRANCH   2  19
TORSDOF 4
