REMARK  3 active torsions:
REMARK  status: ('A' for Active; 'I' for Inactive)
REMARK    1  A    between atoms: C2_2  and  O5_21 
REMARK    2  A    between atoms: C5_5  and  C7_8 
REMARK    3  A    between atoms: C8_11  and  C11_15 
ROOT
HETATM    1  C1  UNL     1      -2.930  -1.564   0.217  1.00  0.00     0.026 A 
HETATM    2  C2  UNL     1      -1.600  -2.029   0.078  1.00  0.00     0.092 A 
HETATM    3  C3  UNL     1      -0.535  -1.111  -0.123  1.00  0.00     0.052 A 
HETATM    4  C4  UNL     1      -0.813   0.287  -0.193  1.00  0.00     0.100 A 
HETATM    5  C5  UNL     1      -2.148   0.742  -0.047  1.00  0.00     0.089 A 
HETATM    6  C6  UNL     1      -3.205  -0.178   0.156  1.00  0.00     0.134 A 
HETATM    7  O1  UNL     1      -4.465   0.262   0.293  1.00  0.00    -0.190 OA
HETATM    8  O3  UNL     1       0.170   1.193  -0.391  1.00  0.00    -0.329 OA
HETATM    9  C8  UNL     1       1.484   0.789  -0.795  1.00  0.00     0.146 C 
HETATM   10  C9  UNL     1       1.897  -0.478  -0.027  1.00  0.00     0.072 C 
HETATM   11  C10 UNL     1       0.865  -1.600  -0.254  1.00  0.00     0.181 C 
HETATM   12  O4  UNL     1       1.057  -2.146  -1.545  1.00  0.00    -0.218 OA
HETATM   13  C18 UNL     1      -4.027  -2.525   0.420  1.00  0.00     0.035 C 
ENDROOT
BRANCH   9  14
HETATM   14  C11 UNL     1       2.428   1.920  -0.580  1.00  0.00     0.005 A 
HETATM   15  C12 UNL     1       3.279   2.334  -1.621  1.00  0.00    -0.002 A 
HETATM   16  C13 UNL     1       4.170   3.400  -1.418  1.00  0.00    -0.000 A 
HETATM   17  C14 UNL     1       4.215   4.055  -0.176  1.00  0.00    -0.000 A 
HETATM   18  C15 UNL     1       3.365   3.641   0.865  1.00  0.00    -0.000 A 
HETATM   19  C16 UNL     1       2.473   2.574   0.664  1.00  0.00    -0.002 A 
ENDBRANCH   9  14
BRANCH   5  20
HETATM   20  C7  UNL     1      -2.439   2.193  -0.107  1.00  0.00     0.238 C 
HETATM   21  O2  UNL     1      -1.674   3.113  -0.272  1.00  0.00    -0.283 OA
ENDBRANCH   5  20
BRANCH   2  22
HETATM   22  O5  UNL     1      -1.346  -3.346   0.141  1.00  0.00    -0.329 OA
HETATM   23  C17 UNL     1      -1.182  -3.934   1.422  1.00  0.00     0.181 C 
ENDBRANCH   2  22
TORSDOF 3
