REMARK  2 active torsions:
REMARK  status: ('A' for Active; 'I' for Inactive)
REMARK    1  A    between atoms: C3_3  and  C11_16 
REMARK    2  A    between atoms: C9_11  and  O3_12 
ROOT
HETATM    1  C1  UNL     1       2.965  -0.978   0.260  1.00  0.00     0.030 A 
HETATM    2  C2  UNL     1       2.568   0.361   0.479  1.00  0.00     0.008 A 
HETATM    3  C3  UNL     1       1.195   0.705   0.473  1.00  0.00     0.068 A 
HETATM    4  C4  UNL     1       0.211  -0.297   0.246  1.00  0.00     0.055 A 
HETATM    5  C5  UNL     1       0.617  -1.644   0.029  1.00  0.00     0.131 A 
HETATM    6  C6  UNL     1       1.992  -1.978   0.035  1.00  0.00     0.154 A 
HETATM    7  O1  UNL     1       2.377  -3.246  -0.170  1.00  0.00    -0.188 OA
HETATM    8  O2  UNL     1      -0.301  -2.609  -0.186  1.00  0.00    -0.269 OA
HETATM    9  C7  UNL     1      -1.621  -2.367  -0.205  1.00  0.00     0.328 A 
HETATM   10  C8  UNL     1      -2.115  -0.988   0.012  1.00  0.00     0.216 A 
HETATM   11  C9  UNL     1      -1.252   0.031   0.232  1.00  0.00     0.127 A 
HETATM   12  O4  UNL     1      -3.430  -0.758  -0.010  1.00  0.00    -0.182 OA
HETATM   13  O5  UNL     1      -2.430  -3.246  -0.398  1.00  0.00    -0.256 OA
ENDROOT
BRANCH   3  14
HETATM   14  C11 UNL     1       0.813   2.117   0.705  1.00  0.00     0.211 C 
HETATM   15  O6  UNL     1      -0.045   2.559   1.434  1.00  0.00    -0.644 OA
HETATM   16  O7  UNL     1       1.598   2.871  -0.059  1.00  0.00    -0.644 OA
ENDBRANCH   3  14
BRANCH  11  17
HETATM   17  O3  UNL     1      -1.805   1.231   0.416  1.00  0.00    -0.326 OA
HETATM   18  C10 UNL     1      -1.986   1.934  -0.805  1.00  0.00     0.181 C 
ENDBRANCH  11  17
TORSDOF 2
