REMARK  5 active torsions:
REMARK  status: ('A' for Active; 'I' for Inactive)
REMARK    1  A    between atoms: C2_2  and  C21_25 
REMARK    2  A    between atoms: C4_4  and  C7_7 
REMARK    3  A    between atoms: C7_7  and  C8_8 
REMARK    4  A    between atoms: C9_9  and  C10_10 
REMARK    5  A    between atoms: C21_25  and  C22_26 
ROOT
HETATM    1  C7  UNL     1       1.102  -0.975  -0.760  1.00  0.00     0.198 C 
HETATM    2  O3  UNL     1       1.484  -1.609  -1.715  1.00  0.00    -0.286 OA
ENDROOT
BRANCH   1   3
HETATM    3  C4  UNL     1       1.938  -0.861   0.473  1.00  0.00     0.064 A 
HETATM    4  C3  UNL     1       3.293  -1.248   0.453  1.00  0.00     0.132 A 
HETATM    5  C2  UNL     1       4.068  -1.135   1.625  1.00  0.00     0.033 A 
HETATM    6  O4  UNL     1       3.834  -1.715  -0.656  1.00  0.00    -0.190 OA
HETATM    7  C1  UNL     1       3.494  -0.637   2.810  1.00  0.00     0.129 A 
HETATM    8  C6  UNL     1       2.143  -0.254   2.822  1.00  0.00     0.027 A 
HETATM    9  O5  UNL     1       4.213  -0.527   3.910  1.00  0.00    -0.190 OA
HETATM   10  C5  UNL     1       1.365  -0.365   1.656  1.00  0.00     0.007 A 
BRANCH   5  11
HETATM   11  C21 UNL     1       5.500  -1.541   1.609  1.00  0.00     0.056 C 
BRANCH  11  12
HETATM   12  C22 UNL     1       6.408  -0.402   1.228  1.00  0.00    -0.030 C 
HETATM   13  C23 UNL     1       7.733  -0.559   1.387  1.00  0.00    -0.048 C 
HETATM   14  C24 UNL     1       8.639   0.590   1.035  1.00  0.00     0.026 C 
HETATM   15  C25 UNL     1       8.244  -1.877   1.906  1.00  0.00     0.026 C 
ENDBRANCH  11  12
ENDBRANCH   5  11
ENDBRANCH   1   3
BRANCH   1  16
HETATM   16  C8  UNL     1      -0.203  -0.301  -0.791  1.00  0.00     0.042 C 
HETATM   17  C9  UNL     1      -1.182  -0.740  -1.600  1.00  0.00     0.003 C 
BRANCH  17  18
HETATM   18  C10 UNL     1      -2.477  -0.027  -1.596  1.00  0.00     0.002 A 
HETATM   19  C11 UNL     1      -3.672  -0.740  -1.863  1.00  0.00     0.002 A 
HETATM   20  C12 UNL     1      -4.906  -0.049  -1.854  1.00  0.00     0.024 A 
HETATM   21  C13 UNL     1      -4.957   1.340  -1.580  1.00  0.00     0.119 A 
HETATM   22  C18 UNL     1      -6.172  -0.764  -2.145  1.00  0.00    -0.000 C 
HETATM   23  C14 UNL     1      -3.756   2.045  -1.320  1.00  0.00     0.153 A 
HETATM   24  O2  UNL     1      -6.137   1.998  -1.580  1.00  0.00    -0.330 OA
HETATM   25  C15 UNL     1      -2.518   1.361  -1.324  1.00  0.00     0.029 A 
HETATM   26  O1  UNL     1      -3.791   3.361  -1.068  1.00  0.00    -0.188 OA
HETATM   27  C16 UNL     1      -7.391   1.301  -1.461  1.00  0.00     0.117 C 
HETATM   28  C17 UNL     1      -7.346  -0.119  -2.002  1.00  0.00     0.001 C 
HETATM   29  C19 UNL     1      -7.746   1.238   0.027  1.00  0.00     0.035 C 
HETATM   30  C20 UNL     1      -8.443   2.115  -2.213  1.00  0.00     0.035 C 
ENDBRANCH  17  18
ENDBRANCH   1  16
TORSDOF 5
