REMARK  2 active torsions:
REMARK  status: ('A' for Active; 'I' for Inactive)
REMARK    1  A    between atoms: C1_1  and  C6_10 
REMARK    2  A    between atoms: C4_4  and  C5_6 
ROOT
HETATM    1  C1  UNL     1      -1.528   1.156   0.646  1.00  0.00     0.322 C 
HETATM    2  C2  UNL     1      -2.246   0.425  -0.490  1.00  0.00     0.221 C 
HETATM    3  C3  UNL     1      -1.260  -0.630  -0.980  1.00  0.00     0.221 C 
HETATM    4  C4  UNL     1       0.015  -0.418  -0.164  1.00  0.00     0.322 C 
HETATM    5  N1  UNL     1      -0.116   0.951   0.330  1.00  0.00     0.346 N 
HETATM    6  O2  UNL     1      -1.773  -1.922  -0.765  1.00  0.00    -0.218 OA
HETATM    7  O3  UNL     1      -2.512   1.329  -1.537  1.00  0.00    -0.218 OA
ENDROOT
BRANCH   1   8
HETATM    8  C6  UNL     1      -1.871   0.584   2.022  1.00  0.00     0.221 C 
HETATM    9  O4  UNL     1      -3.192   0.942   2.370  1.00  0.00    -0.218 OA
ENDBRANCH   1   8
BRANCH   4  10
HETATM   10  C5  UNL     1       1.295  -0.600  -0.970  1.00  0.00     0.221 C 
HETATM   11  O1  UNL     1       2.417  -0.406  -0.132  1.00  0.00    -0.218 OA
ENDBRANCH   4  10
TORSDOF 2
