REMARK  0 active torsions:
REMARK  status: ('A' for Active; 'I' for Inactive)
ROOT
HETATM    1  C1  UNL     1       4.150   1.123   0.193  1.00  0.00     0.029 A 
HETATM    2  C2  UNL     1       2.871   1.701   0.361  1.00  0.00     0.027 A 
HETATM    3  C3  UNL     1       1.707   0.912   0.184  1.00  0.00     0.103 A 
HETATM    4  C4  UNL     1       1.828  -0.463  -0.160  1.00  0.00     0.064 A 
HETATM    5  C5  UNL     1       3.115  -1.035  -0.326  1.00  0.00     0.033 A 
HETATM    6  C6  UNL     1       4.271  -0.242  -0.150  1.00  0.00     0.131 A 
HETATM    7  O1  UNL     1       5.486  -0.787  -0.309  1.00  0.00    -0.190 OA
HETATM    8  C7  UNL     1       0.598  -1.303  -0.346  1.00  0.00     0.202 A 
HETATM    9  C8  UNL     1      -0.701  -0.563  -0.145  1.00  0.00     0.089 A 
HETATM   10  C9  UNL     1      -0.674   0.816   0.195  1.00  0.00     0.107 A 
HETATM   11  O2  UNL     1       0.494   1.479   0.344  1.00  0.00    -0.307 OA
HETATM   12  C10 UNL     1      -1.883   1.510   0.381  1.00  0.00     0.051 A 
HETATM   13  C11 UNL     1      -3.131   0.859   0.234  1.00  0.00     0.123 A 
HETATM   14  C12 UNL     1      -3.158  -0.496  -0.100  1.00  0.00     0.145 A 
HETATM   15  C13 UNL     1      -1.955  -1.229  -0.293  1.00  0.00     0.160 A 
HETATM   16  O3  UNL     1      -1.895  -2.529  -0.613  1.00  0.00    -0.188 OA
HETATM   17  O4  UNL     1      -4.430  -0.891  -0.184  1.00  0.00    -0.297 OA
HETATM   18  C14 UNL     1      -5.299   0.227   0.098  1.00  0.00     0.304 A 
HETATM   19  O5  UNL     1      -4.379   1.309   0.357  1.00  0.00    -0.299 OA
HETATM   20  O6  UNL     1       0.656  -2.477  -0.635  1.00  0.00    -0.286 OA
ENDROOT
TORSDOF 0
