REMARK  0 active torsions:
REMARK  status: ('A' for Active; 'I' for Inactive)
ROOT
HETATM    1  C1  UNL     1       4.916   2.187  -0.262  1.00  0.00     0.033 C 
HETATM    2  C2  UNL     1       5.594   0.836  -0.535  1.00  0.00     0.152 C 
HETATM    3  C3  UNL     1       5.094  -0.275   0.422  1.00  0.00     0.028 C 
HETATM    4  C4  UNL     1       3.539  -0.367   0.356  1.00  0.00     0.002 C 
HETATM    5  C5  UNL     1       2.801   0.986   0.567  1.00  0.00     0.001 C 
HETATM    6  C6  UNL     1       3.395   2.061  -0.375  1.00  0.00     0.003 C 
HETATM    7  C7  UNL     1       1.246   0.824   0.367  1.00  0.00     0.005 C 
HETATM    8  C8  UNL     1       0.691  -0.619   0.531  1.00  0.00     0.010 C 
HETATM    9  C9  UNL     1       1.498  -1.316   1.649  1.00  0.00     0.001 C 
HETATM   10  C10 UNL     1       2.982  -1.484   1.279  1.00  0.00     0.000 C 
HETATM   11  C11 UNL     1      -0.842  -0.523   0.840  1.00  0.00     0.069 C 
HETATM   12  C12 UNL     1      -1.564   0.394  -0.158  1.00  0.00    -0.043 C 
HETATM   13  C13 UNL     1      -0.873   1.256  -0.951  1.00  0.00    -0.034 C 
HETATM   14  C14 UNL     1       0.631   1.422  -0.910  1.00  0.00     0.025 C 
HETATM   15  C15 UNL     1      -3.102   0.334  -0.213  1.00  0.00     0.021 C 
HETATM   16  C16 UNL     1      -3.699  -1.096  -0.123  1.00  0.00     0.038 C 
HETATM   17  C17 UNL     1      -3.025  -1.877   1.027  1.00  0.00     0.209 C 
HETATM   18  C18 UNL     1      -1.522  -1.887   0.852  1.00  0.00     0.183 C 
HETATM   19  O1  UNL     1      -0.902  -2.920   0.725  1.00  0.00    -0.293 OA
HETATM   20  O2  UNL     1      -3.543  -3.195   1.104  1.00  0.00    -0.215 OA
HETATM   21  C19 UNL     1      -5.234  -1.004   0.131  1.00  0.00     0.003 C 
HETATM   22  C20 UNL     1      -5.881   0.326  -0.303  1.00  0.00     0.000 C 
HETATM   23  C21 UNL     1      -5.266   0.885  -1.594  1.00  0.00     0.000 C 
HETATM   24  C22 UNL     1      -3.744   1.117  -1.393  1.00  0.00     0.004 C 
HETATM   25  C23 UNL     1      -5.955   2.203  -1.965  1.00  0.00     0.000 C 
HETATM   26  C24 UNL     1      -5.518  -0.104  -2.742  1.00  0.00     0.000 C 
HETATM   27  C25 UNL     1      -3.430  -1.828  -1.453  1.00  0.00     0.003 C 
HETATM   28  C26 UNL     1      -1.064   0.086   2.236  1.00  0.00     0.011 C 
HETATM   29  C27 UNL     1       0.889  -1.422  -0.775  1.00  0.00     0.001 C 
HETATM   30  C28 UNL     1       3.041   1.455   2.016  1.00  0.00     0.000 C 
HETATM   31  C29 UNL     1       5.693  -1.621  -0.006  1.00  0.00     0.003 C 
HETATM   32  C30 UNL     1       5.563   0.010   1.859  1.00  0.00     0.003 C 
HETATM   33  O3  UNL     1       6.996   0.998  -0.432  1.00  0.00    -0.224 OA
ENDROOT
TORSDOF 0
