REMARK  12 active torsions:
REMARK  status: ('A' for Active; 'I' for Inactive)
REMARK    1  A    between atoms: C5_5  and  C7_7 
REMARK    2  A    between atoms: C8_8  and  C9_9 
REMARK    3  A    between atoms: C9_9  and  O1_10 
REMARK    4  A    between atoms: O1_10  and  C10_11 
REMARK    5  A    between atoms: C11_12  and  O8_31 
REMARK    6  A    between atoms: C13_14  and  O4_19 
REMARK    7  A    between atoms: C14_16  and  C15_17 
REMARK    8  A    between atoms: O4_19  and  C16_20 
REMARK    9  A    between atoms: C16_20  and  C17_21 
REMARK   10  A    between atoms: C17_21  and  C18_22 
REMARK   11  A    between atoms: O8_31  and  C24_32 
REMARK   12  A    between atoms: C28_36  and  C29_37 
ROOT
HETATM    1  C10 UNL     1      -1.441   0.662  -1.074  1.00  0.00     0.184 C 
HETATM    2  C11 UNL     1       0.068   0.863  -0.840  1.00  0.00     0.183 C 
HETATM    3  C12 UNL     1       0.502   0.293   0.529  1.00  0.00     0.238 C 
HETATM    4  C13 UNL     1      -0.457   0.686   1.684  1.00  0.00     0.270 C 
HETATM    5  O2  UNL     1      -1.826   0.455   1.336  1.00  0.00    -0.326 OA
HETATM    6  C14 UNL     1      -2.305   1.072   0.141  1.00  0.00     0.181 C 
HETATM    7  O7  UNL     1       0.545  -1.119   0.435  1.00  0.00    -0.215 OA
ENDROOT
BRANCH   1   8
HETATM    8  O1  UNL     1      -1.680  -0.711  -1.352  1.00  0.00    -0.296 OA
BRANCH   8   9
HETATM    9  C9  UNL     1      -1.287  -1.057  -2.574  1.00  0.00     0.296 C 
HETATM   10  O14 UNL     1      -0.846  -0.275  -3.385  1.00  0.00    -0.259 OA
BRANCH   9  11
HETATM   11  C8  UNL     1      -1.416  -2.481  -2.908  1.00  0.00     0.068 C 
HETATM   12  C7  UNL     1      -1.410  -3.412  -1.942  1.00  0.00     0.005 C 
BRANCH  12  13
HETATM   13  C5  UNL     1      -1.545  -4.848  -2.330  1.00  0.00     0.002 A 
HETATM   14  C4  UNL     1      -0.977  -5.852  -1.527  1.00  0.00     0.002 A 
HETATM   15  C3  UNL     1      -1.105  -7.203  -1.895  1.00  0.00     0.029 A 
HETATM   16  C2  UNL     1      -1.799  -7.555  -3.067  1.00  0.00     0.156 A 
HETATM   17  C1  UNL     1      -2.367  -6.551  -3.871  1.00  0.00     0.156 A 
HETATM   18  O15 UNL     1      -1.914  -8.822  -3.404  1.00  0.00    -0.188 OA
HETATM   19  C6  UNL     1      -2.238  -5.199  -3.502  1.00  0.00     0.029 A 
HETATM   20  O16 UNL     1      -3.020  -6.871  -4.971  1.00  0.00    -0.188 OA
ENDBRANCH  12  13
ENDBRANCH   9  11
ENDBRANCH   8   9
ENDBRANCH   1   8
BRANCH   2  21
HETATM   21  O8  UNL     1       0.369   2.246  -0.887  1.00  0.00    -0.326 OA
BRANCH  21  22
HETATM   22  C24 UNL     1       0.465   2.752  -2.211  1.00  0.00     0.270 C 
HETATM   23  C25 UNL     1       0.281   4.305  -2.320  1.00  0.00     0.241 C 
HETATM   24  C26 UNL     1       1.637   5.070  -2.373  1.00  0.00     0.220 C 
HETATM   25  O13 UNL     1      -0.586   4.791  -1.303  1.00  0.00    -0.215 OA
HETATM   26  C27 UNL     1       2.760   4.301  -1.645  1.00  0.00     0.215 C 
HETATM   27  O12 UNL     1       1.553   6.420  -1.940  1.00  0.00    -0.218 OA
HETATM   28  C28 UNL     1       2.895   2.848  -2.197  1.00  0.00     0.184 C 
HETATM   29  O11 UNL     1       2.506   4.291  -0.248  1.00  0.00    -0.218 OA
HETATM   30  O10 UNL     1       1.697   2.371  -2.820  1.00  0.00    -0.326 OA
BRANCH  28  31
HETATM   31  C29 UNL     1       3.377   1.797  -1.184  1.00  0.00     0.214 C 
HETATM   32  O9  UNL     1       3.455   0.553  -1.842  1.00  0.00    -0.218 OA
ENDBRANCH  28  31
ENDBRANCH  21  22
ENDBRANCH   2  21
BRANCH   6  33
HETATM   33  C15 UNL     1      -2.422   2.592   0.326  1.00  0.00     0.214 C 
HETATM   34  O3  UNL     1      -3.232   2.838   1.451  1.00  0.00    -0.218 OA
ENDBRANCH   6  33
BRANCH   4  35
HETATM   35  O4  UNL     1      -0.207   2.016   2.092  1.00  0.00    -0.329 OA
BRANCH  35  36
HETATM   36  C16 UNL     1      -0.695   2.301   3.385  1.00  0.00     0.150 C 
BRANCH  36  37
HETATM   37  C17 UNL     1       0.451   2.117   4.379  1.00  0.00     0.059 C 
BRANCH  37  38
HETATM   38  C18 UNL     1       0.629   0.689   4.752  1.00  0.00    -0.018 A 
HETATM   39  C19 UNL     1       1.756  -0.020   4.301  1.00  0.00     0.025 A 
HETATM   40  C20 UNL     1       1.928  -1.371   4.650  1.00  0.00     0.156 A 
HETATM   41  C21 UNL     1       0.969  -2.016   5.455  1.00  0.00     0.156 A 
HETATM   42  O6  UNL     1       2.986  -2.031   4.225  1.00  0.00    -0.188 OA
HETATM   43  C22 UNL     1      -0.158  -1.303   5.904  1.00  0.00     0.029 A 
HETATM   44  O5  UNL     1       1.121  -3.281   5.787  1.00  0.00    -0.188 OA
HETATM   45  C23 UNL     1      -0.328   0.047   5.555  1.00  0.00    -0.002 A 
ENDBRANCH  37  38
ENDBRANCH  36  37
ENDBRANCH  35  36
ENDBRANCH   4  35
TORSDOF 12
