REMARK  14 active torsions:
REMARK  status: ('A' for Active; 'I' for Inactive)
REMARK    1  A    between atoms: C3_3  and  C7_9 
REMARK    2  A    between atoms: C8_10  and  C9_11 
REMARK    3  A    between atoms: C9_11  and  O3_12 
REMARK    4  A    between atoms: O3_12  and  C10_13 
REMARK    5  A    between atoms: C12_15  and  O14_43 
REMARK    6  A    between atoms: C13_16  and  O11_32 
REMARK    7  A    between atoms: C14_18  and  C15_19 
REMARK    8  A    between atoms: C15_19  and  O5_20 
REMARK    9  A    between atoms: O5_20  and  C16_21 
REMARK   10  A    between atoms: C17_23  and  C21_30 
REMARK   11  A    between atoms: O11_32  and  C22_33 
REMARK   12  A    between atoms: C22_33  and  C23_34 
REMARK   13  A    between atoms: C23_34  and  C24_35 
REMARK   14  A    between atoms: O14_43  and  C30_44 
ROOT
HETATM    1  C10 UNL     1      -0.086   0.670   1.295  1.00  0.00     0.187 C 
HETATM    2  C11 UNL     1      -0.195   2.156   0.914  1.00  0.00     0.214 C 
HETATM    3  C12 UNL     1       0.549   2.416  -0.414  1.00  0.00     0.207 C 
HETATM    4  C13 UNL     1       0.100   1.406  -1.504  1.00  0.00     0.267 C 
HETATM    5  O4  UNL     1       0.246   0.076  -1.025  1.00  0.00    -0.326 OA
HETATM    6  C14 UNL     1      -0.524  -0.236   0.129  1.00  0.00     0.178 C 
HETATM    7  O19 UNL     1       0.357   2.945   1.953  1.00  0.00    -0.218 OA
ENDROOT
BRANCH   1   8
HETATM    8  O3  UNL     1      -0.912   0.406   2.424  1.00  0.00    -0.296 OA
BRANCH   8   9
HETATM    9  C9  UNL     1      -0.234   0.449   3.568  1.00  0.00     0.296 C 
HETATM   10  O20 UNL     1       0.908   0.830   3.658  1.00  0.00    -0.259 OA
BRANCH   9  11
HETATM   11  C8  UNL     1      -0.965  -0.004   4.758  1.00  0.00     0.068 C 
HETATM   12  C7  UNL     1      -0.373  -0.002   5.965  1.00  0.00     0.005 C 
BRANCH  12  13
HETATM   13  C3  UNL     1      -1.156  -0.471   7.147  1.00  0.00     0.002 A 
HETATM   14  C2  UNL     1      -2.518  -0.139   7.268  1.00  0.00     0.002 A 
HETATM   15  C1  UNL     1      -3.250  -0.582   8.381  1.00  0.00     0.029 A 
HETATM   16  C6  UNL     1      -2.629  -1.359   9.375  1.00  0.00     0.156 A 
HETATM   17  C5  UNL     1      -1.268  -1.691   9.256  1.00  0.00     0.156 A 
HETATM   18  O1  UNL     1      -3.324  -1.772  10.418  1.00  0.00    -0.188 OA
HETATM   19  C4  UNL     1      -0.533  -1.248   8.141  1.00  0.00     0.029 A 
HETATM   20  O2  UNL     1      -0.678  -2.420  10.184  1.00  0.00    -0.188 OA
ENDBRANCH  12  13
ENDBRANCH   9  11
ENDBRANCH   8   9
ENDBRANCH   1   8
BRANCH   6  21
HETATM   21  C15 UNL     1      -0.307  -1.721   0.430  1.00  0.00     0.177 C 
BRANCH  21  22
HETATM   22  O5  UNL     1      -0.930  -2.473  -0.586  1.00  0.00    -0.326 OA
BRANCH  22  23
HETATM   23  C16 UNL     1      -0.758  -3.869  -0.432  1.00  0.00     0.270 C 
HETATM   24  O6  UNL     1      -1.455  -4.279   0.736  1.00  0.00    -0.326 OA
HETATM   25  C17 UNL     1      -1.334  -5.660   1.055  1.00  0.00     0.184 C 
HETATM   26  C18 UNL     1      -1.930  -6.504  -0.094  1.00  0.00     0.215 C 
HETATM   27  C19 UNL     1      -1.272  -6.152  -1.447  1.00  0.00     0.220 C 
HETATM   28  O9  UNL     1      -1.723  -7.875   0.197  1.00  0.00    -0.218 OA
HETATM   29  C20 UNL     1      -1.307  -4.623  -1.668  1.00  0.00     0.241 C 
HETATM   30  O8  UNL     1      -1.961  -6.807  -2.502  1.00  0.00    -0.218 OA
HETATM   31  O7  UNL     1      -0.524  -4.295  -2.805  1.00  0.00    -0.215 OA
BRANCH  25  32
HETATM   32  C21 UNL     1      -2.061  -5.871   2.389  1.00  0.00     0.214 C 
HETATM   33  O10 UNL     1      -1.344  -5.190   3.393  1.00  0.00    -0.218 OA
ENDBRANCH  25  32
ENDBRANCH  22  23
ENDBRANCH  21  22
ENDBRANCH   6  21
BRANCH   3  34
HETATM   34  O14 UNL     1       0.275   3.736  -0.854  1.00  0.00    -0.324 OA
BRANCH  34  35
HETATM   35  C30 UNL     1       1.275   4.664  -0.481  1.00  0.00     0.270 C 
HETATM   36  O15 UNL     1       2.459   4.367  -1.211  1.00  0.00    -0.329 OA
HETATM   37  C31 UNL     1       3.576   5.190  -0.906  1.00  0.00     0.151 C 
HETATM   38  C32 UNL     1       3.240   6.658  -1.254  1.00  0.00     0.212 C 
HETATM   39  C35 UNL     1       4.760   4.643  -1.709  1.00  0.00     0.035 C 
HETATM   40  C33 UNL     1       1.953   7.123  -0.539  1.00  0.00     0.220 C 
HETATM   41  O18 UNL     1       4.328   7.477  -0.863  1.00  0.00    -0.218 OA
HETATM   42  C34 UNL     1       0.812   6.111  -0.791  1.00  0.00     0.241 C 
HETATM   43  O17 UNL     1       1.574   8.404  -1.016  1.00  0.00    -0.218 OA
HETATM   44  O16 UNL     1      -0.295   6.438   0.031  1.00  0.00    -0.215 OA
ENDBRANCH  34  35
ENDBRANCH   3  34
BRANCH   4  45
HETATM   45  O11 UNL     1       0.887   1.555  -2.668  1.00  0.00    -0.329 OA
BRANCH  45  46
HETATM   46  C22 UNL     1       0.414   0.799  -3.760  1.00  0.00     0.150 C 
BRANCH  46  47
HETATM   47  C23 UNL     1       1.316   1.074  -4.961  1.00  0.00     0.059 C 
BRANCH  47  48
HETATM   48  C24 UNL     1       0.883   0.311  -6.160  1.00  0.00    -0.018 A 
HETATM   49  C25 UNL     1       1.592   0.434  -7.367  1.00  0.00     0.025 A 
HETATM   50  C26 UNL     1       1.184  -0.287  -8.504  1.00  0.00     0.156 A 
HETATM   51  C27 UNL     1       0.060  -1.133  -8.432  1.00  0.00     0.156 A 
HETATM   52  O13 UNL     1       1.853  -0.168  -9.633  1.00  0.00    -0.188 OA
HETATM   53  C28 UNL     1      -0.649  -1.254  -7.225  1.00  0.00     0.029 A 
HETATM   54  O12 UNL     1      -0.328  -1.813  -9.492  1.00  0.00    -0.188 OA
HETATM   55  C29 UNL     1      -0.238  -0.535  -6.088  1.00  0.00    -0.002 A 
ENDBRANCH  47  48
ENDBRANCH  46  47
ENDBRANCH  45  46
ENDBRANCH   4  45
TORSDOF 14
