REMARK  6 active torsions:
REMARK  status: ('A' for Active; 'I' for Inactive)
REMARK    1  A    between atoms: C3_3  and  C7_8 
REMARK    2  A    between atoms: C8_9  and  C9_10 
REMARK    3  A    between atoms: C9_10  and  C10_11 
REMARK    4  A    between atoms: C18_20  and  C20_23 
REMARK    5  A    between atoms: C20_23  and  C21_24 
REMARK    6  A    between atoms: C23_26  and  C28_33 
ROOT
HETATM    1  C10 UNL     1       1.359  -1.938  -0.799  1.00  0.00     0.086 C 
HETATM    2  C11 UNL     1       1.809  -1.986  -2.122  1.00  0.00     0.101 C 
HETATM    3  O2  UNL     1       0.911  -2.141  -3.141  1.00  0.00    -0.331 OA
HETATM    4  C12 UNL     1       1.361  -2.650  -4.369  1.00  0.00     0.117 C 
HETATM    5  C13 UNL     1       1.159  -4.169  -4.367  1.00  0.00     0.035 C 
HETATM    6  C14 UNL     1       2.814  -2.344  -4.649  1.00  0.00     0.001 C 
HETATM    7  C15 UNL     1       3.684  -2.017  -3.679  1.00  0.00     0.002 C 
HETATM    8  C16 UNL     1       3.196  -1.911  -2.305  1.00  0.00     0.047 C 
HETATM    9  C17 UNL     1       4.061  -1.615  -1.235  1.00  0.00     0.131 C 
HETATM   10  C18 UNL     1       3.546  -1.471   0.064  1.00  0.00     0.033 C 
HETATM   11  C19 UNL     1       2.193  -1.770   0.307  1.00  0.00     0.134 C 
HETATM   12  O3  UNL     1       1.641  -1.749   1.547  1.00  0.00    -0.190 OA
HETATM   13  O8  UNL     1       5.389  -1.429  -1.474  1.00  0.00    -0.190 OA
HETATM   14  C30 UNL     1       0.497  -2.001  -5.458  1.00  0.00     0.035 C 
ENDROOT
BRANCH  10  15
HETATM   15  C20 UNL     1       4.496  -0.990   1.153  1.00  0.00     0.061 C 
BRANCH  15  16
HETATM   16  C21 UNL     1       3.962  -0.197   2.337  1.00  0.00     0.033 A 
HETATM   17  C22 UNL     1       4.662  -0.282   3.551  1.00  0.00     0.134 A 
HETATM   18  C23 UNL     1       4.149   0.373   4.680  1.00  0.00     0.085 A 
HETATM   19  O7  UNL     1       5.835  -0.973   3.611  1.00  0.00    -0.190 OA
HETATM   20  C24 UNL     1       2.913   1.035   4.646  1.00  0.00     0.134 A 
HETATM   21  C25 UNL     1       2.267   1.164   3.410  1.00  0.00     0.029 A 
HETATM   22  O5  UNL     1       2.415   1.659   5.747  1.00  0.00    -0.190 OA
HETATM   23  C26 UNL     1       2.810   0.601   2.247  1.00  0.00     0.127 A 
HETATM   24  C27 UNL     1       0.956   1.914   3.342  1.00  0.00     0.035 C 
HETATM   25  O4  UNL     1       2.195   0.814   1.052  1.00  0.00    -0.191 OA
BRANCH  18  26
HETATM   26  C28 UNL     1       4.914   0.275   5.967  1.00  0.00     0.177 C 
HETATM   27  C29 UNL     1       4.184  -0.075   7.250  1.00  0.00     0.077 C 
HETATM   28  O6  UNL     1       6.131   0.403   5.981  1.00  0.00    -0.291 OA
ENDBRANCH  18  26
ENDBRANCH  15  16
ENDBRANCH  10  15
BRANCH   1  29
HETATM   29  C9  UNL     1      -0.142  -1.921  -0.560  1.00  0.00     0.200 C 
HETATM   30  O9  UNL     1      -0.756  -2.904  -0.170  1.00  0.00    -0.286 OA
BRANCH  29  31
HETATM   31  C8  UNL     1      -0.787  -0.600  -0.792  1.00  0.00     0.042 C 
HETATM   32  C7  UNL     1      -0.084   0.499  -1.154  1.00  0.00     0.003 C 
BRANCH  32  33
HETATM   33  C3  UNL     1      -0.604   1.843  -1.433  1.00  0.00     0.002 A 
HETATM   34  C2  UNL     1       0.320   2.863  -1.720  1.00  0.00     0.029 A 
HETATM   35  C1  UNL     1      -0.075   4.155  -2.068  1.00  0.00     0.156 A 
HETATM   36  C6  UNL     1      -1.441   4.465  -2.103  1.00  0.00     0.156 A 
HETATM   37  O10 UNL     1       0.841   5.120  -2.342  1.00  0.00    -0.188 OA
HETATM   38  C5  UNL     1      -2.369   3.458  -1.825  1.00  0.00     0.029 A 
HETATM   39  O1  UNL     1      -1.834   5.716  -2.458  1.00  0.00    -0.188 OA
HETATM   40  C4  UNL     1      -1.966   2.163  -1.493  1.00  0.00     0.002 A 
ENDBRANCH  32  33
ENDBRANCH  29  31
ENDBRANCH   1  29
TORSDOF 6
