REMARK  0 active torsions:
REMARK  status: ('A' for Active; 'I' for Inactive)
ROOT
HETATM    1  C1  UNL     1      -5.425  -0.544   0.560  1.00  0.00     0.002 A 
HETATM    2  C2  UNL     1      -4.265  -0.677   1.366  1.00  0.00     0.019 A 
HETATM    3  C3  UNL     1      -3.027  -0.239   0.841  1.00  0.00     0.081 A 
HETATM    4  C4  UNL     1      -2.933   0.304  -0.417  1.00  0.00     0.015 A 
HETATM    5  C5  UNL     1      -4.074   0.451  -1.244  1.00  0.00     0.001 A 
HETATM    6  C6  UNL     1      -5.329   0.019  -0.742  1.00  0.00     0.000 A 
HETATM    7  C7  UNL     1      -1.664   0.655  -0.720  1.00  0.00    -0.002 A 
HETATM    8  C8  UNL     1      -0.885   0.322   0.400  1.00  0.00     0.095 A 
HETATM    9  N1  UNL     1      -1.747  -0.239   1.380  1.00  0.00    -0.246 NA
HETATM   10  C9  UNL     1       0.630   0.555   0.513  1.00  0.00     0.188 C 
HETATM   11  N2  UNL     1       1.179   0.915  -0.851  1.00  0.00    -0.297 N 
HETATM   12  C10 UNL     1       0.347   1.858  -1.674  1.00  0.00     0.111 C 
HETATM   13  C11 UNL     1      -1.064   1.284  -1.970  1.00  0.00     0.052 C 
HETATM   14  C12 UNL     1       2.375   0.403  -1.330  1.00  0.00     0.260 C 
HETATM   15  C13 UNL     1       3.101  -0.592  -0.483  1.00  0.00     0.073 A 
HETATM   16  C14 UNL     1       2.527  -1.072   0.729  1.00  0.00     0.083 A 
HETATM   17  N3  UNL     1       1.323  -0.614   1.146  1.00  0.00    -0.248 NA
HETATM   18  C15 UNL     1       3.229  -2.040   1.497  1.00  0.00     0.019 A 
HETATM   19  C16 UNL     1       4.490  -2.515   1.071  1.00  0.00     0.002 A 
HETATM   20  C17 UNL     1       5.060  -2.030  -0.127  1.00  0.00     0.000 A 
HETATM   21  C18 UNL     1       4.369  -1.072  -0.902  1.00  0.00     0.006 A 
HETATM   22  O1  UNL     1       2.757   0.790  -2.412  1.00  0.00    -0.267 OA
HETATM   23  C19 UNL     1       0.839   1.761   1.435  1.00  0.00     0.054 C 
ENDROOT
TORSDOF 0
