REMARK  6 active torsions:
REMARK  status: ('A' for Active; 'I' for Inactive)
REMARK    1  A    between atoms: C15_15  and  C18_18 
REMARK    2  A    between atoms: C18_18  and  C19_19 
REMARK    3  A    between atoms: C18_18  and  C25_26 
REMARK    4  A    between atoms: C19_19  and  C20_20 
REMARK    5  A    between atoms: C20_20  and  C21_21 
REMARK    6  A    between atoms: C22_22  and  C24_24 
ROOT
HETATM    1  C1  UNL     1       5.969   0.807  -0.559  1.00  0.00     0.152 C 
HETATM    2  C2  UNL     1       5.455  -0.354  -1.459  1.00  0.00     0.029 C 
HETATM    3  C3  UNL     1       3.947  -0.676  -1.162  1.00  0.00     0.007 C 
HETATM    4  C4  UNL     1       3.135   0.516  -0.588  1.00  0.00     0.004 C 
HETATM    5  C5  UNL     1       3.807   1.061   0.709  1.00  0.00     0.003 C 
HETATM    6  C6  UNL     1       5.313   0.789   0.820  1.00  0.00     0.033 C 
HETATM    7  C7  UNL     1       1.697   0.037  -0.234  1.00  0.00     0.018 C 
HETATM    8  C8  UNL     1       1.023  -0.779  -1.326  1.00  0.00    -0.049 C 
HETATM    9  C9  UNL     1       1.732  -1.434  -2.268  1.00  0.00    -0.035 C 
HETATM   10  C10 UNL     1       3.234  -1.342  -2.365  1.00  0.00     0.025 C 
HETATM   11  C11 UNL     1      -0.492  -0.818  -1.315  1.00  0.00     0.015 C 
HETATM   12  C12 UNL     1      -1.033  -0.643   0.117  1.00  0.00     0.004 C 
HETATM   13  C13 UNL     1      -0.654   0.750   0.652  1.00  0.00     0.001 C 
HETATM   14  C14 UNL     1       0.770   1.189   0.234  1.00  0.00     0.004 C 
HETATM   15  C15 UNL     1      -2.535  -0.887  -0.090  1.00  0.00     0.008 C 
HETATM   16  C16 UNL     1      -2.566  -2.065  -1.074  1.00  0.00     0.001 C 
HETATM   17  C17 UNL     1      -1.176  -2.131  -1.719  1.00  0.00     0.004 C 
HETATM   18  C26 UNL     1      -0.492  -1.738   1.049  1.00  0.00     0.000 C 
HETATM   19  C27 UNL     1      -1.010   0.268  -2.270  1.00  0.00     0.004 C 
HETATM   20  C28 UNL     1       3.074   1.627  -1.650  1.00  0.00     0.000 C 
HETATM   21  C29 UNL     1       5.688   0.072  -2.918  1.00  0.00     0.003 C 
HETATM   22  C30 UNL     1       6.254  -1.648  -1.229  1.00  0.00     0.003 C 
HETATM   23  O3  UNL     1       7.377   0.773  -0.418  1.00  0.00    -0.224 OA
ENDROOT
BRANCH  15  24
HETATM   24  C18 UNL     1      -3.315  -1.166   1.195  1.00  0.00     0.065 C 
BRANCH  24  25
HETATM   25  C19 UNL     1      -3.752   0.252   1.564  1.00  0.00     0.012 C 
BRANCH  25  26
HETATM   26  C20 UNL     1      -4.498   0.311   2.898  1.00  0.00     0.026 C 
BRANCH  26  27
HETATM   27  C21 UNL     1      -5.992   0.275   2.723  1.00  0.00    -0.032 C 
HETATM   28  C22 UNL     1      -6.672   1.434   2.783  1.00  0.00    -0.015 C 
HETATM   29  C23 UNL     1      -8.166   1.398   2.607  1.00  0.00     0.029 C 
BRANCH  28  30
HETATM   30  C24 UNL     1      -5.902   2.705   3.025  1.00  0.00     0.204 C 
HETATM   31  O1  UNL     1      -5.029   2.938   1.943  1.00  0.00    -0.216 OA
ENDBRANCH  28  30
ENDBRANCH  26  27
ENDBRANCH  25  26
ENDBRANCH  24  25
BRANCH  24  32
HETATM   32  C25 UNL     1      -4.481  -2.088   0.969  1.00  0.00     0.207 C 
HETATM   33  O2  UNL     1      -4.502  -3.193   1.455  1.00  0.00    -0.288 OA
ENDBRANCH  24  32
ENDBRANCH  15  24
TORSDOF 6
