REMARK  3 active torsions:
REMARK  status: ('A' for Active; 'I' for Inactive)
REMARK    1  A    between atoms: C2_2  and  O6_21 
REMARK    2  A    between atoms: C6_6  and  O1_7 
REMARK    3  A    between atoms: C12_14  and  O4_18 
ROOT
HETATM    1  C1  UNL     1      -3.564   0.637  -0.777  1.00  0.00     0.177 A 
HETATM    2  C2  UNL     1      -2.289   1.252  -0.840  1.00  0.00     0.144 A 
HETATM    3  C3  UNL     1      -1.150   0.580  -0.334  1.00  0.00     0.127 A 
HETATM    4  C4  UNL     1      -1.289  -0.719   0.236  1.00  0.00     0.066 A 
HETATM    5  C5  UNL     1      -2.566  -1.326   0.299  1.00  0.00     0.032 A 
HETATM    6  C6  UNL     1      -3.701  -0.650  -0.205  1.00  0.00     0.122 A 
HETATM    7  C8  UNL     1      -0.086  -1.439   0.768  1.00  0.00     0.202 A 
HETATM    8  C9  UNL     1       1.203  -0.674   0.643  1.00  0.00     0.087 A 
HETATM    9  C10 UNL     1       1.201   0.623   0.055  1.00  0.00     0.107 A 
HETATM   10  O2  UNL     1       0.057   1.178  -0.398  1.00  0.00    -0.305 OA
HETATM   11  C11 UNL     1       2.410   1.350  -0.061  1.00  0.00     0.049 A 
HETATM   12  C12 UNL     1       3.621   0.789   0.402  1.00  0.00     0.098 A 
HETATM   13  C13 UNL     1       3.629  -0.500   0.984  1.00  0.00     0.052 A 
HETATM   14  C14 UNL     1       2.426  -1.232   1.105  1.00  0.00     0.138 A 
HETATM   15  O3  UNL     1       2.463  -2.453   1.660  1.00  0.00    -0.190 OA
HETATM   16  O5  UNL     1      -0.152  -2.545   1.256  1.00  0.00    -0.286 OA
HETATM   17  O7  UNL     1      -4.641   1.275  -1.258  1.00  0.00    -0.186 OA
ENDROOT
BRANCH   2  18
HETATM   18  O6  UNL     1      -2.160   2.471  -1.381  1.00  0.00    -0.324 OA
HETATM   19  C16 UNL     1      -1.027   2.721  -2.199  1.00  0.00     0.182 C 
ENDBRANCH   2  18
BRANCH   6  20
HETATM   20  O1  UNL     1      -4.908  -1.232  -0.141  1.00  0.00    -0.326 OA
HETATM   21  C7  UNL     1      -4.996  -2.516   0.459  1.00  0.00     0.181 C 
ENDBRANCH   6  20
BRANCH  12  22
HETATM   22  O4  UNL     1       4.766   1.480   0.291  1.00  0.00    -0.328 OA
HETATM   23  C15 UNL     1       5.973   0.836   0.666  1.00  0.00     0.181 C 
ENDBRANCH  12  22
TORSDOF 3
