REMARK  0 active torsions:
REMARK  status: ('A' for Active; 'I' for Inactive)
ROOT
HETATM    1  C1  UNL     1       2.725   1.959   0.168  1.00  0.00     0.022 C 
HETATM    2  C2  UNL     1       3.625   0.750   0.033  1.00  0.00    -0.048 C 
HETATM    3  C3  UNL     1       3.117  -0.498  -0.064  1.00  0.00    -0.033 C 
HETATM    4  C4  UNL     1       1.648  -0.734  -0.037  1.00  0.00    -0.020 A 
HETATM    5  C5  UNL     1       0.727   0.438  -0.373  1.00  0.00     0.040 A 
HETATM    6  C6  UNL     1       1.266   1.606   0.504  1.00  0.00     0.013 C 
HETATM    7  C7  UNL     1      -0.748   0.197  -0.162  1.00  0.00     0.013 A 
HETATM    8  C8  UNL     1      -1.238  -1.094   0.252  1.00  0.00     0.063 A 
HETATM    9  C9  UNL     1      -0.281  -2.223   0.440  1.00  0.00     0.197 A 
HETATM   10  C10 UNL     1       1.154  -1.943   0.293  1.00  0.00     0.038 A 
HETATM   11  O1  UNL     1      -0.551  -3.369   0.711  1.00  0.00    -0.286 OA
HETATM   12  C11 UNL     1      -2.637  -1.324   0.486  1.00  0.00     0.136 A 
HETATM   13  C12 UNL     1      -3.500  -0.227   0.275  1.00  0.00     0.048 A 
HETATM   14  C13 UNL     1      -3.033   0.982  -0.141  1.00  0.00     0.127 A 
HETATM   15  C14 UNL     1      -1.680   1.264  -0.398  1.00  0.00     0.150 A 
HETATM   16  O2  UNL     1      -1.190   2.424  -0.859  1.00  0.00    -0.188 OA
HETATM   17  O3  UNL     1      -4.076   1.879  -0.275  1.00  0.00    -0.303 OA
HETATM   18  C15 UNL     1      -5.225   1.123   0.094  1.00  0.00     0.118 A 
HETATM   19  C16 UNL     1      -4.846  -0.195   0.434  1.00  0.00     0.007 A 
HETATM   20  C17 UNL     1      -5.762  -1.316   0.879  1.00  0.00     0.033 C 
HETATM   21  O4  UNL     1      -2.988  -2.559   0.881  1.00  0.00    -0.190 OA
HETATM   22  C18 UNL     1       0.939   0.738  -1.867  1.00  0.00     0.009 C 
HETATM   23  C19 UNL     1       4.063  -1.668  -0.193  1.00  0.00     0.030 C 
HETATM   24  C20 UNL     1       5.113   1.000   0.020  1.00  0.00     0.026 C 
ENDROOT
TORSDOF 0
