REMARK  3 active torsions:
REMARK  status: ('A' for Active; 'I' for Inactive)
REMARK    1  A    between atoms: C5_5  and  C7_7 
REMARK    2  A    between atoms: C7_7  and  C8_8 
REMARK    3  A    between atoms: C8_8  and  C9_9 
ROOT
HETATM    1  C1  UNL     1      -1.221  -1.902   1.281  1.00  0.00     0.056 A 
HETATM    2  C2  UNL     1      -0.090  -2.742   1.207  1.00  0.00     0.142 A 
HETATM    3  C3  UNL     1       1.176  -2.188   0.920  1.00  0.00     0.056 A 
HETATM    4  C4  UNL     1       1.305  -0.803   0.705  1.00  0.00     0.004 A 
HETATM    5  C5  UNL     1       0.176   0.031   0.779  1.00  0.00    -0.018 A 
HETATM    6  C6  UNL     1      -1.084  -0.518   1.068  1.00  0.00     0.004 A 
HETATM    7  I1  UNL     1       2.846  -3.379   0.807  1.00  0.00    -0.041 I 
HETATM    8  O3  UNL     1      -0.213  -4.041   1.408  1.00  0.00    -0.189 OA
HETATM    9  I2  UNL     1      -3.078  -2.674   1.697  1.00  0.00    -0.041 I 
ENDROOT
BRANCH   5  10
HETATM   10  C7  UNL     1       0.316   1.494   0.555  1.00  0.00     0.077 C 
BRANCH  10  11
HETATM   11  C8  UNL     1       0.412   1.828  -0.934  1.00  0.00     0.391 C 
HETATM   12  N1  UNL     1       0.629   3.252  -1.123  1.00  0.00     0.628 N 
BRANCH  11  13
HETATM   13  C9  UNL     1      -0.803   1.381  -1.701  1.00  0.00     0.224 C 
HETATM   14  O1  UNL     1      -0.551   0.750  -2.844  1.00  0.00    -0.646 OA
HETATM   15  O2  UNL     1      -1.918   1.596  -1.283  1.00  0.00    -0.646 OA
ENDBRANCH  11  13
ENDBRANCH  10  11
ENDBRANCH   5  10
TORSDOF 3
