REMARK  16 active torsions:
REMARK  status: ('A' for Active; 'I' for Inactive)
REMARK    1  A    between atoms: C4_4  and  C16_18 
REMARK    2  A    between atoms: C5_5  and  C7_7 
REMARK    3  A    between atoms: C7_7  and  O1_8 
REMARK    4  A    between atoms: O1_8  and  C8_9 
REMARK    5  A    between atoms: C8_9  and  C9_10 
REMARK    6  A    between atoms: C9_10  and  C10_11 
REMARK    7  A    between atoms: C10_11  and  C11_12 
REMARK    8  A    between atoms: C11_12  and  C12_13 
REMARK    9  A    between atoms: C12_13  and  C13_14 
REMARK   10  A    between atoms: C16_18  and  O3_19 
REMARK   11  A    between atoms: O3_19  and  C17_20 
REMARK   12  A    between atoms: C17_20  and  C18_21 
REMARK   13  A    between atoms: C18_21  and  C19_22 
REMARK   14  A    between atoms: C19_22  and  C20_23 
REMARK   15  A    between atoms: C20_23  and  C21_24 
REMARK   16  A    between atoms: C21_24  and  C22_25 
ROOT
HETATM    1  C1  UNL     1      -2.504  -6.740   1.865  1.00  0.00     0.000 A 
HETATM    2  C2  UNL     1      -1.100  -6.689   1.865  1.00  0.00     0.000 A 
HETATM    3  C3  UNL     1      -0.441  -5.449   1.865  1.00  0.00     0.005 A 
HETATM    4  C4  UNL     1      -1.184  -4.254   1.865  1.00  0.00     0.068 A 
HETATM    5  C5  UNL     1      -2.596  -4.305   1.865  1.00  0.00     0.068 A 
HETATM    6  C6  UNL     1      -3.250  -5.551   1.865  1.00  0.00     0.005 A 
ENDROOT
BRANCH   4   7
HETATM    7  C16 UNL     1      -0.465  -2.943   1.865  1.00  0.00     0.296 C 
HETATM    8  O4  UNL     1      -0.945  -1.971   2.398  1.00  0.00    -0.259 OA
BRANCH   7   9
HETATM    9  O3  UNL     1       0.713  -2.943   1.246  1.00  0.00    -0.298 OA
BRANCH   9  10
HETATM   10  C17 UNL     1       1.342  -1.672   1.281  1.00  0.00     0.152 C 
BRANCH  10  11
HETATM   11  C18 UNL     1       2.686  -1.746   0.554  1.00  0.00     0.033 C 
BRANCH  11  12
HETATM   12  C19 UNL     1       3.430  -0.410   0.549  1.00  0.00     0.003 C 
BRANCH  12  13
HETATM   13  C20 UNL     1       4.772  -0.486  -0.180  1.00  0.00     0.000 C 
BRANCH  13  14
HETATM   14  C21 UNL     1       5.514   0.850  -0.186  1.00  0.00     0.000 C 
BRANCH  14  15
HETATM   15  C22 UNL     1       6.901   0.752  -0.826  1.00  0.00     0.000 C 
HETATM   16  C23 UNL     1       6.838   0.526  -2.336  1.00  0.00     0.000 C 
HETATM   17  C24 UNL     1       7.811   1.918  -0.442  1.00  0.00     0.000 C 
ENDBRANCH  14  15
ENDBRANCH  13  14
ENDBRANCH  12  13
ENDBRANCH  11  12
ENDBRANCH  10  11
ENDBRANCH   9  10
ENDBRANCH   7   9
ENDBRANCH   4   7
BRANCH   5  18
HETATM   18  C7  UNL     1      -3.408  -3.051   1.865  1.00  0.00     0.296 C 
HETATM   19  O2  UNL     1      -4.357  -2.926   2.601  1.00  0.00    -0.259 OA
BRANCH  18  20
HETATM   20  O1  UNL     1      -3.006  -2.115   1.010  1.00  0.00    -0.298 OA
BRANCH  20  21
HETATM   21  C8  UNL     1      -3.818  -0.951   1.058  1.00  0.00     0.152 C 
BRANCH  21  22
HETATM   22  C9  UNL     1      -3.299   0.076   0.053  1.00  0.00     0.033 C 
BRANCH  22  23
HETATM   23  C10 UNL     1      -4.123   1.363   0.047  1.00  0.00     0.003 C 
BRANCH  23  24
HETATM   24  C11 UNL     1      -3.604   2.393  -0.959  1.00  0.00     0.000 C 
BRANCH  24  25
HETATM   25  C12 UNL     1      -4.426   3.682  -0.963  1.00  0.00     0.000 C 
BRANCH  25  26
HETATM   26  C13 UNL     1      -3.998   4.651  -2.067  1.00  0.00     0.000 C 
HETATM   27  C14 UNL     1      -4.971   5.819  -2.235  1.00  0.00     0.000 C 
HETATM   28  C15 UNL     1      -2.547   5.108  -1.920  1.00  0.00     0.000 C 
ENDBRANCH  25  26
ENDBRANCH  24  25
ENDBRANCH  23  24
ENDBRANCH  22  23
ENDBRANCH  21  22
ENDBRANCH  20  21
ENDBRANCH  18  20
ENDBRANCH   5  18
TORSDOF 16
