REMARK  10 active torsions:
REMARK  status: ('A' for Active; 'I' for Inactive)
REMARK    1  A    between atoms: C4_4  and  C9_9 
REMARK    2  A    between atoms: C10_10  and  C11_11 
REMARK    3  A    between atoms: C12_12  and  C13_13 
REMARK    4  A    between atoms: C14_14  and  C15_15 
REMARK    5  A    between atoms: C16_16  and  C17_17 
REMARK    6  A    between atoms: C18_18  and  C19_19 
REMARK    7  A    between atoms: C20_20  and  C21_21 
REMARK    8  A    between atoms: C22_22  and  C23_23 
REMARK    9  A    between atoms: C24_24  and  C25_25 
REMARK   10  A    between atoms: C26_26  and  C27_27 
ROOT
HETATM    1  C17 UNL     1       1.392   0.240  -0.363  1.00  0.00    -0.000 C 
HETATM    2  C18 UNL     1       0.717  -0.227  -1.426  1.00  0.00    -0.000 C 
ENDROOT
BRANCH   1   3
HETATM    3  C16 UNL     1       2.713   0.856  -0.527  1.00  0.00    -0.004 C 
HETATM    4  C15 UNL     1       3.559   0.955   0.512  1.00  0.00    -0.022 C 
HETATM    5  C38 UNL     1       3.117   0.418   1.848  1.00  0.00     0.031 C 
BRANCH   4   6
HETATM    6  C14 UNL     1       4.891   1.561   0.404  1.00  0.00    -0.004 C 
HETATM    7  C13 UNL     1       5.203   2.654   1.119  1.00  0.00    -0.001 C 
BRANCH   7   8
HETATM    8  C12 UNL     1       4.221   3.268   2.020  1.00  0.00    -0.004 C 
HETATM    9  C11 UNL     1       4.613   3.858   3.162  1.00  0.00    -0.022 C 
HETATM   10  C39 UNL     1       3.564   4.469   4.051  1.00  0.00     0.031 C 
BRANCH   9  11
HETATM   11  C10 UNL     1       6.018   3.932   3.580  1.00  0.00    -0.005 C 
HETATM   12  C9  UNL     1       6.338   4.246   4.846  1.00  0.00    -0.005 C 
BRANCH  12  13
HETATM   13  C4  UNL     1       7.750   4.322   5.270  1.00  0.00    -0.024 C 
HETATM   14  C3  UNL     1       8.547   5.328   4.836  1.00  0.00     0.011 C 
HETATM   15  C2  UNL     1       9.969   5.453   5.232  1.00  0.00     0.199 C 
HETATM   16  C40 UNL     1       7.984   6.379   3.908  1.00  0.00     0.034 C 
HETATM   17  C1  UNL     1      10.578   4.418   6.143  1.00  0.00     0.213 C 
HETATM   18  O2  UNL     1      10.639   6.375   4.822  1.00  0.00    -0.289 OA
HETATM   19  C6  UNL     1       9.813   3.084   6.078  1.00  0.00     0.045 C 
HETATM   20  O3  UNL     1      10.592   4.904   7.469  1.00  0.00    -0.215 OA
HETATM   21  C5  UNL     1       8.281   3.242   6.205  1.00  0.00     0.022 C 
HETATM   22  C7  UNL     1       7.895   3.627   7.637  1.00  0.00     0.004 C 
HETATM   23  C8  UNL     1       7.631   1.889   5.885  1.00  0.00     0.004 C 
ENDBRANCH  12  13
ENDBRANCH   9  11
ENDBRANCH   7   8
ENDBRANCH   4   6
ENDBRANCH   1   3
BRANCH   2  24
HETATM   24  C19 UNL     1      -0.606  -0.844  -1.262  1.00  0.00    -0.004 C 
HETATM   25  C20 UNL     1      -1.231  -1.412  -2.305  1.00  0.00    -0.022 C 
HETATM   26  C37 UNL     1      -0.547  -1.400  -3.645  1.00  0.00     0.031 C 
BRANCH  25  27
HETATM   27  C21 UNL     1      -2.553  -2.029  -2.139  1.00  0.00    -0.004 C 
HETATM   28  C22 UNL     1      -3.438  -2.031  -3.149  1.00  0.00    -0.001 C 
BRANCH  28  29
HETATM   29  C23 UNL     1      -4.760  -2.646  -2.984  1.00  0.00    -0.004 C 
HETATM   30  C24 UNL     1      -5.410  -3.164  -4.039  1.00  0.00    -0.022 C 
HETATM   31  C36 UNL     1      -4.754  -3.096  -5.393  1.00  0.00     0.031 C 
BRANCH  30  32
HETATM   32  C25 UNL     1      -6.733  -3.791  -3.934  1.00  0.00    -0.005 C 
HETATM   33  C26 UNL     1      -7.572  -3.801  -4.981  1.00  0.00    -0.005 C 
BRANCH  33  34
HETATM   34  C27 UNL     1      -8.903  -4.432  -4.875  1.00  0.00    -0.024 C 
HETATM   35  C28 UNL     1      -9.043  -5.775  -4.981  1.00  0.00     0.009 C 
HETATM   36  C29 UNL     1     -10.360  -6.447  -4.883  1.00  0.00     0.169 C 
HETATM   37  C35 UNL     1      -7.824  -6.639  -5.203  1.00  0.00     0.034 C 
HETATM   38  C30 UNL     1     -11.596  -5.609  -4.668  1.00  0.00     0.069 C 
HETATM   39  O1  UNL     1     -10.444  -7.650  -4.979  1.00  0.00    -0.292 OA
HETATM   40  C31 UNL     1     -11.401  -4.184  -5.190  1.00  0.00     0.012 C 
HETATM   41  C32 UNL     1     -10.114  -3.535  -4.641  1.00  0.00     0.019 C 
HETATM   42  C33 UNL     1      -9.924  -2.176  -5.326  1.00  0.00     0.004 C 
HETATM   43  C34 UNL     1     -10.246  -3.307  -3.131  1.00  0.00     0.004 C 
ENDBRANCH  33  34
ENDBRANCH  30  32
ENDBRANCH  28  29
ENDBRANCH  25  27
ENDBRANCH   2  24
TORSDOF 10
