REMARK  2 active torsions:
REMARK  status: ('A' for Active; 'I' for Inactive)
REMARK    1  A    between atoms: C1_1  and  O4_11 
REMARK    2  A    between atoms: C5_5  and  O2_8 
ROOT
HETATM    1  C1  UNL     1       1.314   0.063   0.002  1.00  0.00     0.138 A 
HETATM    2  C2  UNL     1       0.961   1.361   0.094  1.00  0.00     0.070 A 
HETATM    3  C3  UNL     1      -0.457   1.762   0.145  1.00  0.00     0.200 A 
HETATM    4  C4  UNL     1      -1.496   0.715   0.082  1.00  0.00     0.070 A 
HETATM    5  C5  UNL     1      -1.162  -0.590  -0.008  1.00  0.00     0.138 A 
HETATM    6  C6  UNL     1       0.264  -0.980  -0.049  1.00  0.00     0.240 A 
HETATM    7  O1  UNL     1       0.570  -2.148  -0.125  1.00  0.00    -0.282 OA
HETATM    8  O3  UNL     1      -0.764   2.926   0.234  1.00  0.00    -0.286 OA
ENDROOT
BRANCH   1   9
HETATM    9  O4  UNL     1       2.600  -0.277  -0.043  1.00  0.00    -0.325 OA
HETATM   10  C8  UNL     1       3.260   0.252  -1.184  1.00  0.00     0.181 C 
ENDBRANCH   1   9
BRANCH   5  11
HETATM   11  O2  UNL     1      -2.115  -1.518  -0.060  1.00  0.00    -0.325 OA
HETATM   12  C7  UNL     1      -2.939  -1.510   1.096  1.00  0.00     0.181 C 
ENDBRANCH   5  11
TORSDOF 2
