REMARK  7 active torsions:
REMARK  status: ('A' for Active; 'I' for Inactive)
REMARK    1  A    between atoms: C2_2  and  O7_38 
REMARK    2  A    between atoms: C3_3  and  C29_35 
REMARK    3  A    between atoms: C6_6  and  O1_7 
REMARK    4  A    between atoms: C9_10  and  C13_14 
REMARK    5  A    between atoms: C20_22  and  O5_32 
REMARK    6  A    between atoms: C22_24  and  O3_29 
REMARK    7  A    between atoms: C23_25  and  C24_26 
ROOT
HETATM    1  C1  UNL     1       9.178   1.842   0.183  1.00  0.00     0.175 C 
HETATM    2  C2  UNL     1       9.207   2.637  -1.014  1.00  0.00     0.117 C 
HETATM    3  C3  UNL     1       8.041   2.747  -1.759  1.00  0.00     0.002 C 
HETATM    4  C4  UNL     1       6.834   2.140  -1.256  1.00  0.00     0.002 C 
HETATM    5  C5  UNL     1       6.877   1.197  -0.214  1.00  0.00     0.050 C 
HETATM    6  C6  UNL     1       8.112   1.017   0.495  1.00  0.00     0.123 C 
HETATM    7  C8  UNL     1       5.685   0.470   0.133  1.00  0.00     0.133 C 
HETATM    8  C9  UNL     1       4.473   0.823  -0.434  1.00  0.00     0.023 C 
HETATM    9  C10 UNL     1       4.376   1.930  -1.323  1.00  0.00    -0.020 C 
HETATM   10  C11 UNL     1       5.543   2.526  -1.738  1.00  0.00    -0.004 C 
HETATM   11  C12 UNL     1       3.057   2.476  -1.815  1.00  0.00     0.031 C 
HETATM   12  O6  UNL     1       5.724  -0.612   0.962  1.00  0.00    -0.190 OA
HETATM   13  O8  UNL     1      10.252   1.785   1.019  1.00  0.00    -0.186 OA
ENDROOT
BRANCH   8  14
HETATM   14  C13 UNL     1       3.276   0.008  -0.064  1.00  0.00     0.023 C 
HETATM   15  C14 UNL     1       2.518  -0.706  -1.039  1.00  0.00    -0.020 C 
HETATM   16  C15 UNL     1       2.874  -0.711  -2.507  1.00  0.00     0.031 C 
HETATM   17  C16 UNL     1       1.438  -1.448  -0.616  1.00  0.00    -0.004 C 
HETATM   18  C17 UNL     1       1.123  -1.626   0.768  1.00  0.00     0.002 C 
HETATM   19  C18 UNL     1       2.049  -1.122   1.694  1.00  0.00     0.050 C 
HETATM   20  C23 UNL     1      -0.019  -2.361   1.232  1.00  0.00     0.002 C 
HETATM   21  C19 UNL     1       3.010  -0.142   1.281  1.00  0.00     0.133 C 
HETATM   22  C20 UNL     1       2.069  -1.663   3.017  1.00  0.00     0.123 C 
HETATM   23  O2  UNL     1       3.740   0.556   2.193  1.00  0.00    -0.190 OA
HETATM   24  C21 UNL     1       0.989  -2.416   3.441  1.00  0.00     0.175 C 
HETATM   25  C22 UNL     1      -0.100  -2.745   2.565  1.00  0.00     0.117 C 
HETATM   26  O4  UNL     1       0.996  -2.799   4.747  1.00  0.00    -0.186 OA
BRANCH  22  27
HETATM   27  O5  UNL     1       3.046  -1.326   3.920  1.00  0.00    -0.326 OA
HETATM   28  C28 UNL     1       4.142  -2.215   3.903  1.00  0.00     0.181 C 
ENDBRANCH  22  27
BRANCH  25  29
HETATM   29  O3  UNL     1      -1.179  -3.510   2.943  1.00  0.00    -0.326 OA
HETATM   30  C27 UNL     1      -1.128  -4.346   4.072  1.00  0.00     0.181 C 
ENDBRANCH  25  29
BRANCH  20  31
HETATM   31  C24 UNL     1      -1.159  -2.679   0.260  1.00  0.00     0.024 C 
HETATM   32  C25 UNL     1      -1.099  -4.136  -0.224  1.00  0.00     0.005 C 
HETATM   33  C26 UNL     1      -2.566  -2.300   0.760  1.00  0.00     0.005 C 
ENDBRANCH  20  31
ENDBRANCH   8  14
BRANCH   6  34
HETATM   34  O1  UNL     1       8.188   0.275   1.647  1.00  0.00    -0.326 OA
HETATM   35  C7  UNL     1       8.854  -0.961   1.494  1.00  0.00     0.181 C 
ENDBRANCH   6  34
BRANCH   3  36
HETATM   36  C29 UNL     1       7.977   3.464  -3.120  1.00  0.00     0.024 C 
HETATM   37  C30 UNL     1       9.181   4.265  -3.654  1.00  0.00     0.005 C 
HETATM   38  C31 UNL     1       7.625   2.416  -4.201  1.00  0.00     0.005 C 
ENDBRANCH   3  36
BRANCH   2  39
HETATM   39  O7  UNL     1      10.311   3.339  -1.432  1.00  0.00    -0.326 OA
HETATM   40  C32 UNL     1      11.414   3.581  -0.594  1.00  0.00     0.181 C 
ENDBRANCH   2  39
TORSDOF 7
