REMARK  5 active torsions:
REMARK  status: ('A' for Active; 'I' for Inactive)
REMARK    1  A    between atoms: C1_1  and  O5_20 
REMARK    2  A    between atoms: C3_3  and  C11_14 
REMARK    3  A    between atoms: C6_6  and  O1_7 
REMARK    4  A    between atoms: C11_14  and  C12_15 
REMARK    5  A    between atoms: C12_15  and  C13_17 
ROOT
HETATM    1  C1  UNL     1       0.830  -1.793   0.141  1.00  0.00     0.116 A 
HETATM    2  C2  UNL     1       0.902  -0.469   0.635  1.00  0.00     0.024 A 
HETATM    3  C3  UNL     1      -0.281   0.285   0.828  1.00  0.00     0.010 A 
HETATM    4  C4  UNL     1      -1.541  -0.283   0.525  1.00  0.00     0.102 A 
HETATM    5  C5  UNL     1      -1.609  -1.615   0.029  1.00  0.00     0.047 A 
HETATM    6  C6  UNL     1      -0.426  -2.371  -0.166  1.00  0.00     0.118 A 
HETATM    7  C8  UNL     1      -2.945  -2.190  -0.277  1.00  0.00     0.009 A 
HETATM    8  C9  UNL     1      -4.041  -1.434  -0.076  1.00  0.00     0.069 A 
HETATM    9  C10 UNL     1      -3.904  -0.053   0.441  1.00  0.00     0.300 A 
HETATM   10  O2  UNL     1      -2.676   0.434   0.709  1.00  0.00    -0.273 OA
HETATM   11  O3  UNL     1      -4.908   0.601   0.611  1.00  0.00    -0.259 OA
ENDROOT
BRANCH   3  12
HETATM   12  C11 UNL     1      -0.191   1.662   1.344  1.00  0.00     0.093 C 
BRANCH  12  13
HETATM   13  C12 UNL     1      -0.385   2.687   0.260  1.00  0.00     0.155 C 
HETATM   14  O4  UNL     1      -1.426   3.291   0.152  1.00  0.00    -0.296 OA
BRANCH  13  15
HETATM   15  C13 UNL     1       0.756   2.937  -0.690  1.00  0.00     0.058 C 
HETATM   16  C14 UNL     1       0.316   3.686  -1.947  1.00  0.00     0.008 C 
HETATM   17  C15 UNL     1       1.955   3.592  -0.002  1.00  0.00     0.008 C 
ENDBRANCH  13  15
ENDBRANCH  12  13
ENDBRANCH   3  12
BRANCH   1  18
HETATM   18  O5  UNL     1       1.955  -2.498  -0.039  1.00  0.00    -0.326 OA
HETATM   19  C16 UNL     1       3.191  -1.875   0.279  1.00  0.00     0.181 C 
ENDBRANCH   1  18
BRANCH   6  20
HETATM   20  O1  UNL     1      -0.486  -3.627  -0.635  1.00  0.00    -0.326 OA
HETATM   21  C7  UNL     1       0.395  -4.590  -0.074  1.00  0.00     0.181 C 
ENDBRANCH   6  20
TORSDOF 5
