REMARK  5 active torsions:
REMARK  status: ('A' for Active; 'I' for Inactive)
REMARK    1  A    between atoms: C3_3  and  O4_10 
REMARK    2  A    between atoms: C4_5  and  C6_8 
REMARK    3  A    between atoms: O4_10  and  C7_11 
REMARK    4  A    between atoms: C19_25  and  O8_30 
REMARK    5  A    between atoms: C20_26  and  O7_28 
ROOT
HETATM    1  C7  UNL     1      -2.529  -1.477   0.246  1.00  0.00     0.099 A 
HETATM    2  C8  UNL     1      -2.144  -2.820   0.049  1.00  0.00     0.024 A 
HETATM    3  C9  UNL     1      -1.152  -3.139  -0.908  1.00  0.00     0.002 A 
HETATM    4  C10 UNL     1      -0.541  -2.115  -1.676  1.00  0.00     0.028 A 
HETATM    5  C11 UNL     1      -0.959  -0.766  -1.500  1.00  0.00     0.094 A 
HETATM    6  C12 UNL     1      -1.936  -0.451  -0.527  1.00  0.00     0.048 A 
HETATM    7  O5  UNL     1      -0.439   0.230  -2.242  1.00  0.00    -0.331 OA
HETATM    8  C13 UNL     1       0.193  -0.059  -3.490  1.00  0.00     0.156 C 
HETATM    9  C14 UNL     1       1.166  -1.234  -3.361  1.00  0.00     0.086 C 
HETATM   10  C15 UNL     1       0.541  -2.463  -2.643  1.00  0.00     0.152 C 
HETATM   11  O6  UNL     1       1.602  -3.108  -1.910  1.00  0.00    -0.329 OA
HETATM   12  C16 UNL     1       2.602  -2.242  -1.752  1.00  0.00     0.088 C 
HETATM   13  C17 UNL     1       2.365  -1.024  -2.492  1.00  0.00     0.003 C 
HETATM   14  C18 UNL     1       3.121   0.082  -2.367  1.00  0.00     0.004 C 
HETATM   15  C19 UNL     1       4.244   0.076  -1.348  1.00  0.00     0.169 C 
HETATM   16  C20 UNL     1       4.791  -1.352  -1.033  1.00  0.00     0.171 C 
HETATM   17  C21 UNL     1       3.717  -2.426  -1.022  1.00  0.00     0.030 C 
ENDROOT
BRANCH   1  18
HETATM   18  O4  UNL     1      -3.459  -1.172   1.162  1.00  0.00    -0.304 OA
BRANCH  18  19
HETATM   19  C3  UNL     1      -3.752   0.201   1.387  1.00  0.00     0.274 C 
HETATM   20  C2  UNL     1      -4.949   0.336   2.350  1.00  0.00     0.241 C 
HETATM   21  C1  UNL     1      -5.205   1.812   2.721  1.00  0.00     0.220 C 
HETATM   22  O9  UNL     1      -6.096  -0.213   1.726  1.00  0.00    -0.215 OA
HETATM   23  C5  UNL     1      -3.889   2.465   3.195  1.00  0.00     0.215 C 
HETATM   24  O10 UNL     1      -6.180   1.889   3.748  1.00  0.00    -0.218 OA
HETATM   25  C4  UNL     1      -2.742   2.221   2.185  1.00  0.00     0.184 C 
HETATM   26  O2  UNL     1      -4.070   3.861   3.346  1.00  0.00    -0.218 OA
HETATM   27  O1  UNL     1      -2.607   0.826   1.951  1.00  0.00    -0.326 OA
BRANCH  25  28
HETATM   28  C6  UNL     1      -1.383   2.717   2.691  1.00  0.00     0.214 C 
HETATM   29  O3  UNL     1      -0.455   2.611   1.637  1.00  0.00    -0.218 OA
ENDBRANCH  25  28
ENDBRANCH  18  19
ENDBRANCH   1  18
BRANCH  15  30
HETATM   30  O8  UNL     1       5.301   0.900  -1.803  1.00  0.00    -0.347 OA
HETATM   31  C23 UNL     1       5.022   2.277  -1.686  1.00  0.00     0.175 C 
ENDBRANCH  15  30
BRANCH  16  32
HETATM   32  O7  UNL     1       5.463  -1.342   0.211  1.00  0.00    -0.347 OA
HETATM   33  C22 UNL     1       6.379  -2.404   0.355  1.00  0.00     0.175 C 
ENDBRANCH  16  32
TORSDOF 5
