REMARK  1 active torsions:
REMARK  status: ('A' for Active; 'I' for Inactive)
REMARK    1  A    between atoms: C6_6  and  C8_8 
ROOT
HETATM    1  C1  UNL     1       0.389  -0.061   1.305  1.00  0.00     0.036 A 
HETATM    2  C2  UNL     1       0.514   1.062   0.303  1.00  0.00    -0.044 A 
HETATM    3  C3  UNL     1      -0.463   1.490  -0.527  1.00  0.00    -0.051 C 
HETATM    4  C4  UNL     1      -1.861   0.900  -0.592  1.00  0.00     0.022 C 
HETATM    5  C5  UNL     1      -2.109  -0.520  -0.041  1.00  0.00     0.012 C 
HETATM    6  C6  UNL     1      -0.992  -1.541  -0.330  1.00  0.00     0.059 C 
HETATM    7  C7  UNL     1       0.176  -1.445   0.678  1.00  0.00     0.015 C 
HETATM    8  C10 UNL     1      -0.184   2.629  -1.476  1.00  0.00     0.026 C 
HETATM    9  C11 UNL     1       1.895   1.678   0.356  1.00  0.00     0.047 A 
HETATM   10  C12 UNL     1       2.527   0.963   1.518  1.00  0.00    -0.030 A 
HETATM   11  C13 UNL     1       1.707   0.033   2.029  1.00  0.00    -0.044 A 
HETATM   12  C14 UNL     1       2.049  -0.840   3.207  1.00  0.00     0.026 C 
ENDROOT
BRANCH   6  13
HETATM   13  C8  UNL     1      -0.520  -1.469  -1.762  1.00  0.00     0.151 C 
HETATM   14  C9  UNL     1      -1.500  -1.824  -2.850  1.00  0.00     0.072 C 
HETATM   15  O1  UNL     1       0.611  -1.135  -2.029  1.00  0.00    -0.296 OA
ENDBRANCH   6  13
TORSDOF 1
