REMARK  5 active torsions:
REMARK  status: ('A' for Active; 'I' for Inactive)
REMARK    1  A    between atoms: C15_15  and  C18_18 
REMARK    2  A    between atoms: C18_18  and  C19_19 
REMARK    3  A    between atoms: C19_19  and  C20_20 
REMARK    4  A    between atoms: C20_20  and  C21_21 
REMARK    5  A    between atoms: C21_21  and  C22_22 
ROOT
HETATM    1  C1  UNL     1      -5.552  -1.795  -1.831  1.00  0.00     0.065 C 
HETATM    2  C2  UNL     1      -5.738  -3.301  -1.886  1.00  0.00     0.150 C 
HETATM    3  C3  UNL     1      -4.743  -4.168  -1.105  1.00  0.00     0.052 C 
HETATM    4  C4  UNL     1      -3.516  -3.293  -0.734  1.00  0.00     0.011 C 
HETATM    5  C5  UNL     1      -3.786  -1.970   0.039  1.00  0.00     0.004 C 
HETATM    6  C6  UNL     1      -5.137  -1.368  -0.420  1.00  0.00     0.008 C 
HETATM    7  C7  UNL     1      -2.571  -1.030  -0.273  1.00  0.00     0.018 C 
HETATM    8  C8  UNL     1      -1.243  -1.734   0.008  1.00  0.00    -0.049 C 
HETATM    9  C9  UNL     1      -1.157  -3.075   0.078  1.00  0.00    -0.035 C 
HETATM   10  C10 UNL     1      -2.316  -4.022  -0.110  1.00  0.00     0.026 C 
HETATM   11  C11 UNL     1       0.009  -0.863   0.004  1.00  0.00     0.015 C 
HETATM   12  C12 UNL     1      -0.173   0.352   0.959  1.00  0.00     0.003 C 
HETATM   13  C13 UNL     1      -1.358   1.181   0.428  1.00  0.00     0.001 C 
HETATM   14  C14 UNL     1      -2.669   0.375   0.367  1.00  0.00     0.004 C 
HETATM   15  C15 UNL     1       1.249   1.039   1.062  1.00  0.00     0.000 C 
HETATM   16  C16 UNL     1       2.174  -0.205   0.875  1.00  0.00     0.000 C 
HETATM   17  C17 UNL     1       1.314  -1.450   0.569  1.00  0.00     0.004 C 
HETATM   18  C26 UNL     1       1.488   1.641   2.473  1.00  0.00     0.000 C 
HETATM   19  C27 UNL     1      -0.605  -0.157   2.371  1.00  0.00     0.000 C 
HETATM   20  C28 UNL     1       0.279  -0.576  -1.495  1.00  0.00     0.004 C 
HETATM   21  C29 UNL     1      -3.877  -2.203   1.570  1.00  0.00     0.000 C 
HETATM   22  C30 UNL     1      -4.331  -5.340  -2.028  1.00  0.00     0.007 C 
HETATM   23  C31 UNL     1      -5.500  -4.776   0.091  1.00  0.00     0.007 C 
HETATM   24  O2  UNL     1      -6.648  -3.783  -2.522  1.00  0.00    -0.296 OA
ENDROOT
BRANCH  15  25
HETATM   25  C18 UNL     1       1.527   2.180   0.013  1.00  0.00     0.000 C 
HETATM   26  C25 UNL     1       0.962   3.569   0.398  1.00  0.00     0.000 C 
BRANCH  25  27
HETATM   27  C19 UNL     1       2.982   2.403  -0.498  1.00  0.00     0.003 C 
BRANCH  27  28
HETATM   28  C20 UNL     1       4.056   2.684   0.563  1.00  0.00     0.034 C 
BRANCH  28  29
HETATM   29  C21 UNL     1       5.475   3.030   0.085  1.00  0.00     0.166 C 
HETATM   30  O1  UNL     1       6.261   3.137   1.254  1.00  0.00    -0.222 OA
BRANCH  29  31
HETATM   31  C22 UNL     1       5.705   4.275  -0.794  1.00  0.00     0.095 C 
HETATM   32  C23 UNL     1       5.534   3.951  -2.287  1.00  0.00     0.019 C 
HETATM   33  C24 UNL     1       7.129   4.838  -0.628  1.00  0.00     0.019 C 
HETATM   34 CL1  UNL     1       4.578   5.598  -0.355  1.00  0.00    -0.114 Cl
ENDBRANCH  29  31
ENDBRANCH  28  29
ENDBRANCH  27  28
ENDBRANCH  25  27
ENDBRANCH  15  25
TORSDOF 5
