REMARK  5 active torsions:
REMARK  status: ('A' for Active; 'I' for Inactive)
REMARK    1  A    between atoms: C7_10  and  C10_14 
REMARK    2  A    between atoms: C12_16  and  C21_26 
REMARK    3  A    between atoms: C14_18  and  C16_20 
REMARK    4  A    between atoms: C16_20  and  C17_21 
REMARK    5  A    between atoms: C21_26  and  C22_27 
ROOT
HETATM    1  C10 UNL     1      -0.648  -0.160   0.412  1.00  0.00     0.005 A 
HETATM    2  C11 UNL     1       0.370   0.757   0.101  1.00  0.00    -0.004 A 
HETATM    3  C12 UNL     1       0.359   1.431  -1.134  1.00  0.00     0.007 A 
HETATM    4  C13 UNL     1      -0.673   1.189  -2.062  1.00  0.00     0.124 A 
HETATM    5  C14 UNL     1      -1.692   0.269  -1.747  1.00  0.00     0.007 A 
HETATM    6  C15 UNL     1      -1.678  -0.404  -0.512  1.00  0.00    -0.004 A 
HETATM    7  O5  UNL     1      -0.685   1.821  -3.220  1.00  0.00    -0.191 OA
ENDROOT
BRANCH   1   8
HETATM    8  C7  UNL     1      -0.634  -0.873   1.718  1.00  0.00     0.151 C 
HETATM    9  O3  UNL     1       0.655  -1.465   1.917  1.00  0.00    -0.328 OA
HETATM   10  C2  UNL     1       0.985  -1.999   3.113  1.00  0.00     0.101 A 
HETATM   11  C1  UNL     1       0.269  -1.662   4.295  1.00  0.00     0.083 A 
HETATM   12  C3  UNL     1       2.065  -2.910   3.182  1.00  0.00     0.052 A 
HETATM   13  C6  UNL     1       0.600  -2.287   5.527  1.00  0.00     0.138 A 
HETATM   14  C9  UNL     1      -0.820  -0.645   4.228  1.00  0.00     0.180 C 
HETATM   15  C5  UNL     1       1.670  -3.210   5.581  1.00  0.00     0.055 A 
HETATM   16  O1  UNL     1      -0.081  -2.006   6.648  1.00  0.00    -0.190 OA
HETATM   17  C4  UNL     1       2.408  -3.514   4.414  1.00  0.00     0.135 A 
HETATM   18  O2  UNL     1       3.429  -4.379   4.474  1.00  0.00    -0.190 OA
HETATM   19  C8  UNL     1      -0.991   0.054   2.896  1.00  0.00     0.104 C 
HETATM   20  O4  UNL     1      -1.568  -0.322   5.122  1.00  0.00    -0.291 OA
ENDBRANCH   1   8
BRANCH   3  21
HETATM   21  C21 UNL     1       1.442   2.400  -1.451  1.00  0.00     0.054 C 
BRANCH  21  22
HETATM   22  C22 UNL     1       1.953   3.102  -0.222  1.00  0.00    -0.030 C 
HETATM   23  C23 UNL     1       3.149   3.709  -0.282  1.00  0.00    -0.048 C 
HETATM   24  C24 UNL     1       3.661   4.411   0.948  1.00  0.00     0.026 C 
HETATM   25  C25 UNL     1       3.917   3.658  -1.575  1.00  0.00     0.026 C 
ENDBRANCH  21  22
ENDBRANCH   3  21
BRANCH   5  26
HETATM   26  C16 UNL     1      -2.788   0.002  -2.716  1.00  0.00     0.054 C 
BRANCH  26  27
HETATM   27  C17 UNL     1      -2.366  -0.952  -3.801  1.00  0.00    -0.030 C 
HETATM   28  C18 UNL     1      -3.311  -1.473  -4.600  1.00  0.00    -0.048 C 
HETATM   29  C19 UNL     1      -4.785  -1.182  -4.506  1.00  0.00     0.026 C 
HETATM   30  C20 UNL     1      -2.889  -2.427  -5.685  1.00  0.00     0.026 C 
ENDBRANCH  26  27
ENDBRANCH   5  26
TORSDOF 5
