REMARK  5 active torsions:
REMARK  status: ('A' for Active; 'I' for Inactive)
REMARK    1  A    between atoms: C15_17  and  C18_20 
REMARK    2  A    between atoms: C18_20  and  C20_22 
REMARK    3  A    between atoms: C20_22  and  C21_23 
REMARK    4  A    between atoms: C21_23  and  C22_24 
REMARK    5  A    between atoms: C22_24  and  C23_25 
ROOT
HETATM    1  C1  UNL     1       6.070   0.104   0.678  1.00  0.00     0.182 C 
HETATM    2  C2  UNL     1       6.742   0.807  -0.525  1.00  0.00     0.183 C 
HETATM    3  C3  UNL     1       5.693   1.475  -1.434  1.00  0.00     0.043 C 
HETATM    4  C4  UNL     1       4.709   2.377  -0.650  1.00  0.00     0.065 C 
HETATM    5  C5  UNL     1       4.004   1.627   0.510  1.00  0.00     0.015 C 
HETATM    6  C6  UNL     1       5.109   1.045   1.428  1.00  0.00     0.036 C 
HETATM    7  C7  UNL     1       3.022   0.545  -0.064  1.00  0.00     0.052 C 
HETATM    8  C8  UNL     1       2.109   1.137  -1.148  1.00  0.00    -0.012 C 
HETATM    9  C9  UNL     1       2.436   2.266  -1.814  1.00  0.00     0.031 C 
HETATM   10  C10 UNL     1       3.695   2.988  -1.588  1.00  0.00     0.172 C 
HETATM   11  O1  UNL     1       3.906   4.045  -2.135  1.00  0.00    -0.291 OA
HETATM   12  C11 UNL     1       0.822   0.397  -1.467  1.00  0.00     0.142 C 
HETATM   13  C12 UNL     1       0.076  -0.016  -0.186  1.00  0.00     0.034 C 
HETATM   14  C13 UNL     1       0.961  -0.973   0.619  1.00  0.00     0.036 C 
HETATM   15  C14 UNL     1       2.248  -0.234   1.057  1.00  0.00     0.156 C 
HETATM   16  O2  UNL     1       3.086  -1.217   1.637  1.00  0.00    -0.223 OA
HETATM   17  C15 UNL     1      -1.225  -0.617  -0.734  1.00  0.00     0.033 C 
HETATM   18  C16 UNL     1      -1.582   0.326  -1.893  1.00  0.00     0.005 C 
HETATM   19  C17 UNL     1      -0.309   1.123  -2.217  1.00  0.00     0.035 C 
HETATM   20  C26 UNL     1      -0.283   1.223   0.658  1.00  0.00     0.003 C 
HETATM   21  O5  UNL     1       1.191  -0.730  -2.252  1.00  0.00    -0.222 OA
HETATM   22  C27 UNL     1       3.205   2.649   1.338  1.00  0.00     0.001 C 
HETATM   23  O6  UNL     1       7.652   1.805  -0.092  1.00  0.00    -0.221 OA
HETATM   24  O7  UNL     1       7.039  -0.404   1.578  1.00  0.00    -0.221 OA
ENDROOT
BRANCH  17  25
HETATM   25  C18 UNL     1      -2.352  -0.748   0.289  1.00  0.00     0.155 C 
HETATM   26  C19 UNL     1      -1.830  -1.478   1.529  1.00  0.00     0.036 C 
HETATM   27  O4  UNL     1      -2.756   0.549   0.668  1.00  0.00    -0.223 OA
BRANCH  25  28
HETATM   28  C20 UNL     1      -3.545  -1.453  -0.352  1.00  0.00     0.180 C 
HETATM   29  O3  UNL     1      -3.178  -2.787  -0.621  1.00  0.00    -0.221 OA
BRANCH  28  30
HETATM   30  C21 UNL     1      -4.777  -1.471   0.553  1.00  0.00     0.035 C 
BRANCH  30  31
HETATM   31  C22 UNL     1      -6.043  -1.912  -0.182  1.00  0.00     0.003 C 
BRANCH  31  32
HETATM   32  C23 UNL     1      -7.250  -2.045   0.748  1.00  0.00     0.000 C 
HETATM   33  C24 UNL     1      -7.844  -0.691   1.141  1.00  0.00     0.000 C 
HETATM   34  C25 UNL     1      -8.301  -3.020   0.217  1.00  0.00     0.000 C 
ENDBRANCH  31  32
ENDBRANCH  30  31
ENDBRANCH  28  30
ENDBRANCH  25  28
ENDBRANCH  17  25
TORSDOF 5
