REMARK  1 active torsions:
REMARK  status: ('A' for Active; 'I' for Inactive)
REMARK    1  A    between atoms: C3_3  and  C7_7 
ROOT
HETATM    1  C1  UNL     1      -2.033  -1.535  -0.096  1.00  0.00    -0.000 A 
HETATM    2  C2  UNL     1      -1.375  -0.293  -0.096  1.00  0.00    -0.002 A 
HETATM    3  C3  UNL     1       0.031  -0.242  -0.096  1.00  0.00     0.005 A 
HETATM    4  C4  UNL     1       0.777  -1.434  -0.096  1.00  0.00    -0.002 A 
HETATM    5  C5  UNL     1       0.119  -2.676  -0.096  1.00  0.00    -0.000 A 
HETATM    6  C6  UNL     1      -1.287  -2.727  -0.096  1.00  0.00    -0.000 A 
ENDROOT
BRANCH   3   7
HETATM    7  C7  UNL     1       0.727   1.072  -0.096  1.00  0.00     0.146 C 
HETATM    8  O1  UNL     1       1.750   1.062  -1.067  1.00  0.00    -0.222 OA
HETATM    9  C8  UNL     1       1.359   1.375   1.261  1.00  0.00     0.038 C 
HETATM   10  C9  UNL     1      -0.232   2.217  -0.424  1.00  0.00     0.038 C 
ENDBRANCH   3   7
TORSDOF 1
