REMARK  1 active torsions:
REMARK  status: ('A' for Active; 'I' for Inactive)
REMARK    1  A    between atoms: C5_5  and  C7_7 
ROOT
HETATM    1  C1  UNL     1      -0.510   0.885   0.000  1.00  0.00    -0.026 A 
HETATM    2  C2  UNL     1       0.898   0.935   0.000  1.00  0.00    -0.026 A 
HETATM    3  C3  UNL     1       1.642  -0.258   0.000  1.00  0.00    -0.004 A 
HETATM    4  C4  UNL     1       0.984  -1.500   0.000  1.00  0.00     0.006 A 
HETATM    5  C5  UNL     1      -0.420  -1.553   0.000  1.00  0.00     0.064 A 
HETATM    6  C6  UNL     1      -1.166  -0.359   0.000  1.00  0.00     0.002 A 
HETATM    7  C8  UNL     1       1.611   2.242   0.000  1.00  0.00     0.031 C 
HETATM    8  C9  UNL     1      -1.315   2.137   0.000  1.00  0.00     0.031 C 
ENDROOT
BRANCH   5   9
HETATM    9  C7  UNL     1      -1.120  -2.873   0.000  1.00  0.00     0.211 C 
HETATM   10  O1  UNL     1      -0.321  -3.936   0.000  1.00  0.00    -0.644 OA
HETATM   11  O2  UNL     1      -2.327  -2.936   0.000  1.00  0.00    -0.644 OA
ENDBRANCH   5   9
TORSDOF 1
