REMARK  3 active torsions:
REMARK  status: ('A' for Active; 'I' for Inactive)
REMARK    1  A    between atoms: C4_4  and  C8_8 
REMARK    2  A    between atoms: C8_8  and  C9_9 
REMARK    3  A    between atoms: C9_9  and  C10_10 
ROOT
HETATM    1  C1  UNL     1      -1.670   2.367  -0.651  1.00  0.00    -0.008 A 
HETATM    2  C2  UNL     1      -2.328   1.125  -0.651  1.00  0.00    -0.022 A 
HETATM    3  C3  UNL     1      -1.582  -0.066  -0.651  1.00  0.00    -0.008 A 
HETATM    4  C4  UNL     1      -0.176  -0.016  -0.651  1.00  0.00    -0.023 A 
HETATM    5  C5  UNL     1       0.482   1.227  -0.651  1.00  0.00    -0.008 A 
HETATM    6  C6  UNL     1      -0.264   2.418  -0.651  1.00  0.00    -0.022 A 
HETATM    7  C7  UNL     1       0.431   3.730  -0.651  1.00  0.00     0.031 C 
HETATM    8  C12 UNL     1      -3.815   1.070  -0.651  1.00  0.00     0.031 C 
ENDROOT
BRANCH   4   9
HETATM    9  C8  UNL     1       0.613  -1.275  -0.651  1.00  0.00     0.026 C 
BRANCH   9  10
HETATM   10  C9  UNL     1       1.197  -1.574   0.730  1.00  0.00     0.004 C 
BRANCH  10  11
HETATM   11  C10 UNL     1       2.006  -2.871   0.762  1.00  0.00     0.000 C 
HETATM   12  C11 UNL     1       2.592  -3.168   2.142  1.00  0.00     0.000 C 
ENDBRANCH  10  11
ENDBRANCH   9  10
ENDBRANCH   4   9
TORSDOF 3
