REMARK  4 active torsions:
REMARK  status: ('A' for Active; 'I' for Inactive)
REMARK    1  A    between atoms: C3_3  and  C11_13 
REMARK    2  A    between atoms: C5_5  and  C6_6 
REMARK    3  A    between atoms: C6_6  and  O1_7 
REMARK    4  A    between atoms: C11_13  and  O3_14 
ROOT
HETATM    1  C1  UNL     1       2.109  -0.039  -0.082  1.00  0.00     0.010 C 
HETATM    2  C2  UNL     1       1.631  -1.465  -0.371  1.00  0.00     0.010 C 
HETATM    3  C3  UNL     1       0.103  -1.385  -0.490  1.00  0.00     0.087 C 
HETATM    4  C4  UNL     1      -0.254  -0.023   0.133  1.00  0.00     0.017 C 
HETATM    5  C5  UNL     1       0.904   0.861  -0.371  1.00  0.00     0.079 C 
HETATM    6  C8  UNL     1       0.824   1.078  -1.885  1.00  0.00     0.010 C 
HETATM    7  C9  UNL     1      -0.258  -0.100   1.664  1.00  0.00     0.001 C 
HETATM    8  C10 UNL     1      -1.613   0.463  -0.373  1.00  0.00     0.001 C 
ENDROOT
BRANCH   5   9
HETATM    9  C6  UNL     1       0.996   2.205   0.311  1.00  0.00     0.271 C 
HETATM   10  O2  UNL     1       1.795   2.399   1.197  1.00  0.00    -0.264 OA
BRANCH   9  11
HETATM   11  O1  UNL     1       0.146   3.125  -0.137  1.00  0.00    -0.299 OA
HETATM   12  C7  UNL     1       0.283   4.363   0.545  1.00  0.00     0.184 C 
ENDBRANCH   9  11
ENDBRANCH   5   9
BRANCH   3  13
HETATM   13  C11 UNL     1      -0.621  -2.564   0.115  1.00  0.00     0.271 C 
HETATM   14  O4  UNL     1      -0.150  -3.174   1.045  1.00  0.00    -0.264 OA
BRANCH  13  15
HETATM   15  O3  UNL     1      -1.789  -2.861  -0.449  1.00  0.00    -0.299 OA
HETATM   16  C12 UNL     1      -2.414  -3.982   0.156  1.00  0.00     0.184 C 
ENDBRANCH  13  15
ENDBRANCH   3  13
TORSDOF 4
