REMARK  2 active torsions:
REMARK  status: ('A' for Active; 'I' for Inactive)
REMARK    1  A    between atoms: C2_2  and  C3_3 
REMARK    2  A    between atoms: C3_3  and  C4_4 
ROOT
HETATM    1  C4  UNL     1      -0.213   0.070  -0.158  1.00  0.00     0.188 C 
HETATM    2  N1  UNL     1       0.814  -1.057   0.158  1.00  0.00    -0.005 N 
HETATM    3  C5  UNL     1       0.103  -2.363   0.592  1.00  0.00     0.217 C 
HETATM    4  C6  UNL     1      -1.295  -2.510  -0.021  1.00  0.00     0.033 C 
HETATM    5  C7  UNL     1      -2.231  -1.373   0.430  1.00  0.00     0.004 C 
HETATM    6  C8  UNL     1      -1.481  -0.055   0.701  1.00  0.00     0.031 C 
HETATM    7  C9  UNL     1       1.768  -0.631   1.285  1.00  0.00     0.250 C 
HETATM    8  C10 UNL     1       1.658  -1.322  -1.096  1.00  0.00     0.250 C 
ENDROOT
BRANCH   1   9
HETATM    9  C3  UNL     1       0.394   1.476  -0.070  1.00  0.00     0.031 C 
BRANCH   9  10
HETATM   10  C2  UNL     1      -0.463   2.535  -0.764  1.00  0.00     0.002 C 
HETATM   11  C1  UNL     1       0.205   3.910  -0.791  1.00  0.00     0.000 C 
ENDBRANCH   9  10
ENDBRANCH   1   9
TORSDOF 2
