REMARK  9 active torsions:
REMARK  status: ('A' for Active; 'I' for Inactive)
REMARK    1  A    between atoms: C2_2  and  C3_3 
REMARK    2  A    between atoms: C3_3  and  C4_4 
REMARK    3  A    between atoms: C4_4  and  C5_5 
REMARK    4  A    between atoms: C5_5  and  C6_6 
REMARK    5  A    between atoms: C6_6  and  C7_7 
REMARK    6  A    between atoms: C7_7  and  C8_8 
REMARK    7  A    between atoms: C8_8  and  C9_9 
REMARK    8  A    between atoms: C9_9  and  C10_10 
REMARK    9  A    between atoms: C10_10  and  C11_11 
ROOT
HETATM    1  C6  UNL     1      -0.966   1.199  -0.182  1.00  0.00     0.000 C 
HETATM    2  C13 UNL     1      -2.467   1.250  -0.468  1.00  0.00     0.000 C 
ENDROOT
BRANCH   1   3
HETATM    3  C5  UNL     1      -0.577   1.982   1.073  1.00  0.00     0.000 C 
BRANCH   3   4
HETATM    4  C4  UNL     1       0.937   2.103   1.247  1.00  0.00     0.000 C 
HETATM    5  C14 UNL     1       1.644   2.555  -0.031  1.00  0.00     0.000 C 
BRANCH   4   6
HETATM    6  C3  UNL     1       1.326   2.942   2.465  1.00  0.00     0.000 C 
BRANCH   6   7
HETATM    7  C2  UNL     1       0.874   2.312   3.784  1.00  0.00     0.000 C 
HETATM    8  C1  UNL     1       1.415   3.053   5.007  1.00  0.00     0.000 C 
ENDBRANCH   6   7
ENDBRANCH   4   6
ENDBRANCH   3   4
ENDBRANCH   1   3
BRANCH   1   9
HETATM    9  C7  UNL     1      -0.413  -0.227  -0.182  1.00  0.00     0.000 C 
BRANCH   9  10
HETATM   10  C8  UNL     1      -0.864  -1.034  -1.399  1.00  0.00     0.000 C 
BRANCH  10  11
HETATM   11  C9  UNL     1      -0.150  -2.382  -1.511  1.00  0.00     0.000 C 
BRANCH  11  12
HETATM   12  C10 UNL     1      -0.607  -3.193  -2.724  1.00  0.00     0.000 C 
BRANCH  12  13
HETATM   13  C11 UNL     1       0.107  -4.541  -2.836  1.00  0.00     0.000 C 
HETATM   14  C12 UNL     1      -0.350  -5.351  -4.049  1.00  0.00     0.000 C 
ENDBRANCH  12  13
ENDBRANCH  11  12
ENDBRANCH  10  11
ENDBRANCH   9  10
ENDBRANCH   1   9
TORSDOF 9
