REMARK  3 active torsions:
REMARK  status: ('A' for Active; 'I' for Inactive)
REMARK    1  A    between atoms: N1_2  and  C2_3 
REMARK    2  A    between atoms: C2_3  and  C3_4 
REMARK    3  A    between atoms: C3_4  and  O1_5 
ROOT
HETATM    1  C2  UNL     1       0.611  -0.435   0.621  1.00  0.00     0.345 C 
ENDROOT
BRANCH   1   2
HETATM    2  N1  UNL     1       0.193   0.955   0.637  1.00  0.00     0.152 N 
HETATM    3  C1  UNL     1       0.678   1.619   1.834  1.00  0.00     0.286 C 
HETATM    4  C5  UNL     1       0.670   1.641  -0.553  1.00  0.00     0.286 C 
ENDBRANCH   1   2
BRANCH   1   5
HETATM    5  C3  UNL     1      -0.082  -1.174  -0.492  1.00  0.00     0.306 C 
HETATM    6  O2  UNL     1       0.504  -1.457  -1.510  1.00  0.00    -0.262 OA
BRANCH   5   7
HETATM    7  O1  UNL     1      -1.355  -1.478  -0.264  1.00  0.00    -0.297 OA
HETATM    8  C4  UNL     1      -1.951  -2.168  -1.352  1.00  0.00     0.185 C 
ENDBRANCH   5   7
ENDBRANCH   1   5
TORSDOF 3
