REMARK  3 active torsions:
REMARK  status: ('A' for Active; 'I' for Inactive)
REMARK    1  A    between atoms: C4_4  and  C7_7 
REMARK    2  A    between atoms: C8_8  and  C9_9 
REMARK    3  A    between atoms: C9_9  and  C10_10 
ROOT
HETATM    1  C7  UNL     1      -0.602   0.477  -0.594  1.00  0.00    -0.048 C 
HETATM    2  C8  UNL     1       0.381  -0.285  -0.088  1.00  0.00    -0.030 C 
HETATM    3  C14 UNL     1      -0.311   1.928  -0.877  1.00  0.00     0.026 C 
ENDROOT
BRANCH   1   4
HETATM    4  C4  UNL     1      -1.996   0.002  -0.912  1.00  0.00     0.023 C 
HETATM    5  C3  UNL     1      -3.061   0.873  -0.232  1.00  0.00     0.009 C 
HETATM    6  C2  UNL     1      -4.473   0.430  -0.643  1.00  0.00     0.026 C 
HETATM    7  C1  UNL     1      -4.666  -1.072  -0.623  1.00  0.00    -0.030 C 
HETATM    8  C6  UNL     1      -3.631  -1.936  -0.582  1.00  0.00    -0.030 C 
HETATM    9  C5  UNL     1      -2.191  -1.473  -0.516  1.00  0.00     0.029 C 
ENDBRANCH   1   4
BRANCH   2  10
HETATM   10  C9  UNL     1       1.723   0.348   0.172  1.00  0.00     0.051 C 
BRANCH  10  11
HETATM   11  C10 UNL     1       2.598  -0.580   0.971  1.00  0.00    -0.030 C 
HETATM   12  C11 UNL     1       3.902  -0.281   1.096  1.00  0.00    -0.047 C 
HETATM   13  C12 UNL     1       4.783  -1.225   1.869  1.00  0.00     0.026 C 
HETATM   14  C13 UNL     1       4.414   0.980   0.453  1.00  0.00     0.026 C 
ENDBRANCH  10  11
ENDBRANCH   2  10
TORSDOF 3
