REMARK  2 active torsions:
REMARK  status: ('A' for Active; 'I' for Inactive)
REMARK    1  A    between atoms: C3_3  and  O3_11 
REMARK    2  A    between atoms: C6_6  and  C7_7 
ROOT
HETATM    1  C1  UNL     1      -0.479   1.621  -0.235  1.00  0.00     0.004 A 
HETATM    2  C2  UNL     1      -1.139   0.379  -0.235  1.00  0.00     0.000 A 
HETATM    3  C3  UNL     1      -0.395  -0.816  -0.235  1.00  0.00     0.086 A 
HETATM    4  C4  UNL     1       1.014  -0.762  -0.235  1.00  0.00     0.000 A 
HETATM    5  C5  UNL     1       1.672   0.483  -0.235  1.00  0.00     0.004 A 
HETATM    6  C6  UNL     1       0.926   1.674  -0.235  1.00  0.00     0.064 A 
HETATM    7  C8  UNL     1       1.814  -2.016  -0.235  1.00  0.00     0.033 C 
HETATM    8  C10 UNL     1      -2.625   0.338  -0.235  1.00  0.00     0.033 C 
ENDROOT
BRANCH   6   9
HETATM    9  C7  UNL     1       1.625   2.994  -0.235  1.00  0.00     0.211 C 
HETATM   10  O1  UNL     1       2.832   3.057  -0.235  1.00  0.00    -0.644 OA
HETATM   11  O2  UNL     1       0.828   4.059  -0.235  1.00  0.00    -0.644 OA
ENDBRANCH   6   9
BRANCH   3  12
HETATM   12  O3  UNL     1      -1.012  -1.982  -0.235  1.00  0.00    -0.329 OA
HETATM   13  C9  UNL     1      -1.215  -2.629   1.011  1.00  0.00     0.181 C 
ENDBRANCH   3  12
TORSDOF 2
