REMARK  2 active torsions:
REMARK  status: ('A' for Active; 'I' for Inactive)
REMARK    1  A    between atoms: C1_1  and  C2_2 
REMARK    2  A    between atoms: C3_3  and  C4_4 
ROOT
HETATM    1  C1  UNL     1      -0.650   0.678   0.889  1.00  0.00     0.022 A 
HETATM    2  C7  UNL     1      -1.693   1.690   0.471  1.00  0.00     0.004 A 
HETATM    3  C8  UNL     1      -2.055   0.219   0.529  1.00  0.00     0.004 A 
HETATM    4  C9  UNL     1      -2.955  -0.238   1.668  1.00  0.00     0.000 C 
HETATM    5  C10 UNL     1      -2.277  -0.504  -0.795  1.00  0.00     0.000 C 
ENDROOT
BRANCH   1   6
HETATM    6  C2  UNL     1       0.514   0.387  -0.039  1.00  0.00    -0.027 C 
HETATM    7  C3  UNL     1       1.631  -0.184   0.441  1.00  0.00    -0.009 C 
BRANCH   7   8
HETATM    8  C4  UNL     1       2.766  -0.471  -0.444  1.00  0.00    -0.022 C 
HETATM    9  C5  UNL     1       2.703  -0.143  -1.910  1.00  0.00     0.031 C 
HETATM   10  C6  UNL     1       3.885  -1.033   0.041  1.00  0.00    -0.004 C 
ENDBRANCH   7   8
ENDBRANCH   1   6
TORSDOF 2
