REMARK  2 active torsions:
REMARK  status: ('A' for Active; 'I' for Inactive)
REMARK    1  A    between atoms: S1_2  and  S2_3 
REMARK    2  A    between atoms: S2_3  and  S3_4 
ROOT
HETATM    1  S2  UNL     1       1.236  -0.140  -0.681  1.00  0.00    -0.023 SA
ENDROOT
BRANCH   1   2
HETATM    2  S1  UNL     1       0.424  -1.254   0.821  1.00  0.00    -0.070 SA
HETATM    3  C1  UNL     1       1.027  -0.426   2.317  1.00  0.00     0.082 C 
ENDBRANCH   1   2
BRANCH   1   4
HETATM    4  S3  UNL     1      -0.256   1.229  -0.930  1.00  0.00    -0.070 SA
HETATM    5  C2  UNL     1      -1.322   0.451  -2.176  1.00  0.00     0.082 C 
ENDBRANCH   1   4
TORSDOF 2
