REMARK  3 active torsions:
REMARK  status: ('A' for Active; 'I' for Inactive)
REMARK    1  A    between atoms: C7_7  and  C9_10 
REMARK    2  A    between atoms: C9_10  and  C10_11 
REMARK    3  A    between atoms: C10_11  and  N2_12 
ROOT
HETATM    1  C1  UNL     1      -3.186   1.297  -0.789  1.00  0.00     0.000 A 
HETATM    2  C2  UNL     1      -3.207   2.715  -0.877  1.00  0.00     0.002 A 
HETATM    3  C3  UNL     1      -1.992   3.445  -0.916  1.00  0.00     0.019 A 
HETATM    4  C4  UNL     1      -0.776   2.729  -0.867  1.00  0.00     0.081 A 
HETATM    5  C5  UNL     1      -0.750   1.359  -0.783  1.00  0.00     0.015 A 
HETATM    6  C6  UNL     1      -1.947   0.604  -0.742  1.00  0.00     0.001 A 
HETATM    7  C7  UNL     1       0.512   0.869  -0.746  1.00  0.00     0.000 A 
HETATM    8  C8  UNL     1       1.355   1.992  -0.811  1.00  0.00     0.095 A 
HETATM    9  N1  UNL     1       0.545   3.152  -0.887  1.00  0.00    -0.244 NA
ENDROOT
BRANCH   7  10
HETATM   10  C9  UNL     1       0.941  -0.582  -0.654  1.00  0.00     0.063 C 
BRANCH  10  11
HETATM   11  C10 UNL     1       0.771  -1.121   0.766  1.00  0.00     0.255 C 
BRANCH  11  12
HETATM   12  N2  UNL     1       0.965  -2.563   0.789  1.00  0.00     0.142 N 
HETATM   13  C11 UNL     1       2.369  -2.891   0.609  1.00  0.00     0.285 C 
HETATM   14  C12 UNL     1       0.467  -3.121   2.035  1.00  0.00     0.285 C 
ENDBRANCH  11  12
ENDBRANCH  10  11
ENDBRANCH   7  10
TORSDOF 3
