REMARK  3 active torsions:
REMARK  status: ('A' for Active; 'I' for Inactive)
REMARK    1  A    between atoms: C7_7  and  C9_10 
REMARK    2  A    between atoms: C9_10  and  C10_11 
REMARK    3  A    between atoms: C10_11  and  N2_12 
ROOT
HETATM    1  C1  UNL     1      -3.244   1.422  -0.807  1.00  0.00     0.000 A 
HETATM    2  C2  UNL     1      -3.268   2.840  -0.893  1.00  0.00     0.002 A 
HETATM    3  C3  UNL     1      -2.053   3.572  -0.934  1.00  0.00     0.019 A 
HETATM    4  C4  UNL     1      -0.834   2.854  -0.883  1.00  0.00     0.081 A 
HETATM    5  C5  UNL     1      -0.809   1.484  -0.799  1.00  0.00     0.015 A 
HETATM    6  C6  UNL     1      -2.008   0.731  -0.758  1.00  0.00     0.001 A 
HETATM    7  C7  UNL     1       0.451   0.994  -0.762  1.00  0.00     0.001 A 
HETATM    8  C8  UNL     1       1.297   2.117  -0.828  1.00  0.00     0.095 A 
HETATM    9  N1  UNL     1       0.484   3.277  -0.902  1.00  0.00    -0.244 NA
ENDROOT
BRANCH   7  10
HETATM   10  C9  UNL     1       0.881  -0.457  -0.672  1.00  0.00     0.071 C 
BRANCH  10  11
HETATM   11  C10 UNL     1       0.711  -0.996   0.750  1.00  0.00     0.291 C 
BRANCH  11  12
HETATM   12  N2  UNL     1       1.041  -2.484   0.857  1.00  0.00     0.070 N 
HETATM   13  C11 UNL     1       2.504  -2.791   0.533  1.00  0.00     0.329 C 
HETATM   14  C12 UNL     1       0.594  -3.094   2.188  1.00  0.00     0.329 C 
HETATM   15  O1  UNL     1       0.197  -3.221  -0.016  1.00  0.00    -0.061 OA
ENDBRANCH  11  12
ENDBRANCH  10  11
ENDBRANCH   7  10
TORSDOF 3
