REMARK  2 active torsions:
REMARK  status: ('A' for Active; 'I' for Inactive)
REMARK    1  A    between atoms: C9_10  and  C19_21 
REMARK    2  A    between atoms: C19_21  and  O1_22 
ROOT
HETATM    1  C1  UNL     1      -4.670   0.744   1.488  1.00  0.00    -0.000 A 
HETATM    2  C2  UNL     1      -5.059  -0.529   1.008  1.00  0.00     0.002 A 
HETATM    3  C3  UNL     1      -4.176  -1.273   0.193  1.00  0.00     0.019 A 
HETATM    4  C4  UNL     1      -2.918  -0.709  -0.121  1.00  0.00     0.077 A 
HETATM    5  C5  UNL     1      -2.518   0.574   0.277  1.00  0.00     0.002 A 
HETATM    6  C6  UNL     1      -3.410   1.285   1.123  1.00  0.00    -0.002 A 
HETATM    7  C7  UNL     1      -1.205   0.945  -0.336  1.00  0.00     0.087 C 
HETATM    8  C8  UNL     1      -0.711  -0.518  -0.727  1.00  0.00     0.065 C 
HETATM    9  N1  UNL     1      -1.830  -1.394  -0.850  1.00  0.00    -0.250 NA
HETATM   10  C9  UNL     1       0.623  -0.935  -0.789  1.00  0.00     0.058 C 
HETATM   11  C10 UNL     1       1.814   0.063  -0.500  1.00  0.00     0.051 C 
HETATM   12  C11 UNL     1       1.109   1.275  -0.895  1.00  0.00     0.043 C 
HETATM   13  C12 UNL     1       0.045   1.225   0.377  1.00  0.00     0.229 C 
HETATM   14  N2  UNL     1       0.324   2.340   1.137  1.00  0.00     0.140 N 
HETATM   15  C13 UNL     1      -0.258   3.283   0.152  1.00  0.00     0.251 C 
HETATM   16  C14 UNL     1      -1.178   2.449  -0.838  1.00  0.00     0.047 C 
HETATM   17  C15 UNL     1       1.814   2.004   1.432  1.00  0.00     0.273 C 
HETATM   18  C16 UNL     1       2.348   0.582   0.896  1.00  0.00    -0.011 C 
HETATM   19  C17 UNL     1       3.219  -0.141   1.625  1.00  0.00    -0.032 C 
HETATM   20  C18 UNL     1       3.727  -1.477   1.150  1.00  0.00     0.030 C 
ENDROOT
BRANCH  10  21
HETATM   21  C19 UNL     1       0.986  -2.322  -1.123  1.00  0.00     0.293 C 
HETATM   22  O2  UNL     1       0.441  -3.248  -0.568  1.00  0.00    -0.259 OA
BRANCH  21  23
HETATM   23  O1  UNL     1       1.928  -2.467  -2.051  1.00  0.00    -0.296 OA
HETATM   24  C20 UNL     1       2.225  -3.830  -2.313  1.00  0.00     0.185 C 
ENDBRANCH  21  23
ENDBRANCH  10  21
TORSDOF 2
