REMARK  1 active torsions:
REMARK  status: ('A' for Active; 'I' for Inactive)
REMARK    1  A    between atoms: C9_10  and  C11_13 
ROOT
HETATM    1  C1  UNL     1       7.286   1.996   0.148  1.00  0.00     0.023 A 
HETATM    2  C2  UNL     1       7.249   0.709   0.680  1.00  0.00    -0.020 A 
HETATM    3  C3  UNL     1       5.999   0.103   0.865  1.00  0.00    -0.001 A 
HETATM    4  C4  UNL     1       4.825   0.772   0.512  1.00  0.00     0.044 A 
HETATM    5  C5  UNL     1       4.888   2.068  -0.039  1.00  0.00     0.067 A 
HETATM    6  C6  UNL     1       6.127   2.701  -0.212  1.00  0.00     0.134 A 
HETATM    7  O1  UNL     1       6.254   3.949  -0.736  1.00  0.00    -0.190 OA
HETATM    8  C7  UNL     1       3.632   2.748  -0.450  1.00  0.00     0.198 C 
HETATM    9  C8  UNL     1       2.384   1.944  -0.405  1.00  0.00     0.045 C 
HETATM   10  C9  UNL     1       2.308   0.708   0.132  1.00  0.00     0.044 C 
HETATM   11  C10 UNL     1       3.528   0.081   0.705  1.00  0.00     0.196 C 
HETATM   12  O2  UNL     1       3.445  -1.006   1.268  1.00  0.00    -0.287 OA
HETATM   13  O6  UNL     1       3.582   3.901  -0.866  1.00  0.00    -0.286 OA
HETATM   14  C22 UNL     1       8.525  -0.025   1.009  1.00  0.00     0.031 C 
ENDROOT
BRANCH  10  15
HETATM   15  C11 UNL     1       1.038  -0.080   0.105  1.00  0.00     0.025 A 
HETATM   16  C12 UNL     1      -0.142   0.467   0.626  1.00  0.00    -0.020 A 
HETATM   17  C13 UNL     1      -0.187   1.804   1.331  1.00  0.00     0.031 C 
HETATM   18  C14 UNL     1      -1.322  -0.290   0.564  1.00  0.00    -0.001 A 
HETATM   19  C15 UNL     1      -1.340  -1.561  -0.008  1.00  0.00     0.044 A 
HETATM   20  C16 UNL     1      -0.152  -2.099  -0.543  1.00  0.00     0.067 A 
HETATM   21  C21 UNL     1      -2.618  -2.318  -0.030  1.00  0.00     0.196 A 
HETATM   22  C17 UNL     1       1.038  -1.357  -0.502  1.00  0.00     0.134 A 
HETATM   23  C18 UNL     1      -0.169  -3.457  -1.156  1.00  0.00     0.198 A 
HETATM   24  O3  UNL     1       2.194  -1.867  -1.010  1.00  0.00    -0.190 OA
HETATM   25  C19 UNL     1      -1.454  -4.199  -1.133  1.00  0.00     0.045 A 
HETATM   26  O5  UNL     1       0.804  -3.994  -1.677  1.00  0.00    -0.286 OA
HETATM   27  C20 UNL     1      -2.582  -3.677  -0.617  1.00  0.00     0.045 A 
HETATM   28  O4  UNL     1      -3.669  -1.866   0.415  1.00  0.00    -0.287 OA
ENDBRANCH  10  15
TORSDOF 1
