REMARK  3 active torsions:
REMARK  status: ('A' for Active; 'I' for Inactive)
REMARK    1  A    between atoms: C12_14  and  C13_15 
REMARK    2  A    between atoms: C12_14  and  C14_17 
REMARK    3  A    between atoms: C14_17  and  O2_18 
ROOT
HETATM    1  C1  UNL     1       5.313   0.215   1.145  1.00  0.00     0.000 A 
HETATM    2  C2  UNL     1       5.824  -0.104  -0.142  1.00  0.00     0.002 A 
HETATM    3  C3  UNL     1       4.959  -0.588  -1.158  1.00  0.00     0.019 A 
HETATM    4  C4  UNL     1       3.586  -0.742  -0.853  1.00  0.00     0.081 A 
HETATM    5  C5  UNL     1       3.092  -0.438   0.393  1.00  0.00     0.015 A 
HETATM    6  C6  UNL     1       3.932   0.049   1.424  1.00  0.00     0.001 A 
HETATM    7  C7  UNL     1       1.762  -0.660   0.473  1.00  0.00    -0.003 A 
HETATM    8  C8  UNL     1       1.373  -1.123  -0.785  1.00  0.00     0.086 A 
HETATM    9  N1  UNL     1       2.514  -1.184  -1.621  1.00  0.00    -0.248 NA
HETATM   10  C9  UNL     1      -0.068  -1.475  -1.135  1.00  0.00     0.259 C 
HETATM   11  N2  UNL     1      -0.822  -1.766   0.123  1.00  0.00     0.144 N 
HETATM   12  C10 UNL     1      -0.699  -0.607   1.070  1.00  0.00     0.236 C 
HETATM   13  C11 UNL     1       0.764  -0.500   1.608  1.00  0.00     0.061 C 
HETATM   14  C12 UNL     1      -1.275   0.697   0.387  1.00  0.00     0.142 C 
HETATM   15  C16 UNL     1      -1.867   0.328  -1.002  1.00  0.00     0.036 C 
HETATM   16  C17 UNL     1      -0.766  -0.301  -1.889  1.00  0.00     0.044 C 
HETATM   17  C18 UNL     1      -2.865  -0.789  -0.775  1.00  0.00    -0.015 C 
HETATM   18  C19 UNL     1      -2.246  -2.035  -0.170  1.00  0.00     0.273 C 
HETATM   19  C20 UNL     1      -4.174  -0.678  -1.082  1.00  0.00    -0.032 C 
HETATM   20  C21 UNL     1      -5.139  -1.811  -0.844  1.00  0.00     0.030 C 
ENDROOT
BRANCH  14  21
HETATM   21  C13 UNL     1      -2.365   1.318   1.274  1.00  0.00     0.194 C 
HETATM   22  O1  UNL     1      -2.889   2.443   0.606  1.00  0.00    -0.220 OA
ENDBRANCH  14  21
BRANCH  14  23
HETATM   23  C14 UNL     1      -0.248   1.791   0.199  1.00  0.00     0.276 C 
HETATM   24  O3  UNL     1       0.115   2.121  -0.906  1.00  0.00    -0.264 OA
BRANCH  23  25
HETATM   25  O2  UNL     1       0.205   2.342   1.322  1.00  0.00    -0.299 OA
HETATM   26  C15 UNL     1       1.168   3.355   1.078  1.00  0.00     0.184 C 
ENDBRANCH  23  25
ENDBRANCH  14  23
TORSDOF 3
