REMARK  3 active torsions:
REMARK  status: ('A' for Active; 'I' for Inactive)
REMARK    1  A    between atoms: C2_2  and  O4_14 
REMARK    2  A    between atoms: C6_6  and  C7_7 
REMARK    3  A    between atoms: C7_7  and  C8_8 
ROOT
HETATM    1  C1  UNL     1       1.104   0.988  -0.076  1.00  0.00     0.029 A 
HETATM    2  C2  UNL     1       0.072   1.959  -0.123  1.00  0.00     0.119 A 
HETATM    3  C3  UNL     1      -1.287   1.559   0.045  1.00  0.00     0.151 A 
HETATM    4  C4  UNL     1      -1.576   0.213   0.254  1.00  0.00     0.038 A 
HETATM    5  C5  UNL     1      -0.547  -0.758   0.302  1.00  0.00     0.003 A 
HETATM    6  C6  UNL     1       0.795  -0.369   0.138  1.00  0.00     0.037 A 
HETATM    7  C10 UNL     1      -3.055   0.100   0.388  1.00  0.00     0.211 A 
HETATM    8  O2  UNL     1      -3.504   1.461   0.242  1.00  0.00    -0.211 OA
HETATM    9  O3  UNL     1      -2.373   2.336   0.027  1.00  0.00    -0.193 OA
ENDROOT
BRANCH   6  10
HETATM   10  C7  UNL     1       1.875  -1.377   0.189  1.00  0.00     0.173 C 
HETATM   11  O1  UNL     1       3.059  -1.211   0.363  1.00  0.00    -0.291 OA
BRANCH  10  12
HETATM   12  C8  UNL     1       1.307  -2.758  -0.016  1.00  0.00     0.069 C 
HETATM   13  C9  UNL     1       2.397  -3.811  -0.225  1.00  0.00     0.009 C 
ENDBRANCH  10  12
ENDBRANCH   6  10
BRANCH   2  14
HETATM   14  O4  UNL     1       0.512   3.207  -0.330  1.00  0.00    -0.326 OA
HETATM   15  C11 UNL     1      -0.449   4.250  -0.393  1.00  0.00     0.181 C 
ENDBRANCH   2  14
TORSDOF 3
