REMARK  7 active torsions:
REMARK  status: ('A' for Active; 'I' for Inactive)
REMARK    1  A    between atoms: C5_5  and  C7_7 
REMARK    2  A    between atoms: C8_8  and  C9_9 
REMARK    3  A    between atoms: C9_9  and  C10_10 
REMARK    4  A    between atoms: C10_10  and  C11_11 
REMARK    5  A    between atoms: C11_11  and  C12_12 
REMARK    6  A    between atoms: C12_12  and  C13_13 
REMARK    7  A    between atoms: C13_13  and  C14_14 
ROOT
HETATM    1  C10 UNL     1       0.760   0.289  -0.131  1.00  0.00     0.038 C 
ENDROOT
BRANCH   1   2
HETATM    2  C9  UNL     1       1.207   1.750  -0.102  1.00  0.00     0.029 C 
BRANCH   2   3
HETATM    3  C8  UNL     1       1.299   2.295   1.299  1.00  0.00    -0.026 C 
HETATM    4  C7  UNL     1       0.438   3.254   1.672  1.00  0.00    -0.005 C 
BRANCH   4   5
HETATM    5  C5  UNL     1       0.526   3.797   3.059  1.00  0.00    -0.000 A 
HETATM    6  C4  UNL     1       1.766   3.834   3.725  1.00  0.00    -0.000 A 
HETATM    7  C3  UNL     1       1.848   4.346   5.031  1.00  0.00    -0.000 A 
HETATM    8  C2  UNL     1       0.692   4.820   5.674  1.00  0.00    -0.000 A 
HETATM    9  C1  UNL     1      -0.547   4.783   5.012  1.00  0.00    -0.000 A 
HETATM   10  C6  UNL     1      -0.631   4.273   3.705  1.00  0.00    -0.000 A 
ENDBRANCH   4   5
ENDBRANCH   2   3
ENDBRANCH   1   2
BRANCH   1  11
HETATM   11  C11 UNL     1       0.625  -0.260  -1.553  1.00  0.00     0.153 C 
HETATM   12  O1  UNL     1       1.914  -0.330  -2.121  1.00  0.00    -0.223 OA
BRANCH  11  13
HETATM   13  C12 UNL     1       0.010  -1.658  -1.590  1.00  0.00     0.038 C 
BRANCH  13  14
HETATM   14  C13 UNL     1      -0.322  -2.119  -3.008  1.00  0.00     0.029 C 
BRANCH  14  15
HETATM   15  C14 UNL     1      -1.019  -3.434  -3.008  1.00  0.00    -0.022 A 
HETATM   16  C15 UNL     1      -2.424  -3.484  -3.008  1.00  0.00    -0.004 A 
HETATM   17  C16 UNL     1      -3.082  -4.727  -3.008  1.00  0.00    -0.000 A 
HETATM   18  C17 UNL     1      -2.336  -5.918  -3.008  1.00  0.00    -0.000 A 
HETATM   19  C18 UNL     1      -0.931  -5.867  -3.008  1.00  0.00    -0.000 A 
HETATM   20  C19 UNL     1      -0.273  -4.625  -3.008  1.00  0.00    -0.004 A 
ENDBRANCH  14  15
ENDBRANCH  13  14
ENDBRANCH  11  13
ENDBRANCH   1  11
TORSDOF 7
