REMARK  4 active torsions:
REMARK  status: ('A' for Active; 'I' for Inactive)
REMARK    1  A    between atoms: C15_15  and  C18_18 
REMARK    2  A    between atoms: C18_18  and  C19_19 
REMARK    3  A    between atoms: C19_19  and  C20_20 
REMARK    4  A    between atoms: C20_20  and  C21_21 
ROOT
HETATM    1  C1  UNL     1       5.467  -1.109  -1.477  1.00  0.00     0.065 C 
HETATM    2  C2  UNL     1       5.977   0.244  -1.908  1.00  0.00     0.150 C 
HETATM    3  C3  UNL     1       5.221   1.459  -1.406  1.00  0.00     0.051 C 
HETATM    4  C4  UNL     1       3.686   1.250  -1.559  1.00  0.00     0.006 C 
HETATM    5  C5  UNL     1       3.156  -0.100  -0.986  1.00  0.00     0.001 C 
HETATM    6  C6  UNL     1       3.949  -1.246  -1.656  1.00  0.00     0.008 C 
HETATM    7  C7  UNL     1       1.631  -0.230  -1.301  1.00  0.00     0.000 C 
HETATM    8  C8  UNL     1       0.803   0.992  -0.797  1.00  0.00     0.000 C 
HETATM    9  C9  UNL     1       1.381   2.305  -1.359  1.00  0.00     0.000 C 
HETATM   10  C10 UNL     1       2.871   2.451  -1.033  1.00  0.00     0.000 C 
HETATM   11  C11 UNL     1      -0.662   0.803  -1.283  1.00  0.00     0.000 C 
HETATM   12  C12 UNL     1      -1.244  -0.496  -0.705  1.00  0.00     0.002 C 
HETATM   13  C13 UNL     1      -0.476  -1.711  -1.227  1.00  0.00     0.000 C 
HETATM   14  C14 UNL     1       1.004  -1.568  -0.830  1.00  0.00     0.000 C 
HETATM   15  C15 UNL     1      -2.725  -0.426  -1.074  1.00  0.00     0.028 C 
HETATM   16  C16 UNL     1      -3.053   1.059  -0.867  1.00  0.00     0.002 C 
HETATM   17  C17 UNL     1      -1.711   1.795  -0.768  1.00  0.00     0.000 C 
HETATM   18  C26 UNL     1      -0.773   0.816  -2.818  1.00  0.00     0.000 C 
HETATM   19  C27 UNL     1       0.791   1.070   0.742  1.00  0.00     0.000 C 
HETATM   20  C28 UNL     1       3.389  -0.176   0.533  1.00  0.00     0.000 C 
HETATM   21  C29 UNL     1       5.619   1.693   0.055  1.00  0.00     0.007 C 
HETATM   22  C30 UNL     1       5.654   2.688  -2.223  1.00  0.00     0.007 C 
HETATM   23  O2  UNL     1       6.947   0.336  -2.625  1.00  0.00    -0.296 OA
ENDROOT
BRANCH  15  24
HETATM   24  C18 UNL     1      -3.576  -1.348  -0.209  1.00  0.00     0.127 C 
HETATM   25  O1  UNL     1      -3.264  -2.682  -0.543  1.00  0.00    -0.226 OA
HETATM   26  C25 UNL     1      -5.057  -1.104  -0.506  1.00  0.00     0.033 C 
BRANCH  24  27
HETATM   27  C19 UNL     1      -3.227  -1.131   1.264  1.00  0.00     0.035 C 
BRANCH  27  28
HETATM   28  C20 UNL     1      -4.353  -1.551   2.207  1.00  0.00     0.028 C 
BRANCH  28  29
HETATM   29  C21 UNL     1      -3.953  -1.465   3.656  1.00  0.00    -0.035 C 
HETATM   30  C22 UNL     1      -4.922  -1.418   4.586  1.00  0.00    -0.048 C 
HETATM   31  C23 UNL     1      -4.523  -1.258   6.029  1.00  0.00     0.026 C 
HETATM   32  C24 UNL     1      -6.354  -1.525   4.139  1.00  0.00     0.026 C 
ENDBRANCH  28  29
ENDBRANCH  27  28
ENDBRANCH  24  27
ENDBRANCH  15  24
TORSDOF 4
