REMARK  6 active torsions:
REMARK  status: ('A' for Active; 'I' for Inactive)
REMARK    1  A    between atoms: C4_4  and  C22_25 
REMARK    2  A    between atoms: C13_15  and  C16_19 
REMARK    3  A    between atoms: C14_16  and  C15_17 
REMARK    4  A    between atoms: C16_19  and  C19_22 
REMARK    5  A    between atoms: C33_38  and  C40_45 
REMARK    6  A    between atoms: C35_40  and  C36_41 
ROOT
HETATM    1  C1  UNL     1      -3.055   5.039  -0.309  1.00  0.00     0.021 C 
HETATM    2  C2  UNL     1      -4.348   4.864  -0.053  1.00  0.00     0.029 C 
HETATM    3  C3  UNL     1      -4.885   3.567   0.423  1.00  0.00     0.131 C 
HETATM    4  C4  UNL     1      -4.080   2.576   0.901  1.00  0.00     0.030 C 
HETATM    5  C5  UNL     1      -2.447   2.950   0.749  1.00  0.00     0.017 C 
HETATM    6  C6  UNL     1      -2.132   3.986   0.022  1.00  0.00     0.081 C 
HETATM    7  N1  UNL     1      -0.859   3.739  -0.570  1.00  0.00    -0.248 NA
HETATM    8  C7  UNL     1      -0.400   2.412  -0.175  1.00  0.00     0.086 C 
HETATM    9  C8  UNL     1      -1.144   2.015   0.802  1.00  0.00    -0.003 C 
HETATM   10  C9  UNL     1      -0.818   0.738   1.563  1.00  0.00     0.065 C 
HETATM   11  C10 UNL     1       0.120  -0.350   0.839  1.00  0.00     0.245 C 
HETATM   12  N2  UNL     1       1.285   0.485   0.291  1.00  0.00     0.145 N 
HETATM   13  C11 UNL     1       0.711   1.490  -0.783  1.00  0.00     0.263 C 
HETATM   14  C12 UNL     1       0.127   0.543  -2.076  1.00  0.00     0.065 C 
HETATM   15  C13 UNL     1      -0.873  -0.721  -1.756  1.00  0.00    -0.028 C 
HETATM   16  C14 UNL     1      -0.559  -1.339  -0.325  1.00  0.00     0.015 C 
HETATM   17  C21 UNL     1       2.354  -0.340  -0.303  1.00  0.00     0.286 C 
HETATM   18  O4  UNL     1      -6.162   3.378   0.175  1.00  0.00    -0.190 OA
ENDROOT
BRANCH   4  19
HETATM   19  C22 UNL     1      -4.590   0.981   1.246  1.00  0.00     0.042 C 
HETATM   20  C23 UNL     1      -3.742   0.178   0.716  1.00  0.00     0.196 C 
HETATM   21  C24 UNL     1      -3.645  -1.207   0.789  1.00  0.00     0.044 C 
HETATM   22  O3  UNL     1      -3.067   0.706  -0.035  1.00  0.00    -0.287 OA
HETATM   23  C25 UNL     1      -4.585  -1.942   1.171  1.00  0.00     0.022 C 
HETATM   24  C26 UNL     1      -5.667  -1.266   1.363  1.00  0.00     0.081 C 
HETATM   25  C27 UNL     1      -5.799   0.065   1.505  1.00  0.00     0.018 C 
HETATM   26  N3  UNL     1      -6.746  -1.879   1.205  1.00  0.00    -0.248 NA
HETATM   27  C28 UNL     1      -7.196   0.252   1.481  1.00  0.00    -0.003 C 
HETATM   28  C29 UNL     1      -7.669  -1.012   1.155  1.00  0.00     0.084 C 
HETATM   29  C32 UNL     1      -8.131   1.549   1.596  1.00  0.00     0.059 C 
HETATM   30  C30 UNL     1      -9.082  -1.341   0.725  1.00  0.00     0.233 C 
HETATM   31  N4  UNL     1      -9.809  -0.316   1.436  1.00  0.00     0.015 N 
HETATM   32  C39 UNL     1      -9.428  -1.112  -0.972  1.00  0.00     0.042 C 
HETATM   33  C31 UNL     1      -9.162   0.984   0.755  1.00  0.00     0.201 C 
HETATM   34  C38 UNL     1     -11.219  -0.488   1.250  1.00  0.00     0.183 C 
HETATM   35  C41 UNL     1      -9.687  -0.442   2.958  1.00  0.00     0.256 C 
HETATM   36  C33 UNL     1     -10.001   1.529  -0.333  1.00  0.00     0.067 C 
HETATM   37  C34 UNL     1     -10.536   0.118  -1.007  1.00  0.00     0.030 C 
HETATM   38  C35 UNL     1     -11.518  -0.446  -0.128  1.00  0.00    -0.001 C 
BRANCH  36  39
HETATM   39  C40 UNL     1      -9.059   2.324  -1.302  1.00  0.00     0.184 C 
HETATM   40  O2  UNL     1      -8.550   3.516  -0.690  1.00  0.00    -0.221 OA
ENDBRANCH  36  39
BRANCH  38  41
HETATM   41  C36 UNL     1     -12.657  -0.952  -0.578  1.00  0.00    -0.029 C 
HETATM   42  C37 UNL     1     -13.617  -1.570   0.401  1.00  0.00     0.030 C 
ENDBRANCH  38  41
ENDBRANCH   4  19
BRANCH  16  43
HETATM   43  C15 UNL     1      -0.089  -2.796  -0.376  1.00  0.00     0.206 C 
HETATM   44  O1  UNL     1      -0.643  -3.370   0.883  1.00  0.00    -0.216 OA
ENDBRANCH  16  43
BRANCH  15  45
HETATM   45  C16 UNL     1      -2.405  -1.040  -2.360  1.00  0.00    -0.031 C 
HETATM   46  C17 UNL     1      -2.879  -2.307  -2.150  1.00  0.00    -0.030 C 
HETATM   47  C18 UNL     1      -4.232  -2.941  -2.528  1.00  0.00     0.030 C 
BRANCH  45  48
HETATM   48  C19 UNL     1      -3.244   0.115  -3.059  1.00  0.00     0.026 C 
HETATM   49  C20 UNL     1      -4.803   0.208  -2.740  1.00  0.00     0.005 C 
ENDBRANCH  45  48
ENDBRANCH  15  45
TORSDOF 6
