REMARK  7 active torsions:
REMARK  status: ('A' for Active; 'I' for Inactive)
REMARK    1  A    between atoms: C4_4  and  C21_24 
REMARK    2  A    between atoms: C10_10  and  O1_15 
REMARK    3  A    between atoms: O1_15  and  C15_16 
REMARK    4  A    between atoms: C15_16  and  C16_17 
REMARK    5  A    between atoms: C16_17  and  C17_18 
REMARK    6  A    between atoms: C21_24  and  O4_25 
REMARK    7  A    between atoms: O4_25  and  C22_26 
ROOT
HETATM    1  C1  UNL     1       2.346  -0.547   0.340  1.00  0.00     0.086 C 
HETATM    2  C2  UNL     1       2.897   0.150   1.619  1.00  0.00     0.191 C 
HETATM    3  C3  UNL     1       3.067   1.678   1.430  1.00  0.00     0.063 C 
HETATM    4  C4  UNL     1       2.156   2.410   0.449  1.00  0.00    -0.015 C 
HETATM    5  C5  UNL     1       0.916   2.027   0.063  1.00  0.00    -0.030 C 
HETATM    6  C6  UNL     1       0.188   0.799   0.572  1.00  0.00     0.052 C 
HETATM    7  C7  UNL     1       0.805  -0.570   0.141  1.00  0.00     0.137 C 
HETATM    8  C8  UNL     1       0.106  -1.764   0.881  1.00  0.00     0.031 C 
HETATM    9  C9  UNL     1      -1.271  -1.387   1.475  1.00  0.00     0.030 C 
HETATM   10  C10 UNL     1      -2.105  -0.486   0.529  1.00  0.00     0.102 A 
HETATM   11  C11 UNL     1      -1.297   0.756   0.156  1.00  0.00     0.034 A 
HETATM   12  C12 UNL     1      -2.443   0.897   1.113  1.00  0.00     0.026 A 
HETATM   13  C13 UNL     1      -3.715   1.539   0.576  1.00  0.00     0.002 C 
HETATM   14  C14 UNL     1      -2.158   1.262   2.570  1.00  0.00     0.002 C 
HETATM   15  C20 UNL     1       0.012  -3.063   0.059  1.00  0.00     0.003 C 
HETATM   16  O3  UNL     1       0.588  -0.719  -1.262  1.00  0.00    -0.225 OA
HETATM   17  C24 UNL     1       4.172  -0.621   1.863  1.00  0.00     0.197 C 
HETATM   18  C25 UNL     1       4.121  -1.867   1.109  1.00  0.00     0.011 C 
HETATM   19  C26 UNL     1       3.074  -1.873   0.275  1.00  0.00    -0.022 C 
HETATM   20  C27 UNL     1       5.106  -2.998   1.250  1.00  0.00     0.034 C 
HETATM   21  O6  UNL     1       5.086  -0.266   2.570  1.00  0.00    -0.289 OA
HETATM   22  O7  UNL     1       2.088  -0.102   2.756  1.00  0.00    -0.217 OA
ENDROOT
BRANCH  10  23
HETATM   23  O1  UNL     1      -2.809  -1.508  -0.164  1.00  0.00    -0.307 OA
BRANCH  23  24
HETATM   24  C15 UNL     1      -3.477  -1.039  -1.215  1.00  0.00     0.271 C 
HETATM   25  O2  UNL     1      -3.160  -0.047  -1.826  1.00  0.00    -0.264 OA
BRANCH  24  26
HETATM   26  C16 UNL     1      -4.689  -1.840  -1.611  1.00  0.00     0.086 C 
HETATM   27  C19 UNL     1      -5.947  -0.979  -1.715  1.00  0.00     0.010 C 
BRANCH  26  28
HETATM   28  C17 UNL     1      -4.447  -2.684  -2.861  1.00  0.00     0.010 C 
HETATM   29  C18 UNL     1      -3.271  -3.650  -2.703  1.00  0.00     0.001 C 
ENDBRANCH  26  28
ENDBRANCH  24  26
ENDBRANCH  23  24
ENDBRANCH  10  23
BRANCH   4  30
HETATM   30  C21 UNL     1       2.721   3.676  -0.144  1.00  0.00     0.174 C 
BRANCH  30  31
HETATM   31  O4  UNL     1       3.150   3.424  -1.475  1.00  0.00    -0.297 OA
BRANCH  31  32
HETATM   32  C22 UNL     1       3.418   4.543  -2.141  1.00  0.00     0.273 C 
HETATM   33  C23 UNL     1       4.227   5.561  -1.383  1.00  0.00     0.106 C 
HETATM   34  O5  UNL     1       3.053   4.756  -3.273  1.00  0.00    -0.264 OA
ENDBRANCH  31  32
ENDBRANCH  30  31
ENDBRANCH   4  30
TORSDOF 7
