REMARK  6 active torsions:
REMARK  status: ('A' for Active; 'I' for Inactive)
REMARK    1  A    between atoms: C5_6  and  O1_7 
REMARK    2  A    between atoms: O1_7  and  C6_8 
REMARK    3  A    between atoms: C6_8  and  C7_9 
REMARK    4  A    between atoms: C11_14  and  O3_16 
REMARK    5  A    between atoms: O3_16  and  C13_17 
REMARK    6  A    between atoms: C13_17  and  C14_18 
ROOT
HETATM    1  C1  UNL     1       2.586  -0.559  -1.680  1.00  0.00     0.064 C 
HETATM    2  C2  UNL     1       1.131  -0.799  -2.123  1.00  0.00     0.224 C 
HETATM    3  N1  UNL     1       0.691   0.361  -2.894  1.00  0.00     0.138 N 
HETATM    4  C3  UNL     1       0.451   1.340  -1.838  1.00  0.00     0.249 C 
HETATM    5  C4  UNL     1       1.812   1.869  -1.353  1.00  0.00     0.066 C 
HETATM    6  C5  UNL     1       2.725   0.732  -0.842  1.00  0.00     0.129 C 
HETATM    7  C11 UNL     1      -0.281   0.574  -0.726  1.00  0.00     0.158 C 
HETATM    8  C12 UNL     1       0.176  -0.881  -0.926  1.00  0.00     0.066 C 
HETATM    9  C18 UNL     1      -0.500   0.086  -3.693  1.00  0.00     0.285 C 
ENDROOT
BRANCH   6  10
HETATM   10  O1  UNL     1       2.404   0.447   0.512  1.00  0.00    -0.301 OA
BRANCH  10  11
HETATM   11  C6  UNL     1       3.379  -0.211   1.135  1.00  0.00     0.291 C 
HETATM   12  O2  UNL     1       4.420  -0.529   0.609  1.00  0.00    -0.260 OA
BRANCH  11  13
HETATM   13  C7  UNL     1       3.123  -0.549   2.541  1.00  0.00     0.037 C 
HETATM   14  C8  UNL     1       2.006  -0.182   3.190  1.00  0.00    -0.025 C 
HETATM   15  C9  UNL     1       1.848  -0.582   4.631  1.00  0.00     0.030 C 
HETATM   16  C10 UNL     1       4.160  -1.340   3.289  1.00  0.00     0.036 C 
ENDBRANCH  11  13
ENDBRANCH  10  11
ENDBRANCH   6  10
BRANCH   7  17
HETATM   17  O3  UNL     1      -1.688   0.666  -0.926  1.00  0.00    -0.299 OA
BRANCH  17  18
HETATM   18  C13 UNL     1      -2.377   0.103   0.063  1.00  0.00     0.291 C 
HETATM   19  O4  UNL     1      -1.867  -0.436   1.018  1.00  0.00    -0.260 OA
BRANCH  18  20
HETATM   20  C14 UNL     1      -3.838   0.170  -0.060  1.00  0.00     0.037 C 
HETATM   21  C15 UNL     1      -4.729  -0.449   0.983  1.00  0.00     0.036 C 
HETATM   22  C16 UNL     1      -4.408   0.787  -1.107  1.00  0.00    -0.025 C 
HETATM   23  C17 UNL     1      -5.912   0.828  -1.185  1.00  0.00     0.030 C 
ENDBRANCH  18  20
ENDBRANCH  17  18
ENDBRANCH   7  17
TORSDOF 6
