REMARK  4 active torsions:
REMARK  status: ('A' for Active; 'I' for Inactive)
REMARK    1  A    between atoms: C1_1  and  O4_11 
REMARK    2  A    between atoms: C4_5  and  O2_7 
REMARK    3  A    between atoms: O4_11  and  C8_12 
REMARK    4  A    between atoms: C24_28  and  C25_29 
ROOT
HETATM    1  C8  UNL     1       3.594  -0.236   1.432  1.00  0.00     0.118 C 
HETATM    2  C9  UNL     1       3.057   1.197   1.629  1.00  0.00     0.030 C 
HETATM    3  C10 UNL     1       1.549   1.252   1.949  1.00  0.00     0.003 C 
HETATM    4  C11 UNL     1       0.705   0.238   1.135  1.00  0.00     0.003 C 
HETATM    5  C12 UNL     1       1.189  -1.205   1.520  1.00  0.00     0.003 C 
HETATM    6  C13 UNL     1       2.648  -1.281   2.039  1.00  0.00     0.030 C 
HETATM    7  C14 UNL     1       0.264  -1.867   2.547  1.00  0.00     0.000 C 
HETATM    8  C15 UNL     1      -1.152  -2.053   2.006  1.00  0.00     0.003 C 
HETATM    9  C16 UNL     1      -1.621  -0.885   1.102  1.00  0.00     0.031 C 
HETATM   10  C17 UNL     1      -0.844   0.432   1.387  1.00  0.00     0.033 C 
HETATM   11  C18 UNL     1      -1.488   1.598   0.576  1.00  0.00     0.152 C 
HETATM   12  C19 UNL     1      -3.004   1.723   0.797  1.00  0.00     0.036 C 
HETATM   13  C20 UNL     1      -3.736   0.435   0.381  1.00  0.00     0.032 C 
HETATM   14  C21 UNL     1      -3.168  -0.768   1.168  1.00  0.00     0.127 C 
HETATM   15  C22 UNL     1      -3.770  -0.531   2.564  1.00  0.00     0.031 C 
HETATM   16  C23 UNL     1      -5.111   0.176   2.352  1.00  0.00     0.007 C 
HETATM   17  C24 UNL     1      -5.199   0.547   0.863  1.00  0.00     0.023 C 
HETATM   18  O7  UNL     1      -3.717  -1.979   0.658  1.00  0.00    -0.226 OA
HETATM   19  C29 UNL     1      -3.645   0.250  -1.141  1.00  0.00     0.003 C 
HETATM   20  O8  UNL     1      -0.926   2.844   0.930  1.00  0.00    -0.224 OA
HETATM   21  C30 UNL     1       0.990   0.455  -0.361  1.00  0.00     0.000 C 
ENDROOT
BRANCH   1  22
HETATM   22  O4  UNL     1       3.770  -0.518   0.057  1.00  0.00    -0.333 OA
BRANCH  22  23
HETATM   23  C1  UNL     1       5.045  -0.141  -0.430  1.00  0.00     0.238 C 
HETATM   24  O1  UNL     1       5.154   1.266  -0.633  1.00  0.00    -0.331 OA
HETATM   25  C2  UNL     1       4.313   1.818  -1.645  1.00  0.00     0.151 C 
HETATM   26  C3  UNL     1       4.619   1.150  -3.004  1.00  0.00     0.206 C 
HETATM   27  C7  UNL     1       4.572   3.328  -1.652  1.00  0.00     0.035 C 
HETATM   28  C4  UNL     1       4.508  -0.387  -2.910  1.00  0.00     0.153 C 
HETATM   29  O3  UNL     1       3.705   1.639  -3.969  1.00  0.00    -0.218 OA
HETATM   30  C5  UNL     1       5.361  -0.895  -1.738  1.00  0.00     0.094 C 
BRANCH  28  31
HETATM   31  O2  UNL     1       4.959  -0.996  -4.106  1.00  0.00    -0.351 OA
HETATM   32  C6  UNL     1       4.740  -2.387  -4.137  1.00  0.00     0.174 C 
ENDBRANCH  28  31
ENDBRANCH  22  23
ENDBRANCH   1  22
BRANCH  17  33
HETATM   33  C25 UNL     1      -6.168  -0.338   0.125  1.00  0.00    -0.009 A 
HETATM   34  C26 UNL     1      -6.584  -1.545   0.510  1.00  0.00     0.062 A 
HETATM   35  C27 UNL     1      -7.510  -2.022  -0.506  1.00  0.00     0.296 A 
HETATM   36  O5  UNL     1      -7.649  -1.115  -1.482  1.00  0.00    -0.294 OA
HETATM   37  O6  UNL     1      -8.065  -3.094  -0.449  1.00  0.00    -0.259 OA
HETATM   38  C28 UNL     1      -6.822   0.021  -1.182  1.00  0.00     0.175 A 
ENDBRANCH  17  33
TORSDOF 4
