REMARK  12 active torsions:
REMARK  status: ('A' for Active; 'I' for Inactive)
REMARK    1  A    between atoms: C1_1  and  C2_2 
REMARK    2  A    between atoms: C1_1  and  C14_15 
REMARK    3  A    between atoms: C2_2  and  C3_3 
REMARK    4  A    between atoms: C3_3  and  C4_4 
REMARK    5  A    between atoms: C4_4  and  C5_5 
REMARK    6  A    between atoms: C5_5  and  C6_6 
REMARK    7  A    between atoms: C6_6  and  C7_7 
REMARK    8  A    between atoms: C7_7  and  C8_8 
REMARK    9  A    between atoms: C8_8  and  C9_9 
REMARK   10  A    between atoms: C9_9  and  C10_10 
REMARK   11  A    between atoms: C10_10  and  O1_11 
REMARK   12  A    between atoms: O1_11  and  C11_12 
ROOT
HETATM    1  C6  UNL     1      -0.140   0.412  -0.115  1.00  0.00     0.000 C 
ENDROOT
BRANCH   1   2
HETATM    2  C5  UNL     1      -1.486  -0.327  -0.108  1.00  0.00     0.000 C 
BRANCH   2   3
HETATM    3  C4  UNL     1      -2.672   0.650  -0.104  1.00  0.00     0.000 C 
BRANCH   3   4
HETATM    4  C3  UNL     1      -4.019  -0.090  -0.103  1.00  0.00     0.000 C 
BRANCH   4   5
HETATM    5  C2  UNL     1      -5.208   0.883  -0.103  1.00  0.00     0.000 C 
BRANCH   5   6
HETATM    6  C1  UNL     1      -6.553   0.139  -0.103  1.00  0.00     0.000 C 
BRANCH   6   7
HETATM    7  C14 UNL     1      -7.746   1.107  -0.103  1.00  0.00     0.000 C 
HETATM    8  C15 UNL     1      -9.085   0.358  -0.104  1.00  0.00     0.000 C 
ENDBRANCH   6   7
ENDBRANCH   5   6
ENDBRANCH   4   5
ENDBRANCH   3   4
ENDBRANCH   2   3
ENDBRANCH   1   2
BRANCH   1   9
HETATM    9  C7  UNL     1       1.046  -0.566  -0.128  1.00  0.00     0.000 C 
BRANCH   9  10
HETATM   10  C8  UNL     1       2.393   0.174  -0.134  1.00  0.00     0.003 C 
BRANCH  10  11
HETATM   11  C9  UNL     1       3.579  -0.803  -0.130  1.00  0.00     0.032 C 
BRANCH  11  12
HETATM   12  C10 UNL     1       4.918  -0.065  -0.096  1.00  0.00     0.142 C 
BRANCH  12  13
HETATM   13  O1  UNL     1       5.951  -1.014  -0.012  1.00  0.00    -0.357 OA
BRANCH  13  14
HETATM   14  C11 UNL     1       7.243  -0.469  -0.058  1.00  0.00     0.116 C 
HETATM   15  C12 UNL     1       7.556   0.386   1.173  1.00  0.00     0.032 C 
HETATM   16  C13 UNL     1       8.226  -1.641  -0.145  1.00  0.00     0.032 C 
ENDBRANCH  13  14
ENDBRANCH  12  13
ENDBRANCH  11  12
ENDBRANCH  10  11
ENDBRANCH   9  10
ENDBRANCH   1   9
TORSDOF 12
