REMARK  0 active torsions:
REMARK  status: ('A' for Active; 'I' for Inactive)
ROOT
HETATM    1  C1  UNL     1      -2.976   0.579  -0.027  1.00  0.00     0.002 A 
HETATM    2  C2  UNL     1      -2.441   1.805  -0.007  1.00  0.00     0.028 A 
HETATM    3  C3  UNL     1      -1.109   1.994   0.010  1.00  0.00     0.134 A 
HETATM    4  C4  UNL     1      -0.300   0.908   0.007  1.00  0.00     0.070 A 
HETATM    5  C5  UNL     1      -0.830  -0.332  -0.015  1.00  0.00     0.044 A 
HETATM    6  C6  UNL     1      -2.167  -0.488  -0.032  1.00  0.00     0.003 A 
HETATM    7  C7  UNL     1      -0.040  -1.441  -0.020  1.00  0.00     0.194 A 
HETATM    8  C8  UNL     1       1.308  -1.279  -0.001  1.00  0.00     0.046 A 
HETATM    9  C9  UNL     1       1.843  -0.046   0.023  1.00  0.00     0.169 A 
HETATM   10  C10 UNL     1       1.054   1.062   0.027  1.00  0.00     0.223 A 
HETATM   11  O1  UNL     1       1.600   2.143   0.048  1.00  0.00    -0.284 OA
HETATM   12  O2  UNL     1       3.195   0.136   0.045  1.00  0.00    -0.187 OA
HETATM   13  C11 UNL     1       2.225  -2.485  -0.006  1.00  0.00     0.037 C 
HETATM   14  O3  UNL     1      -0.511  -2.558  -0.041  1.00  0.00    -0.287 OA
HETATM   15  O4  UNL     1      -0.653   3.278   0.030  1.00  0.00    -0.190 OA
ENDROOT
TORSDOF 0
