REMARK  1 active torsions:
REMARK  status: ('A' for Active; 'I' for Inactive)
REMARK    1  A    between atoms: C15_16  and  O2_19 
ROOT
HETATM    1  C1  UNL     1      -2.515   1.723  -0.102  1.00  0.00     0.024 A 
HETATM    2  C2  UNL     1      -3.614   0.969  -0.220  1.00  0.00     0.119 A 
HETATM    3  C3  UNL     1      -3.592  -0.335   0.072  1.00  0.00     0.119 A 
HETATM    4  C4  UNL     1      -2.467  -0.941   0.470  1.00  0.00     0.024 A 
HETATM    5  C5  UNL     1      -1.342  -0.207   0.591  1.00  0.00     0.009 A 
HETATM    6  C6  UNL     1      -1.375   1.126   0.290  1.00  0.00     0.006 A 
HETATM    7  C7  UNL     1      -0.158   1.954   0.666  1.00  0.00     0.171 C 
HETATM    8  C8  UNL     1       0.479   0.723   1.230  1.00  0.00     0.251 C 
HETATM    9  N1  UNL     1       1.196  -0.622  -0.035  1.00  0.00    -0.001 N 
HETATM   10  C9  UNL     1       0.046  -0.663  -0.695  1.00  0.00     0.200 A 
HETATM   11  C10 UNL     1      -0.104  -1.883  -1.605  1.00  0.00     0.033 C 
HETATM   12  C11 UNL     1       0.529  -2.991  -0.777  1.00  0.00     0.035 C 
HETATM   13  C12 UNL     1       1.552  -2.159   0.023  1.00  0.00     0.217 C 
HETATM   14  C13 UNL     1       0.100  -0.946   0.880  1.00  0.00     0.239 A 
HETATM   15  C14 UNL     1       1.937  -0.150   1.319  1.00  0.00     0.236 C 
HETATM   16  C15 UNL     1       1.853   1.170  -0.109  1.00  0.00     0.220 C 
HETATM   17  C16 UNL     1       0.849   0.560  -1.367  1.00  0.00     0.090 C 
HETATM   18  O1  UNL     1       1.018   2.328  -0.011  1.00  0.00    -0.329 OA
HETATM   19  O3  UNL     1       3.178  -0.830   1.102  1.00  0.00    -0.216 OA
HETATM   20  O4  UNL     1      -4.696  -0.847  -0.093  1.00  0.00    -0.300 OA
HETATM   21  C18 UNL     1      -5.586   0.185  -0.521  1.00  0.00     0.304 A 
HETATM   22  O5  UNL     1      -4.736   1.332  -0.559  1.00  0.00    -0.300 OA
ENDROOT
BRANCH  16  23
HETATM   23  O2  UNL     1       3.112   1.523  -0.588  1.00  0.00    -0.330 OA
HETATM   24  C17 UNL     1       3.861   2.239   0.369  1.00  0.00     0.177 C 
ENDBRANCH  16  23
TORSDOF 1
