REMARK  3 active torsions:
REMARK  status: ('A' for Active; 'I' for Inactive)
REMARK    1  A    between atoms: C3_3  and  O11_30 
REMARK    2  A    between atoms: C13_16  and  O5_19 
REMARK    3  A    between atoms: O5_19  and  C15_20 
ROOT
HETATM    1  C1  UNL     1       2.406   4.520   0.004  1.00  0.00     0.035 A 
HETATM    2  C2  UNL     1       3.733   4.390   0.164  1.00  0.00     0.155 A 
HETATM    3  C3  UNL     1       4.260   3.156   0.335  1.00  0.00     0.142 A 
HETATM    4  C4  UNL     1       3.426   2.086   0.359  1.00  0.00     0.128 A 
HETATM    5  C5  UNL     1       2.096   2.236   0.200  1.00  0.00     0.032 A 
HETATM    6  C6  UNL     1       1.583   3.463   0.022  1.00  0.00     0.068 A 
HETATM    7  C7  UNL     1       0.240   3.607  -0.135  1.00  0.00     0.300 A 
HETATM    8  O1  UNL     1      -0.607   2.542  -0.112  1.00  0.00    -0.271 OA
HETATM    9  C8  UNL     1      -0.042   1.309   0.068  1.00  0.00     0.131 A 
HETATM   10  C9  UNL     1       1.287   1.161   0.220  1.00  0.00     0.032 A 
HETATM   11  C10 UNL     1       1.788  -0.071   0.391  1.00  0.00     0.068 A 
HETATM   12  C11 UNL     1       3.131  -0.217   0.551  1.00  0.00     0.300 A 
HETATM   13  O2  UNL     1       3.980   0.847   0.546  1.00  0.00    -0.271 OA
HETATM   14  O3  UNL     1       3.601  -1.327   0.708  1.00  0.00    -0.259 OA
HETATM   15  C12 UNL     1       0.955  -1.123   0.399  1.00  0.00     0.032 A 
HETATM   16  C13 UNL     1      -0.381  -1.020   0.250  1.00  0.00     0.124 A 
HETATM   17  C14 UNL     1      -0.865   0.235   0.094  1.00  0.00     0.176 A 
HETATM   18  O4  UNL     1      -2.188   0.513  -0.062  1.00  0.00    -0.186 OA
HETATM   19  O10 UNL     1      -0.231   4.715  -0.298  1.00  0.00    -0.259 OA
HETATM   20  O12 UNL     1       4.478   5.529   0.125  1.00  0.00    -0.188 OA
ENDROOT
BRANCH  16  21
HETATM   21  O5  UNL     1      -1.066  -2.216   0.293  1.00  0.00    -0.301 OA
BRANCH  21  22
HETATM   22  C15 UNL     1      -2.460  -2.335   0.168  1.00  0.00     0.274 C 
HETATM   23  C16 UNL     1      -2.840  -3.762   0.505  1.00  0.00     0.241 C 
HETATM   24  C17 UNL     1      -4.298  -4.013   0.182  1.00  0.00     0.220 C 
HETATM   25  O9  UNL     1      -2.061  -4.645  -0.265  1.00  0.00    -0.215 OA
HETATM   26  C18 UNL     1      -4.627  -3.542  -1.221  1.00  0.00     0.215 C 
HETATM   27  O8  UNL     1      -4.553  -5.395   0.263  1.00  0.00    -0.218 OA
HETATM   28  C19 UNL     1      -4.122  -2.130  -1.451  1.00  0.00     0.181 C 
HETATM   29  O7  UNL     1      -6.022  -3.589  -1.388  1.00  0.00    -0.218 OA
HETATM   30  O6  UNL     1      -2.744  -2.064  -1.187  1.00  0.00    -0.326 OA
ENDBRANCH  21  22
ENDBRANCH  16  21
BRANCH   3  31
HETATM   31  O11 UNL     1       5.596   2.874   0.528  1.00  0.00    -0.324 OA
HETATM   32  C20 UNL     1       6.529   3.891   0.800  1.00  0.00     0.182 C 
ENDBRANCH   3  31
TORSDOF 3
