REMARK  5 active torsions:
REMARK  status: ('A' for Active; 'I' for Inactive)
REMARK    1  A    between atoms: C9_9  and  O3_15 
REMARK    2  A    between atoms: C10_10  and  O1_11 
REMARK    3  A    between atoms: O1_11  and  C11_12 
REMARK    4  A    between atoms: O3_15  and  C13_16 
REMARK    5  A    between atoms: C19_23  and  C22_26 
ROOT
HETATM    1  C1  UNL     1      -0.302  -2.532  -1.260  1.00  0.00     0.033 C 
HETATM    2  C2  UNL     1      -0.106  -2.843   0.180  1.00  0.00     0.172 C 
HETATM    3  C3  UNL     1      -0.950  -1.792   1.597  1.00  0.00     0.058 C 
HETATM    4  C4  UNL     1      -2.150  -0.938   0.686  1.00  0.00     0.041 C 
HETATM    5  C5  UNL     1      -1.911  -0.275  -0.919  1.00  0.00     0.022 C 
HETATM    6  C6  UNL     1      -1.007  -1.411  -1.812  1.00  0.00    -0.024 C 
HETATM    7  C7  UNL     1      -0.995   1.003  -0.983  1.00  0.00     0.010 C 
HETATM    8  C8  UNL     1      -0.322   0.652   0.326  1.00  0.00     0.043 C 
HETATM    9  C9  UNL     1      -0.059  -0.918   0.071  1.00  0.00     0.155 C 
HETATM   10  C10 UNL     1      -1.725  -2.103   0.002  1.00  0.00     0.153 C 
HETATM   11  C15 UNL     1       1.012   1.416   0.395  1.00  0.00    -0.047 C 
HETATM   12  C16 UNL     1       0.976   2.917   0.343  1.00  0.00     0.019 C 
HETATM   13  C17 UNL     1      -0.140   3.418  -0.622  1.00  0.00     0.004 C 
HETATM   14  C18 UNL     1      -1.364   2.519  -0.977  1.00  0.00     0.001 C 
HETATM   15  C19 UNL     1       2.427   3.185  -0.160  1.00  0.00     0.032 C 
HETATM   16  C20 UNL     1       3.319   2.126   0.496  1.00  0.00     0.030 C 
HETATM   17  C21 UNL     1       2.289   1.045   0.639  1.00  0.00    -0.034 C 
HETATM   18  C26 UNL     1       0.916   3.378   1.831  1.00  0.00     0.004 C 
HETATM   19  C27 UNL     1      -1.514   1.238   1.272  1.00  0.00     0.007 C 
HETATM   20  C28 UNL     1      -3.256   0.131  -1.604  1.00  0.00     0.004 C 
HETATM   21  C29 UNL     1      -1.548  -2.452   2.902  1.00  0.00     0.008 C 
HETATM   22  C30 UNL     1      -0.149  -0.676   2.661  1.00  0.00     0.008 C 
HETATM   23  O6  UNL     1       0.572  -3.882   0.460  1.00  0.00    -0.291 OA
ENDROOT
BRANCH  15  24
HETATM   24  C22 UNL     1       2.463   3.068  -1.660  1.00  0.00     0.005 A 
HETATM   25  C23 UNL     1       2.138   2.028  -2.442  1.00  0.00     0.118 A 
HETATM   26  O5  UNL     1       2.133   2.339  -3.633  1.00  0.00    -0.303 OA
HETATM   27  C24 UNL     1       2.451   3.525  -3.718  1.00  0.00     0.122 A 
HETATM   28  C25 UNL     1       2.712   4.062  -2.520  1.00  0.00     0.025 A 
ENDBRANCH  15  24
BRANCH   9  29
HETATM   29  O3  UNL     1       1.303  -1.195  -0.598  1.00  0.00    -0.301 OA
BRANCH  29  30
HETATM   30  C13 UNL     1       2.378  -1.899  -0.013  1.00  0.00     0.272 C 
HETATM   31  C14 UNL     1       3.555  -2.095  -0.969  1.00  0.00     0.106 C 
HETATM   32  O4  UNL     1       2.456  -2.321   1.123  1.00  0.00    -0.264 OA
ENDBRANCH  29  30
ENDBRANCH   9  29
BRANCH  10  33
HETATM   33  O1  UNL     1      -2.086  -3.376   0.762  1.00  0.00    -0.302 OA
BRANCH  33  34
HETATM   34  C11 UNL     1      -2.513  -4.522   0.163  1.00  0.00     0.272 C 
HETATM   35  C12 UNL     1      -2.998  -5.630   1.117  1.00  0.00     0.106 C 
HETATM   36  O2  UNL     1      -2.543  -4.682  -1.034  1.00  0.00    -0.264 OA
ENDBRANCH  33  34
ENDBRANCH  10  33
TORSDOF 5
