REMARK  9 active torsions:
REMARK  status: ('A' for Active; 'I' for Inactive)
REMARK    1  A    between atoms: C1_1  and  O13_37 
REMARK    2  A    between atoms: C4_4  and  C9_11 
REMARK    3  A    between atoms: C6_6  and  C7_7 
REMARK    4  A    between atoms: C9_11  and  C10_12 
REMARK    5  A    between atoms: C12_14  and  C23_32 
REMARK    6  A    between atoms: C13_15  and  O9_30 
REMARK    7  A    between atoms: C15_17  and  O3_18 
REMARK    8  A    between atoms: O3_18  and  C16_19 
REMARK    9  A    between atoms: C17_21  and  C21_28 
ROOT
HETATM    1  C10 UNL     1       0.881  -0.014  -2.092  1.00  0.00     0.030 C 
HETATM    2  C11 UNL     1       0.992   0.591  -3.297  1.00  0.00     0.134 C 
HETATM    3  C12 UNL     1       2.238   0.943  -3.701  1.00  0.00     0.082 C 
HETATM    4  C13 UNL     1       3.237   0.535  -2.878  1.00  0.00     0.101 C 
HETATM    5  C14 UNL     1       2.886   0.613  -1.576  1.00  0.00     0.048 C 
HETATM    6  C15 UNL     1       1.603   0.634  -1.167  1.00  0.00     0.097 C 
HETATM    7  O11 UNL     1      -0.106   0.693  -4.105  1.00  0.00    -0.190 OA
ENDROOT
BRANCH   1   8
HETATM    8  C9  UNL     1      -0.187  -0.975  -1.633  1.00  0.00     0.061 C 
BRANCH   8   9
HETATM    9  C4  UNL     1      -0.350  -1.277  -0.110  1.00  0.00     0.033 A 
HETATM   10  C3  UNL     1      -1.839  -1.540   0.224  1.00  0.00     0.131 A 
HETATM   11  C2  UNL     1      -2.240  -1.906   1.635  1.00  0.00     0.051 A 
HETATM   12  O12 UNL     1      -2.824  -1.580  -0.718  1.00  0.00    -0.190 OA
HETATM   13  C1  UNL     1      -1.275  -1.972   2.781  1.00  0.00     0.101 A 
HETATM   14  C6  UNL     1       0.214  -1.734   2.533  1.00  0.00     0.082 A 
HETATM   15  C5  UNL     1       0.726  -1.345   1.115  1.00  0.00     0.134 A 
HETATM   16  O2  UNL     1       2.096  -1.227   1.003  1.00  0.00    -0.190 OA
BRANCH  13  17
HETATM   17  O13 UNL     1      -1.668  -2.427   4.019  1.00  0.00    -0.328 OA
HETATM   18  C25 UNL     1      -2.955  -2.936   4.261  1.00  0.00     0.181 C 
ENDBRANCH  13  17
BRANCH  14  19
HETATM   19  C7  UNL     1       1.119  -1.940   3.554  1.00  0.00     0.177 C 
HETATM   20  C8  UNL     1       0.788  -2.493   4.941  1.00  0.00     0.077 C 
HETATM   21  O1  UNL     1       2.307  -1.751   3.423  1.00  0.00    -0.291 OA
ENDBRANCH  14  19
ENDBRANCH   8   9
ENDBRANCH   1   8
BRANCH   6  22
HETATM   22  O3  UNL     1       1.176   0.859   0.127  1.00  0.00    -0.304 OA
BRANCH  22  23
HETATM   23  C16 UNL     1      -0.239   0.771   0.391  1.00  0.00     0.274 C 
HETATM   24  O4  UNL     1      -0.465   2.129   0.709  1.00  0.00    -0.326 OA
HETATM   25  C17 UNL     1      -1.814   2.414   0.538  1.00  0.00     0.184 C 
HETATM   26  C18 UNL     1      -2.461   1.868   1.775  1.00  0.00     0.215 C 
HETATM   27  C19 UNL     1      -2.390   0.329   1.780  1.00  0.00     0.220 C 
HETATM   28  O7  UNL     1      -3.806   2.299   1.783  1.00  0.00    -0.218 OA
HETATM   29  C20 UNL     1      -0.887  -0.469   1.451  1.00  0.00     0.241 C 
HETATM   30  O6  UNL     1      -2.919   0.044   3.067  1.00  0.00    -0.218 OA
HETATM   31  O5  UNL     1      -0.649  -2.412   1.141  1.00  0.00    -0.215 OA
BRANCH  25  32
HETATM   32  C21 UNL     1      -1.964   3.868   0.142  1.00  0.00     0.214 C 
HETATM   33  O8  UNL     1      -3.078   3.964  -0.724  1.00  0.00    -0.218 OA
ENDBRANCH  25  32
ENDBRANCH  22  23
ENDBRANCH   6  22
BRANCH   3  34
HETATM   34  C23 UNL     1       2.473   1.551  -4.905  1.00  0.00     0.177 C 
HETATM   35  C24 UNL     1       3.858   2.012  -5.354  1.00  0.00     0.077 C 
HETATM   36  O10 UNL     1       1.597   1.912  -5.661  1.00  0.00    -0.291 OA
ENDBRANCH   3  34
BRANCH   4  37
HETATM   37  O9  UNL     1       4.563   0.460  -3.221  1.00  0.00    -0.328 OA
HETATM   38  C22 UNL     1       4.908  -0.821  -3.719  1.00  0.00     0.181 C 
ENDBRANCH   4  37
TORSDOF 9
