REMARK  2 active torsions:
REMARK  status: ('A' for Active; 'I' for Inactive)
REMARK    1  A    between atoms: C1_2  and  C2_3 
REMARK    2  A    between atoms: C2_3  and  C3_4 
ROOT
HETATM    1  C2  UNL     1      -0.012   0.354   0.604  1.00  0.00     0.139 C 
ENDROOT
BRANCH   1   2
HETATM    2  C1  UNL     1      -0.596  -0.431  -0.570  1.00  0.00     0.350 C 
HETATM    3  N1  UNL     1      -2.049  -0.398  -0.533  1.00  0.00     0.619 N 
ENDBRANCH   1   2
BRANCH   1   4
HETATM    4  C3  UNL     1       1.492   0.354   0.604  1.00  0.00     0.188 C 
HETATM    5  O1  UNL     1       2.058   1.276  -0.170  1.00  0.00    -0.647 OA
HETATM    6  O2  UNL     1       2.115  -0.439   1.272  1.00  0.00    -0.647 OA
ENDBRANCH   1   4
TORSDOF 2
