REMARK  0 active torsions:
REMARK  status: ('A' for Active; 'I' for Inactive)
ROOT
HETATM    1  C1  UNL     1       2.293  -1.147   1.170  1.00  0.00     0.001 C 
HETATM    2  C2  UNL     1       2.563  -1.277  -0.344  1.00  0.00     0.004 C 
HETATM    3  C3  UNL     1       1.772  -0.279  -1.217  1.00  0.00     0.018 C 
HETATM    4  C4  UNL     1       0.441   0.053  -0.574  1.00  0.00    -0.049 C 
HETATM    5  C5  UNL     1       0.449   0.605   0.865  1.00  0.00     0.017 C 
HETATM    6  C6  UNL     1       1.793   0.254   1.553  1.00  0.00     0.004 C 
HETATM    7  C7  UNL     1      -0.762   0.111   1.740  1.00  0.00     0.035 C 
HETATM    8  C8  UNL     1      -1.793  -0.625   0.887  1.00  0.00     0.133 C 
HETATM    9  C9  UNL     1      -1.975   0.111  -0.436  1.00  0.00     0.077 C 
HETATM   10  C10 UNL     1      -0.725  -0.147  -1.228  1.00  0.00    -0.028 C 
HETATM   11  C11 UNL     1      -3.272  -0.522  -0.832  1.00  0.00     0.047 C 
HETATM   12  C12 UNL     1      -3.934  -0.924   0.412  1.00  0.00     0.292 C 
HETATM   13  O1  UNL     1      -3.100  -0.779   1.453  1.00  0.00    -0.300 OA
HETATM   14  O2  UNL     1      -5.074  -1.320   0.471  1.00  0.00    -0.259 OA
HETATM   15  C13 UNL     1      -3.727  -0.676  -2.088  1.00  0.00     0.001 C 
HETATM   16  C14 UNL     1       0.361   2.133   0.738  1.00  0.00     0.004 C 
HETATM   17  C15 UNL     1       2.563   1.008  -1.478  1.00  0.00     0.004 C 
ENDROOT
TORSDOF 0
