REMARK  4 active torsions:
REMARK  status: ('A' for Active; 'I' for Inactive)
REMARK    1  A    between atoms: C9_10  and  C20_23 
REMARK    2  A    between atoms: C14_16  and  C15_17 
REMARK    3  A    between atoms: C15_17  and  C17_19 
REMARK    4  A    between atoms: C20_23  and  O2_24 
ROOT
HETATM    1  C1  UNL     1      -5.373  -0.674  -0.272  1.00  0.00    -0.000 A 
HETATM    2  C2  UNL     1      -5.536  -1.965   0.076  1.00  0.00     0.002 A 
HETATM    3  C3  UNL     1      -4.473  -2.731   0.359  1.00  0.00     0.019 A 
HETATM    4  C4  UNL     1      -3.276  -2.151   0.253  1.00  0.00     0.077 A 
HETATM    5  C5  UNL     1      -3.075  -0.870  -0.121  1.00  0.00     0.002 A 
HETATM    6  C6  UNL     1      -4.152  -0.116  -0.375  1.00  0.00    -0.002 A 
HETATM    7  C7  UNL     1      -1.614  -0.427  -0.192  1.00  0.00     0.085 A 
HETATM    8  C8  UNL     1      -1.353  -1.750   0.294  1.00  0.00     0.065 A 
HETATM    9  N1  UNL     1      -2.150  -2.671   0.495  1.00  0.00    -0.250 NA
HETATM   10  C9  UNL     1      -0.071  -1.383   0.287  1.00  0.00     0.056 C 
HETATM   11  C10 UNL     1       0.075   0.631  -0.154  1.00  0.00     0.057 A 
HETATM   12  C11 UNL     1      -0.750   1.515   0.783  1.00  0.00     0.038 A 
HETATM   13  C12 UNL     1      -0.586   0.121   1.233  1.00  0.00     0.204 A 
HETATM   14  N2  UNL     1       1.135  -0.270   0.941  1.00  0.00     0.134 N 
HETATM   15  C13 UNL     1       1.910   0.880   1.352  1.00  0.00     0.251 C 
HETATM   16  C14 UNL     1       1.501   1.504   0.056  1.00  0.00     0.042 C 
HETATM   17  C18 UNL     1       1.181  -0.710  -0.872  1.00  0.00     0.251 C 
HETATM   18  C19 UNL     1      -0.522  -0.838  -1.536  1.00  0.00     0.047 C 
ENDROOT
BRANCH  10  19
HETATM   19  C20 UNL     1       0.678  -2.545   0.595  1.00  0.00     0.293 C 
HETATM   20  O3  UNL     1       0.044  -3.583   0.635  1.00  0.00    -0.259 OA
BRANCH  19  21
HETATM   21  O2  UNL     1       2.004  -2.863   0.802  1.00  0.00    -0.296 OA
HETATM   22  C21 UNL     1       3.144  -2.041   0.852  1.00  0.00     0.185 C 
ENDBRANCH  19  21
ENDBRANCH  10  19
BRANCH  16  23
HETATM   23  C15 UNL     1       1.853   2.952  -0.403  1.00  0.00     0.035 C 
HETATM   24  C16 UNL     1       2.783   3.664   0.613  1.00  0.00     0.003 C 
BRANCH  23  25
HETATM   25  C17 UNL     1       2.587   2.933  -1.774  1.00  0.00     0.182 C 
HETATM   26  O1  UNL     1       3.764   2.144  -1.707  1.00  0.00    -0.221 OA
ENDBRANCH  23  25
ENDBRANCH  16  23
TORSDOF 4
