REMARK  4 active torsions:
REMARK  status: ('A' for Active; 'I' for Inactive)
REMARK    1  A    between atoms: C7_7  and  O4_20 
REMARK    2  A    between atoms: C8_8  and  C11_13 
REMARK    3  A    between atoms: C11_13  and  C12_14 
REMARK    4  A    between atoms: C12_14  and  C13_16 
ROOT
HETATM    1  C1  UNL     1       4.041   0.797   1.454  1.00  0.00     0.000 A 
HETATM    2  C2  UNL     1       3.882   2.125   1.457  1.00  0.00     0.002 A 
HETATM    3  C3  UNL     1       2.656   2.636   1.285  1.00  0.00     0.017 A 
HETATM    4  C4  UNL     1       1.576   1.848   1.112  1.00  0.00     0.064 A 
HETATM    5  C5  UNL     1       1.728   0.507   1.118  1.00  0.00     0.038 A 
HETATM    6  C6  UNL     1       2.971   0.007   1.285  1.00  0.00     0.003 A 
HETATM    7  C7  UNL     1       0.669  -0.322   0.965  1.00  0.00     0.096 A 
HETATM    8  C8  UNL     1      -0.547   0.205   0.694  1.00  0.00     0.059 A 
HETATM    9  C9  UNL     1      -0.738   1.552   0.689  1.00  0.00     0.259 A 
HETATM   10  N1  UNL     1       0.337   2.366   0.929  1.00  0.00    -0.294 N 
HETATM   11  C10 UNL     1       0.110   3.818   0.944  1.00  0.00     0.134 C 
HETATM   12  O1  UNL     1      -1.839   2.006   0.476  1.00  0.00    -0.267 OA
ENDROOT
BRANCH   8  13
HETATM   13  C11 UNL     1      -1.767  -0.669   0.418  1.00  0.00     0.069 C 
BRANCH  13  14
HETATM   14  C12 UNL     1      -2.346  -0.590  -1.002  1.00  0.00     0.184 C 
HETATM   15  O2  UNL     1      -3.696  -1.001  -0.932  1.00  0.00    -0.221 OA
BRANCH  14  16
HETATM   16  C13 UNL     1      -1.629  -1.399  -2.091  1.00  0.00     0.155 C 
HETATM   17  C14 UNL     1      -0.231  -0.855  -2.400  1.00  0.00     0.036 C 
HETATM   18  O3  UNL     1      -1.487  -2.729  -1.662  1.00  0.00    -0.223 OA
HETATM   19  C15 UNL     1      -2.438  -1.417  -3.395  1.00  0.00     0.036 C 
ENDBRANCH  14  16
ENDBRANCH  13  14
ENDBRANCH   8  13
BRANCH   7  20
HETATM   20  O4  UNL     1       0.841  -1.688   0.925  1.00  0.00    -0.328 OA
HETATM   21  C16 UNL     1       0.709  -2.322   2.179  1.00  0.00     0.181 C 
ENDBRANCH   7  20
TORSDOF 4
