REMARK  2 active torsions:
REMARK  status: ('A' for Active; 'I' for Inactive)
REMARK    1  A    between atoms: C1_1  and  C14_14 
REMARK    2  A    between atoms: C2_2  and  C10_10 
ROOT
HETATM    1  C1  UNL     1      -0.581   1.303  -0.475  1.00  0.00     0.022 C 
HETATM    2  C2  UNL     1      -0.672  -0.258  -0.371  1.00  0.00     0.022 C 
HETATM    3  C3  UNL     1       0.031  -0.738   0.928  1.00  0.00     0.025 C 
HETATM    4  C4  UNL     1       1.471  -0.275   1.029  1.00  0.00    -0.051 C 
HETATM    5  C5  UNL     1       1.540   1.236   1.037  1.00  0.00     0.022 C 
HETATM    6  C6  UNL     1       0.881   1.777  -0.242  1.00  0.00     0.009 C 
HETATM    7  C7  UNL     1       2.537  -1.101   1.107  1.00  0.00    -0.051 C 
HETATM    8  C8  UNL     1       3.965  -0.647   1.323  1.00  0.00     0.026 C 
HETATM    9  C9  UNL     1       2.446  -2.610   1.003  1.00  0.00     0.026 C 
HETATM   10  C13 UNL     1       0.092  -0.955  -1.530  1.00  0.00     0.005 C 
HETATM   11  C16 UNL     1      -1.470   2.026   0.566  1.00  0.00     0.005 C 
ENDROOT
BRANCH   2  12
HETATM   12  C10 UNL     1      -2.135  -0.737  -0.391  1.00  0.00    -0.044 C 
HETATM   13  C11 UNL     1      -2.833  -0.870  -1.533  1.00  0.00    -0.009 C 
HETATM   14  C12 UNL     1      -2.833  -1.073   0.912  1.00  0.00     0.026 C 
ENDBRANCH   2  12
BRANCH   1  15
HETATM   15  C14 UNL     1      -0.970   1.785  -1.872  1.00  0.00    -0.026 C 
HETATM   16  C15 UNL     1      -2.198   2.127  -2.291  1.00  0.00    -0.005 C 
ENDBRANCH   1  15
TORSDOF 2
