REMARK  1 active torsions:
REMARK  status: ('A' for Active; 'I' for Inactive)
REMARK    1  A    between atoms: C6_6  and  O1_7 
ROOT
HETATM    1  C1  UNL     1      -2.973  -0.243  -0.159  1.00  0.00     0.024 A 
HETATM    2  C2  UNL     1      -2.958  -1.581  -0.183  1.00  0.00     0.002 A 
HETATM    3  C3  UNL     1      -1.782  -2.212  -0.181  1.00  0.00     0.000 A 
HETATM    4  C4  UNL     1      -0.639  -1.504  -0.167  1.00  0.00     0.004 A 
HETATM    5  C5  UNL     1      -0.654  -0.144  -0.155  1.00  0.00     0.047 A 
HETATM    6  C6  UNL     1      -1.851   0.507  -0.139  1.00  0.00     0.096 A 
HETATM    7  C8  UNL     1       0.531   0.525  -0.145  1.00  0.00     0.131 A 
HETATM    8  C9  UNL     1       1.664  -0.197  -0.149  1.00  0.00     0.036 A 
HETATM    9  C10 UNL     1       1.647  -1.525  -0.163  1.00  0.00     0.064 A 
HETATM   10  C11 UNL     1       0.507  -2.213  -0.170  1.00  0.00     0.005 A 
HETATM   11  C12 UNL     1       2.926  -1.960  -0.179  1.00  0.00     0.296 A 
HETATM   12  O2  UNL     1       3.847  -0.946  -0.181  1.00  0.00    -0.296 OA
HETATM   13  C13 UNL     1       3.102   0.263  -0.146  1.00  0.00     0.149 A 
HETATM   14  C14 UNL     1       3.485   1.058   1.099  1.00  0.00     0.038 C 
HETATM   15  O3  UNL     1       3.240  -3.131  -0.199  1.00  0.00    -0.259 OA
HETATM   16  O4  UNL     1       0.670   1.879  -0.178  1.00  0.00    -0.190 OA
ENDROOT
BRANCH   6  17
HETATM   17  O1  UNL     1      -1.913   1.880  -0.101  1.00  0.00    -0.328 OA
HETATM   18  C7  UNL     1      -3.156   2.543  -0.133  1.00  0.00     0.181 C 
ENDBRANCH   6  17
TORSDOF 1
