REMARK  2 active torsions:
REMARK  status: ('A' for Active; 'I' for Inactive)
REMARK    1  A    between atoms: C9_10  and  C10_12 
REMARK    2  A    between atoms: C13_15  and  O3_18 
ROOT
HETATM    1  C1  UNL     1      -4.424  -2.330   1.014  1.00  0.00     0.055 A 
HETATM    2  C2  UNL     1      -4.576  -1.021   0.496  1.00  0.00     0.135 A 
HETATM    3  C3  UNL     1      -3.438  -0.242   0.186  1.00  0.00     0.052 A 
HETATM    4  C4  UNL     1      -2.141  -0.769   0.391  1.00  0.00     0.107 A 
HETATM    5  C5  UNL     1      -1.988  -2.084   0.908  1.00  0.00     0.087 A 
HETATM    6  C6  UNL     1      -3.131  -2.865   1.223  1.00  0.00     0.138 A 
HETATM    7  O1  UNL     1      -3.004  -4.107   1.713  1.00  0.00    -0.190 OA
HETATM    8  C7  UNL     1      -0.611  -2.613   1.111  1.00  0.00     0.202 A 
HETATM    9  C8  UNL     1       0.480  -1.687   0.744  1.00  0.00     0.067 A 
HETATM   10  C9  UNL     1       0.213  -0.453   0.258  1.00  0.00     0.103 A 
HETATM   11  O2  UNL     1      -1.055  -0.023   0.092  1.00  0.00    -0.307 OA
HETATM   12  O4  UNL     1      -0.295  -3.701   1.537  1.00  0.00    -0.286 OA
HETATM   13  O5  UNL     1      -5.805  -0.518   0.303  1.00  0.00    -0.190 OA
ENDROOT
BRANCH  10  14
HETATM   14  C10 UNL     1       1.355   0.443  -0.096  1.00  0.00     0.023 A 
HETATM   15  C11 UNL     1       1.184   1.453  -1.061  1.00  0.00     0.004 A 
HETATM   16  C12 UNL     1       2.260   2.295  -1.393  1.00  0.00     0.024 A 
HETATM   17  C13 UNL     1       3.508   2.133  -0.766  1.00  0.00     0.094 A 
HETATM   18  C14 UNL     1       3.674   1.123   0.199  1.00  0.00     0.024 A 
HETATM   19  C15 UNL     1       2.602   0.279   0.533  1.00  0.00     0.004 A 
BRANCH  17  20
HETATM   20  O3  UNL     1       4.514   2.924  -1.078  1.00  0.00    -0.328 OA
HETATM   21  C16 UNL     1       4.318   3.871  -2.119  1.00  0.00     0.181 C 
ENDBRANCH  17  20
ENDBRANCH  10  14
TORSDOF 2
