REMARK  3 active torsions:
REMARK  status: ('A' for Active; 'I' for Inactive)
REMARK       I    between atoms: C1_2  and  N2_3 
REMARK    1  A    between atoms: N2_3  and  C2_4 
REMARK    2  A    between atoms: C2_4  and  C3_5 
REMARK    3  A    between atoms: C3_5  and  C4_6 
ROOT
HETATM    1  C2  UNL     1       0.274  -0.822   0.301  1.00  0.00     0.181 C 
ENDROOT
BRANCH   1   2
HETATM    2  N2  UNL     1       0.996   0.457   0.301  1.00  0.00    -0.213 NA
HETATM    3  C1  UNL     1       2.362   0.457   0.301  1.00  0.00     0.382 C 
HETATM    4  N1  UNL     1       3.032   1.648   0.301  1.00  0.00    -0.084 N 
HETATM    5  O3  UNL     1       2.973  -0.586   0.301  1.00  0.00    -0.241 OA
ENDBRANCH   1   2
BRANCH   1   6
HETATM    6  C3  UNL     1      -1.238  -0.600   0.309  1.00  0.00     0.411 C 
HETATM    7  N3  UNL     1      -1.939  -1.865   0.453  1.00  0.00     0.630 N 
BRANCH   6   8
HETATM    8  C4  UNL     1      -1.718   0.123  -0.922  1.00  0.00     0.226 C 
HETATM    9  O1  UNL     1      -2.551   1.135  -0.689  1.00  0.00    -0.646 OA
HETATM   10  O2  UNL     1      -1.363  -0.219  -2.025  1.00  0.00    -0.646 OA
ENDBRANCH   6   8
ENDBRANCH   1   6
TORSDOF 3
