REMARK  0 active torsions:
REMARK  status: ('A' for Active; 'I' for Inactive)
ROOT
HETATM    1  C1  UNL     1      -3.718   2.362  -0.673  1.00  0.00     0.002 A 
HETATM    2  C2  UNL     1      -3.516   1.036  -0.691  1.00  0.00     0.019 A 
HETATM    3  C3  UNL     1      -2.277   0.593  -0.451  1.00  0.00     0.081 A 
HETATM    4  C4  UNL     1      -1.228   1.391  -0.194  1.00  0.00     0.019 A 
HETATM    5  C5  UNL     1      -1.453   2.715  -0.181  1.00  0.00     0.002 A 
HETATM    6  C6  UNL     1      -2.690   3.188  -0.420  1.00  0.00     0.000 A 
HETATM    7  C7  UNL     1      -0.164   0.580  -0.003  1.00  0.00     0.015 A 
HETATM    8  C8  UNL     1      -0.643  -0.669  -0.159  1.00  0.00     0.077 A 
HETATM    9  N1  UNL     1      -1.882  -0.607  -0.421  1.00  0.00    -0.246 NA
HETATM   10  C9  UNL     1       0.097  -1.781  -0.050  1.00  0.00    -0.004 A 
HETATM   11  C10 UNL     1       1.401  -1.601   0.243  1.00  0.00     0.000 A 
HETATM   12  C11 UNL     1       1.911  -0.358   0.408  1.00  0.00     0.015 A 
HETATM   13  C12 UNL     1       1.143   0.754   0.284  1.00  0.00    -0.019 A 
HETATM   14  C13 UNL     1       1.785   2.115   0.471  1.00  0.00     0.031 C 
HETATM   15  C14 UNL     1       3.227  -0.293   0.704  1.00  0.00     0.099 A 
HETATM   16  N2  UNL     1       4.012  -1.276   0.839  1.00  0.00    -0.243 NA
HETATM   17  C15 UNL     1       3.526  -2.430   0.681  1.00  0.00     0.099 A 
HETATM   18  C16 UNL     1       2.238  -2.647   0.383  1.00  0.00     0.020 A 
HETATM   19  C17 UNL     1      -0.517  -3.152  -0.244  1.00  0.00     0.033 C 
ENDROOT
TORSDOF 0
