REMARK  0 active torsions:
REMARK  status: ('A' for Active; 'I' for Inactive)
ROOT
HETATM    1  C1  UNL     1      -2.869   0.152  -0.260  1.00  0.00     0.063 C 
HETATM    2  C2  UNL     1      -2.857  -1.371  -0.173  1.00  0.00     0.155 C 
HETATM    3  C3  UNL     1      -1.849  -1.985  -1.159  1.00  0.00     0.033 C 
HETATM    4  C4  UNL     1      -0.429  -1.393  -0.906  1.00  0.00     0.067 C 
HETATM    5  C5  UNL     1      -0.314   0.121  -0.598  1.00  0.00     0.059 C 
HETATM    6  C6  UNL     1      -1.512   0.715   0.147  1.00  0.00     0.129 C 
HETATM    7  O1  UNL     1      -1.542   2.100   0.013  1.00  0.00    -0.304 OA
HETATM    8  C7  UNL     1      -0.400   2.809   0.199  1.00  0.00     0.278 C 
HETATM    9  C8  UNL     1       0.787   2.016   0.737  1.00  0.00     0.133 C 
HETATM   10  C9  UNL     1       0.927   0.551   0.240  1.00  0.00     0.021 C 
HETATM   11  C10 UNL     1       1.313  -0.375   1.417  1.00  0.00     0.001 C 
HETATM   12  C11 UNL     1       2.390   0.218   2.349  1.00  0.00     0.004 C 
HETATM   13  C12 UNL     1       2.218   1.728   2.595  1.00  0.00     0.026 C 
HETATM   14  C13 UNL     1       0.775   2.131   2.279  1.00  0.00     0.021 C 
HETATM   15  C14 UNL     1       2.932   2.515   1.522  1.00  0.00     0.013 C 
HETATM   16  C15 UNL     1       2.140   2.684   0.436  1.00  0.00     0.177 C 
HETATM   17  O2  UNL     1       2.435   3.209  -0.612  1.00  0.00    -0.291 OA
HETATM   18  C16 UNL     1       4.189   2.973   1.603  1.00  0.00    -0.002 C 
HETATM   19  O3  UNL     1      -0.353   4.012   0.049  1.00  0.00    -0.264 OA
HETATM   20  C17 UNL     1      -0.144   0.660  -2.029  1.00  0.00     0.147 C 
HETATM   21  O4  UNL     1       0.496  -0.322  -2.808  1.00  0.00    -0.329 OA
HETATM   22  C18 UNL     1       0.493  -1.536  -2.101  1.00  0.00     0.269 C 
HETATM   23  O5  UNL     1       1.855  -1.631  -1.721  1.00  0.00    -0.190 OA
HETATM   24  C19 UNL     1      -1.803  -3.519  -0.929  1.00  0.00     0.003 C 
HETATM   25  C20 UNL     1      -2.391  -1.805  -2.600  1.00  0.00     0.003 C 
HETATM   26  O6  UNL     1      -2.541  -1.745   1.148  1.00  0.00    -0.223 OA
ENDROOT
TORSDOF 0
