REMARK  2 active torsions:
REMARK  status: ('A' for Active; 'I' for Inactive)
REMARK    1  A    between atoms: C7_8  and  C23_30 
REMARK    2  A    between atoms: C27_34  and  O4_36 
ROOT
HETATM    1  C1  UNL     1      -1.861   2.572  -0.380  1.00  0.00    -0.000 A 
HETATM    2  C2  UNL     1      -2.027   1.181  -0.288  1.00  0.00    -0.000 A 
HETATM    3  C3  UNL     1      -0.898   0.391  -0.047  1.00  0.00    -0.004 A 
HETATM    4  C4  UNL     1       0.353   0.979   0.037  1.00  0.00     0.011 A 
HETATM    5  C5  UNL     1       0.512   2.349  -0.104  1.00  0.00     0.091 A 
HETATM    6  C6  UNL     1      -0.598   3.174  -0.293  1.00  0.00     0.024 A 
HETATM    7  O1  UNL     1       1.851   2.682  -0.054  1.00  0.00    -0.328 OA
HETATM    8  C7  UNL     1       2.640   1.481  -0.010  1.00  0.00     0.157 C 
HETATM    9  C8  UNL     1       1.665   0.310   0.269  1.00  0.00     0.135 C 
HETATM   10  C9  UNL     1       1.827  -1.116  -0.255  1.00  0.00     0.240 C 
HETATM   11  O2  UNL     1       2.168  -1.981   0.520  1.00  0.00    -0.272 OA
HETATM   12  N1  UNL     1       1.405  -1.417  -1.541  1.00  0.00    -0.320 N 
HETATM   13  C10 UNL     1       1.680  -0.551  -2.697  1.00  0.00     0.106 C 
HETATM   14  C11 UNL     1       0.588   0.400  -3.218  1.00  0.00     0.051 C 
HETATM   15  C12 UNL     1      -0.685  -0.245  -3.794  1.00  0.00     0.131 C 
HETATM   16  N2  UNL     1      -1.809  -0.053  -2.874  1.00  0.00    -0.238 NA
HETATM   17  C13 UNL     1      -2.834   0.827  -3.109  1.00  0.00     0.254 C 
HETATM   18  C14 UNL     1      -3.867   0.917  -1.991  1.00  0.00     0.118 C 
HETATM   19  C15 UNL     1      -3.336   0.489  -0.609  1.00  0.00     0.130 C 
HETATM   20  N3  UNL     1      -4.355   0.659   0.423  1.00  0.00    -0.292 NA
HETATM   21  C16 UNL     1      -4.009   0.349   1.813  1.00  0.00     0.122 C 
HETATM   22  C17 UNL     1      -3.278  -0.968   2.155  1.00  0.00     0.052 C 
HETATM   23  C18 UNL     1      -3.587  -2.234   1.325  1.00  0.00     0.122 C 
HETATM   24  N4  UNL     1      -2.410  -2.536   0.509  1.00  0.00    -0.295 NA
HETATM   25  C19 UNL     1      -2.512  -3.594  -0.490  1.00  0.00     0.120 C 
HETATM   26  C20 UNL     1      -1.399  -3.385  -1.540  1.00  0.00     0.028 C 
HETATM   27  C21 UNL     1       0.037  -3.497  -0.996  1.00  0.00     0.026 C 
HETATM   28  C22 UNL     1       1.113  -2.821  -1.883  1.00  0.00     0.104 C 
HETATM   29  O3  UNL     1      -2.923   1.478  -4.122  1.00  0.00    -0.271 OA
ENDROOT
BRANCH   8  30
HETATM   30  C23 UNL     1       3.710   1.591   1.055  1.00  0.00     0.008 A 
HETATM   31  C24 UNL     1       5.052   1.329   0.772  1.00  0.00     0.000 A 
HETATM   32  C25 UNL     1       6.002   1.408   1.790  1.00  0.00     0.029 A 
HETATM   33  C26 UNL     1       5.642   1.743   3.099  1.00  0.00     0.153 A 
HETATM   34  C27 UNL     1       4.303   2.034   3.406  1.00  0.00     0.119 A 
HETATM   35  O5  UNL     1       6.574   1.793   4.088  1.00  0.00    -0.188 OA
HETATM   36  C28 UNL     1       3.367   1.938   2.366  1.00  0.00     0.024 A 
BRANCH  34  37
HETATM   37  O4  UNL     1       3.993   2.315   4.713  1.00  0.00    -0.326 OA
HETATM   38  C29 UNL     1       2.644   2.234   5.112  1.00  0.00     0.181 C 
ENDBRANCH  34  37
ENDBRANCH   8  30
TORSDOF 2
