REMARK  1 active torsions:
REMARK  status: ('A' for Active; 'I' for Inactive)
REMARK    1  A    between atoms: C1_1  and  C7_7 
ROOT
HETATM    1  C7  UNL     1       0.625   0.147  -0.651  1.00  0.00     0.169 C 
HETATM    2  O1  UNL     1       0.101   0.975  -1.702  1.00  0.00    -0.281 OA
HETATM    3  C8  UNL     1      -0.158   2.178  -1.192  1.00  0.00     0.366 C 
HETATM    4  N1  UNL     1       0.035   2.234   0.181  1.00  0.00    -0.294 N 
HETATM    5  C9  UNL     1       0.463   0.940   0.668  1.00  0.00     0.118 C 
HETATM    6  C10 UNL     1       1.769   1.006   1.453  1.00  0.00     0.027 C 
HETATM    7  C11 UNL     1      -0.162   3.402   1.037  1.00  0.00     0.131 C 
HETATM    8  O2  UNL     1      -0.527   3.139  -1.825  1.00  0.00    -0.238 OA
ENDROOT
BRANCH   1   9
HETATM    9  C1  UNL     1      -0.072  -1.170  -0.651  1.00  0.00     0.007 A 
HETATM   10  C2  UNL     1      -1.479  -1.221  -0.651  1.00  0.00    -0.002 A 
HETATM   11  C3  UNL     1      -2.135  -2.463  -0.651  1.00  0.00    -0.000 A 
HETATM   12  C4  UNL     1      -1.389  -3.654  -0.651  1.00  0.00    -0.000 A 
HETATM   13  C5  UNL     1       0.015  -3.603  -0.651  1.00  0.00    -0.000 A 
HETATM   14  C6  UNL     1       0.674  -2.361  -0.651  1.00  0.00    -0.002 A 
ENDBRANCH   1   9
TORSDOF 1
