REMARK  0 active torsions:
REMARK  status: ('A' for Active; 'I' for Inactive)
ROOT
HETATM    1  C1  UNL     1       5.582  -0.646  -0.314  1.00  0.00     0.152 C 
HETATM    2  C2  UNL     1       4.858  -0.660  -1.664  1.00  0.00     0.033 C 
HETATM    3  C3  UNL     1       3.383  -1.072  -1.498  1.00  0.00     0.003 C 
HETATM    4  C4  UNL     1       2.746  -0.685  -0.131  1.00  0.00     0.001 C 
HETATM    5  C5  UNL     1       3.445   0.586   0.420  1.00  0.00     0.002 C 
HETATM    6  C6  UNL     1       4.985   0.414   0.656  1.00  0.00     0.028 C 
HETATM    7  C7  UNL     1       5.637   1.795   0.465  1.00  0.00     0.003 C 
HETATM    8  C8  UNL     1       5.289  -0.041   2.092  1.00  0.00     0.003 C 
HETATM    9  C9  UNL     1       2.719   1.150   1.654  1.00  0.00     0.000 C 
HETATM   10  C10 UNL     1       1.244   1.436   1.365  1.00  0.00     0.000 C 
HETATM   11  C11 UNL     1       0.475   0.186   0.873  1.00  0.00     0.004 C 
HETATM   12  C12 UNL     1      -0.994   0.566   0.455  1.00  0.00     0.015 C 
HETATM   13  C13 UNL     1      -0.976   1.742  -0.535  1.00  0.00     0.004 C 
HETATM   14  C14 UNL     1      -1.816   0.983   1.699  1.00  0.00     0.004 C 
HETATM   15  C15 UNL     1      -3.299   1.219   1.399  1.00  0.00     0.001 C 
HETATM   16  C16 UNL     1      -3.982  -0.033   0.816  1.00  0.00     0.003 C 
HETATM   17  C17 UNL     1      -3.971  -1.154   1.869  1.00  0.00     0.000 C 
HETATM   18  C18 UNL     1      -5.457   0.328   0.488  1.00  0.00     0.000 C 
HETATM   19  C19 UNL     1      -5.986  -0.412  -0.744  1.00  0.00     0.000 C 
HETATM   20  C20 UNL     1      -5.186  -0.053  -2.012  1.00  0.00     0.000 C 
HETATM   21  C21 UNL     1      -3.691   0.231  -1.711  1.00  0.00     0.004 C 
HETATM   22  C22 UNL     1      -3.223  -0.531  -0.447  1.00  0.00     0.018 C 
HETATM   23  C23 UNL     1      -1.703  -0.559  -0.299  1.00  0.00    -0.049 C 
HETATM   24  C24 UNL     1      -1.019  -1.580  -0.861  1.00  0.00    -0.035 C 
HETATM   25  C25 UNL     1       0.483  -1.711  -0.809  1.00  0.00     0.025 C 
HETATM   26  C26 UNL     1       1.217  -0.435  -0.342  1.00  0.00     0.005 C 
HETATM   27  C27 UNL     1      -2.834  -0.064  -2.949  1.00  0.00     0.000 C 
HETATM   28  C28 UNL     1      -5.822   1.121  -2.762  1.00  0.00     0.000 C 
HETATM   29  C29 UNL     1       0.442  -0.846   2.018  1.00  0.00     0.000 C 
HETATM   30  C30 UNL     1       2.963  -1.836   0.869  1.00  0.00     0.000 C 
HETATM   31  O1  UNL     1       6.969  -0.445  -0.521  1.00  0.00    -0.224 OA
ENDROOT
TORSDOF 0
