REMARK  1 active torsions:
REMARK  status: ('A' for Active; 'I' for Inactive)
REMARK    1  A    between atoms: C9_10  and  C10_12 
ROOT
HETATM    1  C1  UNL     1       4.393  -1.244   0.648  1.00  0.00     0.055 A 
HETATM    2  C2  UNL     1       4.287   0.166   0.664  1.00  0.00     0.135 A 
HETATM    3  C3  UNL     1       3.041   0.783   0.408  1.00  0.00     0.051 A 
HETATM    4  C4  UNL     1       1.897  -0.002   0.139  1.00  0.00     0.095 A 
HETATM    5  C5  UNL     1       1.998  -1.424   0.137  1.00  0.00     0.028 A 
HETATM    6  C6  UNL     1       3.254  -2.039   0.385  1.00  0.00     0.131 A 
HETATM    7  O1  UNL     1       3.369  -3.375   0.373  1.00  0.00    -0.190 OA
HETATM    8  C7  UNL     1       0.791  -2.254  -0.123  1.00  0.00     0.066 C 
HETATM    9  C8  UNL     1      -0.525  -1.473   0.059  1.00  0.00     0.188 C 
HETATM   10  C9  UNL     1      -0.404  -0.090  -0.619  1.00  0.00     0.174 C 
HETATM   11  O2  UNL     1       0.723   0.627  -0.100  1.00  0.00    -0.327 OA
HETATM   12  O5  UNL     1      -0.795  -1.332   1.443  1.00  0.00    -0.220 OA
HETATM   13  O6  UNL     1       5.367   0.916   0.918  1.00  0.00    -0.190 OA
ENDROOT
BRANCH  10  14
HETATM   14  C10 UNL     1      -1.627   0.754  -0.500  1.00  0.00     0.010 A 
HETATM   15  C11 UNL     1      -2.602   0.730  -1.514  1.00  0.00     0.028 A 
HETATM   16  C12 UNL     1      -3.758   1.525  -1.404  1.00  0.00     0.156 A 
HETATM   17  C13 UNL     1      -3.940   2.346  -0.275  1.00  0.00     0.156 A 
HETATM   18  O4  UNL     1      -4.666   1.498  -2.357  1.00  0.00    -0.188 OA
HETATM   19  C14 UNL     1      -2.965   2.369   0.738  1.00  0.00     0.029 A 
HETATM   20  O3  UNL     1      -5.020   3.094  -0.164  1.00  0.00    -0.188 OA
HETATM   21  C15 UNL     1      -1.811   1.574   0.627  1.00  0.00     0.000 A 
ENDBRANCH  10  14
TORSDOF 1
