REMARK  11 active torsions:
REMARK  status: ('A' for Active; 'I' for Inactive)
REMARK    1  A    between atoms: C4_4  and  O3_11 
REMARK    2  A    between atoms: C6_6  and  O1_7 
REMARK    3  A    between atoms: O1_7  and  C7_8 
REMARK    4  A    between atoms: O3_11  and  C9_12 
REMARK    5  A    between atoms: C11_16  and  C16_23 
REMARK    6  A    between atoms: C12_17  and  O6_19 
REMARK    7  A    between atoms: O6_19  and  C14_20 
REMARK    8  A    between atoms: C18_25  and  O10_33 
REMARK    9  A    between atoms: C19_26  and  O8_29 
REMARK   10  A    between atoms: O8_29  and  C22_30 
REMARK   11  A    between atoms: O10_33  and  C24_34 
ROOT
HETATM    1  C1  UNL     1       1.955  -1.560  -0.467  1.00  0.00     0.026 A 
HETATM    2  C2  UNL     1       1.852  -0.139  -0.463  1.00  0.00     0.094 A 
HETATM    3  C3  UNL     1       2.996   0.649  -0.191  1.00  0.00     0.049 A 
HETATM    4  C4  UNL     1       4.242   0.031   0.063  1.00  0.00     0.107 A 
HETATM    5  C5  UNL     1       4.350  -1.379   0.047  1.00  0.00     0.049 A 
HETATM    6  C6  UNL     1       3.209  -2.174  -0.217  1.00  0.00     0.103 A 
HETATM    7  O5  UNL     1       0.680   0.488  -0.703  1.00  0.00    -0.327 OA
HETATM    8  C11 UNL     1      -0.443  -0.228  -1.232  1.00  0.00     0.172 C 
HETATM    9  C12 UNL     1      -0.559  -1.605  -0.551  1.00  0.00     0.160 C 
HETATM   10  C13 UNL     1       0.752  -2.391  -0.734  1.00  0.00     0.064 C 
ENDROOT
BRANCH   8  11
HETATM   11  C16 UNL     1      -1.668   0.600  -1.078  1.00  0.00     0.010 A 
HETATM   12  C17 UNL     1      -1.897   1.305   0.117  1.00  0.00     0.025 A 
HETATM   13  C18 UNL     1      -3.053   2.088   0.268  1.00  0.00     0.126 A 
HETATM   14  C19 UNL     1      -3.988   2.168  -0.783  1.00  0.00     0.126 A 
HETATM   15  C20 UNL     1      -3.758   1.463  -1.978  1.00  0.00     0.027 A 
HETATM   16  C21 UNL     1      -2.602   0.680  -2.127  1.00  0.00     0.000 A 
BRANCH  13  17
HETATM   17  O10 UNL     1      -3.260   2.746   1.391  1.00  0.00    -0.274 OA
BRANCH  17  18
HETATM   18  C24 UNL     1      -3.561   4.039   1.336  1.00  0.00     0.277 C 
HETATM   19  C25 UNL     1      -4.065   4.637   2.621  1.00  0.00     0.107 C 
HETATM   20  O11 UNL     1      -3.445   4.715   0.340  1.00  0.00    -0.264 OA
ENDBRANCH  17  18
ENDBRANCH  13  17
BRANCH  14  21
HETATM   21  O8  UNL     1      -5.074   2.901  -0.650  1.00  0.00    -0.274 OA
BRANCH  21  22
HETATM   22  C22 UNL     1      -6.221   2.451  -1.158  1.00  0.00     0.277 C 
HETATM   23  C23 UNL     1      -7.291   3.494  -1.340  1.00  0.00     0.107 C 
HETATM   24  O9  UNL     1      -6.416   1.299  -1.459  1.00  0.00    -0.264 OA
ENDBRANCH  21  22
ENDBRANCH  14  21
ENDBRANCH   8  11
BRANCH   9  25
HETATM   25  O6  UNL     1      -0.811  -1.437   0.840  1.00  0.00    -0.301 OA
BRANCH  25  26
HETATM   26  C14 UNL     1      -1.242  -2.557   1.416  1.00  0.00     0.272 C 
HETATM   27  O7  UNL     1      -1.465  -3.580   0.813  1.00  0.00    -0.264 OA
HETATM   28  C15 UNL     1      -1.443  -2.475   2.904  1.00  0.00     0.106 C 
ENDBRANCH  25  26
ENDBRANCH   9  25
BRANCH   6  29
HETATM   29  O1  UNL     1       3.326  -3.510  -0.228  1.00  0.00    -0.277 OA
BRANCH  29  30
HETATM   30  C7  UNL     1       4.430  -4.057  -0.732  1.00  0.00     0.277 C 
HETATM   31  C8  UNL     1       4.676  -5.486  -0.332  1.00  0.00     0.107 C 
HETATM   32  O2  UNL     1       5.197  -3.475  -1.461  1.00  0.00    -0.264 OA
ENDBRANCH  29  30
ENDBRANCH   6  29
BRANCH   4  33
HETATM   33  O3  UNL     1       5.322   0.781   0.316  1.00  0.00    -0.276 OA
BRANCH  33  34
HETATM   34  C9  UNL     1       6.506   0.387  -0.146  1.00  0.00     0.277 C 
HETATM   35  C10 UNL     1       7.697   1.014   0.527  1.00  0.00     0.107 C 
HETATM   36  O4  UNL     1       6.645  -0.412  -1.041  1.00  0.00    -0.264 OA
ENDBRANCH  33  34
ENDBRANCH   4  33
TORSDOF 11
