REMARK  2 active torsions:
REMARK  status: ('A' for Active; 'I' for Inactive)
REMARK    1  A    between atoms: C1_1  and  C2_2 
REMARK    2  A    between atoms: C3_3  and  C4_4 
ROOT
HETATM    1  C2  UNL     1      -0.959  -0.506   0.078  1.00  0.00     0.084 C 
HETATM    2  C3  UNL     1      -0.867   0.918   0.722  1.00  0.00     0.035 C 
HETATM    3  C6  UNL     1       0.330   1.738   0.160  1.00  0.00     0.056 C 
HETATM    4  C7  UNL     1       1.594   0.898   0.168  1.00  0.00     0.080 A 
HETATM    5  C8  UNL     1       1.608  -0.481   0.170  1.00  0.00     0.052 A 
HETATM    6  C9  UNL     1       0.354  -1.274   0.152  1.00  0.00     0.178 C 
HETATM    7  O1  UNL     1       0.377  -2.483   0.197  1.00  0.00    -0.291 OA
HETATM    8  C10 UNL     1       2.902  -0.910   0.191  1.00  0.00     0.007 A 
HETATM    9  C11 UNL     1       3.729   0.209   0.201  1.00  0.00     0.118 A 
HETATM   10  O2  UNL     1       2.914   1.348   0.185  1.00  0.00    -0.310 OA
HETATM   11  C12 UNL     1       3.371  -2.352   0.201  1.00  0.00     0.033 C 
HETATM   12  C13 UNL     1      -0.721   0.777   2.244  1.00  0.00     0.005 C 
ENDROOT
BRANCH   1  13
HETATM   13  C1  UNL     1      -1.393  -0.461  -1.367  1.00  0.00    -0.037 C 
HETATM   14  C14 UNL     1      -2.605  -0.936  -1.690  1.00  0.00    -0.009 C 
HETATM   15  C15 UNL     1      -0.523   0.094  -2.467  1.00  0.00     0.027 C 
ENDBRANCH   1  13
BRANCH   2  16
HETATM   16  C4  UNL     1      -2.146   1.689   0.496  1.00  0.00    -0.026 C 
HETATM   17  C5  UNL     1      -3.312   1.105   0.818  1.00  0.00    -0.005 C 
ENDBRANCH   2  16
TORSDOF 2
