REMARK  3 active torsions:
REMARK  status: ('A' for Active; 'I' for Inactive)
REMARK    1  A    between atoms: C8_8  and  O2_13 
REMARK    2  A    between atoms: O2_13  and  C12_14 
REMARK    3  A    between atoms: C12_14  and  C13_15 
ROOT
HETATM    1  C1  UNL     1      -2.033  -0.654   1.178  1.00  0.00     0.058 C 
HETATM    2  C2  UNL     1      -3.129  -0.543   0.061  1.00  0.00     0.034 C 
HETATM    3  C3  UNL     1      -3.623   0.900   0.100  1.00  0.00     0.142 A 
HETATM    4  C4  UNL     1      -2.707   1.731   1.029  1.00  0.00     0.145 A 
HETATM    5  C5  UNL     1      -1.580   0.820   1.553  1.00  0.00     0.179 C 
HETATM    6  C6  UNL     1      -0.248   1.303   0.924  1.00  0.00     0.161 C 
HETATM    7  C7  UNL     1       0.984   0.461   1.334  1.00  0.00     0.086 C 
HETATM    8  C8  UNL     1       1.383  -0.588   0.287  1.00  0.00     0.134 C 
HETATM    9  C9  UNL     1       0.162  -1.328  -0.272  1.00  0.00     0.060 C 
HETATM   10  C10 UNL     1      -0.867  -1.641   0.832  1.00  0.00     0.125 A 
HETATM   11  C11 UNL     1      -0.504  -2.838   1.787  1.00  0.00     0.169 A 
HETATM   12  O1  UNL     1      -1.340  -2.947   0.680  1.00  0.00    -0.354 OA
HETATM   13  C17 UNL     1       1.996   1.533   1.596  1.00  0.00     0.045 C 
HETATM   14  C18 UNL     1       1.320   2.818   1.572  1.00  0.00     0.292 C 
HETATM   15  O4  UNL     1       0.025   2.668   1.295  1.00  0.00    -0.298 OA
HETATM   16  O5  UNL     1       1.875   3.871   1.785  1.00  0.00    -0.260 OA
HETATM   17  C19 UNL     1       3.305   1.322   1.814  1.00  0.00     0.001 C 
HETATM   18  O6  UNL     1      -1.469   1.006   2.959  1.00  0.00    -0.221 OA
HETATM   19  C20 UNL     1      -2.701   3.254   1.035  1.00  0.00     0.035 C 
HETATM   20  O7  UNL     1      -3.984   1.291   1.387  1.00  0.00    -0.354 OA
HETATM   21  C21 UNL     1      -2.668  -0.734  -1.379  1.00  0.00     0.003 C 
HETATM   22  C22 UNL     1      -2.846  -1.240   2.357  1.00  0.00     0.005 C 
ENDROOT
BRANCH   8  23
HETATM   23  O2  UNL     1       2.066   0.033  -0.795  1.00  0.00    -0.301 OA
BRANCH  23  24
HETATM   24  C12 UNL     1       2.750  -0.840  -1.529  1.00  0.00     0.291 C 
HETATM   25  O3  UNL     1       2.875  -2.008  -1.244  1.00  0.00    -0.260 OA
BRANCH  24  26
HETATM   26  C13 UNL     1       3.365  -0.303  -2.748  1.00  0.00     0.037 C 
HETATM   27  C14 UNL     1       3.236  -0.885  -3.953  1.00  0.00    -0.025 C 
HETATM   28  C15 UNL     1       2.420  -2.144  -4.057  1.00  0.00     0.030 C 
HETATM   29  C16 UNL     1       4.182   0.959  -2.645  1.00  0.00     0.036 C 
ENDBRANCH  24  26
ENDBRANCH  23  24
ENDBRANCH   8  23
TORSDOF 3
