REMARK  0 active torsions:
REMARK  status: ('A' for Active; 'I' for Inactive)
ROOT
HETATM    1  C1  UNL     1       4.742   1.391  -2.143  1.00  0.00     0.033 C 
HETATM    2  C2  UNL     1       4.969   2.318  -0.941  1.00  0.00     0.152 C 
HETATM    3  C3  UNL     1       4.822   1.576   0.418  1.00  0.00     0.030 C 
HETATM    4  C4  UNL     1       3.807   0.389   0.357  1.00  0.00     0.002 C 
HETATM    5  C5  UNL     1       2.707   0.690  -0.705  1.00  0.00     0.000 C 
HETATM    6  C6  UNL     1       3.315   0.816  -2.127  1.00  0.00     0.003 C 
HETATM    7  C7  UNL     1       1.481  -0.271  -0.656  1.00  0.00     0.000 C 
HETATM    8  C8  UNL     1       0.895  -0.266   0.793  1.00  0.00     0.000 C 
HETATM    9  C9  UNL     1       1.983  -0.756   1.771  1.00  0.00     0.000 C 
HETATM   10  C10 UNL     1       3.186   0.195   1.758  1.00  0.00     0.000 C 
HETATM   11  C11 UNL     1      -0.486  -0.992   0.924  1.00  0.00     0.000 C 
HETATM   12  C12 UNL     1      -1.496  -0.348  -0.088  1.00  0.00     0.000 C 
HETATM   13  C13 UNL     1      -0.941  -0.523  -1.518  1.00  0.00     0.000 C 
HETATM   14  C14 UNL     1       0.418   0.182  -1.684  1.00  0.00     0.000 C 
HETATM   15  C15 UNL     1      -2.889  -1.018   0.143  1.00  0.00     0.000 C 
HETATM   16  C16 UNL     1      -3.518  -0.611   1.514  1.00  0.00     0.000 C 
HETATM   17  C17 UNL     1      -2.424  -0.250   2.555  1.00  0.00     0.000 C 
HETATM   18  C18 UNL     1      -1.074  -0.965   2.375  1.00  0.00     0.000 C 
HETATM   19  C19 UNL     1      -4.457   0.615   1.375  1.00  0.00     0.000 C 
HETATM   20  C20 UNL     1      -5.465   0.512   0.227  1.00  0.00     0.000 C 
HETATM   21  C21 UNL     1      -4.779   0.285  -1.129  1.00  0.00     0.000 C 
HETATM   22  C22 UNL     1      -3.908  -0.978  -1.029  1.00  0.00     0.000 C 
HETATM   23  C23 UNL     1      -5.850   0.074  -2.205  1.00  0.00     0.000 C 
HETATM   24  C24 UNL     1      -3.947   1.506  -1.531  1.00  0.00     0.000 C 
HETATM   25  C25 UNL     1      -4.342  -1.795   2.043  1.00  0.00     0.000 C 
HETATM   26  C26 UNL     1      -1.607   1.170   0.139  1.00  0.00     0.000 C 
HETATM   27  C27 UNL     1      -0.266  -2.479   0.580  1.00  0.00     0.000 C 
HETATM   28  C28 UNL     1       1.922  -1.689  -1.063  1.00  0.00     0.000 C 
HETATM   29  C29 UNL     1       4.537  -0.910  -0.027  1.00  0.00     0.000 C 
HETATM   30  C30 UNL     1       6.160   1.137   1.043  1.00  0.00     0.003 C 
HETATM   31  O1  UNL     1       6.229   2.953  -1.063  1.00  0.00    -0.224 OA
ENDROOT
TORSDOF 0
