REMARK  6 active torsions:
REMARK  status: ('A' for Active; 'I' for Inactive)
REMARK    1  A    between atoms: C7_8  and  C32_44 
REMARK    2  A    between atoms: C9_10  and  C10_11 
REMARK    3  A    between atoms: C16_18  and  C26_33 
REMARK    4  A    between atoms: C17_19  and  O3_21 
REMARK    5  A    between atoms: O3_21  and  C19_22 
REMARK    6  A    between atoms: C19_22  and  C20_23 
ROOT
HETATM    1  C10 UNL     1       1.225  -0.234  -0.330  1.00  0.00     0.032 A 
HETATM    2  C11 UNL     1       2.264  -0.670  -1.186  1.00  0.00     0.131 A 
HETATM    3  C12 UNL     1       2.170  -0.455  -2.580  1.00  0.00     0.054 A 
HETATM    4  C13 UNL     1       1.041   0.197  -3.123  1.00  0.00     0.131 A 
HETATM    5  C14 UNL     1      -0.006   0.641  -2.271  1.00  0.00     0.028 A 
HETATM    6  C15 UNL     1       0.082   0.412  -0.865  1.00  0.00     0.091 A 
HETATM    7  O2  UNL     1      -0.898   0.807  -0.021  1.00  0.00    -0.327 OA
HETATM    8  C16 UNL     1      -2.176   1.250  -0.506  1.00  0.00     0.172 C 
HETATM    9  C17 UNL     1      -1.975   2.109  -1.770  1.00  0.00     0.161 C 
HETATM   10  C18 UNL     1      -1.187   1.338  -2.842  1.00  0.00     0.064 C 
HETATM   11  O10 UNL     1       0.967   0.395  -4.447  1.00  0.00    -0.190 OA
HETATM   12  O11 UNL     1       3.344  -1.287  -0.684  1.00  0.00    -0.190 OA
ENDROOT
BRANCH   1  13
HETATM   13  C9  UNL     1       1.330  -0.457   1.129  1.00  0.00     0.086 C 
HETATM   14  C4  UNL     1       0.313  -1.467   1.541  1.00  0.00     0.032 A 
HETATM   15  C3  UNL     1      -1.061  -1.111   1.645  1.00  0.00     0.131 A 
HETATM   16  C5  UNL     1       0.711  -2.805   1.846  1.00  0.00     0.095 A 
HETATM   17  C2  UNL     1      -2.020  -2.070   2.039  1.00  0.00     0.055 A 
HETATM   18  O16 UNL     1      -1.461   0.141   1.369  1.00  0.00    -0.190 OA
HETATM   19  C1  UNL     1      -1.619  -3.391   2.340  1.00  0.00     0.135 A 
HETATM   20  C6  UNL     1      -0.258  -3.756   2.244  1.00  0.00     0.051 A 
HETATM   21  O17 UNL     1      -2.531  -4.299   2.715  1.00  0.00    -0.190 OA
HETATM   22  O1  UNL     1       2.004  -3.197   1.777  1.00  0.00    -0.326 OA
HETATM   23  C7  UNL     1       2.996  -2.371   1.158  1.00  0.00     0.175 C 
HETATM   24  C8  UNL     1       2.768  -0.885   1.525  1.00  0.00     0.192 C 
HETATM   25  O12 UNL     1       2.940  -0.691   2.922  1.00  0.00    -0.220 OA
BRANCH  23  26
HETATM   26  C32 UNL     1       4.356  -2.879   1.502  1.00  0.00     0.012 A 
HETATM   27  C33 UNL     1       5.496  -2.275   0.947  1.00  0.00     0.028 A 
HETATM   28  C34 UNL     1       6.777  -2.754   1.270  1.00  0.00     0.158 A 
HETATM   29  C35 UNL     1       6.918  -3.840   2.154  1.00  0.00     0.181 A 
HETATM   30  O15 UNL     1       7.842  -2.182   0.746  1.00  0.00    -0.188 OA
HETATM   31  C36 UNL     1       5.776  -4.447   2.711  1.00  0.00     0.158 A 
HETATM   32  O14 UNL     1       8.119  -4.291   2.459  1.00  0.00    -0.186 OA
HETATM   33  C37 UNL     1       4.496  -3.965   2.385  1.00  0.00     0.028 A 
HETATM   34  O13 UNL     1       5.902  -5.465   3.539  1.00  0.00    -0.188 OA
ENDBRANCH  23  26
ENDBRANCH   1  13
BRANCH   8  35
HETATM   35  C26 UNL     1      -3.064   0.072  -0.727  1.00  0.00     0.010 A 
HETATM   36  C27 UNL     1      -3.469  -0.719   0.361  1.00  0.00     0.028 A 
HETATM   37  C28 UNL     1      -4.307  -1.830   0.158  1.00  0.00     0.156 A 
HETATM   38  C29 UNL     1      -4.742  -2.150  -1.141  1.00  0.00     0.156 A 
HETATM   39  O9  UNL     1      -4.682  -2.568   1.184  1.00  0.00    -0.188 OA
HETATM   40  C30 UNL     1      -4.338  -1.357  -2.230  1.00  0.00     0.029 A 
HETATM   41  O8  UNL     1      -5.527  -3.189  -1.342  1.00  0.00    -0.188 OA
HETATM   42  C31 UNL     1      -3.500  -0.248  -2.025  1.00  0.00     0.000 A 
ENDBRANCH   8  35
BRANCH   9  43
HETATM   43  O3  UNL     1      -3.229   2.525  -2.297  1.00  0.00    -0.298 OA
BRANCH  43  44
HETATM   44  C19 UNL     1      -3.883   3.336  -1.469  1.00  0.00     0.296 C 
HETATM   45  O7  UNL     1      -4.914   3.039  -0.912  1.00  0.00    -0.259 OA
BRANCH  44  46
HETATM   46  C20 UNL     1      -3.250   4.672  -1.254  1.00  0.00     0.067 A 
HETATM   47  C21 UNL     1      -2.311   5.162  -2.178  1.00  0.00     0.035 A 
HETATM   48  C22 UNL     1      -1.715   6.420  -1.979  1.00  0.00     0.158 A 
HETATM   49  C23 UNL     1      -2.061   7.190  -0.852  1.00  0.00     0.181 A 
HETATM   50  O6  UNL     1      -0.834   6.875  -2.848  1.00  0.00    -0.188 OA
HETATM   51  C24 UNL     1      -3.002   6.701   0.072  1.00  0.00     0.158 A 
HETATM   52  O5  UNL     1      -1.504   8.369  -0.664  1.00  0.00    -0.186 OA
HETATM   53  C25 UNL     1      -3.596   5.442  -0.131  1.00  0.00     0.035 A 
HETATM   54  O4  UNL     1      -3.328   7.418   1.129  1.00  0.00    -0.188 OA
ENDBRANCH  44  46
ENDBRANCH  43  44
ENDBRANCH   9  43
TORSDOF 6
