REMARK  9 active torsions:
REMARK  status: ('A' for Active; 'I' for Inactive)
REMARK    1  A    between atoms: C7_10  and  C28_45 
REMARK    2  A    between atoms: C8_11  and  O4_13 
REMARK    3  A    between atoms: O4_13  and  C10_14 
REMARK    4  A    between atoms: C11_16  and  C15_23 
REMARK    5  A    between atoms: C15_23  and  O9_24 
REMARK    6  A    between atoms: O9_24  and  C16_25 
REMARK    7  A    between atoms: C17_27  and  C27_43 
REMARK    8  A    between atoms: C18_28  and  O12_32 
REMARK    9  A    between atoms: O12_32  and  C21_33 
ROOT
HETATM    1  C10 UNL     1      -4.014   1.258   1.328  1.00  0.00     0.270 C 
HETATM    2  O5  UNL     1      -3.108   0.170   1.209  1.00  0.00    -0.326 OA
HETATM    3  C11 UNL     1      -3.414  -0.762   0.180  1.00  0.00     0.180 C 
HETATM    4  C12 UNL     1      -4.789  -1.406   0.467  1.00  0.00     0.215 C 
HETATM    5  C13 UNL     1      -5.889  -0.334   0.641  1.00  0.00     0.220 C 
HETATM    6  C14 UNL     1      -5.432   0.728   1.666  1.00  0.00     0.241 C 
HETATM    7  O6  UNL     1      -6.350   1.808   1.664  1.00  0.00    -0.215 OA
HETATM    8  O7  UNL     1      -7.090  -0.943   1.080  1.00  0.00    -0.218 OA
HETATM    9  O8  UNL     1      -5.121  -2.266  -0.609  1.00  0.00    -0.218 OA
ENDROOT
BRANCH   3  10
HETATM   10  C15 UNL     1      -2.272  -1.779   0.148  1.00  0.00     0.177 C 
BRANCH  10  11
HETATM   11  O9  UNL     1      -1.119  -1.135  -0.346  1.00  0.00    -0.326 OA
BRANCH  11  12
HETATM   12  C16 UNL     1       0.017  -1.975  -0.381  1.00  0.00     0.267 C 
HETATM   13  O10 UNL     1      -0.223  -3.026  -1.309  1.00  0.00    -0.326 OA
HETATM   14  C17 UNL     1       0.826  -3.979  -1.428  1.00  0.00     0.178 C 
HETATM   15  C18 UNL     1       2.107  -3.266  -1.912  1.00  0.00     0.150 C 
HETATM   16  C19 UNL     1       2.484  -2.098  -0.986  1.00  0.00     0.070 C 
HETATM   17  C20 UNL     1       1.271  -1.172  -0.811  1.00  0.00     0.211 C 
HETATM   18  O11 UNL     1       1.588  -0.195   0.164  1.00  0.00    -0.218 OA
BRANCH  14  19
HETATM   19  C27 UNL     1       0.340  -5.057  -2.402  1.00  0.00     0.214 C 
HETATM   20  O17 UNL     1      -0.699  -5.780  -1.779  1.00  0.00    -0.218 OA
ENDBRANCH  14  19
BRANCH  15  21
HETATM   21  O12 UNL     1       3.180  -4.188  -1.947  1.00  0.00    -0.329 OA
BRANCH  21  22
HETATM   22  C21 UNL     1       4.352  -3.656  -2.531  1.00  0.00     0.270 C 
HETATM   23  O13 UNL     1       5.184  -3.156  -1.492  1.00  0.00    -0.329 OA
HETATM   24  C22 UNL     1       6.389  -2.541  -1.930  1.00  0.00     0.151 C 
HETATM   25  C23 UNL     1       7.252  -3.580  -2.680  1.00  0.00     0.212 C 
HETATM   26  C26 UNL     1       7.078  -1.983  -0.680  1.00  0.00     0.035 C 
HETATM   27  C24 UNL     1       6.467  -4.229  -3.842  1.00  0.00     0.220 C 
HETATM   28  O16 UNL     1       8.406  -2.934  -3.184  1.00  0.00    -0.218 OA
HETATM   29  C25 UNL     1       5.103  -4.752  -3.330  1.00  0.00     0.241 C 
HETATM   30  O15 UNL     1       7.217  -5.299  -4.391  1.00  0.00    -0.218 OA
HETATM   31  O14 UNL     1       4.310  -5.154  -4.436  1.00  0.00    -0.215 OA
ENDBRANCH  21  22
ENDBRANCH  15  21
ENDBRANCH  11  12
ENDBRANCH  10  11
ENDBRANCH   3  10
BRANCH   1  32
HETATM   32  O4  UNL     1      -3.551   2.115   2.350  1.00  0.00    -0.328 OA
BRANCH  32  33
HETATM   33  C8  UNL     1      -2.348   2.785   2.014  1.00  0.00     0.154 C 
HETATM   34  C7  UNL     1      -2.367   4.244   2.525  1.00  0.00     0.171 C 
HETATM   35  O3  UNL     1      -1.113   4.873   2.236  1.00  0.00    -0.327 OA
HETATM   36  C2  UNL     1       0.055   4.211   2.387  1.00  0.00     0.095 A 
HETATM   37  C1  UNL     1       0.094   2.801   2.596  1.00  0.00     0.028 A 
HETATM   38  C3  UNL     1       1.262   4.945   2.322  1.00  0.00     0.051 A 
HETATM   39  C6  UNL     1       1.346   2.150   2.758  1.00  0.00     0.131 A 
HETATM   40  C9  UNL     1      -1.168   2.023   2.646  1.00  0.00     0.063 C 
HETATM   41  C5  UNL     1       2.547   2.894   2.699  1.00  0.00     0.055 A 
HETATM   42  O1  UNL     1       1.398   0.826   2.967  1.00  0.00    -0.190 OA
HETATM   43  C4  UNL     1       2.506   4.289   2.480  1.00  0.00     0.135 A 
HETATM   44  O2  UNL     1       3.644   4.992   2.424  1.00  0.00    -0.190 OA
BRANCH  34  45
HETATM   45  C28 UNL     1      -3.453   5.068   1.930  1.00  0.00     0.010 A 
HETATM   46  C29 UNL     1      -3.362   5.492   0.594  1.00  0.00     0.000 A 
HETATM   47  C30 UNL     1      -4.387   6.271   0.031  1.00  0.00     0.029 A 
HETATM   48  C31 UNL     1      -5.508   6.627   0.805  1.00  0.00     0.156 A 
HETATM   49  C32 UNL     1      -5.600   6.203   2.143  1.00  0.00     0.156 A 
HETATM   50  O19 UNL     1      -6.467   7.357   0.271  1.00  0.00    -0.188 OA
HETATM   51  C33 UNL     1      -4.572   5.424   2.703  1.00  0.00     0.028 A 
HETATM   52  O18 UNL     1      -6.647   6.533   2.873  1.00  0.00    -0.188 OA
ENDBRANCH  34  45
ENDBRANCH  32  33
ENDBRANCH   1  32
TORSDOF 9
