REMARK  1 active torsions:
REMARK  status: ('A' for Active; 'I' for Inactive)
REMARK    1  A    between atoms: C2_2  and  C17_18 
ROOT
HETATM    1  C1  UNL     1      -0.422   1.418   0.471  1.00  0.00    -0.029 C 
HETATM    2  C2  UNL     1      -1.678   1.533  -0.361  1.00  0.00     0.022 C 
HETATM    3  C3  UNL     1      -2.002   0.248  -1.145  1.00  0.00     0.009 C 
HETATM    4  C4  UNL     1      -2.322  -0.980  -0.268  1.00  0.00     0.022 C 
HETATM    5  C5  UNL     1      -1.301  -2.092  -0.383  1.00  0.00    -0.048 C 
HETATM    6  C6  UNL     1      -0.221  -2.129   0.426  1.00  0.00    -0.034 C 
HETATM    7  C7  UNL     1       0.834  -3.211   0.346  1.00  0.00     0.030 C 
HETATM    8  C8  UNL     1       2.248  -2.732   0.713  1.00  0.00     0.026 C 
HETATM    9  C9  UNL     1       2.824  -1.775  -0.314  1.00  0.00    -0.048 C 
HETATM   10  C10 UNL     1       2.930  -0.441  -0.137  1.00  0.00    -0.032 C 
HETATM   11  C11 UNL     1       2.504   0.311   1.111  1.00  0.00     0.060 C 
HETATM   12  C12 UNL     1       2.051   1.760   0.814  1.00  0.00     0.149 C 
HETATM   13  C13 UNL     1       0.775   1.818  -0.006  1.00  0.00    -0.001 C 
HETATM   14  C14 UNL     1       3.158   2.572   0.133  1.00  0.00     0.038 C 
HETATM   15  O1  UNL     1       1.838   2.406   2.055  1.00  0.00    -0.221 OA
HETATM   16  C15 UNL     1       3.309  -2.381  -1.609  1.00  0.00     0.026 C 
HETATM   17  C16 UNL     1      -1.545  -3.150  -1.430  1.00  0.00     0.026 C 
ENDROOT
BRANCH   2  18
HETATM   18  C17 UNL     1      -2.854   1.980   0.514  1.00  0.00     0.004 C 
HETATM   19  C18 UNL     1      -2.588   3.309   1.225  1.00  0.00     0.000 C 
HETATM   20  C19 UNL     1      -4.186   1.969  -0.234  1.00  0.00     0.000 C 
ENDBRANCH   2  18
TORSDOF 1
