REMARK  3 active torsions:
REMARK  status: ('A' for Active; 'I' for Inactive)
REMARK    1  A    between atoms: C12_12  and  C20_23 
REMARK    2  A    between atoms: C15_16  and  C16_17 
REMARK    3  A    between atoms: C16_17  and  C17_19 
ROOT
HETATM    1  C1  UNL     1       4.869  -0.092  -0.586  1.00  0.00     0.070 C 
HETATM    2  C2  UNL     1       5.180   0.809   0.582  1.00  0.00     0.172 C 
HETATM    3  C3  UNL     1       4.070   1.535   1.227  1.00  0.00     0.029 C 
HETATM    4  C4  UNL     1       2.807   1.498   0.754  1.00  0.00    -0.042 C 
HETATM    5  C5  UNL     1       2.439   0.762  -0.529  1.00  0.00     0.018 C 
HETATM    6  C6  UNL     1       3.377  -0.465  -0.664  1.00  0.00     0.012 C 
HETATM    7  C7  UNL     1       0.904   0.420  -0.525  1.00  0.00     0.034 C 
HETATM    8  C8  UNL     1       0.322   0.072   0.873  1.00  0.00     0.004 C 
HETATM    9  C9  UNL     1       0.691   1.105   1.975  1.00  0.00     0.004 C 
HETATM   10  C10 UNL     1       1.685   2.172   1.502  1.00  0.00     0.022 C 
HETATM   11  C11 UNL     1      -1.215  -0.106   0.832  1.00  0.00     0.008 C 
HETATM   12  C12 UNL     1      -1.715  -1.074  -0.252  1.00  0.00     0.067 C 
HETATM   13  C13 UNL     1      -1.110  -0.703  -1.631  1.00  0.00     0.041 C 
HETATM   14  C14 UNL     1       0.428  -0.580  -1.611  1.00  0.00     0.153 C 
HETATM   15  O1  UNL     1       0.963  -1.875  -1.414  1.00  0.00    -0.223 OA
HETATM   16  C15 UNL     1      -3.233  -0.793  -0.232  1.00  0.00     0.067 C 
HETATM   17  C18 UNL     1      -3.322   0.730  -0.109  1.00  0.00     0.008 C 
HETATM   18  C19 UNL     1      -2.035   1.170   0.586  1.00  0.00     0.001 C 
HETATM   19  C21 UNL     1       2.723   1.715  -1.701  1.00  0.00     0.004 C 
HETATM   20  O5  UNL     1       6.311   0.932   0.990  1.00  0.00    -0.291 OA
ENDROOT
BRANCH  16  21
HETATM   21  C16 UNL     1      -3.971  -1.467   0.904  1.00  0.00     0.184 C 
HETATM   22  O2  UNL     1      -3.373  -1.930   1.848  1.00  0.00    -0.293 OA
BRANCH  21  23
HETATM   23  C17 UNL     1      -5.473  -1.547   0.824  1.00  0.00     0.246 C 
HETATM   24  O3  UNL     1      -5.842  -2.568  -0.076  1.00  0.00    -0.212 OA
ENDBRANCH  21  23
ENDBRANCH  16  21
BRANCH  12  25
HETATM   25  C20 UNL     1      -1.424  -2.520   0.094  1.00  0.00     0.207 C 
HETATM   26  O4  UNL     1      -0.795  -2.807   1.086  1.00  0.00    -0.288 OA
ENDBRANCH  12  25
TORSDOF 3
