REMARK  11 active torsions:
REMARK  status: ('A' for Active; 'I' for Inactive)
REMARK    1  A    between atoms: C1_1  and  O8_39 
REMARK    2  A    between atoms: C6_6  and  C7_7 
REMARK    3  A    between atoms: C7_7  and  C8_8 
REMARK    4  A    between atoms: C12_13  and  C25_31 
REMARK    5  A    between atoms: C13_14  and  O3_17 
REMARK    6  A    between atoms: O3_17  and  C15_18 
REMARK    7  A    between atoms: C18_21  and  O4_25 
REMARK    8  A    between atoms: O4_25  and  C22_26 
REMARK    9  A    between atoms: C28_34  and  O7_37 
REMARK   10  A    between atoms: O8_39  and  C32_40 
REMARK   11  A    between atoms: C33_42  and  C37_49 
ROOT
HETATM    1  C1  UNL     1       2.238  -2.894   0.385  1.00  0.00     0.095 A 
HETATM    2  C2  UNL     1       1.736  -3.107   1.691  1.00  0.00     0.024 A 
HETATM    3  C3  UNL     1       0.998  -2.094   2.344  1.00  0.00     0.007 A 
HETATM    4  C4  UNL     1       0.764  -0.863   1.684  1.00  0.00     0.064 A 
HETATM    5  C5  UNL     1       1.262  -0.642   0.373  1.00  0.00     0.101 A 
HETATM    6  C6  UNL     1       2.002  -1.662  -0.275  1.00  0.00     0.027 A 
HETATM    7  O1  UNL     1       1.029   0.535  -0.246  1.00  0.00    -0.305 OA
HETATM    8  C12 UNL     1       0.334   1.551   0.305  1.00  0.00     0.125 A 
HETATM    9  C13 UNL     1      -0.191   1.461   1.553  1.00  0.00     0.156 A 
HETATM   10  C14 UNL     1      -0.008   0.223   2.346  1.00  0.00     0.222 A 
HETATM   11  O2  UNL     1      -0.498   0.195   3.451  1.00  0.00    -0.284 OA
ENDROOT
BRANCH   9  12
HETATM   12  O3  UNL     1      -0.877   2.475   2.086  1.00  0.00    -0.326 OA
BRANCH  12  13
HETATM   13  C15 UNL     1      -2.217   2.531   1.613  1.00  0.00     0.152 C 
HETATM   14  C16 UNL     1      -2.910   3.795   2.158  1.00  0.00     0.182 C 
HETATM   15  C17 UNL     1      -4.399   3.852   1.752  1.00  0.00     0.061 C 
HETATM   16  O6  UNL     1      -2.240   4.938   1.658  1.00  0.00    -0.221 OA
HETATM   17  C18 UNL     1      -5.129   2.563   2.174  1.00  0.00     0.127 C 
HETATM   18  C24 UNL     1      -5.102   5.086   2.330  1.00  0.00     0.005 C 
HETATM   19  C19 UNL     1      -4.436   1.291   1.643  1.00  0.00     0.030 C 
HETATM   20  C20 UNL     1      -2.953   1.260   2.051  1.00  0.00     0.035 C 
HETATM   21  C21 UNL     1      -5.158   0.026   2.113  1.00  0.00     0.003 C 
BRANCH  17  22
HETATM   22  O4  UNL     1      -6.465   2.600   1.686  1.00  0.00    -0.304 OA
BRANCH  22  23
HETATM   23  C22 UNL     1      -7.322   2.002   2.508  1.00  0.00     0.272 C 
HETATM   24  C23 UNL     1      -8.699   1.776   1.943  1.00  0.00     0.106 C 
HETATM   25  O5  UNL     1      -7.045   1.653   3.631  1.00  0.00    -0.264 OA
ENDBRANCH  22  23
ENDBRANCH  17  22
ENDBRANCH  12  13
ENDBRANCH   9  12
BRANCH   8  26
HETATM   26  C25 UNL     1       0.143   2.807  -0.486  1.00  0.00     0.025 A 
HETATM   27  C26 UNL     1       0.324   4.061   0.127  1.00  0.00     0.004 A 
HETATM   28  C27 UNL     1       0.143   5.239  -0.615  1.00  0.00     0.024 A 
HETATM   29  C28 UNL     1      -0.219   5.172  -1.973  1.00  0.00     0.094 A 
HETATM   30  C29 UNL     1      -0.400   3.918  -2.584  1.00  0.00     0.024 A 
HETATM   31  C30 UNL     1      -0.221   2.738  -1.842  1.00  0.00     0.004 A 
BRANCH  29  32
HETATM   32  O7  UNL     1      -0.389   6.280  -2.668  1.00  0.00    -0.328 OA
HETATM   33  C31 UNL     1      -0.621   6.158  -4.065  1.00  0.00     0.181 C 
ENDBRANCH  29  32
ENDBRANCH   8  26
BRANCH   6  34
HETATM   34  C7  UNL     1       2.523  -1.441  -1.635  1.00  0.00     0.056 C 
BRANCH  34  35
HETATM   35  C8  UNL     1       3.979  -1.055  -1.627  1.00  0.00    -0.030 C 
HETATM   36  C9  UNL     1       4.356   0.035  -2.315  1.00  0.00    -0.048 C 
HETATM   37  C10 UNL     1       3.430   0.955  -3.063  1.00  0.00     0.026 C 
HETATM   38  C11 UNL     1       5.818   0.391  -2.352  1.00  0.00     0.026 C 
ENDBRANCH  34  35
ENDBRANCH   6  34
BRANCH   1  39
HETATM   39  O8  UNL     1       2.938  -3.865  -0.223  1.00  0.00    -0.304 OA
BRANCH  39  40
HETATM   40  C32 UNL     1       3.568  -4.842   0.594  1.00  0.00     0.274 C 
HETATM   41  O9  UNL     1       4.797  -5.258   0.008  1.00  0.00    -0.326 OA
HETATM   42  C33 UNL     1       4.715  -5.787  -1.318  1.00  0.00     0.184 C 
HETATM   43  C34 UNL     1       3.441  -6.658  -1.543  1.00  0.00     0.215 C 
HETATM   44  C35 UNL     1       2.908  -7.215  -0.203  1.00  0.00     0.220 C 
HETATM   45  O12 UNL     1       2.426  -5.906  -2.192  1.00  0.00    -0.218 OA
HETATM   46  C36 UNL     1       2.627  -6.062   0.795  1.00  0.00     0.241 C 
HETATM   47  O11 UNL     1       1.750  -8.012  -0.393  1.00  0.00    -0.218 OA
HETATM   48  O10 UNL     1       2.773  -6.555   2.115  1.00  0.00    -0.215 OA
BRANCH  42  49
HETATM   49  C37 UNL     1       4.912  -4.631  -2.313  1.00  0.00     0.214 C 
HETATM   50  O13 UNL     1       6.199  -4.094  -2.115  1.00  0.00    -0.218 OA
ENDBRANCH  42  49
ENDBRANCH  39  40
ENDBRANCH   1  39
TORSDOF 11
