REMARK  4 active torsions:
REMARK  status: ('A' for Active; 'I' for Inactive)
REMARK    1  A    between atoms: C2_2  and  N2_26 
REMARK    2  A    between atoms: C16_16  and  C19_19 
REMARK    3  A    between atoms: C19_19  and  N1_21 
REMARK       I    between atoms: N2_26  and  C24_27 
REMARK    4  A    between atoms: C24_27  and  C25_29 
ROOT
HETATM    1  C1  UNL     1       3.594   0.822   1.098  1.00  0.00     0.027 C 
HETATM    2  C2  UNL     1       4.199  -0.578   0.822  1.00  0.00     0.137 C 
HETATM    3  C3  UNL     1       3.297  -1.705   1.385  1.00  0.00     0.174 C 
HETATM    4  C4  UNL     1       1.785  -1.623   0.996  1.00  0.00     0.033 C 
HETATM    5  C5  UNL     1       1.342  -0.252   0.416  1.00  0.00     0.003 C 
HETATM    6  C6  UNL     1       2.055   0.855   1.221  1.00  0.00     0.002 C 
HETATM    7  C7  UNL     1      -0.203  -0.152   0.527  1.00  0.00     0.000 C 
HETATM    8  C8  UNL     1      -0.902  -1.334  -0.199  1.00  0.00     0.000 C 
HETATM    9  C9  UNL     1      -0.340  -2.719   0.191  1.00  0.00     0.000 C 
HETATM   10  C10 UNL     1       1.195  -2.779   0.162  1.00  0.00     0.003 C 
HETATM   11  C11 UNL     1      -2.432  -1.289   0.022  1.00  0.00     0.000 C 
HETATM   12  C12 UNL     1      -3.055   0.107  -0.232  1.00  0.00     0.002 C 
HETATM   13  C13 UNL     1      -2.045   1.123  -0.781  1.00  0.00     0.000 C 
HETATM   14  C14 UNL     1      -0.760   1.217   0.059  1.00  0.00     0.000 C 
HETATM   15  C15 UNL     1      -4.221  -0.063  -1.215  1.00  0.00     0.000 C 
HETATM   16  C16 UNL     1      -3.611   0.541   1.139  1.00  0.00     0.031 C 
HETATM   17  C17 UNL     1      -4.092  -0.779   1.723  1.00  0.00     0.002 C 
HETATM   18  C18 UNL     1      -2.883  -1.662   1.445  1.00  0.00     0.000 C 
HETATM   19  C23 UNL     1       1.717  -0.115  -1.070  1.00  0.00     0.000 C 
HETATM   20  O1  UNL     1       3.858  -2.984   1.141  1.00  0.00    -0.221 OA
ENDROOT
BRANCH   2  21
HETATM   21  N2  UNL     1       4.522  -0.762  -0.613  1.00  0.00    -0.234 NA
HETATM   22  C24 UNL     1       5.481   0.019  -1.191  1.00  0.00     0.275 C 
HETATM   23  O2  UNL     1       6.063   0.853  -0.537  1.00  0.00    -0.266 OA
BRANCH  22  24
HETATM   24  C25 UNL     1       5.793  -0.178  -2.637  1.00  0.00     0.058 A 
HETATM   25  C26 UNL     1       5.106  -1.154  -3.381  1.00  0.00     0.005 A 
HETATM   26  C27 UNL     1       5.399  -1.342  -4.742  1.00  0.00     0.000 A 
HETATM   27  C28 UNL     1       6.381  -0.551  -5.363  1.00  0.00     0.000 A 
HETATM   28  C29 UNL     1       7.070   0.426  -4.623  1.00  0.00     0.000 A 
HETATM   29  C30 UNL     1       6.777   0.611  -3.262  1.00  0.00     0.005 A 
ENDBRANCH  22  24
ENDBRANCH   2  21
BRANCH  16  30
HETATM   30  C19 UNL     1      -4.730   1.578   1.080  1.00  0.00     0.219 C 
HETATM   31  C20 UNL     1      -4.137   2.949   0.754  1.00  0.00     0.035 C 
BRANCH  30  32
HETATM   32  N1  UNL     1      -5.449   1.621   2.342  1.00  0.00     0.139 N 
HETATM   33  C21 UNL     1      -4.645   2.266   3.365  1.00  0.00     0.285 C 
HETATM   34  C22 UNL     1      -6.717   2.312   2.182  1.00  0.00     0.285 C 
ENDBRANCH  30  32
ENDBRANCH  16  30
TORSDOF 4
