REMARK  0 active torsions:
REMARK  status: ('A' for Active; 'I' for Inactive)
ROOT
HETATM    1  C1  UNL     1      -3.643  -3.289  -1.014  1.00  0.00     0.033 C 
HETATM    2  C2  UNL     1      -4.785  -3.352   0.014  1.00  0.00     0.152 C 
HETATM    3  C3  UNL     1      -4.387  -2.721   1.367  1.00  0.00     0.033 C 
HETATM    4  C4  UNL     1      -3.154  -1.791   1.291  1.00  0.00     0.003 C 
HETATM    5  C5  UNL     1      -3.137  -0.934  -0.002  1.00  0.00     0.000 C 
HETATM    6  C6  UNL     1      -3.109  -1.861  -1.250  1.00  0.00     0.003 C 
HETATM    7  C7  UNL     1      -1.893   0.006  -0.022  1.00  0.00     0.003 C 
HETATM    8  C8  UNL     1      -1.762   0.852   1.268  1.00  0.00     0.000 C 
HETATM    9  C9  UNL     1      -1.799  -0.039   2.523  1.00  0.00     0.000 C 
HETATM   10  C10 UNL     1      -3.043  -0.926   2.559  1.00  0.00     0.000 C 
HETATM   11  C11 UNL     1      -0.543   1.816   1.295  1.00  0.00     0.005 C 
HETATM   12  C12 UNL     1      -0.059   2.281  -0.102  1.00  0.00     0.031 C 
HETATM   13  C13 UNL     1      -1.238   2.277  -1.090  1.00  0.00     0.152 C 
HETATM   14  C14 UNL     1      -1.852   0.879  -1.301  1.00  0.00     0.033 C 
HETATM   15  O1  UNL     1      -0.834   2.795  -2.344  1.00  0.00    -0.224 OA
HETATM   16  C15 UNL     1       0.480   3.705   0.096  1.00  0.00     0.003 C 
HETATM   17  C16 UNL     1       1.068   1.283  -0.484  1.00  0.00     0.034 C 
HETATM   18  C17 UNL     1       1.404   0.512   0.791  1.00  0.00     0.118 C 
HETATM   19  C18 UNL     1       0.771   1.318   1.914  1.00  0.00     0.030 C 
HETATM   20  O2  UNL     1       2.813   0.506   0.885  1.00  0.00    -0.337 OA
HETATM   21  C19 UNL     1       3.393   0.746  -0.383  1.00  0.00     0.187 C 
HETATM   22  C20 UNL     1       2.441   1.813  -0.947  1.00  0.00     0.054 C 
HETATM   23  C21 UNL     1       2.504   2.029  -2.459  1.00  0.00     0.005 C 
HETATM   24  O3  UNL     1       3.383  -0.422  -1.213  1.00  0.00    -0.335 OA
HETATM   25  C22 UNL     1       4.184  -1.508  -0.760  1.00  0.00     0.145 C 
HETATM   26  C23 UNL     1       5.654  -1.070  -0.641  1.00  0.00     0.030 C 
HETATM   27  C24 UNL     1       5.777   0.168   0.256  1.00  0.00     0.007 C 
HETATM   28  C25 UNL     1       4.830   1.275  -0.229  1.00  0.00     0.056 C 
HETATM   29  C26 UNL     1       6.535  -2.215  -0.133  1.00  0.00     0.003 C 
HETATM   30  C27 UNL     1      -4.416  -0.078  -0.029  1.00  0.00     0.000 C 
HETATM   31  O4  UNL     1      -5.914  -2.689  -0.522  1.00  0.00    -0.224 OA
ENDROOT
TORSDOF 0
