REMARK  7 active torsions:
REMARK  status: ('A' for Active; 'I' for Inactive)
REMARK    1  A    between atoms: C4_4  and  C6_6 
REMARK    2  A    between atoms: C6_6  and  C7_7 
REMARK    3  A    between atoms: C7_7  and  C8_8 
REMARK    4  A    between atoms: C8_8  and  C9_9 
REMARK    5  A    between atoms: C9_9  and  C10_10 
REMARK    6  A    between atoms: C10_10  and  C11_11 
REMARK    7  A    between atoms: C11_11  and  C12_12 
ROOT
HETATM    1  C7  UNL     1       0.180   0.004   0.746  1.00  0.00     0.000 C 
ENDROOT
BRANCH   1   2
HETATM    2  C6  UNL     1       0.447  -1.416   1.244  1.00  0.00     0.004 C 
BRANCH   2   3
HETATM    3  C4  UNL     1       1.316  -1.361   2.496  1.00  0.00     0.022 C 
HETATM    4  C3  UNL     1       1.516  -2.772   3.076  1.00  0.00     0.009 C 
HETATM    5  C2  UNL     1       2.867  -3.217   2.500  1.00  0.00     0.026 C 
HETATM    6  C1  UNL     1       3.568  -1.932   2.168  1.00  0.00    -0.031 C 
HETATM    7  C5  UNL     1       2.711  -0.906   2.168  1.00  0.00    -0.031 C 
ENDBRANCH   2   3
ENDBRANCH   1   2
BRANCH   1   8
HETATM    8  C8  UNL     1      -0.740   0.037  -0.475  1.00  0.00     0.000 C 
BRANCH   8   9
HETATM    9  C9  UNL     1      -1.006   1.457  -0.975  1.00  0.00     0.001 C 
BRANCH   9  10
HETATM   10  C10 UNL     1      -1.926   1.492  -2.195  1.00  0.00     0.011 C 
BRANCH  10  11
HETATM   11  C11 UNL     1      -2.195   2.912  -2.693  1.00  0.00     0.098 C 
BRANCH  11  12
HETATM   12  C12 UNL     1      -3.070   2.936  -3.918  1.00  0.00     0.185 C 
HETATM   13  O1  UNL     1      -2.898   3.986  -4.715  1.00  0.00    -0.647 OA
HETATM   14  O2  UNL     1      -3.861   2.049  -4.133  1.00  0.00    -0.647 OA
ENDBRANCH  11  12
ENDBRANCH  10  11
ENDBRANCH   9  10
ENDBRANCH   8   9
ENDBRANCH   1   8
TORSDOF 7
