REMARK  2 active torsions:
REMARK  status: ('A' for Active; 'I' for Inactive)
REMARK    1  A    between atoms: C7_7  and  O2_13 
REMARK    2  A    between atoms: O2_13  and  C12_14 
ROOT
HETATM    1  C1  UNL     1      -2.629   1.115  -0.303  1.00  0.00     0.035 C 
HETATM    2  C2  UNL     1      -2.342   2.441   0.430  1.00  0.00     0.032 C 
HETATM    3  C3  UNL     1      -1.043   2.752   1.203  1.00  0.00     0.120 A 
HETATM    4  C4  UNL     1       0.389   2.119   0.984  1.00  0.00     0.168 A 
HETATM    5  C5  UNL     1       0.779   1.131  -0.133  1.00  0.00     0.160 C 
HETATM    6  C6  UNL     1       1.137  -0.285   0.389  1.00  0.00     0.086 C 
HETATM    7  C7  UNL     1       0.740  -1.430  -0.562  1.00  0.00     0.133 C 
HETATM    8  C8  UNL     1      -0.758  -1.492  -0.910  1.00  0.00     0.060 C 
HETATM    9  C9  UNL     1      -1.647  -1.373   0.334  1.00  0.00     0.120 A 
HETATM   10  C10 UNL     1      -2.545  -0.107   0.619  1.00  0.00     0.140 A 
HETATM   11  O1  UNL     1      -2.975  -1.242  -0.064  1.00  0.00    -0.357 OA
HETATM   12  C11 UNL     1      -1.576  -2.465   1.393  1.00  0.00     0.032 C 
HETATM   13  C14 UNL     1       2.625  -0.145   0.504  1.00  0.00     0.045 C 
HETATM   14  C15 UNL     1       3.426  -0.965   1.205  1.00  0.00     0.001 C 
HETATM   15  C16 UNL     1       3.033   1.020  -0.266  1.00  0.00     0.292 C 
HETATM   16  O4  UNL     1       1.967   1.656  -0.746  1.00  0.00    -0.298 OA
HETATM   17  O5  UNL     1       4.186   1.342  -0.437  1.00  0.00    -0.260 OA
HETATM   18  O6  UNL     1      -0.582   1.607   1.842  1.00  0.00    -0.354 OA
HETATM   19  C17 UNL     1      -1.117   3.877   2.227  1.00  0.00     0.032 C 
ENDROOT
BRANCH   7  20
HETATM   20  O2  UNL     1       1.473  -1.322  -1.779  1.00  0.00    -0.304 OA
BRANCH  20  21
HETATM   21  C12 UNL     1       1.486  -2.463  -2.463  1.00  0.00     0.272 C 
HETATM   22  C13 UNL     1       2.102  -2.379  -3.836  1.00  0.00     0.106 C 
HETATM   23  O3  UNL     1       1.045  -3.506  -2.043  1.00  0.00    -0.264 OA
ENDBRANCH  20  21
ENDBRANCH   7  20
TORSDOF 2
