REMARK  3 active torsions:
REMARK  status: ('A' for Active; 'I' for Inactive)
REMARK    1  A    between atoms: C12_14  and  C19_21 
REMARK    2  A    between atoms: C12_14  and  C21_25 
REMARK    3  A    between atoms: C19_21  and  O1_22 
ROOT
HETATM    1  C1  UNL     1       5.459  -0.078   1.383  1.00  0.00     0.000 A 
HETATM    2  C2  UNL     1       5.992  -0.670   0.205  1.00  0.00     0.002 A 
HETATM    3  C3  UNL     1       5.127  -1.258  -0.754  1.00  0.00     0.019 A 
HETATM    4  C4  UNL     1       3.734  -1.238  -0.506  1.00  0.00     0.081 A 
HETATM    5  C5  UNL     1       3.219  -0.670   0.635  1.00  0.00     0.015 A 
HETATM    6  C6  UNL     1       4.057  -0.074   1.609  1.00  0.00     0.001 A 
HETATM    7  C7  UNL     1       1.873  -0.762   0.676  1.00  0.00    -0.001 A 
HETATM    8  C8  UNL     1       1.490  -1.420  -0.496  1.00  0.00     0.113 A 
HETATM    9  N1  UNL     1       2.660  -1.721  -1.242  1.00  0.00    -0.246 NA
HETATM   10  C9  UNL     1       0.031  -1.721  -0.850  1.00  0.00     0.349 C 
HETATM   11  N2  UNL     1      -0.801  -1.682   0.402  1.00  0.00     0.169 N 
HETATM   12  C10 UNL     1      -0.590  -0.375   1.108  1.00  0.00     0.239 C 
HETATM   13  C11 UNL     1       0.852  -0.303   1.701  1.00  0.00     0.062 C 
HETATM   14  C12 UNL     1      -0.982   0.814   0.143  1.00  0.00     0.142 C 
HETATM   15  C13 UNL     1      -1.582   0.234  -1.170  1.00  0.00     0.038 C 
HETATM   16  C14 UNL     1      -0.529  -0.664  -1.861  1.00  0.00     0.074 C 
HETATM   17  C15 UNL     1      -2.705  -0.709  -0.779  1.00  0.00    -0.015 C 
HETATM   18  C16 UNL     1      -2.248  -1.844   0.117  1.00  0.00     0.276 C 
HETATM   19  C17 UNL     1      -3.988  -0.582  -1.170  1.00  0.00    -0.032 C 
HETATM   20  C18 UNL     1      -4.449   0.545  -2.059  1.00  0.00     0.030 C 
HETATM   21  O4  UNL     1      -0.049  -3.020  -1.414  1.00  0.00    -0.186 OA
ENDROOT
BRANCH  14  22
HETATM   22  C19 UNL     1      -1.996   1.715   0.811  1.00  0.00     0.276 C 
HETATM   23  O2  UNL     1      -2.951   2.135   0.201  1.00  0.00    -0.264 OA
BRANCH  22  24
HETATM   24  O1  UNL     1      -1.752   1.992   2.088  1.00  0.00    -0.299 OA
HETATM   25  C20 UNL     1      -2.736   2.844   2.654  1.00  0.00     0.184 C 
ENDBRANCH  22  24
ENDBRANCH  14  22
BRANCH  14  26
HETATM   26  C21 UNL     1       0.201   1.728  -0.205  1.00  0.00     0.194 C 
HETATM   27  O3  UNL     1      -0.248   2.709  -1.113  1.00  0.00    -0.220 OA
ENDBRANCH  14  26
TORSDOF 3
