REMARK  3 active torsions:
REMARK  status: ('A' for Active; 'I' for Inactive)
REMARK    1  A    between atoms: C4_4  and  O2_9 
REMARK    2  A    between atoms: C5_5  and  O1_7 
REMARK    3  A    between atoms: C18_22  and  O4_24 
ROOT
HETATM    1  C1  UNL     1       0.328  -0.143  -0.496  1.00  0.00     0.007 A 
HETATM    2  C2  UNL     1       1.246  -1.238  -0.656  1.00  0.00    -0.022 A 
HETATM    3  C3  UNL     1       1.498  -1.760  -1.953  1.00  0.00     0.022 A 
HETATM    4  C4  UNL     1       0.865  -1.217  -3.090  1.00  0.00     0.116 A 
HETATM    5  C5  UNL     1      -0.031  -0.139  -2.945  1.00  0.00     0.116 A 
HETATM    6  C6  UNL     1      -0.293   0.391  -1.664  1.00  0.00     0.024 A 
HETATM    7  C9  UNL     1       1.957  -1.861   0.500  1.00  0.00     0.028 C 
HETATM    8  C10 UNL     1       2.717  -0.902   1.447  1.00  0.00     0.040 C 
HETATM    9  C11 UNL     1       2.611   0.602   1.152  1.00  0.00     0.251 C 
HETATM   10  N1  UNL     1       1.266   1.150   1.383  1.00  0.00     0.142 N 
HETATM   11  C12 UNL     1       0.045   0.440   0.873  1.00  0.00     0.241 C 
HETATM   12  C13 UNL     1      -1.049   1.545   0.840  1.00  0.00     0.169 A 
HETATM   13  C14 UNL     1      -0.303   2.908   0.812  1.00  0.00     0.180 A 
HETATM   14  C15 UNL     1       1.166   2.586   1.023  1.00  0.00     0.283 C 
HETATM   15  O3  UNL     1      -1.010   2.457   1.910  1.00  0.00    -0.348 OA
HETATM   16  C16 UNL     1      -2.518   1.217   0.652  1.00  0.00     0.003 C 
HETATM   17  C17 UNL     1      -2.934   0.215   1.455  1.00  0.00     0.001 C 
HETATM   18  C18 UNL     1      -1.977  -0.465   2.418  1.00  0.00     0.140 C 
HETATM   19  C19 UNL     1      -0.533  -0.635   1.861  1.00  0.00     0.072 C 
ENDROOT
BRANCH   4  20
HETATM   20  O2  UNL     1       1.121  -1.725  -4.305  1.00  0.00    -0.326 OA
HETATM   21  C8  UNL     1       2.037  -2.807  -4.395  1.00  0.00     0.181 C 
ENDBRANCH   4  20
BRANCH   5  22
HETATM   22  O1  UNL     1      -0.635   0.385  -4.022  1.00  0.00    -0.326 OA
HETATM   23  C7  UNL     1      -1.557   1.445  -3.818  1.00  0.00     0.181 C 
ENDBRANCH   5  22
BRANCH  18  24
HETATM   24  O4  UNL     1      -1.940   0.246   3.639  1.00  0.00    -0.350 OA
HETATM   25  C20 UNL     1      -3.170   0.231   4.328  1.00  0.00     0.175 C 
ENDBRANCH  18  24
TORSDOF 3
