REMARK  5 active torsions:
REMARK  status: ('A' for Active; 'I' for Inactive)
REMARK    1  A    between atoms: C11_12  and  O2_13 
REMARK    2  A    between atoms: O2_13  and  C12_14 
REMARK    3  A    between atoms: C12_14  and  C13_15 
REMARK    4  A    between atoms: C19_22  and  O6_29 
REMARK    5  A    between atoms: O6_29  and  C24_30 
ROOT
HETATM    1  C1  UNL     1      -1.879  -0.352  -0.447  1.00  0.00     0.069 C 
HETATM    2  C2  UNL     1      -1.969  -0.502  -1.908  1.00  0.00    -0.012 C 
HETATM    3  C3  UNL     1      -2.588   0.492  -2.543  1.00  0.00    -0.019 C 
HETATM    4  C4  UNL     1      -3.066   1.488  -1.524  1.00  0.00     0.171 C 
HETATM    5  C5  UNL     1      -2.977   0.713  -0.182  1.00  0.00     0.046 C 
HETATM    6  O1  UNL     1      -4.395   1.902  -1.772  1.00  0.00    -0.219 OA
HETATM    7  C6  UNL     1      -2.795   0.607  -4.031  1.00  0.00     0.028 C 
HETATM    8  C7  UNL     1      -1.381  -1.795  -2.352  1.00  0.00     0.190 C 
HETATM    9  C8  UNL     1       0.068  -1.658  -2.762  1.00  0.00     0.183 C 
HETATM   10  C9  UNL     1       0.959  -0.561  -2.152  1.00  0.00     0.087 C 
HETATM   11  C10 UNL     1       0.803  -0.498  -0.582  1.00  0.00     0.068 C 
HETATM   12  C11 UNL     1      -0.492   0.226  -0.076  1.00  0.00     0.133 C 
HETATM   13  C19 UNL     1       2.018   0.035   0.217  1.00  0.00     0.156 C 
HETATM   14  C20 UNL     1       3.400   0.252  -0.440  1.00  0.00     0.146 C 
HETATM   15  C21 UNL     1       3.412   0.213  -1.967  1.00  0.00     0.066 C 
HETATM   16  C22 UNL     1       2.451  -0.840  -2.531  1.00  0.00     0.161 C 
HETATM   17  O4  UNL     1       2.641  -0.844  -3.940  1.00  0.00    -0.223 OA
HETATM   18  O5  UNL     1       3.639   1.576  -0.004  1.00  0.00    -0.351 OA
HETATM   19  C23 UNL     1       2.254   1.559   0.268  1.00  0.00     0.172 C 
HETATM   20  C26 UNL     1       0.555   0.787  -2.777  1.00  0.00     0.010 C 
HETATM   21  O8  UNL     1       0.498  -2.447  -3.574  1.00  0.00    -0.293 OA
HETATM   22  O9  UNL     1      -1.447  -2.553  -1.152  1.00  0.00    -0.350 OA
HETATM   23  C27 UNL     1      -2.094  -1.844  -0.094  1.00  0.00     0.099 C 
HETATM   24  C28 UNL     1      -3.566  -2.250  -0.154  1.00  0.00     0.030 C 
HETATM   25  C29 UNL     1      -1.477  -2.287   1.227  1.00  0.00     0.030 C 
ENDROOT
BRANCH  12  26
HETATM   26  O2  UNL     1      -0.445   0.336   1.342  1.00  0.00    -0.300 OA
BRANCH  26  27
HETATM   27  C12 UNL     1      -0.449   1.600   1.752  1.00  0.00     0.296 C 
HETATM   28  O3  UNL     1      -0.828   2.527   1.074  1.00  0.00    -0.259 OA
BRANCH  27  29
HETATM   29  C13 UNL     1       0.057   1.820   3.141  1.00  0.00     0.063 A 
HETATM   30  C14 UNL     1       0.486   0.726   3.914  1.00  0.00     0.005 A 
HETATM   31  C15 UNL     1       0.963   0.935   5.221  1.00  0.00     0.000 A 
HETATM   32  C16 UNL     1       1.008   2.234   5.754  1.00  0.00     0.000 A 
HETATM   33  C17 UNL     1       0.578   3.326   4.982  1.00  0.00     0.000 A 
HETATM   34  C18 UNL     1       0.102   3.121   3.676  1.00  0.00     0.005 A 
ENDBRANCH  27  29
ENDBRANCH  26  27
ENDBRANCH  12  26
BRANCH  13  35
HETATM   35  O6  UNL     1       2.082  -0.606   1.486  1.00  0.00    -0.302 OA
BRANCH  35  36
HETATM   36  C24 UNL     1       2.578  -1.838   1.406  1.00  0.00     0.272 C 
HETATM   37  C25 UNL     1       2.789  -2.527   2.729  1.00  0.00     0.106 C 
HETATM   38  O7  UNL     1       2.848  -2.389   0.365  1.00  0.00    -0.264 OA
ENDBRANCH  35  36
ENDBRANCH  13  35
TORSDOF 5
