REMARK  5 active torsions:
REMARK  status: ('A' for Active; 'I' for Inactive)
REMARK    1  A    between atoms: C7_7  and  O5_21 
REMARK    2  A    between atoms: C8_8  and  O2_12 
REMARK    3  A    between atoms: O2_12  and  C11_13 
REMARK    4  A    between atoms: C11_13  and  C12_14 
REMARK    5  A    between atoms: O5_21  and  C17_22 
ROOT
HETATM    1  C1  UNL     1      -3.103   2.064   0.404  1.00  0.00     0.103 A 
HETATM    2  C2  UNL     1      -3.703   3.307   0.750  1.00  0.00     0.023 A 
HETATM    3  C3  UNL     1      -2.990   4.268   1.502  1.00  0.00     0.004 A 
HETATM    4  C4  UNL     1      -1.674   3.982   1.926  1.00  0.00     0.024 A 
HETATM    5  C5  UNL     1      -1.064   2.748   1.602  1.00  0.00     0.094 A 
HETATM    6  C6  UNL     1      -1.771   1.787   0.816  1.00  0.00     0.053 A 
HETATM    7  C7  UNL     1      -1.109   0.508   0.441  1.00  0.00     0.180 C 
HETATM    8  C8  UNL     1       0.416   0.553   0.648  1.00  0.00     0.184 C 
HETATM    9  C9  UNL     1       0.756   1.201   1.996  1.00  0.00     0.152 C 
HETATM   10  O1  UNL     1       0.188   2.514   2.051  1.00  0.00    -0.331 OA
HETATM   11  C10 UNL     1       2.264   1.307   2.238  1.00  0.00     0.035 C 
HETATM   12  C19 UNL     1      -5.094   3.574   0.301  1.00  0.00     0.007 A 
HETATM   13  C20 UNL     1      -5.740   2.631  -0.410  1.00  0.00     0.069 A 
HETATM   14  C21 UNL     1      -5.066   1.355  -0.732  1.00  0.00     0.300 A 
HETATM   15  O7  UNL     1      -3.801   1.152  -0.311  1.00  0.00    -0.273 OA
HETATM   16  O8  UNL     1      -5.674   0.525  -1.369  1.00  0.00    -0.259 OA
ENDROOT
BRANCH   8  17
HETATM   17  O2  UNL     1       0.940  -0.768   0.600  1.00  0.00    -0.297 OA
BRANCH  17  18
HETATM   18  C11 UNL     1       2.162  -0.809   0.078  1.00  0.00     0.299 C 
HETATM   19  O4  UNL     1       2.758   0.166  -0.318  1.00  0.00    -0.262 OA
BRANCH  18  20
HETATM   20  C12 UNL     1       2.774  -2.193   0.010  1.00  0.00     0.192 A 
HETATM   21  C13 UNL     1       3.024  -2.859   1.357  1.00  0.00     0.042 C 
HETATM   22  O3  UNL     1       1.953  -3.027  -0.742  1.00  0.00    -0.349 OA
HETATM   23  C14 UNL     1       3.197  -2.867  -1.346  1.00  0.00     0.125 A 
HETATM   24  C15 UNL     1       2.998  -2.133  -2.664  1.00  0.00     0.033 C 
HETATM   25  C16 UNL     1       3.899  -4.219  -1.344  1.00  0.00     0.033 C 
ENDBRANCH  18  20
ENDBRANCH  17  18
ENDBRANCH   8  17
BRANCH   7  26
HETATM   26  O5  UNL     1      -1.363   0.191  -0.922  1.00  0.00    -0.297 OA
BRANCH  26  27
HETATM   27  C17 UNL     1      -1.176  -1.100  -1.186  1.00  0.00     0.273 C 
HETATM   28  C18 UNL     1      -1.006  -1.438  -2.643  1.00  0.00     0.106 C 
HETATM   29  O6  UNL     1      -1.141  -1.961  -0.338  1.00  0.00    -0.264 OA
ENDBRANCH  26  27
ENDBRANCH   7  26
TORSDOF 5
