REMARK  4 active torsions:
REMARK  status: ('A' for Active; 'I' for Inactive)
REMARK    1  A    between atoms: C7_7  and  C12_12 
REMARK    2  A    between atoms: C12_12  and  C13_13 
REMARK    3  A    between atoms: C13_13  and  C14_14 
REMARK    4  A    between atoms: C15_15  and  C16_16 
ROOT
HETATM    1  C1  UNL     1       2.928  -0.113   0.819  1.00  0.00     0.033 C 
HETATM    2  C2  UNL     1       2.975   1.162   1.672  1.00  0.00     0.152 C 
HETATM    3  C3  UNL     1       1.734   2.080   1.422  1.00  0.00     0.028 C 
HETATM    4  C4  UNL     1       0.516   1.281   0.848  1.00  0.00     0.003 C 
HETATM    5  C5  UNL     1       0.391  -0.176   1.389  1.00  0.00     0.004 C 
HETATM    6  C6  UNL     1       1.699  -0.982   1.139  1.00  0.00     0.003 C 
HETATM    7  C7  UNL     1      -0.815  -0.902   0.721  1.00  0.00     0.019 C 
HETATM    8  C8  UNL     1      -2.082  -0.086   0.840  1.00  0.00    -0.044 C 
HETATM    9  C9  UNL     1      -2.012   1.340   0.354  1.00  0.00     0.022 C 
HETATM   10  C10 UNL     1      -0.815   2.065   0.983  1.00  0.00     0.004 C 
HETATM   11  C11 UNL     1      -3.213  -0.601   1.358  1.00  0.00    -0.009 C 
HETATM   12  C18 UNL     1       0.131  -0.113   2.904  1.00  0.00     0.000 C 
HETATM   13  C19 UNL     1       2.127   3.133   0.375  1.00  0.00     0.003 C 
HETATM   14  C20 UNL     1       1.354   2.864   2.692  1.00  0.00     0.003 C 
HETATM   15  O3  UNL     1       3.088   0.770   3.029  1.00  0.00    -0.224 OA
ENDROOT
BRANCH   7  16
HETATM   16  C12 UNL     1      -0.592  -1.199  -0.769  1.00  0.00     0.008 C 
BRANCH  16  17
HETATM   17  C13 UNL     1      -1.869  -1.648  -1.478  1.00  0.00     0.022 C 
BRANCH  17  18
HETATM   18  C14 UNL     1      -1.598  -2.207  -2.850  1.00  0.00    -0.038 C 
HETATM   19  C15 UNL     1      -2.014  -1.510  -3.920  1.00  0.00     0.062 C 
HETATM   20  C17 UNL     1      -0.879  -3.510  -3.078  1.00  0.00     0.027 C 
BRANCH  19  21
HETATM   21  C16 UNL     1      -1.774  -2.010  -5.279  1.00  0.00     0.210 C 
HETATM   22  O1  UNL     1      -1.125  -1.181  -6.092  1.00  0.00    -0.644 OA
HETATM   23  O2  UNL     1      -2.158  -3.109  -5.603  1.00  0.00    -0.644 OA
ENDBRANCH  19  21
ENDBRANCH  17  18
ENDBRANCH  16  17
ENDBRANCH   7  16
TORSDOF 4
