REMARK  2 active torsions:
REMARK  status: ('A' for Active; 'I' for Inactive)
REMARK    1  A    between atoms: C15_15  and  C18_18 
REMARK    2  A    between atoms: C21_21  and  C22_23 
ROOT
HETATM    1  C1  UNL     1      -5.149   0.125   1.293  1.00  0.00     0.065 C 
HETATM    2  C2  UNL     1      -5.615   1.070   0.209  1.00  0.00     0.150 C 
HETATM    3  C3  UNL     1      -4.789   2.322   0.000  1.00  0.00     0.051 C 
HETATM    4  C4  UNL     1      -3.291   1.955  -0.270  1.00  0.00     0.006 C 
HETATM    5  C5  UNL     1      -2.814   0.607   0.377  1.00  0.00     0.001 C 
HETATM    6  C6  UNL     1      -3.660   0.324   1.641  1.00  0.00     0.008 C 
HETATM    7  C7  UNL     1      -1.291   0.627   0.730  1.00  0.00     0.000 C 
HETATM    8  C8  UNL     1      -0.463   1.400  -0.340  1.00  0.00     0.000 C 
HETATM    9  C9  UNL     1      -0.912   2.883  -0.451  1.00  0.00     0.000 C 
HETATM   10  C10 UNL     1      -2.344   3.129   0.049  1.00  0.00     0.000 C 
HETATM   11  C11 UNL     1       1.037   1.334   0.055  1.00  0.00     0.000 C 
HETATM   12  C12 UNL     1       1.504  -0.123   0.156  1.00  0.00     0.002 C 
HETATM   13  C13 UNL     1       0.783  -0.818   1.314  1.00  0.00     0.000 C 
HETATM   14  C14 UNL     1      -0.723  -0.793   1.004  1.00  0.00     0.000 C 
HETATM   15  C15 UNL     1       3.027  -0.023   0.264  1.00  0.00     0.025 C 
HETATM   16  C16 UNL     1       3.371   1.207  -0.590  1.00  0.00     0.002 C 
HETATM   17  C17 UNL     1       2.035   1.842  -0.990  1.00  0.00     0.000 C 
HETATM   18  C26 UNL     1       1.336   2.084   1.365  1.00  0.00     0.000 C 
HETATM   19  C27 UNL     1      -0.633   0.729  -1.715  1.00  0.00     0.000 C 
HETATM   20  C28 UNL     1      -3.092  -0.527  -0.633  1.00  0.00     0.000 C 
HETATM   21  C29 UNL     1      -4.957   3.172   1.266  1.00  0.00     0.007 C 
HETATM   22  C30 UNL     1      -5.340   3.135  -1.180  1.00  0.00     0.007 C 
HETATM   23  O2  UNL     1      -6.598   0.822  -0.453  1.00  0.00    -0.296 OA
ENDROOT
BRANCH  15  24
HETATM   24  C18 UNL     1       3.713  -1.297  -0.230  1.00  0.00     0.093 C 
HETATM   25  C19 UNL     1       3.580  -1.525  -1.734  1.00  0.00     0.030 C 
HETATM   26  C20 UNL     1       3.820  -3.031  -1.801  1.00  0.00     0.036 C 
HETATM   27  C21 UNL     1       3.074  -3.516  -0.553  1.00  0.00     0.134 C 
HETATM   28  O1  UNL     1       3.084  -2.422   0.344  1.00  0.00    -0.357 OA
HETATM   29  C25 UNL     1       5.172  -1.281   0.213  1.00  0.00     0.030 C 
BRANCH  27  30
HETATM   30  C22 UNL     1       3.678  -4.734   0.102  1.00  0.00    -0.017 C 
HETATM   31  C23 UNL     1       2.939  -5.856   0.172  1.00  0.00    -0.007 C 
HETATM   32  C24 UNL     1       5.066  -4.750   0.680  1.00  0.00     0.029 C 
ENDBRANCH  27  30
ENDBRANCH  15  24
TORSDOF 2
