REMARK  2 active torsions:
REMARK  status: ('A' for Active; 'I' for Inactive)
REMARK    1  A    between atoms: C3_3  and  C8_9 
REMARK    2  A    between atoms: C4_5  and  C6_7 
ROOT
HETATM    1  C1  UNL     1       0.596  -1.473  -0.742  1.00  0.00     0.030 C 
HETATM    2  C2  UNL     1      -0.678  -1.492   0.090  1.00  0.00     0.035 C 
HETATM    3  C3  UNL     1      -1.168  -0.066  -0.141  1.00  0.00     0.143 C 
HETATM    4  O1  UNL     1       0.008   0.715  -0.121  1.00  0.00    -0.359 OA
HETATM    5  C4  UNL     1       1.141  -0.066  -0.463  1.00  0.00     0.093 C 
HETATM    6  C5  UNL     1       2.068  -0.076   0.750  1.00  0.00     0.030 C 
ENDROOT
BRANCH   3   7
HETATM    7  C8  UNL     1      -2.109   0.430   0.959  1.00  0.00     0.152 C 
HETATM    8  C9  UNL     1      -1.342   0.539   2.277  1.00  0.00     0.035 C 
HETATM    9  C10 UNL     1      -2.738   1.756   0.533  1.00  0.00     0.035 C 
HETATM   10  O2  UNL     1      -3.143  -0.514   1.129  1.00  0.00    -0.224 OA
ENDBRANCH   3   7
BRANCH   5  11
HETATM   11  C6  UNL     1       1.811   0.543  -1.695  1.00  0.00     0.027 C 
HETATM   12  C7  UNL     1       3.020  -0.309  -2.090  1.00  0.00     0.003 C 
ENDBRANCH   5  11
TORSDOF 2
