REMARK  4 active torsions:
REMARK  status: ('A' for Active; 'I' for Inactive)
REMARK    1  A    between atoms: C16_17  and  C19_20 
REMARK    2  A    between atoms: C19_20  and  C21_22 
REMARK    3  A    between atoms: C22_23  and  C23_24 
REMARK    4  A    between atoms: C23_24  and  C24_25 
ROOT
HETATM    1  C1  UNL     1      -5.235  -0.161   3.687  1.00  0.00     0.033 C 
HETATM    2  C2  UNL     1      -5.396  -1.678   3.942  1.00  0.00     0.152 C 
HETATM    3  C3  UNL     1      -4.164  -2.563   3.663  1.00  0.00     0.036 C 
HETATM    4  C4  UNL     1      -3.614  -2.030   2.352  1.00  0.00     0.036 C 
HETATM    5  C5  UNL     1      -3.054  -0.593   2.477  1.00  0.00     0.029 C 
HETATM    6  C6  UNL     1      -4.334   0.263   2.493  1.00  0.00     0.005 C 
HETATM    7  C7  UNL     1      -2.104  -0.617   1.244  1.00  0.00     0.108 C 
HETATM    8  C8  UNL     1      -0.830  -1.310   1.655  1.00  0.00    -0.022 C 
HETATM    9  C9  UNL     1      -1.170  -2.586   1.871  1.00  0.00    -0.003 C 
HETATM   10  C10 UNL     1      -2.605  -2.677   1.415  1.00  0.00     0.137 C 
HETATM   11  O1  UNL     1      -2.615  -1.647   0.427  1.00  0.00    -0.353 OA
HETATM   12  C11 UNL     1       0.520  -0.678   1.572  1.00  0.00     0.020 C 
HETATM   13  C12 UNL     1       0.733   0.000   0.189  1.00  0.00     0.004 C 
HETATM   14  C13 UNL     1      -0.612   0.422  -0.481  1.00  0.00     0.003 C 
HETATM   15  C14 UNL     1      -1.801   0.655   0.472  1.00  0.00     0.031 C 
HETATM   16  C15 UNL     1       1.407  -1.044  -0.730  1.00  0.00     0.000 C 
HETATM   17  C16 UNL     1       1.625   1.246   0.500  1.00  0.00     0.004 C 
HETATM   18  C17 UNL     1       2.035   1.098   1.980  1.00  0.00     0.001 C 
HETATM   19  C18 UNL     1       0.836   0.394   2.618  1.00  0.00     0.004 C 
HETATM   20  C28 UNL     1      -2.264  -0.280   3.772  1.00  0.00     0.003 C 
HETATM   21  O2  UNL     1      -5.819  -1.896   5.268  1.00  0.00    -0.224 OA
ENDROOT
BRANCH  17  22
HETATM   22  C19 UNL     1       2.850   1.516  -0.402  1.00  0.00     0.022 C 
HETATM   23  C20 UNL     1       3.634   2.771   0.025  1.00  0.00     0.005 C 
BRANCH  22  24
HETATM   24  C21 UNL     1       2.482   1.697  -1.858  1.00  0.00    -0.031 C 
HETATM   25  C22 UNL     1       3.145   1.099  -2.861  1.00  0.00    -0.031 C 
BRANCH  25  26
HETATM   26  C23 UNL     1       2.807   1.276  -4.325  1.00  0.00     0.022 C 
HETATM   27  C27 UNL     1       1.578   0.419  -4.667  1.00  0.00     0.005 C 
BRANCH  26  28
HETATM   28  C24 UNL     1       4.037   1.010  -5.227  1.00  0.00     0.004 C 
HETATM   29  C25 UNL     1       3.868   1.635  -6.625  1.00  0.00     0.000 C 
HETATM   30  C26 UNL     1       4.396  -0.480  -5.368  1.00  0.00     0.000 C 
ENDBRANCH  26  28
ENDBRANCH  25  26
ENDBRANCH  22  24
ENDBRANCH  17  22
TORSDOF 4
