REMARK  14 active torsions:
REMARK  status: ('A' for Active; 'I' for Inactive)
REMARK    1  A    between atoms: C3_4  and  C5_6 
REMARK    2  A    between atoms: C5_6  and  C6_7 
REMARK    3  A    between atoms: C6_7  and  C7_8 
REMARK    4  A    between atoms: C7_8  and  C8_9 
REMARK    5  A    between atoms: C8_9  and  C9_10 
REMARK    6  A    between atoms: C9_10  and  C10_11 
REMARK    7  A    between atoms: C10_11  and  C11_12 
REMARK    8  A    between atoms: C11_12  and  C12_13 
REMARK    9  A    between atoms: C13_14  and  C14_15 
REMARK   10  A    between atoms: C15_16  and  C16_17 
REMARK   11  A    between atoms: C16_17  and  C17_18 
REMARK   12  A    between atoms: C17_18  and  C18_19 
REMARK   13  A    between atoms: C18_19  and  C19_20 
REMARK   14  A    between atoms: C19_20  and  C20_21 
ROOT
HETATM    1  C11 UNL     1       0.438   1.885  -1.447  1.00  0.00     0.026 C 
ENDROOT
BRANCH   1   2
HETATM    2  C10 UNL     1       1.508   0.793  -1.449  1.00  0.00     0.005 C 
BRANCH   2   3
HETATM    3  C9  UNL     1       2.928   1.361  -1.449  1.00  0.00     0.000 C 
BRANCH   3   4
HETATM    4  C8  UNL     1       4.000   0.270  -1.449  1.00  0.00     0.000 C 
BRANCH   4   5
HETATM    5  C7  UNL     1       5.420   0.836  -1.449  1.00  0.00     0.000 C 
BRANCH   5   6
HETATM    6  C6  UNL     1       6.490  -0.254  -1.449  1.00  0.00     0.007 C 
BRANCH   6   7
HETATM    7  C5  UNL     1       7.910   0.313  -1.449  1.00  0.00     0.051 C 
BRANCH   7   8
HETATM    8  C3  UNL     1       8.943  -0.793  -1.449  1.00  0.00     0.078 A 
HETATM    9  O1  UNL     1       8.584  -2.111  -1.449  1.00  0.00    -0.309 OA
HETATM   10  C2  UNL     1       9.772  -2.781  -1.449  1.00  0.00     0.122 A 
HETATM   11  C1  UNL     1      10.867  -1.914  -1.449  1.00  0.00     0.028 A 
HETATM   12  C4  UNL     1      10.330  -0.627  -1.449  1.00  0.00     0.022 A 
ENDBRANCH   7   8
ENDBRANCH   6   7
ENDBRANCH   5   6
ENDBRANCH   4   5
ENDBRANCH   3   4
ENDBRANCH   2   3
ENDBRANCH   1   2
BRANCH   1  13
HETATM   13  C12 UNL     1      -0.959   1.318  -1.455  1.00  0.00    -0.026 C 
HETATM   14  C13 UNL     1      -1.818   1.723  -0.506  1.00  0.00    -0.005 C 
BRANCH  14  15
HETATM   15  C14 UNL     1      -3.190   1.201  -0.469  1.00  0.00    -0.002 C 
HETATM   16  C15 UNL     1      -4.051   1.604   0.481  1.00  0.00     0.006 C 
BRANCH  16  17
HETATM   17  C16 UNL     1      -5.445   1.039   0.473  1.00  0.00     0.174 C 
HETATM   18  O2  UNL     1      -6.373   2.078   0.256  1.00  0.00    -0.219 OA
BRANCH  17  19
HETATM   19  C17 UNL     1      -5.803   0.348   1.789  1.00  0.00     0.038 C 
BRANCH  19  20
HETATM   20  C18 UNL     1      -7.123  -0.418   1.713  1.00  0.00     0.003 C 
BRANCH  20  21
HETATM   21  C19 UNL     1      -7.461  -1.143   3.018  1.00  0.00     0.000 C 
BRANCH  21  22
HETATM   22  C20 UNL     1      -8.783  -1.908   2.943  1.00  0.00     0.000 C 
HETATM   23  C21 UNL     1      -9.119  -2.631   4.246  1.00  0.00     0.000 C 
ENDBRANCH  21  22
ENDBRANCH  20  21
ENDBRANCH  19  20
ENDBRANCH  17  19
ENDBRANCH  16  17
ENDBRANCH  14  15
ENDBRANCH   1  13
TORSDOF 14
