REMARK  0 active torsions:
REMARK  status: ('A' for Active; 'I' for Inactive)
ROOT
HETATM    1  C1  UNL     1      -2.946   1.452  -0.639  1.00  0.00     0.000 C 
HETATM    2  C2  UNL     1      -3.088   0.106   0.087  1.00  0.00     0.000 C 
HETATM    3  C3  UNL     1      -1.876  -0.811  -0.158  1.00  0.00     0.000 C 
HETATM    4  C4  UNL     1      -0.562  -0.193   0.425  1.00  0.00     0.004 C 
HETATM    5  C5  UNL     1      -0.524   1.353   0.166  1.00  0.00     0.003 C 
HETATM    6  C6  UNL     1      -1.484   1.786  -0.959  1.00  0.00     0.000 C 
HETATM    7  C7  UNL     1       0.868   1.970  -0.128  1.00  0.00     0.035 C 
HETATM    8  C8  UNL     1       1.972   1.207   0.581  1.00  0.00     0.143 C 
HETATM    9  C9  UNL     1       1.953  -0.183   0.010  1.00  0.00    -0.016 C 
HETATM   10  C10 UNL     1       0.656  -0.894  -0.228  1.00  0.00     0.024 C 
HETATM   11  C11 UNL     1       3.178  -0.541  -0.405  1.00  0.00     0.036 C 
HETATM   12  C12 UNL     1       3.988   0.667  -0.153  1.00  0.00     0.291 C 
HETATM   13  O1  UNL     1       3.270   1.717   0.345  1.00  0.00    -0.297 OA
HETATM   14  O2  UNL     1       5.181   0.740  -0.426  1.00  0.00    -0.260 OA
HETATM   15  C13 UNL     1       3.608  -1.795  -1.097  1.00  0.00     0.036 C 
HETATM   16  C14 UNL     1      -0.511  -0.472   1.950  1.00  0.00     0.000 C 
HETATM   17  C15 UNL     1      -2.201  -2.237   0.330  1.00  0.00     0.000 C 
ENDROOT
TORSDOF 0
