REMARK  3 active torsions:
REMARK  status: ('A' for Active; 'I' for Inactive)
REMARK    1  A    between atoms: C13_14  and  C16_18 
REMARK       I    between atoms: C16_18  and  N3_20 
REMARK    2  A    between atoms: N3_20  and  C17_21 
REMARK    3  A    between atoms: C17_21  and  C19_23 
ROOT
HETATM    1  C1  UNL     1      -2.496   0.837  -0.667  1.00  0.00     0.015 A 
HETATM    2  C2  UNL     1      -2.631  -0.171  -1.531  1.00  0.00     0.001 A 
HETATM    3  C3  UNL     1      -1.446  -0.919  -2.058  1.00  0.00     0.066 C 
HETATM    4  C4  UNL     1      -0.371  -0.816  -0.957  1.00  0.00     0.246 C 
HETATM    5  C5  UNL     1      -0.230   0.619  -0.415  1.00  0.00     0.009 C 
HETATM    6  C6  UNL     1      -1.361   1.311  -0.143  1.00  0.00    -0.001 A 
HETATM    7  C7  UNL     1      -1.516   2.439   0.580  1.00  0.00    -0.000 A 
HETATM    8  C8  UNL     1      -2.734   2.965   0.819  1.00  0.00     0.002 A 
HETATM    9  C9  UNL     1      -3.858   2.420   0.319  1.00  0.00     0.019 A 
HETATM   10  C10 UNL     1      -3.713   1.344  -0.459  1.00  0.00     0.081 A 
HETATM   11  N1  UNL     1      -4.538   0.634  -1.113  1.00  0.00    -0.244 NA
HETATM   12  C11 UNL     1      -3.945  -0.281  -1.769  1.00  0.00     0.095 A 
HETATM   13  C12 UNL     1       0.987   1.144  -0.188  1.00  0.00     0.000 C 
HETATM   14  C13 UNL     1       2.231   0.503  -0.716  1.00  0.00     0.069 C 
HETATM   15  C14 UNL     1       1.914  -0.596  -1.743  1.00  0.00     0.282 C 
HETATM   16  N2  UNL     1       0.908  -1.483  -1.209  1.00  0.00     0.146 N 
HETATM   17  C15 UNL     1       0.785  -2.690  -2.010  1.00  0.00     0.286 C 
ENDROOT
BRANCH  14  18
HETATM   18  C16 UNL     1       3.491   0.318   0.131  1.00  0.00     0.277 C 
HETATM   19  O1  UNL     1       4.580   0.549  -0.341  1.00  0.00    -0.266 OA
HETATM   20  N3  UNL     1       3.441  -0.091   1.438  1.00  0.00    -0.214 NA
BRANCH  20  21
HETATM   21  C17 UNL     1       2.331  -0.535   2.291  1.00  0.00     0.073 C 
HETATM   22  C18 UNL     1       1.810  -1.953   2.025  1.00  0.00     0.050 C 
BRANCH  21  23
HETATM   23  C19 UNL     1       1.318   0.510   2.765  1.00  0.00     0.224 C 
HETATM   24  O2  UNL     1       0.010   0.169   2.356  1.00  0.00    -0.214 OA
ENDBRANCH  21  23
ENDBRANCH  20  21
ENDBRANCH  14  18
TORSDOF 3
