REMARK  4 active torsions:
REMARK  status: ('A' for Active; 'I' for Inactive)
REMARK    1  A    between atoms: C16_16  and  C19_19 
REMARK    2  A    between atoms: C19_19  and  C21_21 
REMARK    3  A    between atoms: C22_22  and  C23_23 
REMARK    4  A    between atoms: C23_23  and  C24_24 
ROOT
HETATM    1  C1  UNL     1      -6.410   0.988   0.844  1.00  0.00     0.070 C 
HETATM    2  C2  UNL     1      -6.627   2.434   1.217  1.00  0.00     0.173 C 
HETATM    3  C3  UNL     1      -5.447   3.283   1.461  1.00  0.00     0.033 C 
HETATM    4  C4  UNL     1      -4.176   2.834   1.367  1.00  0.00    -0.020 C 
HETATM    5  C5  UNL     1      -3.881   1.381   0.994  1.00  0.00     0.023 C 
HETATM    6  C6  UNL     1      -5.070   0.471   1.385  1.00  0.00     0.013 C 
HETATM    7  C7  UNL     1      -2.580   0.893   1.697  1.00  0.00     0.025 C 
HETATM    8  C8  UNL     1      -1.439   1.887   1.518  1.00  0.00    -0.030 C 
HETATM    9  C9  UNL     1      -1.768   3.316   1.664  1.00  0.00    -0.005 C 
HETATM   10  C10 UNL     1      -3.041   3.750   1.621  1.00  0.00    -0.004 C 
HETATM   11  C11 UNL     1      -0.186   1.459   1.256  1.00  0.00    -0.049 C 
HETATM   12  C12 UNL     1       0.170   0.021   1.000  1.00  0.00     0.015 C 
HETATM   13  C13 UNL     1      -0.762  -0.926   1.762  1.00  0.00     0.004 C 
HETATM   14  C14 UNL     1      -2.205  -0.572   1.356  1.00  0.00     0.005 C 
HETATM   15  C15 UNL     1       0.129  -0.250  -0.508  1.00  0.00     0.004 C 
HETATM   16  C16 UNL     1       1.631  -0.016   1.477  1.00  0.00     0.008 C 
HETATM   17  C17 UNL     1       2.186   1.330   0.977  1.00  0.00     0.005 C 
HETATM   18  C18 UNL     1       1.045   2.322   1.215  1.00  0.00     0.022 C 
HETATM   19  C28 UNL     1      -3.691   1.346  -0.531  1.00  0.00     0.005 C 
HETATM   20  O1  UNL     1      -7.740   2.891   1.320  1.00  0.00    -0.291 OA
ENDROOT
BRANCH  16  21
HETATM   21  C19 UNL     1       2.441  -1.205   0.965  1.00  0.00     0.022 C 
HETATM   22  C20 UNL     1       3.412  -1.402   2.129  1.00  0.00     0.005 C 
BRANCH  21  23
HETATM   23  C21 UNL     1       3.150  -0.900  -0.328  1.00  0.00    -0.031 C 
HETATM   24  C22 UNL     1       2.854  -1.637  -1.412  1.00  0.00    -0.031 C 
BRANCH  24  25
HETATM   25  C23 UNL     1       3.563  -1.332  -2.703  1.00  0.00     0.022 C 
HETATM   26  C27 UNL     1       2.615  -0.785  -3.773  1.00  0.00     0.005 C 
BRANCH  25  27
HETATM   27  C24 UNL     1       4.397  -2.512  -3.203  1.00  0.00     0.004 C 
HETATM   28  C25 UNL     1       5.543  -2.865  -2.256  1.00  0.00     0.000 C 
HETATM   29  C26 UNL     1       3.541  -3.725  -3.572  1.00  0.00     0.000 C 
ENDBRANCH  25  27
ENDBRANCH  24  25
ENDBRANCH  21  23
ENDBRANCH  16  21
TORSDOF 4
