REMARK  4 active torsions:
REMARK  status: ('A' for Active; 'I' for Inactive)
REMARK    1  A    between atoms: C3_3  and  C23_29 
REMARK    2  A    between atoms: C12_12  and  C20_25 
REMARK    3  A    between atoms: C14_14  and  O1_15 
REMARK    4  A    between atoms: O1_15  and  C15_16 
ROOT
HETATM    1  C1  UNL     1      -4.572  -0.633  -1.299  1.00  0.00     0.008 C 
HETATM    2  C2  UNL     1      -4.795   0.883  -1.424  1.00  0.00     0.022 C 
HETATM    3  C3  UNL     1      -3.438   1.463  -1.152  1.00  0.00    -0.049 C 
HETATM    4  C4  UNL     1      -2.482   0.531  -1.258  1.00  0.00    -0.035 C 
HETATM    5  C5  UNL     1      -3.070  -0.807  -1.611  1.00  0.00     0.018 C 
HETATM    6  C6  UNL     1      -2.418  -1.932  -0.797  1.00  0.00     0.004 C 
HETATM    7  C7  UNL     1      -0.881  -1.781  -0.775  1.00  0.00     0.007 C 
HETATM    8  C8  UNL     1      -0.393  -0.416  -0.197  1.00  0.00     0.044 C 
HETATM    9  C9  UNL     1      -1.022   0.684  -1.063  1.00  0.00    -0.025 C 
HETATM   10  C10 UNL     1      -0.395   1.728  -1.658  1.00  0.00    -0.005 C 
HETATM   11  C11 UNL     1       1.037   2.086  -1.758  1.00  0.00    -0.001 C 
HETATM   12  C12 UNL     1       2.100   1.262  -1.656  1.00  0.00     0.022 C 
HETATM   13  C13 UNL     1       1.918  -0.205  -1.361  1.00  0.00     0.060 C 
HETATM   14  C14 UNL     1       1.152  -0.367  -0.041  1.00  0.00     0.126 C 
HETATM   15  C21 UNL     1      -0.988  -0.238   1.211  1.00  0.00     0.007 C 
HETATM   16  C22 UNL     1      -2.918  -1.047  -3.113  1.00  0.00     0.004 C 
ENDROOT
BRANCH  14  17
HETATM   17  O1  UNL     1       1.625  -1.527   0.623  1.00  0.00    -0.331 OA
BRANCH  17  18
HETATM   18  C15 UNL     1       2.609  -1.248   1.600  1.00  0.00     0.270 C 
HETATM   19  C16 UNL     1       3.012  -2.543   2.352  1.00  0.00     0.241 C 
HETATM   20  C17 UNL     1       4.197  -2.287   3.312  1.00  0.00     0.220 C 
HETATM   21  O5  UNL     1       1.900  -3.022   3.094  1.00  0.00    -0.215 OA
HETATM   22  C18 UNL     1       5.332  -1.565   2.557  1.00  0.00     0.215 C 
HETATM   23  O4  UNL     1       4.674  -3.520   3.828  1.00  0.00    -0.218 OA
HETATM   24  C19 UNL     1       4.807  -0.320   1.812  1.00  0.00     0.181 C 
HETATM   25  O3  UNL     1       6.338  -1.147   3.463  1.00  0.00    -0.218 OA
HETATM   26  O2  UNL     1       3.746  -0.695   0.947  1.00  0.00    -0.326 OA
ENDBRANCH  17  18
ENDBRANCH  14  17
BRANCH  12  27
HETATM   27  C20 UNL     1       3.465   1.783  -1.822  1.00  0.00     0.230 C 
HETATM   28  O6  UNL     1       4.418   1.045  -1.733  1.00  0.00    -0.283 OA
ENDBRANCH  12  27
BRANCH   3  29
HETATM   29  C23 UNL     1      -3.233   2.912  -0.795  1.00  0.00     0.018 C 
HETATM   30  C24 UNL     1      -2.399   3.088   0.473  1.00  0.00     0.004 C 
HETATM   31  C25 UNL     1      -4.547   3.693  -0.752  1.00  0.00     0.004 C 
ENDBRANCH   3  29
TORSDOF 4
