REMARK  2 active torsions:
REMARK  status: ('A' for Active; 'I' for Inactive)
REMARK    1  A    between atoms: C3_3  and  C23_29 
REMARK    2  A    between atoms: C12_12  and  C20_25 
ROOT
HETATM    1  C1  UNL     1      -3.157   3.655   0.086  1.00  0.00     0.008 C 
HETATM    2  C2  UNL     1      -4.434   2.867   0.412  1.00  0.00     0.022 C 
HETATM    3  C3  UNL     1      -3.989   1.436   0.106  1.00  0.00    -0.052 C 
HETATM    4  C4  UNL     1      -2.611   1.368   0.094  1.00  0.00    -0.053 C 
HETATM    5  C5  UNL     1      -2.127   2.682   0.609  1.00  0.00     0.015 C 
HETATM    6  C6  UNL     1      -0.684   3.005   0.300  1.00  0.00     0.004 C 
HETATM    7  C7  UNL     1       0.244   1.801   0.651  1.00  0.00     0.003 C 
HETATM    8  C8  UNL     1      -0.097   0.739  -0.422  1.00  0.00     0.032 C 
HETATM    9  C9  UNL     1      -1.554   0.183  -0.081  1.00  0.00     0.024 C 
HETATM   10  C10 UNL     1      -1.896  -0.934  -0.994  1.00  0.00     0.030 C 
HETATM   11  C11 UNL     1      -1.264  -2.205  -0.380  1.00  0.00    -0.029 C 
HETATM   12  C12 UNL     1      -0.108  -2.408   0.298  1.00  0.00     0.013 C 
HETATM   13  C13 UNL     1       1.066  -1.419   0.477  1.00  0.00     0.163 C 
HETATM   14  O1  UNL     1       2.229  -2.296   0.218  1.00  0.00    -0.345 OA
HETATM   15  C14 UNL     1       3.373  -1.625  -0.374  1.00  0.00     0.205 C 
HETATM   16  C15 UNL     1       3.468  -0.234  -0.091  1.00  0.00     0.267 C 
HETATM   17  O2  UNL     1       4.614   0.256  -1.007  1.00  0.00    -0.326 OA
HETATM   18  C16 UNL     1       5.801  -0.682  -1.289  1.00  0.00     0.181 C 
HETATM   19  C17 UNL     1       5.921  -1.456  -0.071  1.00  0.00     0.214 C 
HETATM   20  C18 UNL     1       4.669  -2.372   0.090  1.00  0.00     0.217 C 
HETATM   21  O3  UNL     1       4.670  -3.568  -0.690  1.00  0.00    -0.218 OA
HETATM   22  O4  UNL     1       7.111  -2.235   0.054  1.00  0.00    -0.218 OA
HETATM   23  O5  UNL     1       2.253   0.461  -0.547  1.00  0.00    -0.329 OA
HETATM   24  C19 UNL     1       1.007  -0.339  -0.535  1.00  0.00     0.149 C 
HETATM   25  C21 UNL     1      -0.002   1.447  -1.810  1.00  0.00     0.003 C 
HETATM   26  C22 UNL     1      -2.270   2.611   2.148  1.00  0.00     0.004 C 
ENDROOT
BRANCH   3  27
HETATM   27  C23 UNL     1      -5.152   0.394  -0.059  1.00  0.00     0.018 C 
HETATM   28  C24 UNL     1      -5.800   0.595  -1.438  1.00  0.00     0.004 C 
HETATM   29  C25 UNL     1      -4.889  -1.102   0.182  1.00  0.00     0.004 C 
ENDBRANCH   3  27
BRANCH  12  30
HETATM   30  C20 UNL     1       0.140  -3.816   0.741  1.00  0.00     0.207 C 
HETATM   31  O6  UNL     1      -0.893  -4.654   0.211  1.00  0.00    -0.216 OA
ENDBRANCH  12  30
TORSDOF 2
