REMARK  1 active torsions:
REMARK  status: ('A' for Active; 'I' for Inactive)
REMARK    1  A    between atoms: C20_26  and  C23_29 
ROOT
HETATM    1  C1  UNL     1       3.399   1.614   0.275  1.00  0.00     0.004 C 
HETATM    2  C2  UNL     1       3.951   0.392  -0.463  1.00  0.00     0.015 C 
HETATM    3  C3  UNL     1       3.095  -0.793  -0.299  1.00  0.00    -0.053 C 
HETATM    4  C4  UNL     1       1.506  -0.585  -0.373  1.00  0.00     0.024 C 
HETATM    5  C5  UNL     1       1.091   0.616   0.623  1.00  0.00     0.029 C 
HETATM    6  C6  UNL     1       1.891   1.851   0.026  1.00  0.00     0.003 C 
HETATM    7  C7  UNL     1      -0.464   0.934   0.699  1.00  0.00     0.124 C 
HETATM    8  C8  UNL     1      -1.157   0.841  -0.611  1.00  0.00     0.083 C 
HETATM    9  C9  UNL     1      -1.522  -0.694  -0.828  1.00  0.00    -0.011 C 
HETATM   10  C10 UNL     1      -0.694  -1.736  -0.637  1.00  0.00    -0.032 C 
HETATM   11  C11 UNL     1       0.749  -1.829  -0.315  1.00  0.00     0.029 C 
HETATM   12  C12 UNL     1      -2.947  -1.105  -0.425  1.00  0.00     0.201 C 
HETATM   13  C13 UNL     1      -4.056   0.036  -0.543  1.00  0.00     0.191 C 
HETATM   14  C14 UNL     1      -3.521   1.214  -0.080  1.00  0.00     0.216 C 
HETATM   15  C15 UNL     1      -2.378   1.722  -0.459  1.00  0.00     0.214 C 
HETATM   16  O1  UNL     1      -2.378   2.545  -1.624  1.00  0.00    -0.218 OA
HETATM   17  C16 UNL     1      -2.178   2.231   1.157  1.00  0.00     0.267 C 
HETATM   18  O2  UNL     1      -0.732   2.334   1.228  1.00  0.00    -0.331 OA
HETATM   19  O3  UNL     1      -2.708   0.967   2.294  1.00  0.00    -0.329 OA
HETATM   20  C17 UNL     1      -4.368   0.325   2.393  1.00  0.00     0.148 C 
HETATM   21  C18 UNL     1      -5.096  -0.191   0.759  1.00  0.00     0.068 C 
HETATM   22  O4  UNL     1      -4.436   2.394   0.029  1.00  0.00    -0.218 OA
HETATM   23  O5  UNL     1      -4.561   0.143  -1.877  1.00  0.00    -0.220 OA
HETATM   24  O6  UNL     1      -2.752  -1.346   0.986  1.00  0.00    -0.216 OA
HETATM   25  C19 UNL     1       1.492   0.425   2.106  1.00  0.00     0.003 C 
HETATM   26  C20 UNL     1       3.889  -1.905  -0.191  1.00  0.00    -0.052 C 
HETATM   27  C21 UNL     1       5.361  -1.519  -0.289  1.00  0.00     0.022 C 
HETATM   28  C22 UNL     1       5.277  -0.063   0.156  1.00  0.00     0.008 C 
HETATM   29  C26 UNL     1       4.075   0.637  -1.983  1.00  0.00     0.004 C 
ENDROOT
BRANCH  26  30
HETATM   30  C23 UNL     1       3.520  -3.410  -0.035  1.00  0.00     0.018 C 
HETATM   31  C24 UNL     1       3.146  -3.680   1.448  1.00  0.00     0.004 C 
HETATM   32  C25 UNL     1       4.714  -4.315  -0.385  1.00  0.00     0.004 C 
ENDBRANCH  26  30
TORSDOF 1
