REMARK  7 active torsions:
REMARK  status: ('A' for Active; 'I' for Inactive)
REMARK    1  A    between atoms: C1_1  and  O12_33 
REMARK    2  A    between atoms: C7_8  and  C16_24 
REMARK    3  A    between atoms: C8_9  and  O3_12 
REMARK    4  A    between atoms: O3_12  and  C10_13 
REMARK    5  A    between atoms: C14_17  and  C15_19 
REMARK    6  A    between atoms: O12_33  and  C22_34 
REMARK    7  A    between atoms: C23_36  and  C27_43 
ROOT
HETATM    1  C1  UNL     1       3.516   0.600  -0.561  1.00  0.00     0.101 A 
HETATM    2  C2  UNL     1       3.303   1.900  -1.076  1.00  0.00     0.052 A 
HETATM    3  C3  UNL     1       1.986   2.379  -1.275  1.00  0.00     0.138 A 
HETATM    4  C4  UNL     1       0.877   1.553  -0.955  1.00  0.00     0.085 A 
HETATM    5  C5  UNL     1       1.092   0.230  -0.471  1.00  0.00     0.101 A 
HETATM    6  C6  UNL     1       2.412  -0.231  -0.258  1.00  0.00     0.049 A 
HETATM    7  O1  UNL     1       0.060  -0.598  -0.209  1.00  0.00    -0.326 OA
HETATM    8  C7  UNL     1      -1.229  -0.344  -0.781  1.00  0.00     0.178 C 
HETATM    9  C8  UNL     1      -1.619   1.144  -0.603  1.00  0.00     0.211 C 
HETATM   10  C9  UNL     1      -0.520   2.057  -1.109  1.00  0.00     0.207 C 
HETATM   11  O2  UNL     1      -0.858   3.115  -1.592  1.00  0.00    -0.288 OA
HETATM   12  O11 UNL     1       1.807   3.617  -1.758  1.00  0.00    -0.190 OA
ENDROOT
BRANCH   1  13
HETATM   13  O12 UNL     1       4.764   0.154  -0.363  1.00  0.00    -0.303 OA
BRANCH  13  14
HETATM   14  C22 UNL     1       4.971  -1.250  -0.314  1.00  0.00     0.274 C 
HETATM   15  O13 UNL     1       4.471  -1.826  -1.514  1.00  0.00    -0.326 OA
HETATM   16  C23 UNL     1       4.570  -3.244  -1.584  1.00  0.00     0.184 C 
HETATM   17  C24 UNL     1       6.057  -3.660  -1.514  1.00  0.00     0.215 C 
HETATM   18  C25 UNL     1       6.744  -3.078  -0.260  1.00  0.00     0.220 C 
HETATM   19  O16 UNL     1       6.133  -5.074  -1.490  1.00  0.00    -0.218 OA
HETATM   20  C26 UNL     1       6.475  -1.559  -0.174  1.00  0.00     0.241 C 
HETATM   21  O15 UNL     1       8.143  -3.315  -0.322  1.00  0.00    -0.218 OA
HETATM   22  O14 UNL     1       6.924  -1.059   1.072  1.00  0.00    -0.215 OA
BRANCH  16  23
HETATM   23  C27 UNL     1       3.891  -3.670  -2.891  1.00  0.00     0.214 C 
HETATM   24  O17 UNL     1       2.512  -3.402  -2.777  1.00  0.00    -0.218 OA
ENDBRANCH  16  23
ENDBRANCH  13  14
ENDBRANCH   1  13
BRANCH   8  25
HETATM   25  C16 UNL     1      -2.217  -1.305  -0.223  1.00  0.00     0.010 A 
HETATM   26  C17 UNL     1      -2.123  -1.711   1.119  1.00  0.00     0.028 A 
HETATM   27  C18 UNL     1      -3.055  -2.621   1.650  1.00  0.00     0.156 A 
HETATM   28  C19 UNL     1      -4.086  -3.123   0.834  1.00  0.00     0.156 A 
HETATM   29  O10 UNL     1      -2.961  -2.998   2.910  1.00  0.00    -0.188 OA
HETATM   30  C20 UNL     1      -4.180  -2.715  -0.508  1.00  0.00     0.029 A 
HETATM   31  O9  UNL     1      -4.965  -3.975   1.324  1.00  0.00    -0.188 OA
HETATM   32  C21 UNL     1      -3.246  -1.807  -1.037  1.00  0.00     0.000 A 
ENDBRANCH   8  25
BRANCH   9  33
HETATM   33  O3  UNL     1      -1.856   1.443   0.760  1.00  0.00    -0.321 OA
BRANCH  33  34
HETATM   34  C10 UNL     1      -2.637   2.607   0.949  1.00  0.00     0.270 C 
HETATM   35  C11 UNL     1      -2.588   3.059   2.430  1.00  0.00     0.241 C 
HETATM   36  C12 UNL     1      -3.561   4.232   2.686  1.00  0.00     0.220 C 
HETATM   37  O8  UNL     1      -1.268   3.465   2.754  1.00  0.00    -0.215 OA
HETATM   38  C13 UNL     1      -4.961   3.887   2.129  1.00  0.00     0.215 C 
HETATM   39  O7  UNL     1      -3.647   4.494   4.076  1.00  0.00    -0.218 OA
HETATM   40  C14 UNL     1      -4.881   3.406   0.664  1.00  0.00     0.184 C 
HETATM   41  O6  UNL     1      -5.797   5.029   2.188  1.00  0.00    -0.218 OA
HETATM   42  O4  UNL     1      -3.977   2.312   0.576  1.00  0.00    -0.326 OA
BRANCH  40  43
HETATM   43  C15 UNL     1      -6.225   2.912   0.123  1.00  0.00     0.214 C 
HETATM   44  O5  UNL     1      -6.080   2.662  -1.258  1.00  0.00    -0.218 OA
ENDBRANCH  40  43
ENDBRANCH  33  34
ENDBRANCH   9  33
TORSDOF 7
