REMARK  0 active torsions:
REMARK  status: ('A' for Active; 'I' for Inactive)
ROOT
HETATM    1  C1  UNL     1       4.506  -0.625  -0.027  1.00  0.00     0.102 A 
HETATM    2  C2  UNL     1       3.855  -0.932   1.135  1.00  0.00     0.025 A 
HETATM    3  C3  UNL     1       2.455  -0.777   1.252  1.00  0.00     0.006 A 
HETATM    4  C4  UNL     1       1.752  -0.293   0.115  1.00  0.00     0.046 A 
HETATM    5  C5  UNL     1       2.441   0.029  -1.109  1.00  0.00     0.107 A 
HETATM    6  C6  UNL     1       3.850  -0.143  -1.180  1.00  0.00     0.050 A 
HETATM    7  O1  UNL     1       1.771   0.494  -2.203  1.00  0.00    -0.273 OA
HETATM    8  C7  UNL     1       0.430   0.699  -2.246  1.00  0.00     0.302 A 
HETATM    9  C8  UNL     1      -0.332   0.387  -1.016  1.00  0.00     0.088 A 
HETATM   10  C9  UNL     1       0.277  -0.096   0.141  1.00  0.00     0.107 A 
HETATM   11  O2  UNL     1      -0.576  -0.352   1.240  1.00  0.00    -0.307 OA
HETATM   12  C10 UNL     1      -1.787   0.021   0.658  1.00  0.00     0.102 A 
HETATM   13  C11 UNL     1      -1.633   0.445  -0.645  1.00  0.00     0.032 A 
HETATM   14  C12 UNL     1      -2.805   0.846  -1.322  1.00  0.00     0.029 A 
HETATM   15  C13 UNL     1      -4.127   0.853  -0.791  1.00  0.00     0.119 A 
HETATM   16  C14 UNL     1      -4.274   0.418   0.545  1.00  0.00     0.121 A 
HETATM   17  C15 UNL     1      -3.082   0.017   1.211  1.00  0.00     0.051 A 
HETATM   18  O3  UNL     1      -5.559   0.486   0.889  1.00  0.00    -0.299 OA
HETATM   19  C16 UNL     1      -6.317   0.984  -0.238  1.00  0.00     0.304 A 
HETATM   20  O4  UNL     1      -5.322   1.193  -1.272  1.00  0.00    -0.300 OA
HETATM   21  O5  UNL     1      -0.145   1.113  -3.225  1.00  0.00    -0.259 OA
HETATM   22  C17 UNL     1       4.721  -1.369   2.078  1.00  0.00     0.029 A 
HETATM   23  C18 UNL     1       5.986  -1.332   1.453  1.00  0.00     0.123 A 
HETATM   24  O6  UNL     1       5.863  -0.860   0.113  1.00  0.00    -0.305 OA
ENDROOT
TORSDOF 0
