REMARK  6 active torsions:
REMARK  status: ('A' for Active; 'I' for Inactive)
REMARK    1  A    between atoms: C15_16  and  C18_19 
REMARK    2  A    between atoms: C18_19  and  C19_20 
REMARK    3  A    between atoms: C19_20  and  C20_21 
REMARK    4  A    between atoms: C20_21  and  O2_22 
REMARK    5  A    between atoms: C20_21  and  C23_26 
REMARK    6  A    between atoms: O2_22  and  C21_23 
ROOT
HETATM    1  C1  UNL     1       4.971  -0.854  -0.035  1.00  0.00     0.065 C 
HETATM    2  C2  UNL     1       5.541  -1.125  -1.414  1.00  0.00     0.150 C 
HETATM    3  C3  UNL     1       4.922  -0.426  -2.617  1.00  0.00     0.051 C 
HETATM    4  C4  UNL     1       3.387  -0.334  -2.426  1.00  0.00     0.007 C 
HETATM    5  C5  UNL     1       2.947   0.303  -1.070  1.00  0.00     0.003 C 
HETATM    6  C6  UNL     1       3.442  -0.676   0.018  1.00  0.00     0.008 C 
HETATM    7  C7  UNL     1       1.404   0.588  -1.076  1.00  0.00     0.031 C 
HETATM    8  C8  UNL     1       0.615  -0.346  -2.043  1.00  0.00     0.005 C 
HETATM    9  C9  UNL     1       1.088  -0.092  -3.504  1.00  0.00     0.000 C 
HETATM   10  C10 UNL     1       2.592   0.256  -3.607  1.00  0.00     0.000 C 
HETATM   11  C11 UNL     1      -0.902  -0.064  -1.887  1.00  0.00     0.015 C 
HETATM   12  C12 UNL     1      -1.324  -0.400  -0.482  1.00  0.00    -0.050 C 
HETATM   13  C13 UNL     1      -0.394  -0.162   0.686  1.00  0.00     0.054 C 
HETATM   14  C14 UNL     1       0.742   0.820   0.332  1.00  0.00     0.156 C 
HETATM   15  O1  UNL     1       0.209   2.133   0.404  1.00  0.00    -0.223 OA
HETATM   16  C15 UNL     1      -2.547  -0.938  -0.447  1.00  0.00    -0.052 C 
HETATM   17  C16 UNL     1      -3.102  -1.088  -1.834  1.00  0.00     0.022 C 
HETATM   18  C17 UNL     1      -1.863  -0.930  -2.736  1.00  0.00     0.008 C 
HETATM   19  C28 UNL     1      -1.275   1.389  -2.199  1.00  0.00     0.004 C 
HETATM   20  C29 UNL     1       0.811  -1.830  -1.670  1.00  0.00     0.000 C 
HETATM   21  C30 UNL     1       3.635   1.660  -0.830  1.00  0.00     0.000 C 
HETATM   22  C31 UNL     1       5.570   0.951  -2.789  1.00  0.00     0.007 C 
HETATM   23  C32 UNL     1       5.233  -1.248  -3.877  1.00  0.00     0.007 C 
HETATM   24  O5  UNL     1       6.469  -1.893  -1.543  1.00  0.00    -0.296 OA
ENDROOT
BRANCH  16  25
HETATM   25  C18 UNL     1      -3.285  -1.363   0.795  1.00  0.00     0.020 C 
HETATM   26  C27 UNL     1      -4.615  -0.629   0.963  1.00  0.00     0.004 C 
BRANCH  25  27
HETATM   27  C19 UNL     1      -2.410  -1.295   2.047  1.00  0.00     0.037 C 
BRANCH  27  28
HETATM   28  C20 UNL     1      -2.525   0.045   2.775  1.00  0.00     0.154 C 
BRANCH  28  29
HETATM   29  O2  UNL     1      -2.609   1.096   1.822  1.00  0.00    -0.302 OA
BRANCH  29  30
HETATM   30  C21 UNL     1      -2.725   2.289   2.395  1.00  0.00     0.272 C 
HETATM   31  O3  UNL     1      -2.453   2.512   3.553  1.00  0.00    -0.264 OA
HETATM   32  C22 UNL     1      -3.229   3.385   1.494  1.00  0.00     0.106 C 
ENDBRANCH  29  30
ENDBRANCH  28  29
BRANCH  28  33
HETATM   33  C23 UNL     1      -3.777   0.045   3.643  1.00  0.00     0.167 A 
HETATM   34  C24 UNL     1      -3.738  -0.326   5.168  1.00  0.00     0.120 A 
HETATM   35  O4  UNL     1      -3.963  -1.238   4.143  1.00  0.00    -0.354 OA
HETATM   36  C25 UNL     1      -2.420  -0.686   5.842  1.00  0.00     0.032 C 
HETATM   37  C26 UNL     1      -5.006  -0.225   6.002  1.00  0.00     0.032 C 
ENDBRANCH  28  33
ENDBRANCH  27  28
ENDBRANCH  25  27
ENDBRANCH  16  25
TORSDOF 6
