REMARK  6 active torsions:
REMARK  status: ('A' for Active; 'I' for Inactive)
REMARK    1  A    between atoms: C2_2  and  O6_29 
REMARK    2  A    between atoms: C5_5  and  C23_26 
REMARK    3  A    between atoms: C15_15  and  C18_18 
REMARK    4  A    between atoms: O6_29  and  C24_30 
REMARK    5  A    between atoms: C26_33  and  O9_37 
REMARK    6  A    between atoms: O9_37  and  C29_38 
ROOT
HETATM    1  C1  UNL     1      -1.195  -0.150   2.106  1.00  0.00     0.030 C 
HETATM    2  C2  UNL     1      -1.900   1.172   1.736  1.00  0.00     0.120 C 
HETATM    3  C3  UNL     1      -1.100   2.400   2.199  1.00  0.00     0.060 C 
HETATM    4  C4  UNL     1       0.369   2.455   1.682  1.00  0.00     0.131 C 
HETATM    5  C5  UNL     1       1.029   1.025   1.516  1.00  0.00     0.057 C 
HETATM    6  C6  UNL     1       0.297   0.029   2.445  1.00  0.00     0.007 C 
HETATM    7  C7  UNL     1       2.553   1.031   1.902  1.00  0.00     0.007 C 
HETATM    8  C8  UNL     1       3.270   2.334   1.475  1.00  0.00     0.028 C 
HETATM    9  C9  UNL     1       2.637   3.580   2.145  1.00  0.00     0.005 C 
HETATM   10  C10 UNL     1       1.195   3.353   2.623  1.00  0.00     0.031 C 
HETATM   11  C11 UNL     1       4.805   2.311   1.709  1.00  0.00     0.127 C 
HETATM   12  C12 UNL     1       5.506   1.016   1.227  1.00  0.00     0.029 C 
HETATM   13  C13 UNL     1       4.779  -0.225   1.787  1.00  0.00     0.003 C 
HETATM   14  C14 UNL     1       3.305  -0.213   1.379  1.00  0.00     0.000 C 
HETATM   15  C15 UNL     1       6.912   1.150   1.840  1.00  0.00     0.023 C 
HETATM   16  C16 UNL     1       6.639   1.697   3.244  1.00  0.00     0.007 C 
HETATM   17  C17 UNL     1       5.264   2.369   3.178  1.00  0.00     0.031 C 
HETATM   18  C22 UNL     1       5.617   0.935  -0.301  1.00  0.00     0.003 C 
HETATM   19  O3  UNL     1       5.356   3.441   1.041  1.00  0.00    -0.226 OA
HETATM   20  O5  UNL     1       0.336   3.133   0.432  1.00  0.00    -0.226 OA
ENDROOT
BRANCH   2  21
HETATM   21  O6  UNL     1      -2.107   1.242   0.338  1.00  0.00    -0.333 OA
BRANCH  21  22
HETATM   22  C24 UNL     1      -3.361   0.732  -0.064  1.00  0.00     0.238 C 
HETATM   23  O7  UNL     1      -3.434  -0.656   0.232  1.00  0.00    -0.331 OA
HETATM   24  C25 UNL     1      -4.668  -1.283  -0.102  1.00  0.00     0.148 C 
HETATM   25  C26 UNL     1      -4.908  -1.149  -1.623  1.00  0.00     0.175 C 
HETATM   26  C34 UNL     1      -4.566  -2.740   0.359  1.00  0.00     0.035 C 
HETATM   27  C27 UNL     1      -4.842   0.322  -2.100  1.00  0.00     0.187 C 
HETATM   28  C28 UNL     1      -3.541   0.961  -1.582  1.00  0.00     0.097 C 
HETATM   29  O8  UNL     1      -5.938   1.072  -1.602  1.00  0.00    -0.221 OA
BRANCH  25  30
HETATM   30  O9  UNL     1      -6.150  -1.736  -1.973  1.00  0.00    -0.326 OA
BRANCH  30  31
HETATM   31  C29 UNL     1      -6.121  -2.402  -3.219  1.00  0.00     0.270 C 
HETATM   32  O10 UNL     1      -5.981  -1.430  -4.246  1.00  0.00    -0.326 OA
HETATM   33  C30 UNL     1      -5.889  -1.961  -5.561  1.00  0.00     0.181 C 
HETATM   34  C31 UNL     1      -7.186  -2.721  -5.902  1.00  0.00     0.215 C 
HETATM   35  C32 UNL     1      -7.484  -3.817  -4.856  1.00  0.00     0.220 C 
HETATM   36  O13 UNL     1      -7.035  -3.297  -7.186  1.00  0.00    -0.218 OA
HETATM   37  C33 UNL     1      -7.430  -3.209  -3.434  1.00  0.00     0.241 C 
HETATM   38  O12 UNL     1      -8.770  -4.369  -5.094  1.00  0.00    -0.218 OA
HETATM   39  O11 UNL     1      -7.504  -4.250  -2.475  1.00  0.00    -0.215 OA
ENDBRANCH  30  31
ENDBRANCH  25  30
ENDBRANCH  21  22
ENDBRANCH   2  21
BRANCH   5  40
HETATM   40  C23 UNL     1       0.869   0.496   0.072  1.00  0.00     0.184 C 
HETATM   41  O4  UNL     1       0.879  -0.912   0.115  1.00  0.00    -0.221 OA
ENDBRANCH   5  40
BRANCH  15  42
HETATM   42  C18 UNL     1       7.746  -0.104   1.834  1.00  0.00    -0.009 A 
HETATM   43  C19 UNL     1       8.272  -0.705   2.899  1.00  0.00     0.062 A 
HETATM   44  C20 UNL     1       8.992  -1.875   2.418  1.00  0.00     0.296 A 
HETATM   45  O1  UNL     1       8.899  -1.973   1.084  1.00  0.00    -0.294 OA
HETATM   46  O2  UNL     1       9.586  -2.637   3.145  1.00  0.00    -0.259 OA
HETATM   47  C21 UNL     1       8.111  -0.875   0.592  1.00  0.00     0.175 A 
ENDBRANCH  15  42
TORSDOF 6
