REMARK  7 active torsions:
REMARK  status: ('A' for Active; 'I' for Inactive)
REMARK    1  A    between atoms: C3_3  and  O4_27 
REMARK    2  A    between atoms: C15_16  and  C16_17 
REMARK    3  A    between atoms: C16_17  and  O2_18 
REMARK    4  A    between atoms: O2_18  and  C17_19 
REMARK    5  A    between atoms: C17_19  and  C18_20 
REMARK    6  A    between atoms: C18_20  and  N1_21 
REMARK    7  A    between atoms: O4_27  and  C23_28 
ROOT
HETATM    1  C1  UNL     1       4.239  -2.219  -1.254  1.00  0.00     0.035 C 
HETATM    2  C2  UNL     1       4.864  -0.909  -1.754  1.00  0.00     0.177 C 
HETATM    3  C3  UNL     1       4.109   0.336  -1.234  1.00  0.00     0.130 C 
HETATM    4  C4  UNL     1       2.593   0.231  -1.559  1.00  0.00     0.035 C 
HETATM    5  C5  UNL     1       1.941  -1.095  -1.064  1.00  0.00     0.003 C 
HETATM    6  C6  UNL     1       2.750  -2.293  -1.614  1.00  0.00     0.003 C 
HETATM    7  C7  UNL     1       0.461  -1.149  -1.555  1.00  0.00     0.008 C 
HETATM    8  C8  UNL     1      -0.352   0.078  -1.057  1.00  0.00     0.061 C 
HETATM    9  C9  UNL     1       0.344   1.380  -1.397  1.00  0.00     0.151 C 
HETATM   10  C10 UNL     1       1.812   1.464  -1.064  1.00  0.00     0.067 C 
HETATM   11  O1  UNL     1      -0.233   2.310  -1.913  1.00  0.00    -0.296 OA
HETATM   12  C11 UNL     1      -1.829   0.048  -1.518  1.00  0.00     0.025 C 
HETATM   13  C12 UNL     1      -2.462  -1.269  -1.114  1.00  0.00    -0.039 C 
HETATM   14  C13 UNL     1      -1.732  -2.506  -1.586  1.00  0.00     0.022 C 
HETATM   15  C14 UNL     1      -0.256  -2.466  -1.165  1.00  0.00     0.005 C 
HETATM   16  C15 UNL     1      -3.589  -1.365  -0.375  1.00  0.00     0.060 C 
HETATM   17  C21 UNL     1      -1.979   0.248  -3.031  1.00  0.00     0.005 C 
HETATM   18  C22 UNL     1       1.967  -1.159   0.474  1.00  0.00     0.000 C 
HETATM   19  C25 UNL     1       4.711   1.616  -1.834  1.00  0.00     0.033 C 
HETATM   20  O6  UNL     1       6.220  -0.870  -1.349  1.00  0.00    -0.221 OA
ENDROOT
BRANCH  16  21
HETATM   21  C16 UNL     1      -4.347  -0.212   0.131  1.00  0.00     0.295 C 
HETATM   22  O3  UNL     1      -4.771   0.625  -0.632  1.00  0.00    -0.259 OA
BRANCH  21  23
HETATM   23  O2  UNL     1      -4.521  -0.168   1.449  1.00  0.00    -0.296 OA
BRANCH  23  24
HETATM   24  C17 UNL     1      -5.261   0.972   1.860  1.00  0.00     0.188 C 
BRANCH  24  25
HETATM   25  C18 UNL     1      -5.421   0.956   3.380  1.00  0.00     0.283 C 
BRANCH  25  26
HETATM   26  N1  UNL     1      -6.302   2.028   3.811  1.00  0.00     0.144 N 
HETATM   27  C19 UNL     1      -6.749   1.803   5.175  1.00  0.00     0.286 C 
HETATM   28  C20 UNL     1      -5.631   3.313   3.701  1.00  0.00     0.286 C 
ENDBRANCH  25  26
ENDBRANCH  24  25
ENDBRANCH  23  24
ENDBRANCH  21  23
ENDBRANCH  16  21
BRANCH   3  29
HETATM   29  O4  UNL     1       4.267   0.415   0.178  1.00  0.00    -0.304 OA
BRANCH  29  30
HETATM   30  C23 UNL     1       5.521   0.680   0.533  1.00  0.00     0.272 C 
HETATM   31  C24 UNL     1       6.151  -0.328   1.457  1.00  0.00     0.106 C 
HETATM   32  O5  UNL     1       6.137   1.650   0.158  1.00  0.00    -0.264 OA
ENDBRANCH  29  30
ENDBRANCH   3  29
TORSDOF 7
