REMARK  4 active torsions:
REMARK  status: ('A' for Active; 'I' for Inactive)
REMARK    1  A    between atoms: C8_9  and  C11_13 
REMARK    2  A    between atoms: C11_13  and  C12_14 
REMARK    3  A    between atoms: C12_14  and  C13_15 
REMARK    4  A    between atoms: C13_15  and  C14_16 
ROOT
HETATM    1  C1  UNL     1      -4.904  -0.693   1.662  1.00  0.00     0.030 A 
HETATM    2  C2  UNL     1      -4.826  -2.080   1.916  1.00  0.00     0.030 A 
HETATM    3  C3  UNL     1      -3.572  -2.734   1.918  1.00  0.00     0.134 A 
HETATM    4  C4  UNL     1      -2.385  -1.994   1.662  1.00  0.00     0.069 A 
HETATM    5  C5  UNL     1      -2.465  -0.596   1.404  1.00  0.00     0.069 A 
HETATM    6  C6  UNL     1      -3.731   0.051   1.406  1.00  0.00     0.134 A 
HETATM    7  O1  UNL     1      -3.834   1.365   1.166  1.00  0.00    -0.190 OA
HETATM    8  C7  UNL     1      -1.223   0.193   1.133  1.00  0.00     0.194 A 
HETATM    9  C8  UNL     1       0.070  -0.533   1.154  1.00  0.00     0.020 A 
HETATM   10  C9  UNL     1       0.137  -1.856   1.402  1.00  0.00     0.041 A 
HETATM   11  C10 UNL     1      -1.059  -2.682   1.666  1.00  0.00     0.198 A 
HETATM   12  O2  UNL     1      -0.852  -3.858   1.865  1.00  0.00    -0.286 OA
HETATM   13  O3  UNL     1      -1.162   1.379   0.896  1.00  0.00    -0.287 OA
HETATM   14  O4  UNL     1      -3.523  -4.051   2.162  1.00  0.00    -0.190 OA
ENDROOT
BRANCH   9  15
HETATM   15  C11 UNL     1       1.352   0.221   0.896  1.00  0.00     0.030 C 
BRANCH  15  16
HETATM   16  C12 UNL     1       1.607   0.441  -0.596  1.00  0.00     0.005 C 
BRANCH  16  17
HETATM   17  C13 UNL     1       2.863   1.269  -0.861  1.00  0.00     0.000 C 
BRANCH  17  18
HETATM   18  C14 UNL     1       3.152   1.439  -2.354  1.00  0.00     0.000 C 
HETATM   19  C15 UNL     1       2.061   2.223  -3.082  1.00  0.00     0.000 C 
HETATM   20  C16 UNL     1       4.553   1.990  -2.625  1.00  0.00     0.000 C 
ENDBRANCH  17  18
ENDBRANCH  16  17
ENDBRANCH  15  16
ENDBRANCH   9  15
TORSDOF 4
