REMARK  0 active torsions:
REMARK  status: ('A' for Active; 'I' for Inactive)
ROOT
HETATM    1  C1  UNL     1       4.139   1.451  -0.988  1.00  0.00     0.027 A 
HETATM    2  C2  UNL     1       4.852   0.299  -0.586  1.00  0.00     0.131 A 
HETATM    3  C3  UNL     1       4.176  -0.760   0.065  1.00  0.00     0.023 A 
HETATM    4  C4  UNL     1       2.785  -0.664   0.315  1.00  0.00    -0.024 A 
HETATM    5  C5  UNL     1       2.063   0.492  -0.088  1.00  0.00    -0.026 A 
HETATM    6  C6  UNL     1       2.750   1.551  -0.740  1.00  0.00    -0.003 A 
HETATM    7  C7  UNL     1       0.598   0.521   0.205  1.00  0.00     0.022 C 
HETATM    8  C8  UNL     1      -0.053  -0.820  -0.219  1.00  0.00     0.004 C 
HETATM    9  C9  UNL     1       0.697  -2.068   0.322  1.00  0.00     0.005 C 
HETATM   10  C10 UNL     1       2.049  -1.754   1.000  1.00  0.00     0.026 C 
HETATM   11  C11 UNL     1      -1.559  -0.869   0.106  1.00  0.00     0.003 C 
HETATM   12  C12 UNL     1      -2.330   0.352  -0.420  1.00  0.00     0.028 C 
HETATM   13  C13 UNL     1      -1.658   1.676   0.000  1.00  0.00     0.003 C 
HETATM   14  C14 UNL     1      -0.178   1.709  -0.406  1.00  0.00     0.004 C 
HETATM   15  C15 UNL     1      -3.680   0.090   0.270  1.00  0.00     0.152 C 
HETATM   16  C16 UNL     1      -3.313  -0.281   1.707  1.00  0.00     0.033 C 
HETATM   17  C17 UNL     1      -1.928  -0.920   1.596  1.00  0.00     0.003 C 
HETATM   18  O1  UNL     1      -4.531   1.219   0.234  1.00  0.00    -0.224 OA
HETATM   19  C18 UNL     1      -2.496   0.260  -1.937  1.00  0.00     0.003 C 
HETATM   20  O2  UNL     1       6.168   0.207  -0.822  1.00  0.00    -0.190 OA
ENDROOT
TORSDOF 0
