REMARK  0 active torsions:
REMARK  status: ('A' for Active; 'I' for Inactive)
ROOT
HETATM    1  C1  UNL     1       3.713   0.549   2.455  1.00  0.00     0.027 A 
HETATM    2  C2  UNL     1       4.422  -0.521   1.861  1.00  0.00     0.131 A 
HETATM    3  C3  UNL     1       3.826  -1.269   0.820  1.00  0.00     0.023 A 
HETATM    4  C4  UNL     1       2.524  -0.947   0.369  1.00  0.00    -0.024 A 
HETATM    5  C5  UNL     1       1.805   0.127   0.965  1.00  0.00    -0.026 A 
HETATM    6  C6  UNL     1       2.410   0.873   2.010  1.00  0.00    -0.003 A 
HETATM    7  C7  UNL     1       0.428   0.406   0.459  1.00  0.00     0.022 C 
HETATM    8  C8  UNL     1       0.307   0.291  -1.082  1.00  0.00     0.004 C 
HETATM    9  C9  UNL     1       1.236  -0.762  -1.742  1.00  0.00     0.005 C 
HETATM   10  C10 UNL     1       1.881  -1.713  -0.725  1.00  0.00     0.026 C 
HETATM   11  C11 UNL     1      -1.184   0.156  -1.486  1.00  0.00     0.005 C 
HETATM   12  C12 UNL     1      -2.158   0.990  -0.615  1.00  0.00     0.031 C 
HETATM   13  C13 UNL     1      -1.430   2.162   0.066  1.00  0.00     0.003 C 
HETATM   14  C14 UNL     1      -0.217   1.736   0.928  1.00  0.00     0.004 C 
HETATM   15  C15 UNL     1      -2.732   0.012   0.443  1.00  0.00     0.182 C 
HETATM   16  C16 UNL     1      -2.600  -1.402  -0.145  1.00  0.00     0.182 C 
HETATM   17  C17 UNL     1      -1.820  -1.242  -1.451  1.00  0.00     0.036 C 
HETATM   18  O1  UNL     1      -1.891  -2.250   0.744  1.00  0.00    -0.221 OA
HETATM   19  O2  UNL     1      -4.086   0.295   0.754  1.00  0.00    -0.221 OA
HETATM   20  C18 UNL     1      -3.236   1.512  -1.574  1.00  0.00     0.003 C 
HETATM   21  O3  UNL     1       5.654  -0.828   2.285  1.00  0.00    -0.190 OA
ENDROOT
TORSDOF 0
