REMARK  0 active torsions:
REMARK  status: ('A' for Active; 'I' for Inactive)
ROOT
HETATM    1  C1  UNL     1       4.025   1.621  -0.273  1.00  0.00     0.027 A 
HETATM    2  C2  UNL     1       4.690   0.430   0.094  1.00  0.00     0.131 A 
HETATM    3  C3  UNL     1       3.953  -0.660   0.611  1.00  0.00     0.023 A 
HETATM    4  C4  UNL     1       2.549  -0.561   0.760  1.00  0.00    -0.024 A 
HETATM    5  C5  UNL     1       1.873   0.633   0.385  1.00  0.00    -0.026 A 
HETATM    6  C6  UNL     1       2.623   1.725  -0.129  1.00  0.00    -0.003 A 
HETATM    7  C7  UNL     1       0.389   0.662   0.553  1.00  0.00     0.022 C 
HETATM    8  C8  UNL     1      -0.219  -0.643  -0.039  1.00  0.00     0.005 C 
HETATM    9  C9  UNL     1       0.432  -1.926   0.543  1.00  0.00     0.005 C 
HETATM   10  C10 UNL     1       1.754  -1.686   1.309  1.00  0.00     0.026 C 
HETATM   11  C11 UNL     1      -1.730  -0.596   0.225  1.00  0.00     0.007 C 
HETATM   12  C12 UNL     1      -2.389   0.605  -0.478  1.00  0.00     0.052 C 
HETATM   13  C13 UNL     1      -1.853   1.875   0.195  1.00  0.00     0.007 C 
HETATM   14  C14 UNL     1      -0.322   1.932   0.016  1.00  0.00     0.005 C 
HETATM   15  C15 UNL     1      -3.842   0.295  -0.271  1.00  0.00     0.150 C 
HETATM   16  C16 UNL     1      -4.021  -1.182  -0.064  1.00  0.00     0.065 C 
HETATM   17  C17 UNL     1      -2.613  -1.766  -0.234  1.00  0.00     0.008 C 
HETATM   18  O1  UNL     1      -4.736   1.109  -0.267  1.00  0.00    -0.296 OA
HETATM   19  C18 UNL     1      -2.123   0.619  -1.986  1.00  0.00     0.007 C 
HETATM   20  O2  UNL     1       6.020   0.332  -0.045  1.00  0.00    -0.190 OA
ENDROOT
TORSDOF 0
