REMARK  3 active torsions:
REMARK  status: ('A' for Active; 'I' for Inactive)
REMARK    1  A    between atoms: C9_10  and  O2_19 
REMARK    2  A    between atoms: C15_16  and  O1_17 
REMARK    3  A    between atoms: O2_19  and  C17_20 
ROOT
HETATM    1  C1  UNL     1      -3.719  -1.797   0.580  1.00  0.00     0.119 A 
HETATM    2  C2  UNL     1      -3.184  -0.498   0.418  1.00  0.00     0.119 A 
HETATM    3  C3  UNL     1      -1.754  -0.402   0.242  1.00  0.00     0.026 A 
HETATM    4  C4  UNL     1      -0.893  -1.527   0.223  1.00  0.00     0.026 A 
HETATM    5  C5  UNL     1      -1.406  -2.762   0.377  1.00  0.00     0.061 A 
HETATM    6  C6  UNL     1      -2.793  -2.873   0.551  1.00  0.00     0.031 A 
HETATM    7  C7  UNL     1      -0.297  -3.709   0.314  1.00  0.00     0.279 A 
HETATM    8  N1  UNL     1       0.916  -2.926   0.109  1.00  0.00    -0.206 NA
HETATM    9  C8  UNL     1       0.463  -1.478   0.055  1.00  0.00     0.107 A 
HETATM   10  C9  UNL     1       1.174  -0.281  -0.121  1.00  0.00     0.114 A 
HETATM   11  C10 UNL     1       0.375   0.920  -0.111  1.00  0.00     0.046 A 
HETATM   12  C11 UNL     1      -1.074   0.865   0.068  1.00  0.00     0.006 A 
HETATM   13  C12 UNL     1      -1.797   2.098   0.068  1.00  0.00     0.000 A 
HETATM   14  C13 UNL     1      -1.141   3.334  -0.100  1.00  0.00     0.002 A 
HETATM   15  C14 UNL     1       0.254   3.379  -0.273  1.00  0.00     0.024 A 
HETATM   16  C15 UNL     1       1.010   2.190  -0.283  1.00  0.00     0.096 A 
HETATM   17  O3  UNL     1      -0.356  -4.912   0.412  1.00  0.00    -0.265 OA
HETATM   18  O4  UNL     1      -4.195   0.371   0.473  1.00  0.00    -0.300 OA
HETATM   19  C19 UNL     1      -5.440  -0.340   0.676  1.00  0.00     0.304 A 
HETATM   20  O5  UNL     1      -5.041  -1.727   0.732  1.00  0.00    -0.300 OA
ENDROOT
BRANCH  10  21
HETATM   21  O2  UNL     1       2.500  -0.174  -0.289  1.00  0.00    -0.329 OA
BRANCH  21  22
HETATM   22  C17 UNL     1       3.270  -1.367  -0.297  1.00  0.00     0.149 C 
HETATM   23  C18 UNL     1       4.744  -1.023  -0.506  1.00  0.00     0.035 C 
ENDBRANCH  21  22
ENDBRANCH  10  21
BRANCH  16  24
HETATM   24  O1  UNL     1       2.336   2.309  -0.455  1.00  0.00    -0.328 OA
HETATM   25  C16 UNL     1       2.873   3.613  -0.617  1.00  0.00     0.181 C 
ENDBRANCH  16  24
TORSDOF 3
