REMARK  6 active torsions:
REMARK  status: ('A' for Active; 'I' for Inactive)
REMARK    1  A    between atoms: C2_2  and  C14_16 
REMARK    2  A    between atoms: C5_5  and  O1_7 
REMARK    3  A    between atoms: O1_7  and  C7_8 
REMARK    4  A    between atoms: C7_8  and  C8_9 
REMARK    5  A    between atoms: C14_16  and  O3_17 
REMARK    6  A    between atoms: O3_17  and  C15_18 
ROOT
HETATM    1  C1  UNL     1      -0.410   2.016   1.326  1.00  0.00     0.000 A 
HETATM    2  C2  UNL     1       0.557   1.082   1.733  1.00  0.00     0.007 A 
HETATM    3  C3  UNL     1       1.566   0.682   0.838  1.00  0.00     0.000 A 
HETATM    4  C4  UNL     1       1.605   1.215  -0.461  1.00  0.00     0.024 A 
HETATM    5  C5  UNL     1       0.637   2.150  -0.871  1.00  0.00     0.095 A 
HETATM    6  C6  UNL     1      -0.369   2.549   0.028  1.00  0.00     0.024 A 
ENDROOT
BRANCH   5   7
HETATM    7  O1  UNL     1       0.676   2.652  -2.090  1.00  0.00    -0.326 OA
BRANCH   7   8
HETATM    8  C7  UNL     1       1.199   1.838  -3.129  1.00  0.00     0.175 C 
BRANCH   8   9
HETATM    9  C8  UNL     1       0.504   0.525  -3.129  1.00  0.00     0.008 A 
HETATM   10  C9  UNL     1      -0.902   0.473  -3.129  1.00  0.00     0.000 A 
HETATM   11  C10 UNL     1      -1.559  -0.769  -3.129  1.00  0.00     0.027 A 
HETATM   12  C11 UNL     1      -0.815  -1.963  -3.129  1.00  0.00     0.131 A 
HETATM   13  C12 UNL     1       0.590  -1.908  -3.129  1.00  0.00     0.027 A 
HETATM   14  O2  UNL     1      -1.432  -3.127  -3.129  1.00  0.00    -0.190 OA
HETATM   15  C13 UNL     1       1.250  -0.666  -3.129  1.00  0.00     0.000 A 
ENDBRANCH   8   9
ENDBRANCH   7   8
ENDBRANCH   5   7
BRANCH   2  16
HETATM   16  C14 UNL     1       0.516   0.516   3.108  1.00  0.00     0.169 C 
BRANCH  16  17
HETATM   17  O3  UNL     1      -0.512  -0.447   3.188  1.00  0.00    -0.349 OA
BRANCH  17  18
HETATM   18  C15 UNL     1      -0.617  -1.041   4.463  1.00  0.00     0.143 C 
HETATM   19  C16 UNL     1      -1.756  -2.059   4.422  1.00  0.00     0.035 C 
ENDBRANCH  17  18
ENDBRANCH  16  17
ENDBRANCH   2  16
TORSDOF 6
