REMARK  2 active torsions:
REMARK  status: ('A' for Active; 'I' for Inactive)
REMARK    1  A    between atoms: C9_10  and  O1_11 
REMARK    2  A    between atoms: O1_11  and  C10_12 
ROOT
HETATM    1  C1  UNL     1      -4.591   0.856  -0.228  1.00  0.00     0.026 A 
HETATM    2  C2  UNL     1      -4.567  -0.535  -0.220  1.00  0.00     0.119 A 
HETATM    3  C3  UNL     1      -3.362  -1.221  -0.226  1.00  0.00     0.119 A 
HETATM    4  C4  UNL     1      -2.128  -0.569  -0.226  1.00  0.00     0.051 A 
HETATM    5  C5  UNL     1      -2.119   0.833  -0.214  1.00  0.00     0.004 A 
HETATM    6  C6  UNL     1      -3.359   1.515  -0.231  1.00  0.00     0.002 A 
HETATM    7  C7  UNL     1      -0.804   1.503  -0.193  1.00  0.00     0.015 C 
HETATM    8  C8  UNL     1       0.385   0.783  -0.358  1.00  0.00     0.058 C 
HETATM    9  N1  UNL     1       0.332  -0.627  -0.588  1.00  0.00    -0.321 N 
HETATM   10  C9  UNL     1      -0.871  -1.387  -0.196  1.00  0.00     0.227 C 
HETATM   11  C12 UNL     1       1.414  -1.279  -1.364  1.00  0.00     0.128 C 
HETATM   12  C13 UNL     1       1.641   1.505  -0.289  1.00  0.00     0.018 C 
HETATM   13  C14 UNL     1       1.655   2.920  -0.314  1.00  0.00     0.004 C 
HETATM   14  C15 UNL     1       0.422   3.625  -0.233  1.00  0.00     0.000 C 
HETATM   15  C16 UNL     1      -0.750   2.929  -0.106  1.00  0.00     0.001 C 
HETATM   16  C17 UNL     1       2.865   3.683  -0.344  1.00  0.00     0.026 C 
HETATM   17  C18 UNL     1       4.046   2.997  -0.239  1.00  0.00     0.119 A 
HETATM   18  C19 UNL     1       4.056   1.600  -0.058  1.00  0.00     0.119 A 
HETATM   19  C20 UNL     1       2.900   0.861  -0.041  1.00  0.00     0.028 C 
HETATM   20  O2  UNL     1       5.363   1.192   0.142  1.00  0.00    -0.300 OA
HETATM   21  C21 UNL     1       6.203   2.351   0.051  1.00  0.00     0.304 A 
HETATM   22  O3  UNL     1       5.341   3.472  -0.182  1.00  0.00    -0.300 OA
HETATM   23  O4  UNL     1      -3.623  -2.579  -0.218  1.00  0.00    -0.300 OA
HETATM   24  C22 UNL     1      -5.045  -2.753  -0.198  1.00  0.00     0.304 A 
HETATM   25  O5  UNL     1      -5.612  -1.438  -0.211  1.00  0.00    -0.300 OA
ENDROOT
BRANCH  10  26
HETATM   26  O1  UNL     1      -0.737  -1.986   1.089  1.00  0.00    -0.333 OA
BRANCH  26  27
HETATM   27  C10 UNL     1      -0.319  -3.327   1.037  1.00  0.00     0.145 C 
HETATM   28  C11 UNL     1      -0.225  -3.873   2.458  1.00  0.00     0.035 C 
ENDBRANCH  26  27
ENDBRANCH  10  26
TORSDOF 2
