REMARK  2 active torsions:
REMARK  status: ('A' for Active; 'I' for Inactive)
REMARK    1  A    between atoms: C15_16  and  O2_24 
REMARK    2  A    between atoms: O2_24  and  C21_25 
ROOT
HETATM    1  C1  UNL     1       4.141  -0.400   1.068  1.00  0.00    -0.000 A 
HETATM    2  C2  UNL     1       4.131  -1.803   0.879  1.00  0.00     0.002 A 
HETATM    3  C3  UNL     1       3.000  -2.430   0.311  1.00  0.00     0.017 A 
HETATM    4  C4  UNL     1       1.904  -1.611  -0.049  1.00  0.00     0.058 A 
HETATM    5  C5  UNL     1       1.867  -0.203   0.098  1.00  0.00    -0.001 A 
HETATM    6  C6  UNL     1       3.024   0.381   0.680  1.00  0.00    -0.003 A 
HETATM    7  C7  UNL     1       0.586   0.449  -0.424  1.00  0.00     0.082 A 
HETATM    8  C8  UNL     1      -0.258  -0.840  -0.787  1.00  0.00     0.099 A 
HETATM    9  N1  UNL     1       0.596  -1.980  -0.607  1.00  0.00    -0.301 N 
HETATM   10  C9  UNL     1       0.135  -3.301  -0.842  1.00  0.00     0.240 C 
HETATM   11  C10 UNL     1      -1.336  -3.346  -1.303  1.00  0.00     0.118 C 
HETATM   12  C11 UNL     1      -2.316  -2.215  -0.783  1.00  0.00     0.127 C 
HETATM   13  C12 UNL     1      -1.529  -1.172   0.057  1.00  0.00     0.055 C 
HETATM   14  C13 UNL     1      -2.228   0.102   0.535  1.00  0.00     0.046 C 
HETATM   15  C14 UNL     1      -1.240   0.770   1.500  1.00  0.00     0.056 C 
HETATM   16  C15 UNL     1      -0.303   1.373   0.459  1.00  0.00     0.165 C 
HETATM   17  N2  UNL     1      -1.143   1.717  -0.658  1.00  0.00    -0.334 N 
HETATM   18  C16 UNL     1      -2.311   0.949  -0.699  1.00  0.00     0.033 C 
HETATM   19  C17 UNL     1      -3.232   0.766  -1.654  1.00  0.00     0.018 C 
HETATM   20  C18 UNL     1      -3.963  -0.566  -1.641  1.00  0.00     0.170 C 
HETATM   21  O1  UNL     1      -3.045  -1.648  -1.897  1.00  0.00    -0.351 OA
HETATM   22  C19 UNL     1      -0.463   2.330  -1.758  1.00  0.00     0.104 C 
HETATM   23  C20 UNL     1       0.799   1.420  -1.666  1.00  0.00     0.034 C 
HETATM   24  O3  UNL     1       0.820  -4.285  -0.684  1.00  0.00    -0.272 OA
ENDROOT
BRANCH  16  25
HETATM   25  O2  UNL     1       0.397   2.483   0.998  1.00  0.00    -0.340 OA
BRANCH  25  26
HETATM   26  C21 UNL     1       0.920   2.239   2.285  1.00  0.00     0.144 C 
HETATM   27  C22 UNL     1       1.908   3.356   2.621  1.00  0.00     0.035 C 
ENDBRANCH  25  26
ENDBRANCH  16  25
TORSDOF 2
