REMARK  0 active torsions:
REMARK  status: ('A' for Active; 'I' for Inactive)
ROOT
HETATM    1  C1  UNL     1      -0.343  -0.553   0.006  1.00  0.00     0.081 C 
HETATM    2  C2  UNL     1       0.432   0.738   0.006  1.00  0.00     0.208 C 
HETATM    3  O1  UNL     1       1.640   0.738   0.006  1.00  0.00    -0.288 OA
ENDROOT
TORSDOF 0
