REMARK  0 active torsions:
REMARK  status: ('A' for Active; 'I' for Inactive)
ROOT
HETATM    1  C1  UNL     1      -1.105  -0.246  -0.255  1.00  0.00     0.043 C 
HETATM    2  C2  UNL     1       0.424  -0.246  -0.255  1.00  0.00     0.339 C 
HETATM    3  N1  UNL     1       0.932   0.429   0.926  1.00  0.00     0.618 N 
ENDROOT
TORSDOF 0
