REMARK  3 active torsions:
REMARK  status: ('A' for Active; 'I' for Inactive)
REMARK    1  A    between atoms: C3_3  and  C7_7 
REMARK    2  A    between atoms: C7_7  and  O1_8 
REMARK    3  A    between atoms: O1_8  and  C8_9 
ROOT
HETATM    1  C1  UNL     1      -1.830  -2.250   0.000  1.00  0.00     0.000 A 
HETATM    2  C2  UNL     1      -1.172  -1.008   0.000  1.00  0.00     0.005 A 
HETATM    3  C3  UNL     1       0.234  -0.955   0.000  1.00  0.00     0.063 A 
HETATM    4  C4  UNL     1       0.980  -2.148   0.000  1.00  0.00     0.005 A 
HETATM    5  C5  UNL     1       0.322  -3.389   0.000  1.00  0.00     0.000 A 
HETATM    6  C6  UNL     1      -1.082  -3.441   0.000  1.00  0.00     0.000 A 
ENDROOT
BRANCH   3   7
HETATM    7  C7  UNL     1       0.933   0.365   0.000  1.00  0.00     0.296 C 
HETATM    8  O2  UNL     1       2.140   0.428   0.000  1.00  0.00    -0.259 OA
BRANCH   7   9
HETATM    9  O1  UNL     1       0.135   1.430   0.000  1.00  0.00    -0.298 OA
BRANCH   9  10
HETATM   10  C8  UNL     1       0.861   2.648   0.000  1.00  0.00     0.152 C 
HETATM   11  C9  UNL     1      -0.117   3.824   0.000  1.00  0.00     0.035 C 
ENDBRANCH   9  10
ENDBRANCH   7   9
ENDBRANCH   3   7
TORSDOF 3
