REMARK  4 active torsions:
REMARK  status: ('A' for Active; 'I' for Inactive)
REMARK    1  A    between atoms: C1_1  and  C2_2 
REMARK    2  A    between atoms: C3_3  and  C4_4 
REMARK    3  A    between atoms: C4_4  and  O1_5 
REMARK    4  A    between atoms: O1_5  and  C5_6 
ROOT
HETATM    1  C1  UNL     1      -0.043  -1.410   0.574  1.00  0.00     0.002 A 
HETATM    2  C7  UNL     1      -1.449  -1.463   0.574  1.00  0.00     0.029 A 
HETATM    3  C8  UNL     1      -2.111  -2.705   0.574  1.00  0.00     0.156 A 
HETATM    4  C9  UNL     1      -1.363  -3.897   0.574  1.00  0.00     0.156 A 
HETATM    5  C10 UNL     1       0.041  -3.842   0.574  1.00  0.00     0.029 A 
HETATM    6  C11 UNL     1       0.701  -2.602   0.574  1.00  0.00     0.002 A 
HETATM    7  O3  UNL     1      -1.975  -5.065   0.574  1.00  0.00    -0.188 OA
HETATM    8  O4  UNL     1      -3.428  -2.746   0.574  1.00  0.00    -0.188 OA
ENDROOT
BRANCH   1   9
HETATM    9  C2  UNL     1       0.654  -0.090   0.574  1.00  0.00     0.005 C 
HETATM   10  C3  UNL     1       0.055   0.957  -0.018  1.00  0.00     0.068 C 
BRANCH  10  11
HETATM   11  C4  UNL     1       0.703   2.273  -0.043  1.00  0.00     0.296 C 
HETATM   12  O2  UNL     1       1.785   2.432   0.470  1.00  0.00    -0.259 OA
BRANCH  11  13
HETATM   13  O1  UNL     1       0.023   3.240  -0.655  1.00  0.00    -0.298 OA
BRANCH  13  14
HETATM   14  C5  UNL     1       0.736   4.467  -0.684  1.00  0.00     0.152 C 
HETATM   15  C6  UNL     1       1.973   4.318  -1.573  1.00  0.00     0.035 C 
ENDBRANCH  13  14
ENDBRANCH  11  13
ENDBRANCH  10  11
ENDBRANCH   1   9
TORSDOF 4
