REMARK  2 active torsions:
REMARK  status: ('A' for Active; 'I' for Inactive)
REMARK    1  A    between atoms: C5_6  and  C6_7 
REMARK    2  A    between atoms: C6_7  and  O2_8 
ROOT
HETATM    1  C1  UNL     1      -1.160   0.910  -0.144  1.00  0.00     0.044 C 
HETATM    2  C2  UNL     1       0.209   0.432  -0.687  1.00  0.00     0.093 C 
HETATM    3  C3  UNL     1       0.467  -1.082  -0.824  1.00  0.00     0.241 C 
HETATM    4  O1  UNL     1      -0.721  -1.846  -0.973  1.00  0.00    -0.304 OA
HETATM    5  C4  UNL     1      -1.754  -1.553  -0.045  1.00  0.00     0.281 C 
HETATM    6  C5  UNL     1      -2.285  -0.125  -0.324  1.00  0.00     0.150 C 
HETATM    7  O4  UNL     1      -2.785  -2.500  -0.228  1.00  0.00    -0.190 OA
HETATM    8  O5  UNL     1       1.205  -1.451   0.316  1.00  0.00    -0.326 OA
HETATM    9  C8  UNL     1       2.037  -0.394   0.727  1.00  0.00     0.174 C 
HETATM   10  C9  UNL     1       1.229   0.865   0.400  1.00  0.00     0.153 C 
HETATM   11  C10 UNL     1       0.412   1.375   1.553  1.00  0.00    -0.001 C 
HETATM   12  C11 UNL     1      -0.891   1.367   1.266  1.00  0.00    -0.028 C 
HETATM   13  O6  UNL     1       2.129   1.848  -0.127  1.00  0.00    -0.296 OA
HETATM   14  C12 UNL     1       3.235   1.233  -0.555  1.00  0.00     0.294 C 
HETATM   15  C13 UNL     1       3.248  -0.168  -0.129  1.00  0.00     0.066 C 
HETATM   16  C14 UNL     1       4.160  -1.115  -0.426  1.00  0.00    -0.022 C 
HETATM   17  C15 UNL     1       5.360  -0.834  -1.295  1.00  0.00     0.031 C 
HETATM   18  O7  UNL     1       4.115   1.752  -1.197  1.00  0.00    -0.259 OA
ENDROOT
BRANCH   6  19
HETATM   19  C6  UNL     1      -3.508   0.227   0.492  1.00  0.00     0.277 C 
HETATM   20  O3  UNL     1      -3.639  -0.182   1.623  1.00  0.00    -0.264 OA
BRANCH  19  21
HETATM   21  O2  UNL     1      -4.396   1.000  -0.123  1.00  0.00    -0.299 OA
HETATM   22  C7  UNL     1      -5.521   1.287   0.695  1.00  0.00     0.184 C 
ENDBRANCH  19  21
ENDBRANCH   6  19
TORSDOF 2
