REMARK  21 active torsions:
REMARK  status: ('A' for Active; 'I' for Inactive)
REMARK    1  A    between atoms: C2_2  and  O1_30 
REMARK    2  A    between atoms: C15_15  and  C18_18 
REMARK    3  A    between atoms: C18_18  and  C19_19 
REMARK    4  A    between atoms: C20_20  and  C21_21 
REMARK    5  A    between atoms: C21_21  and  C22_22 
REMARK    6  A    between atoms: C21_21  and  C25_25 
REMARK    7  A    between atoms: O1_30  and  C30_31 
REMARK    8  A    between atoms: C30_31  and  C31_32 
REMARK    9  A    between atoms: C31_32  and  C32_33 
REMARK   10  A    between atoms: C32_33  and  C33_34 
REMARK   11  A    between atoms: C33_34  and  C34_35 
REMARK   12  A    between atoms: C34_35  and  C35_36 
REMARK   13  A    between atoms: C35_36  and  C36_37 
REMARK   14  A    between atoms: C36_37  and  C37_38 
REMARK   15  A    between atoms: C37_38  and  C38_39 
REMARK   16  A    between atoms: C38_39  and  C39_40 
REMARK   17  A    between atoms: C39_40  and  C40_41 
REMARK   18  A    between atoms: C40_41  and  C41_42 
REMARK   19  A    between atoms: C41_42  and  C42_43 
REMARK   20  A    between atoms: C42_43  and  C43_44 
REMARK   21  A    between atoms: C43_44  and  C44_45 
ROOT
HETATM    1  C1  UNL     1       1.775  -1.381   0.184  1.00  0.00     0.031 C 
HETATM    2  C2  UNL     1       2.537  -1.775  -1.084  1.00  0.00     0.128 C 
HETATM    3  C3  UNL     1       2.109  -0.920  -2.279  1.00  0.00     0.052 C 
HETATM    4  C4  UNL     1       0.603  -0.893  -2.461  1.00  0.00    -0.047 C 
HETATM    5  C5  UNL     1      -0.252  -0.625  -1.223  1.00  0.00     0.015 C 
HETATM    6  C6  UNL     1       0.260  -1.482  -0.037  1.00  0.00     0.006 C 
HETATM    7  C7  UNL     1      -1.766  -0.916  -1.463  1.00  0.00     0.004 C 
HETATM    8  C8  UNL     1      -2.215  -0.391  -2.840  1.00  0.00     0.005 C 
HETATM    9  C9  UNL     1      -1.410  -1.082  -3.953  1.00  0.00     0.025 C 
HETATM   10  C10 UNL     1       0.076  -1.090  -3.689  1.00  0.00    -0.035 C 
HETATM   11  C11 UNL     1      -3.727  -0.553  -3.100  1.00  0.00     0.000 C 
HETATM   12  C12 UNL     1      -4.594  -0.031  -1.943  1.00  0.00     0.000 C 
HETATM   13  C13 UNL     1      -4.160  -0.648  -0.602  1.00  0.00     0.000 C 
HETATM   14  C14 UNL     1      -2.674  -0.373  -0.338  1.00  0.00     0.000 C 
HETATM   15  C15 UNL     1      -5.984  -0.545  -2.348  1.00  0.00     0.004 C 
HETATM   16  C16 UNL     1      -5.719  -1.949  -2.900  1.00  0.00     0.000 C 
HETATM   17  C17 UNL     1      -4.240  -1.984  -3.285  1.00  0.00     0.000 C 
HETATM   18  C28 UNL     1      -4.553   1.498  -1.887  1.00  0.00     0.000 C 
HETATM   19  C29 UNL     1      -0.049   0.863  -0.896  1.00  0.00     0.004 C 
ENDROOT
BRANCH   2  20
HETATM   20  O1  UNL     1       3.932  -1.621  -0.865  1.00  0.00    -0.304 OA
BRANCH  20  21
HETATM   21  C30 UNL     1       4.447  -2.617  -0.150  1.00  0.00     0.272 C 
HETATM   22  O2  UNL     1       3.793  -3.522   0.315  1.00  0.00    -0.264 OA
BRANCH  21  23
HETATM   23  C31 UNL     1       5.938  -2.557   0.051  1.00  0.00     0.096 C 
BRANCH  23  24
HETATM   24  C32 UNL     1       6.334  -1.607   1.182  1.00  0.00     0.010 C 
BRANCH  24  25
HETATM   25  C33 UNL     1       5.695  -1.984   2.520  1.00  0.00     0.001 C 
BRANCH  25  26
HETATM   26  C34 UNL     1       6.107  -1.045   3.654  1.00  0.00     0.000 C 
BRANCH  26  27
HETATM   27  C35 UNL     1       5.580  -1.500   5.016  1.00  0.00     0.000 C 
BRANCH  27  28
HETATM   28  C36 UNL     1       4.053  -1.494   5.090  1.00  0.00     0.000 C 
BRANCH  28  29
HETATM   29  C37 UNL     1       3.457  -0.102   4.875  1.00  0.00     0.000 C 
BRANCH  29  30
HETATM   30  C38 UNL     1       3.867   0.889   5.967  1.00  0.00     0.000 C 
BRANCH  30  31
HETATM   31  C39 UNL     1       3.166   2.240   5.828  1.00  0.00     0.000 C 
BRANCH  31  32
HETATM   32  C40 UNL     1       3.480   3.189   6.985  1.00  0.00     0.000 C 
BRANCH  32  33
HETATM   33  C41 UNL     1       4.951   3.606   7.024  1.00  0.00     0.000 C 
BRANCH  33  34
HETATM   34  C42 UNL     1       5.746   2.867   8.100  1.00  0.00     0.000 C 
BRANCH  34  35
HETATM   35  C43 UNL     1       7.225   3.252   8.108  1.00  0.00     0.000 C 
BRANCH  35  36
HETATM   36  C44 UNL     1       8.022   2.512   9.184  1.00  0.00     0.000 C 
HETATM   37  C45 UNL     1       9.500   2.897   9.194  1.00  0.00     0.000 C 
ENDBRANCH  35  36
ENDBRANCH  34  35
ENDBRANCH  33  34
ENDBRANCH  32  33
ENDBRANCH  31  32
ENDBRANCH  30  31
ENDBRANCH  29  30
ENDBRANCH  28  29
ENDBRANCH  27  28
ENDBRANCH  26  27
ENDBRANCH  25  26
ENDBRANCH  24  25
ENDBRANCH  23  24
ENDBRANCH  21  23
ENDBRANCH  20  21
ENDBRANCH   2  20
BRANCH  15  38
HETATM   38  C18 UNL     1      -6.629   0.305  -3.447  1.00  0.00     0.022 C 
HETATM   39  C27 UNL     1      -7.242   1.426  -2.607  1.00  0.00     0.005 C 
BRANCH  38  40
HETATM   40  C19 UNL     1      -7.664  -0.457  -4.229  1.00  0.00    -0.031 C 
HETATM   41  C20 UNL     1      -7.451  -0.668  -5.539  1.00  0.00    -0.031 C 
BRANCH  41  42
HETATM   42  C21 UNL     1      -6.190  -0.129  -6.156  1.00  0.00     0.022 C 
BRANCH  42  43
HETATM   43  C22 UNL     1      -5.865  -0.795  -7.494  1.00  0.00     0.004 C 
HETATM   44  C23 UNL     1      -5.633  -2.301  -7.361  1.00  0.00     0.000 C 
HETATM   45  C24 UNL     1      -6.875  -0.447  -8.588  1.00  0.00     0.000 C 
ENDBRANCH  42  43
BRANCH  42  46
HETATM   46  C25 UNL     1      -6.186   1.396  -6.242  1.00  0.00     0.004 C 
HETATM   47  C26 UNL     1      -4.775   1.984  -6.273  1.00  0.00     0.000 C 
ENDBRANCH  42  46
ENDBRANCH  41  42
ENDBRANCH  38  40
ENDBRANCH  15  38
TORSDOF 21
