REMARK  3 active torsions:
REMARK  status: ('A' for Active; 'I' for Inactive)
REMARK    1  A    between atoms: C1_1  and  C2_2 
REMARK    2  A    between atoms: C2_2  and  C3_3 
REMARK    3  A    between atoms: C2_2  and  C5_5 
ROOT
HETATM    1  C2  UNL     1      -0.193  -0.324  -0.076  1.00  0.00     0.000 C 
HETATM    2  C7  UNL     1      -0.564  -1.090  -1.348  1.00  0.00     0.000 C 
ENDROOT
BRANCH   1   3
HETATM    3  C1  UNL     1      -0.037   1.178  -0.318  1.00  0.00     0.000 C 
HETATM    4  C8  UNL     1       0.504   1.918   0.904  1.00  0.00     0.000 C 
HETATM    5  C9  UNL     1       0.748   1.492  -1.594  1.00  0.00     0.000 C 
ENDBRANCH   1   3
BRANCH   1   6
HETATM    6  C3  UNL     1      -1.123  -0.639   1.096  1.00  0.00     0.000 C 
HETATM    7  C4  UNL     1      -2.545  -0.119   0.877  1.00  0.00     0.000 C 
ENDBRANCH   1   6
BRANCH   1   8
HETATM    8  C5  UNL     1       1.285  -0.467   0.287  1.00  0.00     0.000 C 
HETATM    9  C6  UNL     1       1.756  -1.920   0.281  1.00  0.00     0.000 C 
ENDBRANCH   1   8
TORSDOF 3
