REMARK  24 active torsions:
REMARK  status: ('A' for Active; 'I' for Inactive)
REMARK    1  A    between atoms: C4_4  and  C29_31 
REMARK    2  A    between atoms: C5_5  and  N1_7 
REMARK       I    between atoms: N1_7  and  C7_8 
REMARK    3  A    between atoms: C7_8  and  C8_9 
REMARK    4  A    between atoms: C8_9  and  C9_10 
REMARK    5  A    between atoms: C9_10  and  C10_11 
REMARK    6  A    between atoms: C10_11  and  C11_12 
REMARK    7  A    between atoms: C11_12  and  C12_13 
REMARK    8  A    between atoms: C12_13  and  C13_14 
REMARK    9  A    between atoms: C13_14  and  C14_15 
REMARK   10  A    between atoms: C14_15  and  C15_16 
REMARK   11  A    between atoms: C15_16  and  C16_17 
REMARK   12  A    between atoms: C16_17  and  C17_18 
REMARK   13  A    between atoms: C17_18  and  C18_19 
REMARK   14  A    between atoms: C18_19  and  C19_20 
REMARK   15  A    between atoms: C19_20  and  C20_21 
REMARK   16  A    between atoms: C20_21  and  C21_22 
REMARK   17  A    between atoms: C21_22  and  C22_23 
REMARK   18  A    between atoms: C22_23  and  C23_24 
REMARK   19  A    between atoms: C23_24  and  C24_25 
REMARK   20  A    between atoms: C24_25  and  C25_26 
REMARK   21  A    between atoms: C25_26  and  C26_27 
REMARK   22  A    between atoms: C26_27  and  C27_28 
REMARK   23  A    between atoms: C29_31  and  O2_32 
REMARK   24  A    between atoms: O2_32  and  C30_33 
ROOT
HETATM    1  C11 UNL     1       1.473  -0.600   5.379  1.00  0.00     0.000 C 
ENDROOT
BRANCH   1   2
HETATM    2  C10 UNL     1       2.053  -1.646   6.328  1.00  0.00     0.001 C 
BRANCH   2   3
HETATM    3  C9  UNL     1       1.836  -1.295   7.801  1.00  0.00     0.010 C 
BRANCH   3   4
HETATM    4  C8  UNL     1       2.465  -2.313   8.752  1.00  0.00     0.090 C 
BRANCH   4   5
HETATM    5  C7  UNL     1       1.752  -3.637   8.729  1.00  0.00     0.256 C 
HETATM    6  N1  UNL     1       0.648  -3.803   9.516  1.00  0.00    -0.212 NA
HETATM    7  O1  UNL     1       2.143  -4.543   8.028  1.00  0.00    -0.270 OA
BRANCH   6   8
HETATM    8  C5  UNL     1      -0.024  -5.000   9.516  1.00  0.00     0.089 A 
HETATM    9  C4  UNL     1      -1.438  -5.053   9.516  1.00  0.00     0.081 A 
HETATM   10  C3  UNL     1      -2.088  -6.299   9.516  1.00  0.00     0.007 A 
HETATM   11  C2  UNL     1      -1.342  -7.490   9.516  1.00  0.00     0.000 A 
HETATM   12  C1  UNL     1       0.060  -7.438   9.516  1.00  0.00     0.002 A 
HETATM   13  C6  UNL     1       0.719  -6.197   9.516  1.00  0.00     0.019 A 
BRANCH   9  14
HETATM   14  C29 UNL     1      -2.268  -3.805   9.516  1.00  0.00     0.297 C 
HETATM   15  O3  UNL     1      -3.356  -3.783  10.043  1.00  0.00    -0.259 OA
BRANCH  14  16
HETATM   16  O2  UNL     1      -1.719  -2.760   8.905  1.00  0.00    -0.298 OA
BRANCH  16  17
HETATM   17  C30 UNL     1      -2.596  -1.645   8.852  1.00  0.00     0.152 C 
HETATM   18  C31 UNL     1      -1.893  -0.475   8.164  1.00  0.00     0.035 C 
ENDBRANCH  16  17
ENDBRANCH  14  16
ENDBRANCH   9  14
ENDBRANCH   6   8
ENDBRANCH   4   5
ENDBRANCH   3   4
ENDBRANCH   2   3
ENDBRANCH   1   2
BRANCH   1  19
HETATM   19  C12 UNL     1       1.689  -0.951   3.906  1.00  0.00     0.000 C 
BRANCH  19  20
HETATM   20  C13 UNL     1       1.109   0.096   2.957  1.00  0.00     0.000 C 
BRANCH  20  21
HETATM   21  C14 UNL     1       1.326  -0.258   1.485  1.00  0.00     0.000 C 
BRANCH  21  22
HETATM   22  C15 UNL     1       0.744   0.791   0.535  1.00  0.00     0.000 C 
BRANCH  22  23
HETATM   23  C16 UNL     1       0.963   0.438  -0.937  1.00  0.00     0.000 C 
BRANCH  23  24
HETATM   24  C17 UNL     1       0.381   1.484  -1.887  1.00  0.00     0.000 C 
BRANCH  24  25
HETATM   25  C18 UNL     1       0.598   1.131  -3.357  1.00  0.00     0.000 C 
BRANCH  25  26
HETATM   26  C19 UNL     1       0.018   2.180  -4.308  1.00  0.00     0.000 C 
BRANCH  26  27
HETATM   27  C20 UNL     1       0.234   1.826  -5.779  1.00  0.00     0.000 C 
BRANCH  27  28
HETATM   28  C21 UNL     1      -0.346   2.873  -6.730  1.00  0.00     0.000 C 
BRANCH  28  29
HETATM   29  C22 UNL     1      -0.129   2.520  -8.201  1.00  0.00     0.000 C 
BRANCH  29  30
HETATM   30  C23 UNL     1      -0.711   3.568  -9.152  1.00  0.00     0.000 C 
BRANCH  30  31
HETATM   31  C24 UNL     1      -0.494   3.215 -10.623  1.00  0.00     0.000 C 
BRANCH  31  32
HETATM   32  C25 UNL     1      -1.074   4.262 -11.574  1.00  0.00     0.000 C 
BRANCH  32  33
HETATM   33  C26 UNL     1      -0.858   3.910 -13.045  1.00  0.00     0.000 C 
BRANCH  33  34
HETATM   34  C27 UNL     1      -1.438   4.957 -13.996  1.00  0.00     0.000 C 
HETATM   35  C28 UNL     1      -1.209   4.611 -15.467  1.00  0.00     0.000 C 
ENDBRANCH  33  34
ENDBRANCH  32  33
ENDBRANCH  31  32
ENDBRANCH  30  31
ENDBRANCH  29  30
ENDBRANCH  28  29
ENDBRANCH  27  28
ENDBRANCH  26  27
ENDBRANCH  25  26
ENDBRANCH  24  25
ENDBRANCH  23  24
ENDBRANCH  22  23
ENDBRANCH  21  22
ENDBRANCH  20  21
ENDBRANCH  19  20
ENDBRANCH   1  19
TORSDOF 24
