REMARK  0 active torsions:
REMARK  status: ('A' for Active; 'I' for Inactive)
ROOT
HETATM    1  C1  UNL     1       0.201  -0.223   0.025  1.00  0.00     0.033 A 
HETATM    2  C2  UNL     1      -0.367   1.119  -0.070  1.00  0.00     0.271 A 
HETATM    3  O1  UNL     1       0.224   2.172  -0.012  1.00  0.00    -0.266 OA
HETATM    4  N1  UNL     1      -1.750   1.021  -0.250  1.00  0.00    -0.234 NA
HETATM    5  C3  UNL     1      -2.162  -0.383  -0.283  1.00  0.00     0.134 A 
HETATM    6  C4  UNL     1      -0.901  -1.242  -0.104  1.00  0.00     0.057 A 
HETATM    7  C5  UNL     1       1.496  -0.549   0.205  1.00  0.00    -0.025 C 
HETATM    8  C6  UNL     1       2.574   0.496   0.334  1.00  0.00     0.030 C 
ENDROOT
TORSDOF 0
