REMARK  2 active torsions:
REMARK  status: ('A' for Active; 'I' for Inactive)
REMARK    1  A    between atoms: C2_2  and  S1_3 
REMARK    2  A    between atoms: S1_3  and  C3_4 
ROOT
HETATM    1  S1  UNL     1       0.547  -0.734   0.576  1.00  0.00    -0.141 SA
ENDROOT
BRANCH   1   2
HETATM    2  C2  UNL     1      -0.676  -1.363  -0.609  1.00  0.00     0.058 C 
HETATM    3  C1  UNL     1      -0.633  -2.889  -0.684  1.00  0.00     0.013 C 
ENDBRANCH   1   2
BRANCH   1   4
HETATM    4  C3  UNL     1       0.113   1.027   0.514  1.00  0.00     0.048 C 
HETATM    5  C4  UNL     1       0.652   1.767   1.736  1.00  0.00     0.012 C 
HETATM    6  C5  UNL     1       0.564   1.656  -0.805  1.00  0.00     0.012 C 
ENDBRANCH   1   4
TORSDOF 2
