REMARK  5 active torsions:
REMARK  status: ('A' for Active; 'I' for Inactive)
REMARK    1  A    between atoms: C2_2  and  C8_9 
REMARK    2  A    between atoms: C5_5  and  O1_7 
REMARK    3  A    between atoms: C9_10  and  C10_11 
REMARK    4  A    between atoms: C10_11  and  O2_12 
REMARK    5  A    between atoms: O2_12  and  C11_13 
ROOT
HETATM    1  C1  UNL     1       0.672  -2.053   0.498  1.00  0.00     0.002 A 
HETATM    2  C2  UNL     1      -0.072  -0.859   0.498  1.00  0.00     0.000 A 
HETATM    3  C3  UNL     1      -1.478  -0.912   0.498  1.00  0.00     0.002 A 
HETATM    4  C4  UNL     1      -2.135  -2.154   0.498  1.00  0.00     0.024 A 
HETATM    5  C5  UNL     1      -1.393  -3.350   0.498  1.00  0.00     0.094 A 
HETATM    6  C6  UNL     1       0.014  -3.293   0.498  1.00  0.00     0.024 A 
ENDROOT
BRANCH   2   7
HETATM    7  C8  UNL     1       0.627   0.459   0.498  1.00  0.00     0.005 C 
HETATM    8  C9  UNL     1      -0.002   1.522  -0.031  1.00  0.00     0.068 C 
BRANCH   8   9
HETATM    9  C10 UNL     1       0.647   2.838  -0.054  1.00  0.00     0.296 C 
HETATM   10  O3  UNL     1       1.754   2.985   0.405  1.00  0.00    -0.259 OA
BRANCH   9  11
HETATM   11  O2  UNL     1      -0.062   3.822  -0.601  1.00  0.00    -0.298 OA
BRANCH  11  12
HETATM   12  C11 UNL     1       0.645   5.051  -0.625  1.00  0.00     0.152 C 
HETATM   13  C12 UNL     1       1.842   4.932  -1.568  1.00  0.00     0.035 C 
ENDBRANCH  11  12
ENDBRANCH   9  11
ENDBRANCH   8   9
ENDBRANCH   2   7
BRANCH   5  14
HETATM   14  O1  UNL     1      -2.010  -4.514   0.498  1.00  0.00    -0.328 OA
HETATM   15  C7  UNL     1      -1.213  -5.689   0.498  1.00  0.00     0.181 C 
ENDBRANCH   5  14
TORSDOF 5
