REMARK  3 active torsions:
REMARK  status: ('A' for Active; 'I' for Inactive)
REMARK    1  A    between atoms: C1_1  and  C2_2 
REMARK    2  A    between atoms: C2_2  and  O1_3 
REMARK    3  A    between atoms: O1_3  and  C3_4 
ROOT
HETATM    1  C2  UNL     1      -0.937   0.062   0.018  1.00  0.00     0.272 C 
HETATM    2  O2  UNL     1      -1.654   0.846  -0.563  1.00  0.00    -0.264 OA
ENDROOT
BRANCH   1   3
HETATM    3  C1  UNL     1      -1.373  -0.572   1.311  1.00  0.00     0.096 C 
HETATM    4  C5  UNL     1      -0.832   0.168   2.535  1.00  0.00     0.011 C 
ENDBRANCH   1   3
BRANCH   1   5
HETATM    5  O1  UNL     1       0.264  -0.305  -0.418  1.00  0.00    -0.302 OA
BRANCH   5   6
HETATM    6  C3  UNL     1       0.614   0.328  -1.639  1.00  0.00     0.152 C 
HETATM    7  C4  UNL     1       2.002  -0.139  -2.076  1.00  0.00     0.035 C 
ENDBRANCH   5   6
ENDBRANCH   1   5
TORSDOF 3
