REMARK  0 active torsions:
REMARK  status: ('A' for Active; 'I' for Inactive)
ROOT
HETATM    1  C1  UNL     1       1.123  -0.785  -1.291  1.00  0.00     0.005 C 
HETATM    2  C2  UNL     1       0.389  -1.756  -0.342  1.00  0.00     0.027 C 
HETATM    3  C3  UNL     1      -0.727  -1.014   0.434  1.00  0.00     0.093 C 
HETATM    4  C4  UNL     1      -1.703  -0.344  -0.565  1.00  0.00     0.027 C 
HETATM    5  C5  UNL     1      -0.938   0.600  -1.516  1.00  0.00     0.005 C 
HETATM    6  C6  UNL     1       0.547   0.633  -1.096  1.00  0.00     0.025 C 
HETATM    7  C7  UNL     1       0.629   1.000   0.414  1.00  0.00     0.093 C 
HETATM    8  C8  UNL     1      -0.004   2.363   0.711  1.00  0.00     0.030 C 
HETATM    9  C9  UNL     1       2.070   0.979   0.934  1.00  0.00     0.030 C 
HETATM   10  O1  UNL     1      -0.100   0.033   1.184  1.00  0.00    -0.364 OA
HETATM   11  C10 UNL     1      -1.447  -1.924   1.432  1.00  0.00     0.030 C 
ENDROOT
TORSDOF 0
