REMARK WARNING: 32 MAX_TORS EXCEEDED!!!
REMARK  52 active torsions:
REMARK  status: ('A' for Active; 'I' for Inactive)
REMARK    1  A    between atoms: C1_1  and  C2_2 
REMARK    2  A    between atoms: C1_1  and  C26_26 
REMARK    3  A    between atoms: C2_2  and  C3_3 
REMARK    4  A    between atoms: C3_3  and  C4_4 
REMARK    5  A    between atoms: C4_4  and  C5_5 
REMARK    6  A    between atoms: C5_5  and  C6_6 
REMARK    7  A    between atoms: C6_6  and  C7_7 
REMARK    8  A    between atoms: C7_7  and  C8_8 
REMARK    9  A    between atoms: C8_8  and  C9_9 
REMARK   10  A    between atoms: C9_9  and  C10_10 
REMARK   11  A    between atoms: C10_10  and  C11_11 
REMARK   12  A    between atoms: C11_11  and  C12_12 
REMARK   13  A    between atoms: C12_12  and  C13_13 
REMARK   14  A    between atoms: C13_13  and  C14_14 
REMARK   15  A    between atoms: C14_14  and  C15_15 
REMARK   16  A    between atoms: C15_15  and  C16_16 
REMARK   17  A    between atoms: C16_16  and  C17_17 
REMARK   18  A    between atoms: C17_17  and  C18_18 
REMARK   19  A    between atoms: C18_18  and  C19_19 
REMARK   20  A    between atoms: C19_19  and  C20_20 
REMARK   21  A    between atoms: C20_20  and  C21_21 
REMARK   22  A    between atoms: C21_21  and  C22_22 
REMARK   23  A    between atoms: C22_22  and  C23_23 
REMARK   24  A    between atoms: C23_23  and  C24_24 
REMARK   25  A    between atoms: C26_26  and  C27_27 
REMARK   26  A    between atoms: C27_27  and  C28_28 
REMARK   27  A    between atoms: C28_28  and  C29_29 
REMARK   28  A    between atoms: C29_29  and  C30_30 
REMARK   29  A    between atoms: C30_30  and  C31_31 
REMARK   30  A    between atoms: C31_31  and  C32_32 
REMARK   31  A    between atoms: C32_32  and  C33_33 
REMARK   32  A    between atoms: C33_33  and  C34_34 
REMARK   33  A    between atoms: C34_34  and  C35_35 
REMARK   34  A    between atoms: C35_35  and  C36_36 
REMARK   35  A    between atoms: C36_36  and  C37_37 
REMARK   36  A    between atoms: C37_37  and  C38_38 
REMARK   37  A    between atoms: C38_38  and  C39_39 
REMARK   38  A    between atoms: C39_39  and  C40_40 
REMARK   39  A    between atoms: C40_40  and  C41_41 
REMARK   40  A    between atoms: C41_41  and  C42_42 
REMARK   41  A    between atoms: C42_42  and  C43_43 
REMARK   42  A    between atoms: C43_43  and  C44_44 
REMARK   43  A    between atoms: C44_44  and  C45_45 
REMARK   44  A    between atoms: C45_45  and  C46_46 
REMARK   45  A    between atoms: C46_46  and  C47_47 
REMARK   46  A    between atoms: C47_47  and  C48_48 
REMARK   47  A    between atoms: C48_48  and  C49_49 
REMARK   48  A    between atoms: C49_49  and  C50_50 
REMARK   49  A    between atoms: C50_50  and  C51_51 
REMARK   50  A    between atoms: C51_51  and  C52_52 
REMARK   51  A    between atoms: C52_52  and  C53_53 
REMARK   52  A    between atoms: C53_53  and  C54_54 
ROOT
HETATM    1  C28 UNL     1      -2.482  -6.384   0.001  1.00  0.00     0.129 C 
ENDROOT
BRANCH   1   2
HETATM    2  C27 UNL     1      -1.034  -6.859   0.001  1.00  0.00     0.158 C 
HETATM    3  O2  UNL     1      -0.716  -8.026   0.001  1.00  0.00    -0.296 OA
BRANCH   2   4
HETATM    4  C26 UNL     1       0.014  -5.752   0.000  1.00  0.00     0.065 C 
BRANCH   4   5
HETATM    5  C1  UNL     1       1.451  -6.288   0.000  1.00  0.00     0.008 C 
BRANCH   5   6
HETATM    6  C2  UNL     1       2.504  -5.170   0.000  1.00  0.00     0.000 C 
BRANCH   6   7
HETATM    7  C3  UNL     1       3.913  -5.779  -0.000  1.00  0.00     0.000 C 
BRANCH   7   8
HETATM    8  C4  UNL     1       5.032  -4.727   0.000  1.00  0.00     0.000 C 
BRANCH   8   9
HETATM    9  C5  UNL     1       6.401  -5.423  -0.000  1.00  0.00     0.000 C 
BRANCH   9  10
HETATM   10  C6  UNL     1       7.575  -4.436   0.000  1.00  0.00     0.000 C 
BRANCH  10  11
HETATM   11  C7  UNL     1       8.910  -5.197  -0.000  1.00  0.00     0.000 C 
BRANCH  11  12
HETATM   12  C8  UNL     1      10.120  -4.253   0.000  1.00  0.00     0.000 C 
BRANCH  12  13
HETATM   13  C9  UNL     1      11.440  -5.040  -0.000  1.00  0.00     0.000 C 
BRANCH  13  14
HETATM   14  C10 UNL     1      12.658  -4.105   0.000  1.00  0.00     0.000 C 
BRANCH  14  15
HETATM   15  C11 UNL     1      13.979  -4.889  -0.000  1.00  0.00     0.000 C 
BRANCH  15  16
HETATM   16  C12 UNL     1      15.194  -3.949   0.000  1.00  0.00     0.000 C 
BRANCH  16  17
HETATM   17  C13 UNL     1      16.519  -4.727  -0.000  1.00  0.00     0.000 C 
BRANCH  17  18
HETATM   18  C14 UNL     1      17.726  -3.776   0.000  1.00  0.00     0.000 C 
BRANCH  18  19
HETATM   19  C15 UNL     1      19.059  -4.538  -0.000  1.00  0.00     0.000 C 
BRANCH  19  20
HETATM   20  C16 UNL     1      20.253  -3.571   0.000  1.00  0.00     0.000 C 
BRANCH  20  21
HETATM   21  C17 UNL     1      21.593  -4.320  -0.000  1.00  0.00     0.000 C 
BRANCH  21  22
HETATM   22  C18 UNL     1      22.783  -3.348   0.000  1.00  0.00     0.000 C 
BRANCH  22  23
HETATM   23  C19 UNL     1      24.125  -4.096  -0.000  1.00  0.00     0.000 C 
BRANCH  23  24
HETATM   24  C20 UNL     1      25.319  -3.129   0.000  1.00  0.00     0.000 C 
BRANCH  24  25
HETATM   25  C21 UNL     1      26.657  -3.884  -0.000  1.00  0.00     0.000 C 
BRANCH  25  26
HETATM   26  C22 UNL     1      27.860  -2.927   0.000  1.00  0.00     0.000 C 
BRANCH  26  27
HETATM   27  C23 UNL     1      29.195  -3.690  -0.000  1.00  0.00     0.000 C 
BRANCH  27  28
HETATM   28  C24 UNL     1      30.400  -2.736   0.000  1.00  0.00     0.000 C 
HETATM   29  C25 UNL     1      31.732  -3.498  -0.000  1.00  0.00     0.000 C 
ENDBRANCH  27  28
ENDBRANCH  26  27
ENDBRANCH  25  26
ENDBRANCH  24  25
ENDBRANCH  23  24
ENDBRANCH  22  23
ENDBRANCH  21  22
ENDBRANCH  20  21
ENDBRANCH  19  20
ENDBRANCH  18  19
ENDBRANCH  17  18
ENDBRANCH  16  17
ENDBRANCH  15  16
ENDBRANCH  14  15
ENDBRANCH  13  14
ENDBRANCH  12  13
ENDBRANCH  11  12
ENDBRANCH  10  11
ENDBRANCH   9  10
ENDBRANCH   8   9
ENDBRANCH   7   8
ENDBRANCH   6   7
ENDBRANCH   5   6
ENDBRANCH   4   5
ENDBRANCH   2   4
ENDBRANCH   1   2
BRANCH   1  30
HETATM   30  C29 UNL     1      -3.599  -7.423  -0.001  1.00  0.00     0.158 C 
HETATM   31  O1  UNL     1      -3.378  -8.614  -0.004  1.00  0.00    -0.296 OA
BRANCH  30  32
HETATM   32  C30 UNL     1      -5.048  -6.950   0.000  1.00  0.00     0.065 C 
BRANCH  32  33
HETATM   33  C31 UNL     1      -5.269  -5.430  -0.001  1.00  0.00     0.008 C 
BRANCH  33  34
HETATM   34  C32 UNL     1      -6.762  -5.070   0.000  1.00  0.00     0.000 C 
BRANCH  34  35
HETATM   35  C33 UNL     1      -6.969  -3.547  -0.000  1.00  0.00     0.000 C 
BRANCH  35  36
HETATM   36  C34 UNL     1      -8.460  -3.183   0.000  1.00  0.00     0.000 C 
BRANCH  36  37
HETATM   37  C35 UNL     1      -8.674  -1.662  -0.000  1.00  0.00     0.000 C 
BRANCH  37  38
HETATM   38  C36 UNL     1     -10.169  -1.315   0.000  1.00  0.00     0.000 C 
BRANCH  38  39
HETATM   39  C37 UNL     1     -10.411   0.201  -0.000  1.00  0.00     0.000 C 
BRANCH  39  40
HETATM   40  C38 UNL     1     -11.913   0.519   0.000  1.00  0.00     0.000 C 
BRANCH  40  41
HETATM   41  C39 UNL     1     -12.182   2.031  -0.000  1.00  0.00     0.000 C 
BRANCH  41  42
HETATM   42  C40 UNL     1     -13.689   2.326   0.000  1.00  0.00     0.000 C 
BRANCH  42  43
HETATM   43  C41 UNL     1     -13.984   3.833  -0.000  1.00  0.00     0.000 C 
BRANCH  43  44
HETATM   44  C42 UNL     1     -15.496   4.108   0.000  1.00  0.00     0.000 C 
BRANCH  44  45
HETATM   45  C43 UNL     1     -15.802   5.613  -0.000  1.00  0.00     0.000 C 
BRANCH  45  46
HETATM   46  C44 UNL     1     -17.314   5.886   0.000  1.00  0.00     0.000 C 
BRANCH  46  47
HETATM   47  C45 UNL     1     -17.615   7.392  -0.000  1.00  0.00     0.000 C 
BRANCH  47  48
HETATM   48  C46 UNL     1     -19.126   7.669   0.000  1.00  0.00     0.000 C 
BRANCH  48  49
HETATM   49  C47 UNL     1     -19.422   9.176  -0.000  1.00  0.00     0.000 C 
BRANCH  49  50
HETATM   50  C48 UNL     1     -20.931   9.460   0.000  1.00  0.00     0.000 C 
BRANCH  50  51
HETATM   51  C49 UNL     1     -21.221  10.969  -0.000  1.00  0.00     0.000 C 
BRANCH  51  52
HETATM   52  C50 UNL     1     -22.730  11.259   0.000  1.00  0.00     0.000 C 
BRANCH  52  53
HETATM   53  C51 UNL     1     -23.021  12.768  -0.000  1.00  0.00     0.000 C 
BRANCH  53  54
HETATM   54  C52 UNL     1     -24.531  13.058   0.000  1.00  0.00     0.000 C 
BRANCH  54  55
HETATM   55  C53 UNL     1     -24.823  14.567  -0.000  1.00  0.00     0.000 C 
BRANCH  55  56
HETATM   56  C54 UNL     1     -26.332  14.861   0.000  1.00  0.00     0.000 C 
HETATM   57  C55 UNL     1     -26.618  16.368  -0.000  1.00  0.00     0.000 C 
ENDBRANCH  55  56
ENDBRANCH  54  55
ENDBRANCH  53  54
ENDBRANCH  52  53
ENDBRANCH  51  52
ENDBRANCH  50  51
ENDBRANCH  49  50
ENDBRANCH  48  49
ENDBRANCH  47  48
ENDBRANCH  46  47
ENDBRANCH  45  46
ENDBRANCH  44  45
ENDBRANCH  43  44
ENDBRANCH  42  43
ENDBRANCH  41  42
ENDBRANCH  40  41
ENDBRANCH  39  40
ENDBRANCH  38  39
ENDBRANCH  37  38
ENDBRANCH  36  37
ENDBRANCH  35  36
ENDBRANCH  34  35
ENDBRANCH  33  34
ENDBRANCH  32  33
ENDBRANCH  30  32
ENDBRANCH   1  30
TORSDOF 52
