REMARK  4 active torsions:
REMARK  status: ('A' for Active; 'I' for Inactive)
REMARK    1  A    between atoms: C1_1  and  C8_11 
REMARK    2  A    between atoms: C4_4  and  C7_8 
REMARK    3  A    between atoms: C5_5  and  C6_6 
REMARK    4  A    between atoms: C8_11  and  C9_12 
ROOT
HETATM    1  C1  UNL     1       0.594  -0.385   0.512  1.00  0.00     0.054 C 
HETATM    2  C2  UNL     1       1.305   0.990   0.525  1.00  0.00     0.160 C 
HETATM    3  C3  UNL     1       0.361   1.904  -0.283  1.00  0.00     0.057 C 
HETATM    4  C4  UNL     1      -0.973   1.223  -0.191  1.00  0.00    -0.014 C 
HETATM    5  C5  UNL     1      -0.846  -0.035   0.246  1.00  0.00    -0.015 C 
HETATM    6  O3  UNL     1       1.391   1.465   1.857  1.00  0.00    -0.223 OA
ENDROOT
BRANCH   1   7
HETATM    7  C8  UNL     1       1.158  -1.246  -0.613  1.00  0.00     0.042 C 
BRANCH   7   8
HETATM    8  C9  UNL     1       2.502  -1.834  -0.182  1.00  0.00     0.183 C 
HETATM    9  O4  UNL     1       2.988  -2.639  -1.231  1.00  0.00    -0.221 OA
ENDBRANCH   7   8
ENDBRANCH   1   7
BRANCH   5  10
HETATM   10  C6  UNL     1      -1.979  -1.002   0.467  1.00  0.00     0.204 C 
HETATM   11  O1  UNL     1      -2.514  -0.814   1.756  1.00  0.00    -0.216 OA
ENDBRANCH   5  10
BRANCH   4  12
HETATM   12  C7  UNL     1      -2.270   1.898  -0.549  1.00  0.00     0.204 C 
HETATM   13  O2  UNL     1      -2.602   1.602  -1.887  1.00  0.00    -0.216 OA
ENDBRANCH   4  12
TORSDOF 4
