REMARK  1 active torsions:
REMARK  status: ('A' for Active; 'I' for Inactive)
REMARK    1  A    between atoms: C9_9  and  C11_11 
ROOT
HETATM    1  C1  UNL     1      -3.330  -1.799   0.325  1.00  0.00     0.004 C 
HETATM    2  C2  UNL     1      -3.536  -0.399   0.922  1.00  0.00     0.022 C 
HETATM    3  C3  UNL     1      -2.451   0.558   0.477  1.00  0.00    -0.044 C 
HETATM    4  C4  UNL     1      -1.021   0.065   0.658  1.00  0.00     0.018 C 
HETATM    5  C5  UNL     1      -0.835  -1.327  -0.005  1.00  0.00     0.004 C 
HETATM    6  C6  UNL     1      -1.896  -2.309   0.538  1.00  0.00     0.001 C 
HETATM    7  C7  UNL     1       0.576  -1.863   0.315  1.00  0.00     0.000 C 
HETATM    8  C8  UNL     1       1.686  -0.890  -0.108  1.00  0.00     0.003 C 
HETATM    9  C9  UNL     1       1.494   0.500   0.517  1.00  0.00     0.028 C 
HETATM   10  C10 UNL     1       0.088   1.050   0.225  1.00  0.00     0.006 C 
HETATM   11  C14 UNL     1      -0.992  -1.214  -1.531  1.00  0.00     0.000 C 
HETATM   12  C15 UNL     1      -2.767   1.761  -0.045  1.00  0.00    -0.009 C 
ENDROOT
BRANCH   9  13
HETATM   13  C11 UNL     1       2.579   1.473   0.048  1.00  0.00     0.127 C 
HETATM   14  C12 UNL     1       3.992   0.964   0.336  1.00  0.00     0.033 C 
HETATM   15  C13 UNL     1       2.393   1.908  -1.406  1.00  0.00     0.033 C 
HETATM   16  O1  UNL     1       2.524   2.622   0.863  1.00  0.00    -0.226 OA
ENDBRANCH   9  13
TORSDOF 1
