REMARK  9 active torsions:
REMARK  status: ('A' for Active; 'I' for Inactive)
REMARK    1  A    between atoms: C2_2  and  C31_35 
REMARK    2  A    between atoms: C5_5  and  O1_7 
REMARK    3  A    between atoms: O1_7  and  C7_8 
REMARK    4  A    between atoms: C9_10  and  C28_32 
REMARK    5  A    between atoms: C11_12  and  O3_15 
REMARK    6  A    between atoms: O3_15  and  C13_16 
REMARK    7  A    between atoms: C20_23  and  C23_26 
REMARK    8  A    between atoms: C28_32  and  C29_33 
REMARK    9  A    between atoms: C31_35  and  C32_36 
ROOT
HETATM    1  C7  UNL     1      -0.969   1.523   1.793  1.00  0.00     0.127 A 
HETATM    2  C8  UNL     1      -2.305   1.123   1.967  1.00  0.00     0.023 A 
HETATM    3  C9  UNL     1      -2.723  -0.148   1.541  1.00  0.00    -0.014 A 
HETATM    4  C10 UNL     1      -1.801  -1.023   0.941  1.00  0.00     0.022 A 
HETATM    5  C11 UNL     1      -0.463  -0.629   0.766  1.00  0.00     0.121 A 
HETATM    6  C12 UNL     1      -0.047   0.646   1.191  1.00  0.00     0.176 A 
HETATM    7  O2  UNL     1       1.207   1.020   1.027  1.00  0.00    -0.186 OA
ENDROOT
BRANCH   5   8
HETATM    8  O3  UNL     1       0.396  -1.453   0.201  1.00  0.00    -0.334 OA
BRANCH   8   9
HETATM    9  C13 UNL     1       0.445  -1.500  -1.219  1.00  0.00     0.099 C 
HETATM   10  C14 UNL     1      -0.805  -2.246  -1.721  1.00  0.00     0.028 C 
HETATM   11  C15 UNL     1      -0.795  -3.734  -1.348  1.00  0.00     0.002 C 
HETATM   12  C16 UNL     1       0.494  -4.422  -1.819  1.00  0.00     0.000 C 
HETATM   13  C17 UNL     1       1.756  -3.731  -1.266  1.00  0.00     0.002 C 
HETATM   14  C18 UNL     1       1.740  -2.229  -1.660  1.00  0.00     0.026 C 
HETATM   15  C22 UNL     1       3.018  -4.395  -1.854  1.00  0.00     0.000 C 
HETATM   16  C26 UNL     1       1.783  -3.898   0.264  1.00  0.00     0.000 C 
HETATM   17  C19 UNL     1       3.027  -1.518  -1.186  1.00  0.00     0.005 C 
HETATM   18  C20 UNL     1       4.293  -2.195  -1.736  1.00  0.00     0.028 C 
HETATM   19  C21 UNL     1       4.311  -3.695  -1.404  1.00  0.00     0.002 C 
HETATM   20  C27 UNL     1       0.418  -0.051  -1.723  1.00  0.00     0.030 C 
BRANCH  18  21
HETATM   21  C23 UNL     1       5.561  -1.502  -1.229  1.00  0.00     0.127 C 
HETATM   22  C24 UNL     1       6.840  -2.227  -1.651  1.00  0.00     0.033 C 
HETATM   23  O4  UNL     1       5.609  -1.641   0.174  1.00  0.00    -0.226 OA
HETATM   24  C25 UNL     1       5.592  -0.010  -1.563  1.00  0.00     0.033 C 
ENDBRANCH  18  21
ENDBRANCH   8   9
ENDBRANCH   5   8
BRANCH   3  25
HETATM   25  C28 UNL     1      -4.137  -0.570   1.726  1.00  0.00     0.052 C 
BRANCH  25  26
HETATM   26  C29 UNL     1      -4.848  -0.762   0.414  1.00  0.00    -0.021 C 
HETATM   27  C30 UNL     1      -6.014  -1.428   0.406  1.00  0.00    -0.005 C 
ENDBRANCH  25  26
ENDBRANCH   3  25
BRANCH   1  28
HETATM   28  O1  UNL     1      -0.584   2.719   2.195  1.00  0.00    -0.305 OA
BRANCH  28  29
HETATM   29  C5  UNL     1      -1.426   3.721   2.051  1.00  0.00     0.100 A 
HETATM   30  C4  UNL     1      -2.283   3.770   0.937  1.00  0.00     0.024 A 
HETATM   31  C3  UNL     1      -3.184   4.838   0.783  1.00  0.00    -0.002 A 
HETATM   32  C2  UNL     1      -3.229   5.863   1.744  1.00  0.00    -0.018 A 
HETATM   33  C1  UNL     1      -2.371   5.818   2.859  1.00  0.00    -0.002 A 
HETATM   34  C6  UNL     1      -1.473   4.748   3.010  1.00  0.00     0.024 A 
BRANCH  32  35
HETATM   35  C31 UNL     1      -4.178   6.994   1.582  1.00  0.00     0.052 C 
BRANCH  35  36
HETATM   36  C32 UNL     1      -5.447   6.785   2.365  1.00  0.00    -0.021 C 
HETATM   37  C33 UNL     1      -6.278   7.828   2.529  1.00  0.00    -0.005 C 
ENDBRANCH  35  36
ENDBRANCH  32  35
ENDBRANCH  28  29
ENDBRANCH   1  28
TORSDOF 9
