REMARK  5 active torsions:
REMARK  status: ('A' for Active; 'I' for Inactive)
REMARK    1  A    between atoms: C2_2  and  C3_3 
REMARK    2  A    between atoms: C3_3  and  S1_4 
REMARK    3  A    between atoms: S1_4  and  S2_5 
REMARK    4  A    between atoms: S2_5  and  C4_6 
REMARK    5  A    between atoms: C4_6  and  C5_7 
ROOT
HETATM    1  S1  UNL     1       0.502   1.461   1.115  1.00  0.00     0.097 S 
HETATM    2  O1  UNL     1       0.728   2.133  -0.152  1.00  0.00    -0.245 OA
ENDROOT
BRANCH   1   3
HETATM    3  C3  UNL     1       1.396  -0.088   1.115  1.00  0.00     0.129 C 
BRANCH   3   4
HETATM    4  C2  UNL     1       2.902  -0.088   1.115  1.00  0.00    -0.011 C 
HETATM    5  C1  UNL     1       3.543   0.207  -0.029  1.00  0.00    -0.004 C 
ENDBRANCH   3   4
ENDBRANCH   1   3
BRANCH   1   6
HETATM    6  S2  UNL     1      -1.443   0.868   0.963  1.00  0.00    -0.045 SA
BRANCH   6   7
HETATM    7  C4  UNL     1      -1.568   0.315  -0.760  1.00  0.00     0.097 C 
BRANCH   7   8
HETATM    8  C5  UNL     1      -2.981  -0.121  -1.047  1.00  0.00    -0.013 C 
HETATM    9  C6  UNL     1      -3.383  -1.324  -0.602  1.00  0.00    -0.004 C 
ENDBRANCH   7   8
ENDBRANCH   6   7
ENDBRANCH   1   6
TORSDOF 5
