REMARK  3 active torsions:
REMARK  status: ('A' for Active; 'I' for Inactive)
REMARK    1  A    between atoms: C3_3  and  C8_10 
REMARK    2  A    between atoms: C5_5  and  O2_8 
REMARK    3  A    between atoms: C8_10  and  C9_11 
ROOT
HETATM    1  C1  UNL     1       2.297   0.484  -0.376  1.00  0.00     0.029 A 
HETATM    2  C2  UNL     1       1.641  -0.758  -0.376  1.00  0.00    -0.002 A 
HETATM    3  C3  UNL     1       0.236  -0.811  -0.376  1.00  0.00    -0.016 A 
HETATM    4  C4  UNL     1      -0.508   0.383  -0.376  1.00  0.00     0.022 A 
HETATM    5  C5  UNL     1       0.146   1.627  -0.376  1.00  0.00     0.119 A 
HETATM    6  C6  UNL     1       1.553   1.678  -0.376  1.00  0.00     0.153 A 
HETATM    7  O1  UNL     1       2.176   2.840  -0.376  1.00  0.00    -0.188 OA
ENDROOT
BRANCH   3   8
HETATM    8  C8  UNL     1      -0.461  -2.123  -0.376  1.00  0.00     0.052 C 
BRANCH   8   9
HETATM    9  C9  UNL     1      -0.938  -2.512   0.999  1.00  0.00    -0.021 C 
HETATM   10  C10 UNL     1      -0.041  -3.000   1.872  1.00  0.00    -0.005 C 
ENDBRANCH   8   9
ENDBRANCH   3   8
BRANCH   5  11
HETATM   11  O2  UNL     1      -0.559   2.740  -0.376  1.00  0.00    -0.326 OA
HETATM   12  C7  UNL     1      -1.971   2.635  -0.480  1.00  0.00     0.181 C 
ENDBRANCH   5  11
TORSDOF 3
