REMARK  5 active torsions:
REMARK  status: ('A' for Active; 'I' for Inactive)
REMARK    1  A    between atoms: C2_2  and  C3_3 
REMARK    2  A    between atoms: C3_3  and  S1_4 
REMARK    3  A    between atoms: S1_4  and  C4_5 
REMARK    4  A    between atoms: C4_5  and  C5_6 
REMARK    5  A    between atoms: C5_6  and  C6_7 
ROOT
HETATM    1  C4  UNL     1      -0.750   0.051   0.174  1.00  0.00     0.143 C 
ENDROOT
BRANCH   1   2
HETATM    2  S1  UNL     1       1.039   0.051   0.174  1.00  0.00     0.049 S 
HETATM    3  O3  UNL     1       1.508   0.641  -1.066  1.00  0.00    -0.256 OA
BRANCH   2   4
HETATM    4  C3  UNL     1       1.334  -1.713   0.125  1.00  0.00     0.118 C 
BRANCH   4   5
HETATM    5  C2  UNL     1       2.742  -2.238   0.057  1.00  0.00    -0.012 C 
HETATM    6  C1  UNL     1       3.394  -2.174  -1.115  1.00  0.00    -0.004 C 
ENDBRANCH   4   5
ENDBRANCH   2   4
ENDBRANCH   1   2
BRANCH   1   7
HETATM    7  C5  UNL     1      -1.285   1.482   0.174  1.00  0.00     0.400 C 
HETATM    8  N1  UNL     1      -0.813   2.203   1.344  1.00  0.00     0.629 N 
BRANCH   7   9
HETATM    9  C6  UNL     1      -2.787   1.535   0.105  1.00  0.00     0.225 C 
HETATM   10  O1  UNL     1      -3.283   2.271  -0.883  1.00  0.00    -0.646 OA
HETATM   11  O2  UNL     1      -3.467   0.937   0.908  1.00  0.00    -0.646 OA
ENDBRANCH   7   9
ENDBRANCH   1   7
TORSDOF 5
