REMARK  6 active torsions:
REMARK  status: ('A' for Active; 'I' for Inactive)
REMARK    1  A    between atoms: C2_2  and  C22_29 
REMARK    2  A    between atoms: C3_3  and  O6_25 
REMARK    3  A    between atoms: C8_8  and  O3_16 
REMARK    4  A    between atoms: O3_16  and  C14_17 
REMARK    5  A    between atoms: C14_17  and  C15_18 
REMARK    6  A    between atoms: O6_25  and  C20_26 
ROOT
HETATM    1  C1  UNL     1      -0.414  -1.744   1.934  1.00  0.00     0.000 C 
HETATM    2  C2  UNL     1       0.871  -2.137   1.797  1.00  0.00     0.014 C 
HETATM    3  C3  UNL     1       1.668  -2.137   0.502  1.00  0.00     0.148 C 
HETATM    4  C4  UNL     1       2.479  -0.856   0.209  1.00  0.00     0.072 C 
HETATM    5  C5  UNL     1       1.668   0.459   0.107  1.00  0.00     0.173 C 
HETATM    6  C6  UNL     1       1.270   1.066   1.447  1.00  0.00    -0.016 C 
HETATM    7  C7  UNL     1       0.031   1.479   1.799  1.00  0.00    -0.002 C 
HETATM    8  C8  UNL     1      -1.244   1.408   0.979  1.00  0.00     0.153 C 
HETATM    9  C9  UNL     1      -2.029   0.111   1.242  1.00  0.00     0.092 C 
HETATM   10  C10 UNL     1      -1.299  -1.184   0.840  1.00  0.00     0.153 C 
HETATM   11  O1  UNL     1      -2.299  -2.137   0.455  1.00  0.00    -0.296 OA
HETATM   12  C11 UNL     1      -3.397  -1.477   0.088  1.00  0.00     0.292 C 
HETATM   13  C12 UNL     1      -3.299  -0.074   0.469  1.00  0.00     0.046 C 
HETATM   14  C13 UNL     1      -4.184   0.896   0.182  1.00  0.00     0.001 C 
HETATM   15  O2  UNL     1      -4.356  -1.955  -0.473  1.00  0.00    -0.259 OA
HETATM   16  C19 UNL     1       2.373   1.221   2.467  1.00  0.00     0.029 C 
HETATM   17  O5  UNL     1       2.459   1.414  -0.572  1.00  0.00    -0.219 OA
ENDROOT
BRANCH   8  18
HETATM   18  O3  UNL     1      -1.014   1.594  -0.412  1.00  0.00    -0.296 OA
BRANCH  18  19
HETATM   19  C14 UNL     1      -0.619   2.832  -0.697  1.00  0.00     0.292 C 
HETATM   20  O4  UNL     1      -0.469   3.699   0.131  1.00  0.00    -0.260 OA
BRANCH  19  21
HETATM   21  C15 UNL     1      -0.363   3.107  -2.117  1.00  0.00     0.037 C 
HETATM   22  C16 UNL     1      -0.072   4.523  -2.531  1.00  0.00     0.036 C 
HETATM   23  C17 UNL     1      -0.379   2.152  -3.061  1.00  0.00    -0.025 C 
HETATM   24  C18 UNL     1      -0.104   2.549  -4.486  1.00  0.00     0.030 C 
ENDBRANCH  19  21
ENDBRANCH  18  19
ENDBRANCH   8  18
BRANCH   2  25
HETATM   25  C22 UNL     1       1.600  -2.635   3.020  1.00  0.00     0.207 C 
HETATM   26  O8  UNL     1       1.248  -3.979   3.262  1.00  0.00    -0.216 OA
ENDBRANCH   2  25
BRANCH   3  27
HETATM   27  O6  UNL     1       0.861  -2.471  -0.619  1.00  0.00    -0.300 OA
BRANCH  27  28
HETATM   28  C20 UNL     1       0.437  -3.731  -0.580  1.00  0.00     0.273 C 
HETATM   29  C21 UNL     1      -0.461  -4.139  -1.717  1.00  0.00     0.106 C 
HETATM   30  O7  UNL     1       0.732  -4.514   0.291  1.00  0.00    -0.264 OA
ENDBRANCH  27  28
ENDBRANCH   3  27
TORSDOF 6
