REMARK  6 active torsions:
REMARK  status: ('A' for Active; 'I' for Inactive)
REMARK    1  A    between atoms: C4_4  and  O4_18 
REMARK    2  A    between atoms: O4_18  and  C15_19 
REMARK    3  A    between atoms: C15_19  and  C16_20 
REMARK    4  A    between atoms: C16_20  and  C17_21 
REMARK    5  A    between atoms: C17_21  and  O5_22 
REMARK    6  A    between atoms: O5_22  and  C18_23 
ROOT
HETATM    1  C1  UNL     1       3.293  -0.631   0.430  1.00  0.00    -0.002 C 
HETATM    2  C2  UNL     1       2.381   0.104   1.113  1.00  0.00    -0.043 C 
HETATM    3  C3  UNL     1       1.393   0.971   0.357  1.00  0.00     0.052 C 
HETATM    4  C4  UNL     1      -0.088   0.740   0.764  1.00  0.00     0.135 C 
HETATM    5  C5  UNL     1      -0.504  -0.711   1.105  1.00  0.00     0.088 C 
HETATM    6  C6  UNL     1      -0.352  -1.789   0.008  1.00  0.00     0.152 C 
HETATM    7  C7  UNL     1       1.049  -2.340  -0.131  1.00  0.00    -0.004 C 
HETATM    8  C8  UNL     1       1.736  -2.945   0.861  1.00  0.00    -0.043 C 
HETATM    9  C9  UNL     1       3.232  -3.148   0.707  1.00  0.00     0.059 C 
HETATM   10  C10 UNL     1       4.043  -1.844   0.969  1.00  0.00     0.178 C 
HETATM   11  O1  UNL     1       4.373  -1.746   2.340  1.00  0.00    -0.218 OA
HETATM   12  C11 UNL     1       1.078  -3.395   2.143  1.00  0.00     0.026 C 
HETATM   13  O2  UNL     1      -1.328  -2.809   0.262  1.00  0.00    -0.296 OA
HETATM   14  C12 UNL     1      -2.326  -2.262   0.959  1.00  0.00     0.292 C 
HETATM   15  C13 UNL     1      -1.945  -0.941   1.447  1.00  0.00     0.046 C 
HETATM   16  C14 UNL     1      -2.740  -0.072   2.096  1.00  0.00     0.001 C 
HETATM   17  O3  UNL     1      -3.401  -2.775   1.176  1.00  0.00    -0.259 OA
HETATM   18  C22 UNL     1       2.252   0.068   2.617  1.00  0.00     0.026 C 
ENDROOT
BRANCH   4  19
HETATM   19  O4  UNL     1      -0.924   1.240  -0.272  1.00  0.00    -0.300 OA
BRANCH  19  20
HETATM   20  C15 UNL     1      -0.893   2.568  -0.354  1.00  0.00     0.294 C 
HETATM   21  O7  UNL     1      -0.377   3.281   0.477  1.00  0.00    -0.259 OA
BRANCH  20  22
HETATM   22  C16 UNL     1      -1.535   3.150  -1.537  1.00  0.00     0.067 C 
HETATM   23  C20 UNL     1      -0.981   4.139  -2.258  1.00  0.00    -0.022 C 
HETATM   24  C21 UNL     1       0.361   4.672  -1.832  1.00  0.00     0.031 C 
BRANCH  22  25
HETATM   25  C17 UNL     1      -2.875   2.615  -1.963  1.00  0.00     0.183 C 
BRANCH  25  26
HETATM   26  O5  UNL     1      -2.692   1.455  -2.762  1.00  0.00    -0.297 OA
BRANCH  26  27
HETATM   27  C18 UNL     1      -3.844   0.934  -3.170  1.00  0.00     0.273 C 
HETATM   28  C19 UNL     1      -3.721  -0.301  -4.024  1.00  0.00     0.106 C 
HETATM   29  O6  UNL     1      -4.928   1.395  -2.895  1.00  0.00    -0.264 OA
ENDBRANCH  26  27
ENDBRANCH  25  26
ENDBRANCH  22  25
ENDBRANCH  20  22
ENDBRANCH  19  20
ENDBRANCH   4  19
TORSDOF 6
