REMARK  5 active torsions:
REMARK  status: ('A' for Active; 'I' for Inactive)
REMARK    1  A    between atoms: C5_5  and  O4_17 
REMARK    2  A    between atoms: C10_10  and  O1_11 
REMARK    3  A    between atoms: O1_11  and  C11_12 
REMARK    4  A    between atoms: O4_17  and  C14_18 
REMARK    5  A    between atoms: C14_18  and  C15_19 
ROOT
HETATM    1  C1  UNL     1       1.111   1.943  -2.619  1.00  0.00    -0.018 C 
HETATM    2  C2  UNL     1      -0.117   1.389  -2.486  1.00  0.00    -0.002 C 
HETATM    3  C3  UNL     1      -0.660   0.643  -1.275  1.00  0.00     0.153 C 
HETATM    4  C4  UNL     1      -1.090  -0.818  -1.598  1.00  0.00     0.090 C 
HETATM    5  C5  UNL     1      -0.736  -1.859  -0.510  1.00  0.00     0.166 C 
HETATM    6  C6  UNL     1       0.727  -2.367  -0.492  1.00  0.00     0.198 C 
HETATM    7  C7  UNL     1       1.742  -1.240  -0.443  1.00  0.00    -0.016 C 
HETATM    8  C8  UNL     1       2.164  -0.621  -1.566  1.00  0.00    -0.029 C 
HETATM    9  C9  UNL     1       3.041   0.607  -1.566  1.00  0.00     0.060 C 
HETATM   10  C10 UNL     1       2.223   1.914  -1.578  1.00  0.00     0.147 C 
HETATM   11  C13 UNL     1       2.236  -0.816   0.918  1.00  0.00     0.029 C 
HETATM   12  O3  UNL     1       0.939  -3.225  -1.598  1.00  0.00    -0.216 OA
HETATM   13  C19 UNL     1      -2.574  -0.629  -1.703  1.00  0.00     0.046 C 
HETATM   14  C20 UNL     1      -2.924   0.678  -1.176  1.00  0.00     0.292 C 
HETATM   15  O6  UNL     1      -1.828   1.354  -0.834  1.00  0.00    -0.296 OA
HETATM   16  O7  UNL     1      -4.059   1.076  -1.060  1.00  0.00    -0.259 OA
HETATM   17  C21 UNL     1      -3.428  -1.533  -2.213  1.00  0.00     0.001 C 
HETATM   18  C22 UNL     1       1.434   2.658  -3.906  1.00  0.00     0.029 C 
ENDROOT
BRANCH   5  19
HETATM   19  O4  UNL     1      -1.045  -1.320   0.772  1.00  0.00    -0.298 OA
BRANCH  19  20
HETATM   20  C14 UNL     1      -1.209  -2.266   1.692  1.00  0.00     0.291 C 
HETATM   21  O5  UNL     1      -1.197  -3.451   1.451  1.00  0.00    -0.260 OA
BRANCH  20  22
HETATM   22  C15 UNL     1      -1.414  -1.789   3.065  1.00  0.00     0.037 C 
HETATM   23  C16 UNL     1      -1.375  -0.488   3.401  1.00  0.00    -0.025 C 
HETATM   24  C17 UNL     1      -1.600  -0.113   4.842  1.00  0.00     0.030 C 
HETATM   25  C18 UNL     1      -1.678  -2.803   4.147  1.00  0.00     0.036 C 
ENDBRANCH  20  22
ENDBRANCH  19  20
ENDBRANCH   5  19
BRANCH  10  26
HETATM   26  O1  UNL     1       1.719   2.191  -0.279  1.00  0.00    -0.300 OA
BRANCH  26  27
HETATM   27  C11 UNL     1       1.252   3.432  -0.172  1.00  0.00     0.273 C 
HETATM   28  C12 UNL     1       0.648   3.775   1.164  1.00  0.00     0.106 C 
HETATM   29  O2  UNL     1       1.293   4.246  -1.062  1.00  0.00    -0.264 OA
ENDBRANCH  26  27
ENDBRANCH  10  26
TORSDOF 5
