REMARK  4 active torsions:
REMARK  status: ('A' for Active; 'I' for Inactive)
REMARK    1  A    between atoms: C1_1  and  O5_22 
REMARK    2  A    between atoms: C7_7  and  O1_12 
REMARK    3  A    between atoms: O1_12  and  C12_13 
REMARK    4  A    between atoms: O5_22  and  C18_23 
ROOT
HETATM    1  C1  UNL     1      -0.074   0.975  -0.714  1.00  0.00     0.150 C 
HETATM    2  C2  UNL     1      -0.144  -0.249  -1.649  1.00  0.00     0.057 C 
HETATM    3  C3  UNL     1       0.885  -1.258  -1.181  1.00  0.00    -0.043 C 
HETATM    4  C4  UNL     1       2.154  -1.121  -1.609  1.00  0.00    -0.004 C 
HETATM    5  C5  UNL     1       3.386  -1.731  -0.996  1.00  0.00     0.152 C 
HETATM    6  C6  UNL     1       4.580  -0.742  -0.955  1.00  0.00     0.088 C 
HETATM    7  C7  UNL     1       4.685   0.196   0.261  1.00  0.00     0.135 C 
HETATM    8  C8  UNL     1       3.716   1.397   0.284  1.00  0.00     0.052 C 
HETATM    9  C9  UNL     1       2.228   1.117   0.418  1.00  0.00    -0.043 C 
HETATM   10  C10 UNL     1       1.380   1.400  -0.592  1.00  0.00    -0.005 C 
HETATM   11  C11 UNL     1       1.793   0.518   1.736  1.00  0.00     0.026 C 
HETATM   12  C14 UNL     1       5.727  -1.710  -1.121  1.00  0.00     0.046 C 
HETATM   13  C15 UNL     1       5.126  -2.929  -1.689  1.00  0.00     0.292 C 
HETATM   14  O3  UNL     1       3.770  -2.909  -1.680  1.00  0.00    -0.296 OA
HETATM   15  O4  UNL     1       5.777  -3.861  -2.152  1.00  0.00    -0.259 OA
HETATM   16  C16 UNL     1       7.038  -1.558  -0.868  1.00  0.00     0.001 C 
HETATM   17  C17 UNL     1       0.430  -2.219  -0.110  1.00  0.00     0.026 C 
ENDROOT
BRANCH   1  18
HETATM   18  O5  UNL     1      -0.870   1.998  -1.262  1.00  0.00    -0.299 OA
BRANCH  18  19
HETATM   19  C18 UNL     1      -1.123   3.071  -0.465  1.00  0.00     0.273 C 
HETATM   20  C19 UNL     1      -1.986   4.077  -1.200  1.00  0.00     0.106 C 
HETATM   21  O6  UNL     1      -0.723   3.203   0.669  1.00  0.00    -0.264 OA
ENDBRANCH  18  19
ENDBRANCH   1  18
BRANCH   7  22
HETATM   22  O1  UNL     1       4.620  -0.569   1.428  1.00  0.00    -0.303 OA
BRANCH  22  23
HETATM   23  C12 UNL     1       5.199  -0.094   2.563  1.00  0.00     0.272 C 
HETATM   24  C13 UNL     1       4.962  -1.062   3.705  1.00  0.00     0.106 C 
HETATM   25  O2  UNL     1       5.806   0.948   2.656  1.00  0.00    -0.264 OA
ENDBRANCH  22  23
ENDBRANCH   7  22
TORSDOF 4
