REMARK  0 active torsions:
REMARK  status: ('A' for Active; 'I' for Inactive)
ROOT
HETATM    1  C1  UNL     1      -0.173  -0.554  -0.061  1.00  0.00    -0.004 C 
HETATM    2  C2  UNL     1       1.157  -1.247  -0.005  1.00  0.00     0.152 C 
HETATM    3  C3  UNL     1       2.363  -0.327  -0.216  1.00  0.00     0.090 C 
HETATM    4  C4  UNL     1       2.595   0.637   0.932  1.00  0.00     0.163 C 
HETATM    5  C5  UNL     1       1.820   1.932   0.725  1.00  0.00     0.055 C 
HETATM    6  C6  UNL     1       0.349   1.933   0.345  1.00  0.00    -0.043 C 
HETATM    7  C7  UNL     1      -0.457   0.890   0.029  1.00  0.00    -0.002 C 
HETATM    8  C8  UNL     1      -1.928   1.094  -0.293  1.00  0.00     0.178 C 
HETATM    9  C9  UNL     1      -2.551  -0.301  -0.230  1.00  0.00     0.059 C 
HETATM   10  C10 UNL     1      -1.351  -1.204  -0.176  1.00  0.00    -0.043 C 
HETATM   11  C11 UNL     1      -1.581  -2.688  -0.224  1.00  0.00     0.026 C 
HETATM   12  O1  UNL     1      -2.075   1.613  -1.603  1.00  0.00    -0.218 OA
HETATM   13  C12 UNL     1      -0.162   3.367   0.334  1.00  0.00     0.026 C 
HETATM   14  O2  UNL     1       2.245   0.067   2.169  1.00  0.00    -0.223 OA
HETATM   15  C13 UNL     1       3.414  -1.347  -0.553  1.00  0.00     0.046 C 
HETATM   16  C14 UNL     1       2.633  -2.447  -1.149  1.00  0.00     0.292 C 
HETATM   17  O3  UNL     1       1.298  -2.327  -0.914  1.00  0.00    -0.296 OA
HETATM   18  O4  UNL     1       3.119  -3.349  -1.823  1.00  0.00    -0.259 OA
HETATM   19  C15 UNL     1       4.750  -1.320  -0.419  1.00  0.00     0.001 C 
ENDROOT
TORSDOF 0
