REMARK  4 active torsions:
REMARK  status: ('A' for Active; 'I' for Inactive)
REMARK    1  A    between atoms: C7_7  and  C12_12 
REMARK    2  A    between atoms: C12_12  and  C13_13 
REMARK    3  A    between atoms: C13_13  and  C14_14 
REMARK    4  A    between atoms: C14_14  and  C16_17 
ROOT
HETATM    1  C1  UNL     1      -2.047  -0.994  -0.363  1.00  0.00     0.174 C 
HETATM    2  C2  UNL     1      -2.039  -2.447   0.019  1.00  0.00    -0.002 C 
HETATM    3  C3  UNL     1      -0.930  -3.195   0.152  1.00  0.00    -0.046 C 
HETATM    4  C4  UNL     1       0.462  -2.632  -0.166  1.00  0.00     0.015 C 
HETATM    5  C5  UNL     1       0.442  -1.083   0.012  1.00  0.00     0.006 C 
HETATM    6  C6  UNL     1      -0.690  -0.494  -0.846  1.00  0.00     0.038 C 
HETATM    7  C7  UNL     1       1.793  -0.283  -0.022  1.00  0.00     0.001 C 
HETATM    8  C8  UNL     1       2.842  -1.035   0.864  1.00  0.00     0.000 C 
HETATM    9  C9  UNL     1       2.878  -2.555   0.631  1.00  0.00     0.000 C 
HETATM   10  C10 UNL     1       1.505  -3.203   0.814  1.00  0.00     0.004 C 
HETATM   11  C11 UNL     1       4.295  -0.519   0.754  1.00  0.00     0.000 C 
HETATM   12  C18 UNL     1       2.350  -0.112  -1.450  1.00  0.00     0.000 C 
HETATM   13  C19 UNL     1       0.753  -3.130  -1.600  1.00  0.00     0.004 C 
HETATM   14  C20 UNL     1      -1.060  -4.653   0.542  1.00  0.00     0.026 C 
HETATM   15  O2  UNL     1      -3.020  -0.744  -1.363  1.00  0.00    -0.219 OA
ENDROOT
BRANCH   7  16
HETATM   16  C12 UNL     1       1.588   1.135   0.628  1.00  0.00     0.003 C 
BRANCH  16  17
HETATM   17  C13 UNL     1       1.351   2.381  -0.254  1.00  0.00     0.030 C 
BRANCH  17  18
HETATM   18  C14 UNL     1       1.432   3.729   0.488  1.00  0.00     0.127 C 
HETATM   19  O1  UNL     1       0.509   3.698   1.549  1.00  0.00    -0.226 OA
HETATM   20  C15 UNL     1       0.987   4.862  -0.446  1.00  0.00     0.033 C 
BRANCH  18  21
HETATM   21  C16 UNL     1       2.812   4.040   1.093  1.00  0.00     0.030 C 
HETATM   22  C17 UNL     1       3.996   3.974   0.117  1.00  0.00     0.003 C 
ENDBRANCH  18  21
ENDBRANCH  17  18
ENDBRANCH  16  17
ENDBRANCH   7  16
TORSDOF 4
