REMARK  14 active torsions:
REMARK  status: ('A' for Active; 'I' for Inactive)
REMARK    1  A    between atoms: C2_2  and  C3_3 
REMARK    2  A    between atoms: C3_3  and  C4_4 
REMARK    3  A    between atoms: C4_4  and  C5_5 
REMARK    4  A    between atoms: C5_5  and  C6_6 
REMARK    5  A    between atoms: C6_6  and  C7_7 
REMARK    6  A    between atoms: C7_7  and  C8_8 
REMARK    7  A    between atoms: C8_8  and  C9_9 
REMARK    8  A    between atoms: C9_9  and  C10_10 
REMARK    9  A    between atoms: C10_10  and  C11_11 
REMARK   10  A    between atoms: C11_11  and  C12_12 
REMARK   11  A    between atoms: C12_12  and  C13_13 
REMARK   12  A    between atoms: C13_13  and  C14_14 
REMARK   13  A    between atoms: C14_14  and  C17_18 
REMARK   14  A    between atoms: C15_15  and  C16_16 
ROOT
HETATM    1  C9  UNL     1       3.907   2.716  -1.008  1.00  0.00     0.000 C 
ENDROOT
BRANCH   1   2
HETATM    2  C8  UNL     1       3.002   2.917   0.218  1.00  0.00     0.000 C 
BRANCH   2   3
HETATM    3  C7  UNL     1       1.832   3.871  -0.082  1.00  0.00     0.000 C 
BRANCH   3   4
HETATM    4  C6  UNL     1       0.803   3.982   1.064  1.00  0.00     0.000 C 
HETATM    5  C19 UNL     1       0.264   5.423   1.154  1.00  0.00     0.000 C 
BRANCH   4   6
HETATM    6  C5  UNL     1      -0.391   3.011   0.919  1.00  0.00     0.000 C 
BRANCH   6   7
HETATM    7  C4  UNL     1      -0.015   1.522   0.866  1.00  0.00     0.003 C 
BRANCH   7   8
HETATM    8  C3  UNL     1      -1.249   0.602   0.865  1.00  0.00     0.030 C 
BRANCH   8   9
HETATM    9  C2  UNL     1      -0.934  -0.901   0.917  1.00  0.00     0.127 C 
HETATM   10  C1  UNL     1      -2.237  -1.707   0.930  1.00  0.00     0.033 C 
HETATM   11  C20 UNL     1      -0.045  -1.361  -0.241  1.00  0.00     0.033 C 
HETATM   12  O3  UNL     1      -0.256  -1.175   2.116  1.00  0.00    -0.226 OA
ENDBRANCH   8   9
ENDBRANCH   7   8
ENDBRANCH   6   7
ENDBRANCH   4   6
ENDBRANCH   3   4
ENDBRANCH   2   3
ENDBRANCH   1   2
BRANCH   1  13
HETATM   13  C10 UNL     1       5.019   1.657  -0.840  1.00  0.00     0.000 C 
HETATM   14  C18 UNL     1       6.010   2.039   0.271  1.00  0.00     0.000 C 
BRANCH  13  15
HETATM   15  C11 UNL     1       4.441   0.239  -0.643  1.00  0.00     0.000 C 
BRANCH  15  16
HETATM   16  C12 UNL     1       5.474  -0.887  -0.825  1.00  0.00     0.004 C 
BRANCH  16  17
HETATM   17  C13 UNL     1       4.805  -2.273  -0.858  1.00  0.00     0.024 C 
BRANCH  17  18
HETATM   18  C14 UNL     1       5.791  -3.421  -0.996  1.00  0.00    -0.013 C 
HETATM   19  C15 UNL     1       5.765  -4.442  -0.118  1.00  0.00     0.003 C 
BRANCH  19  20
HETATM   20  C16 UNL     1       6.653  -5.657  -0.115  1.00  0.00     0.208 C 
HETATM   21  O1  UNL     1       6.441  -6.451   1.047  1.00  0.00    -0.215 OA
ENDBRANCH  19  20
BRANCH  18  22
HETATM   22  C17 UNL     1       6.734  -3.309  -2.174  1.00  0.00     0.204 C 
HETATM   23  O2  UNL     1       7.338  -4.528  -2.581  1.00  0.00    -0.216 OA
ENDBRANCH  18  22
ENDBRANCH  17  18
ENDBRANCH  16  17
ENDBRANCH  15  16
ENDBRANCH  13  15
ENDBRANCH   1  13
TORSDOF 14
