REMARK  7 active torsions:
REMARK  status: ('A' for Active; 'I' for Inactive)
REMARK    1  A    between atoms: C7_7  and  O4_22 
REMARK    2  A    between atoms: C10_10  and  O2_15 
REMARK    3  A    between atoms: O2_15  and  C14_16 
REMARK    4  A    between atoms: O4_22  and  C19_23 
REMARK    5  A    between atoms: C19_23  and  C20_24 
REMARK    6  A    between atoms: C26_32  and  O7_36 
REMARK    7  A    between atoms: O7_36  and  C30_37 
ROOT
HETATM    1  C1  UNL     1       0.324   1.653  -0.768  1.00  0.00     0.172 A 
HETATM    2  C2  UNL     1       0.430   0.179  -0.841  1.00  0.00     0.165 A 
HETATM    3  C3  UNL     1       1.682  -0.538  -0.727  1.00  0.00    -0.001 C 
HETATM    4  C4  UNL     1       2.659  -0.570  -1.648  1.00  0.00    -0.013 C 
HETATM    5  C5  UNL     1       2.561   0.126  -2.986  1.00  0.00     0.029 C 
HETATM    6  C6  UNL     1       3.938  -1.344  -1.366  1.00  0.00     0.198 C 
HETATM    7  C7  UNL     1       4.893  -0.610  -0.410  1.00  0.00     0.159 C 
HETATM    8  C8  UNL     1       5.132   0.842  -0.837  1.00  0.00     0.033 A 
HETATM    9  C9  UNL     1       4.470   2.099  -0.291  1.00  0.00     0.031 A 
HETATM   10  C10 UNL     1       3.456   2.215   0.859  1.00  0.00     0.131 C 
HETATM   11  C11 UNL     1       2.194   3.030   0.486  1.00  0.00     0.088 C 
HETATM   12  C12 UNL     1       1.512   2.517  -0.781  1.00  0.00     0.179 C 
HETATM   13  O1  UNL     1       1.891   2.915  -1.859  1.00  0.00    -0.293 OA
HETATM   14  C13 UNL     1       2.502   4.537   0.376  1.00  0.00     0.010 C 
HETATM   15  C16 UNL     1       5.923   1.792   0.037  1.00  0.00     0.005 A 
HETATM   16  C17 UNL     1       6.987   2.614  -0.681  1.00  0.00     0.000 C 
HETATM   17  C18 UNL     1       6.327   1.401   1.448  1.00  0.00     0.000 C 
HETATM   18  O6  UNL     1       4.624  -1.636  -2.573  1.00  0.00    -0.216 OA
HETATM   19  C26 UNL     1      -0.722  -0.350  -1.694  1.00  0.00     0.155 C 
HETATM   20  C27 UNL     1      -1.764   0.788  -1.757  1.00  0.00     0.034 C 
HETATM   21  C28 UNL     1      -0.908   2.062  -1.561  1.00  0.00     0.040 C 
HETATM   22  C29 UNL     1      -2.896   0.693  -0.718  1.00  0.00     0.003 C 
HETATM   23  O9  UNL     1       0.072   0.842   0.389  1.00  0.00    -0.345 OA
ENDROOT
BRANCH   7  24
HETATM   24  O4  UNL     1       6.147  -1.248  -0.476  1.00  0.00    -0.298 OA
BRANCH  24  25
HETATM   25  C19 UNL     1       6.609  -2.255   0.327  1.00  0.00     0.296 C 
HETATM   26  O5  UNL     1       7.676  -2.760  -0.015  1.00  0.00    -0.259 OA
BRANCH  25  27
HETATM   27  C20 UNL     1       6.036  -2.864   1.575  1.00  0.00     0.063 A 
HETATM   28  C21 UNL     1       6.314  -4.215   1.836  1.00  0.00     0.005 A 
HETATM   29  C22 UNL     1       5.865  -4.836   3.004  1.00  0.00     0.000 A 
HETATM   30  C23 UNL     1       5.126  -4.114   3.940  1.00  0.00     0.000 A 
HETATM   31  C24 UNL     1       4.853  -2.765   3.703  1.00  0.00     0.000 A 
HETATM   32  C25 UNL     1       5.315  -2.147   2.539  1.00  0.00     0.005 A 
ENDBRANCH  25  27
ENDBRANCH  24  25
ENDBRANCH   7  24
BRANCH  10  33
HETATM   33  O2  UNL     1       3.046   0.990   1.409  1.00  0.00    -0.304 OA
BRANCH  33  34
HETATM   34  C14 UNL     1       2.563   0.977   2.684  1.00  0.00     0.272 C 
HETATM   35  C15 UNL     1       2.002  -0.387   3.032  1.00  0.00     0.106 C 
HETATM   36  O3  UNL     1       2.551   1.929   3.431  1.00  0.00    -0.264 OA
ENDBRANCH  33  34
ENDBRANCH  10  33
BRANCH  19  37
HETATM   37  O7  UNL     1      -1.284  -1.528  -1.173  1.00  0.00    -0.301 OA
BRANCH  37  38
HETATM   38  C30 UNL     1      -1.046  -2.777  -1.666  1.00  0.00     0.272 C 
HETATM   39  O8  UNL     1      -1.532  -3.766  -1.160  1.00  0.00    -0.264 OA
HETATM   40  C31 UNL     1      -0.152  -2.886  -2.888  1.00  0.00     0.106 C 
ENDBRANCH  37  38
ENDBRANCH  19  37
TORSDOF 7
