REMARK  6 active torsions:
REMARK  status: ('A' for Active; 'I' for Inactive)
REMARK    1  A    between atoms: C9_9  and  O3_15 
REMARK    2  A    between atoms: C10_10  and  O1_11 
REMARK    3  A    between atoms: O1_11  and  C11_12 
REMARK    4  A    between atoms: O3_15  and  C13_16 
REMARK    5  A    between atoms: C21_25  and  C24_30 
REMARK    6  A    between atoms: C24_30  and  O8_32 
ROOT
HETATM    1  C1  UNL     1      -3.024   0.020  -3.577  1.00  0.00     0.033 C 
HETATM    2  C2  UNL     1      -3.957  -1.008  -2.957  1.00  0.00     0.152 C 
HETATM    3  C3  UNL     1      -3.212  -1.905  -1.934  1.00  0.00     0.031 C 
HETATM    4  C4  UNL     1      -1.958  -1.181  -1.317  1.00  0.00     0.033 C 
HETATM    5  C5  UNL     1      -2.083   0.366  -1.145  1.00  0.00     0.003 C 
HETATM    6  C6  UNL     1      -2.437   0.982  -2.535  1.00  0.00     0.003 C 
HETATM    7  C7  UNL     1      -0.715   0.972  -0.665  1.00  0.00     0.007 C 
HETATM    8  C8  UNL     1      -0.007   0.353   0.591  1.00  0.00     0.038 C 
HETATM    9  C9  UNL     1       0.038  -1.173   0.272  1.00  0.00     0.152 C 
HETATM   10  C10 UNL     1      -1.337  -1.801  -0.044  1.00  0.00     0.152 C 
HETATM   11  C15 UNL     1       1.445   0.983   0.711  1.00  0.00     0.095 C 
HETATM   12  C16 UNL     1       1.564   2.523   0.571  1.00  0.00     0.055 C 
HETATM   13  C17 UNL     1       0.738   2.969  -0.636  1.00  0.00    -0.042 C 
HETATM   14  C18 UNL     1      -0.701   2.513  -0.607  1.00  0.00     0.022 C 
HETATM   15  C19 UNL     1       1.184   3.636  -1.716  1.00  0.00    -0.009 C 
HETATM   16  C20 UNL     1       3.063   2.821   0.364  1.00  0.00     0.190 C 
HETATM   17  C21 UNL     1       4.082   2.152   1.298  1.00  0.00     0.206 C 
HETATM   18  O5  UNL     1       3.590   0.995   1.904  1.00  0.00    -0.294 OA
HETATM   19  C22 UNL     1       2.298   0.577   1.915  1.00  0.00     0.272 C 
HETATM   20  O6  UNL     1       1.930  -0.178   2.788  1.00  0.00    -0.264 OA
HETATM   21  C23 UNL     1       4.504   3.061   2.477  1.00  0.00     0.043 C 
HETATM   22  O9  UNL     1       3.256   4.218   0.372  1.00  0.00    -0.220 OA
HETATM   23  C26 UNL     1       1.059   3.277   1.822  1.00  0.00     0.007 C 
HETATM   24  C27 UNL     1      -0.796   0.598   1.901  1.00  0.00     0.003 C 
HETATM   25  C28 UNL     1      -3.194   0.767  -0.145  1.00  0.00     0.000 C 
HETATM   26  C29 UNL     1      -2.769  -3.145  -2.771  1.00  0.00     0.003 C 
HETATM   27  C30 UNL     1      -4.194  -2.439  -0.868  1.00  0.00     0.003 C 
HETATM   28  O10 UNL     1      -5.085  -0.359  -2.420  1.00  0.00    -0.224 OA
ENDROOT
BRANCH  17  29
HETATM   29  C24 UNL     1       5.413   1.986   0.501  1.00  0.00     0.300 C 
HETATM   30  O7  UNL     1       5.886   2.962  -0.048  1.00  0.00    -0.262 OA
BRANCH  29  31
HETATM   31  O8  UNL     1       6.112   0.813   0.494  1.00  0.00    -0.297 OA
HETATM   32  C25 UNL     1       5.589  -0.447   0.816  1.00  0.00     0.185 C 
ENDBRANCH  29  31
ENDBRANCH  17  29
BRANCH   9  33
HETATM   33  O3  UNL     1       0.609  -1.922   1.308  1.00  0.00    -0.302 OA
BRANCH  33  34
HETATM   34  C13 UNL     1       1.871  -2.415   1.153  1.00  0.00     0.272 C 
HETATM   35  C14 UNL     1       2.212  -3.359   2.288  1.00  0.00     0.106 C 
HETATM   36  O4  UNL     1       2.608  -2.164   0.228  1.00  0.00    -0.264 OA
ENDBRANCH  33  34
ENDBRANCH   9  33
BRANCH  10  37
HETATM   37  O1  UNL     1      -1.149  -3.178  -0.216  1.00  0.00    -0.302 OA
BRANCH  37  38
HETATM   38  C11 UNL     1      -1.328  -4.114   0.765  1.00  0.00     0.272 C 
HETATM   39  O2  UNL     1      -1.053  -5.282   0.583  1.00  0.00    -0.264 OA
HETATM   40  C12 UNL     1      -1.931  -3.656   2.084  1.00  0.00     0.106 C 
ENDBRANCH  37  38
ENDBRANCH  10  37
TORSDOF 6
