REMARK  0 active torsions:
REMARK  status: ('A' for Active; 'I' for Inactive)
ROOT
HETATM    1  C1  UNL     1      -4.597  -0.797  -0.476  1.00  0.00     0.038 C 
HETATM    2  C2  UNL     1      -4.485  -2.112  -0.786  1.00  0.00     0.195 C 
HETATM    3  C3  UNL     1      -3.299  -2.565  -1.263  1.00  0.00     0.034 C 
HETATM    4  C4  UNL     1      -2.258  -1.760  -1.525  1.00  0.00    -0.038 C 
HETATM    5  C5  UNL     1      -2.342  -0.246  -1.419  1.00  0.00     0.036 C 
HETATM    6  C6  UNL     1      -3.616   0.093  -0.685  1.00  0.00    -0.020 C 
HETATM    7  C7  UNL     1      -2.507   0.313  -2.851  1.00  0.00     0.009 C 
HETATM    8  C8  UNL     1      -1.038   0.265  -0.749  1.00  0.00     0.038 C 
HETATM    9  C9  UNL     1      -0.474  -0.841   0.178  1.00  0.00     0.004 C 
HETATM   10  C10 UNL     1       0.009  -2.058  -0.638  1.00  0.00     0.004 C 
HETATM   11  C11 UNL     1      -0.892  -2.307  -1.864  1.00  0.00     0.022 C 
HETATM   12  C12 UNL     1       0.513  -0.271   1.205  1.00  0.00     0.009 C 
HETATM   13  C13 UNL     1       1.302   0.954   0.737  1.00  0.00     0.077 C 
HETATM   14  C14 UNL     1       0.336   2.101   0.397  1.00  0.00     0.042 C 
HETATM   15  C15 UNL     1      -1.065   1.613  -0.019  1.00  0.00     0.153 C 
HETATM   16  O1  UNL     1      -1.648   2.607  -0.828  1.00  0.00    -0.223 OA
HETATM   17  C16 UNL     1       2.321   1.210   1.897  1.00  0.00     0.031 C 
HETATM   18  C17 UNL     1       2.388  -0.144   2.652  1.00  0.00     0.002 C 
HETATM   19  C18 UNL     1       1.582  -1.166   1.831  1.00  0.00     0.001 C 
HETATM   20  C19 UNL     1       3.634   1.700   1.240  1.00  0.00     0.107 C 
HETATM   21  N1  UNL     1       3.510   1.128  -0.090  1.00  0.00    -0.240 NA
HETATM   22  C20 UNL     1       2.269   0.707  -0.419  1.00  0.00     0.251 C 
HETATM   23  O2  UNL     1       2.034   0.254  -1.510  1.00  0.00    -0.271 OA
HETATM   24  C21 UNL     1       4.955   1.336   1.921  1.00  0.00     0.026 C 
HETATM   25  O3  UNL     1      -5.399  -2.877  -0.571  1.00  0.00    -0.287 OA
ENDROOT
TORSDOF 0
