REMARK  0 active torsions:
REMARK  status: ('A' for Active; 'I' for Inactive)
ROOT
HETATM    1  C1  UNL     1      -3.574   1.200  -3.042  1.00  0.00     0.065 C 
HETATM    2  C2  UNL     1      -4.458  -0.010  -3.277  1.00  0.00     0.150 C 
HETATM    3  C3  UNL     1      -4.395  -1.128  -2.241  1.00  0.00     0.051 C 
HETATM    4  C4  UNL     1      -3.005  -1.073  -1.529  1.00  0.00     0.006 C 
HETATM    5  C5  UNL     1      -2.630   0.274  -0.826  1.00  0.00     0.001 C 
HETATM    6  C6  UNL     1      -3.356   1.448  -1.546  1.00  0.00     0.008 C 
HETATM    7  C7  UNL     1      -1.092   0.581  -0.831  1.00  0.00     0.000 C 
HETATM    8  C8  UNL     1      -0.107  -0.630  -0.845  1.00  0.00     0.000 C 
HETATM    9  C9  UNL     1      -0.421  -1.299  -2.209  1.00  0.00     0.000 C 
HETATM   10  C10 UNL     1      -1.900  -1.661  -2.444  1.00  0.00     0.000 C 
HETATM   11  C11 UNL     1       1.411  -0.169  -0.712  1.00  0.00     0.000 C 
HETATM   12  C12 UNL     1       1.655   0.856   0.448  1.00  0.00     0.001 C 
HETATM   13  C13 UNL     1       0.367   1.317   1.148  1.00  0.00     0.000 C 
HETATM   14  C14 UNL     1      -0.652   1.744   0.089  1.00  0.00     0.000 C 
HETATM   15  C15 UNL     1       2.881   0.579   1.360  1.00  0.00     0.011 C 
HETATM   16  C16 UNL     1       2.956  -0.846   1.946  1.00  0.00     0.056 C 
HETATM   17  C17 UNL     1       2.683  -1.901   0.849  1.00  0.00     0.007 C 
HETATM   18  C18 UNL     1       2.421  -1.342  -0.559  1.00  0.00     0.000 C 
HETATM   19  C19 UNL     1       4.348  -1.047   2.566  1.00  0.00     0.172 C 
HETATM   20  C20 UNL     1       4.936   0.002   3.193  1.00  0.00     0.029 C 
HETATM   21  C21 UNL     1       4.437   1.249   3.215  1.00  0.00    -0.041 C 
HETATM   22  C22 UNL     1       3.193   1.650   2.435  1.00  0.00     0.019 C 
HETATM   23  C23 UNL     1       3.376   3.054   1.821  1.00  0.00     0.004 C 
HETATM   24  C24 UNL     1       5.110   2.303   4.065  1.00  0.00     0.026 C 
HETATM   25  O1  UNL     1       4.880  -2.134   2.604  1.00  0.00    -0.291 OA
HETATM   26  C25 UNL     1       2.025  -1.086   3.158  1.00  0.00     0.008 C 
HETATM   27  C26 UNL     1       1.868   0.536  -2.032  1.00  0.00     0.000 C 
HETATM   28  C27 UNL     1      -0.410  -1.721   0.205  1.00  0.00     0.000 C 
HETATM   29  C28 UNL     1      -3.125   0.244   0.649  1.00  0.00     0.000 C 
HETATM   30  C29 UNL     1      -4.636  -2.491  -2.941  1.00  0.00     0.007 C 
HETATM   31  C30 UNL     1      -5.604  -0.959  -1.290  1.00  0.00     0.007 C 
HETATM   32  O2  UNL     1      -5.178  -0.073  -4.248  1.00  0.00    -0.296 OA
ENDROOT
TORSDOF 0
