REMARK  13 active torsions:
REMARK  status: ('A' for Active; 'I' for Inactive)
REMARK    1  A    between atoms: C1_1  and  O11_37 
REMARK    2  A    between atoms: C2_2  and  O10_35 
REMARK    3  A    between atoms: C5_5  and  C7_7 
REMARK    4  A    between atoms: C8_8  and  C9_9 
REMARK    5  A    between atoms: C9_9  and  O2_11 
REMARK    6  A    between atoms: O2_11  and  C10_12 
REMARK    7  A    between atoms: C13_15  and  O5_20 
REMARK    8  A    between atoms: C14_17  and  C15_18 
REMARK    9  A    between atoms: O5_20  and  C16_21 
REMARK   10  A    between atoms: C16_21  and  C17_22 
REMARK   11  A    between atoms: C17_22  and  C18_23 
REMARK   12  A    between atoms: C21_26  and  O7_31 
REMARK   13  A    between atoms: C22_27  and  O6_29 
ROOT
HETATM    1  C10 UNL     1      -3.620   0.048   0.944  1.00  0.00     0.187 C 
HETATM    2  C11 UNL     1      -3.140  -1.355   1.310  1.00  0.00     0.217 C 
HETATM    3  C12 UNL     1      -2.153  -1.325   2.457  1.00  0.00     0.241 C 
HETATM    4  C13 UNL     1      -1.059  -0.375   2.052  1.00  0.00     0.270 C 
HETATM    5  O3  UNL     1      -1.600   0.924   2.022  1.00  0.00    -0.326 OA
HETATM    6  C14 UNL     1      -2.484   1.090   0.947  1.00  0.00     0.181 C 
HETATM    7  O8  UNL     1      -1.616  -2.611   2.631  1.00  0.00    -0.215 OA
HETATM    8  O9  UNL     1      -4.222  -2.179   1.668  1.00  0.00    -0.218 OA
ENDROOT
BRANCH   1   9
HETATM    9  O2  UNL     1      -4.116  -0.020  -0.364  1.00  0.00    -0.296 OA
BRANCH   9  10
HETATM   10  C9  UNL     1      -5.386   0.284  -0.707  1.00  0.00     0.296 C 
HETATM   11  O1  UNL     1      -6.205   0.509   0.161  1.00  0.00    -0.259 OA
BRANCH  10  12
HETATM   12  C8  UNL     1      -5.813   0.379  -1.999  1.00  0.00     0.068 C 
HETATM   13  C7  UNL     1      -5.200   0.235  -3.195  1.00  0.00     0.005 C 
BRANCH  13  14
HETATM   14  C5  UNL     1      -3.961  -0.000  -3.688  1.00  0.00     0.002 A 
HETATM   15  C4  UNL     1      -3.826  -0.139  -5.023  1.00  0.00     0.002 A 
HETATM   16  C3  UNL     1      -2.634  -0.343  -5.598  1.00  0.00     0.026 A 
HETATM   17  C2  UNL     1      -1.479  -0.448  -4.913  1.00  0.00     0.116 A 
HETATM   18  C1  UNL     1      -1.578  -0.335  -3.567  1.00  0.00     0.116 A 
HETATM   19  C6  UNL     1      -2.792  -0.083  -3.032  1.00  0.00     0.026 A 
BRANCH  17  20
HETATM   20  O10 UNL     1      -0.335  -0.619  -5.662  1.00  0.00    -0.326 OA
HETATM   21  C26 UNL     1       0.938  -0.340  -5.130  1.00  0.00     0.181 C 
ENDBRANCH  17  20
BRANCH  18  22
HETATM   22  O11 UNL     1      -0.488  -0.345  -2.729  1.00  0.00    -0.326 OA
HETATM   23  C27 UNL     1      -0.324  -1.545  -2.006  1.00  0.00     0.181 C 
ENDBRANCH  18  22
ENDBRANCH  13  14
ENDBRANCH  10  12
ENDBRANCH   9  10
ENDBRANCH   1   9
BRANCH   6  24
HETATM   24  C15 UNL     1      -3.014   2.520   1.015  1.00  0.00     0.214 C 
HETATM   25  O4  UNL     1      -3.794   2.813  -0.126  1.00  0.00    -0.218 OA
ENDBRANCH   6  24
BRANCH   4  26
HETATM   26  O5  UNL     1      -0.033  -0.356   3.021  1.00  0.00    -0.329 OA
BRANCH  26  27
HETATM   27  C16 UNL     1       1.220  -0.090   2.436  1.00  0.00     0.150 C 
BRANCH  27  28
HETATM   28  C17 UNL     1       2.299   0.025   3.511  1.00  0.00     0.059 C 
BRANCH  28  29
HETATM   29  C18 UNL     1       3.724   0.178   3.006  1.00  0.00    -0.018 A 
HETATM   30  C19 UNL     1       4.727   0.265   3.892  1.00  0.00    -0.002 A 
HETATM   31  C20 UNL     1       5.996   0.386   3.478  1.00  0.00     0.026 A 
HETATM   32  C21 UNL     1       6.327   0.420   2.172  1.00  0.00     0.116 A 
HETATM   33  C22 UNL     1       5.327   0.346   1.260  1.00  0.00     0.116 A 
HETATM   34  C23 UNL     1       4.059   0.226   1.705  1.00  0.00     0.022 A 
BRANCH  32  35
HETATM   35  O7  UNL     1       7.615   0.542   1.703  1.00  0.00    -0.326 OA
HETATM   36  C25 UNL     1       8.668   0.711   2.624  1.00  0.00     0.181 C 
ENDBRANCH  32  35
BRANCH  33  37
HETATM   37  O6  UNL     1       5.676   0.382  -0.073  1.00  0.00    -0.326 OA
HETATM   38  C24 UNL     1       4.678   0.230  -1.057  1.00  0.00     0.181 C 
ENDBRANCH  33  37
ENDBRANCH  28  29
ENDBRANCH  27  28
ENDBRANCH  26  27
ENDBRANCH   4  26
TORSDOF 13
