REMARK  7 active torsions:
REMARK  status: ('A' for Active; 'I' for Inactive)
REMARK    1  A    between atoms: C9_10  and  C13_15 
REMARK    2  A    between atoms: C13_15  and  C14_16 
REMARK    3  A    between atoms: C15_17  and  C16_18 
REMARK    4  A    between atoms: C18_20  and  O4_27 
REMARK    5  A    between atoms: C20_23  and  C21_24 
REMARK    6  A    between atoms: O4_27  and  C22_28 
REMARK    7  A    between atoms: C23_30  and  C27_37 
ROOT
HETATM    1  C14 UNL     1       5.610  -0.916  -0.360  1.00  0.00     0.063 C 
HETATM    2  C15 UNL     1       6.376  -1.469   0.867  1.00  0.00     0.087 C 
HETATM    3  C18 UNL     1       7.859  -1.589   0.567  1.00  0.00     0.246 C 
HETATM    4  O1  UNL     1       8.097  -2.421  -0.547  1.00  0.00    -0.303 OA
HETATM    5  C19 UNL     1       7.168  -2.439  -1.549  1.00  0.00     0.121 C 
HETATM    6  C20 UNL     1       5.985  -1.779  -1.545  1.00  0.00     0.071 C 
ENDROOT
BRANCH   1   7
HETATM    7  C13 UNL     1       4.134  -0.740   0.059  1.00  0.00    -0.003 C 
BRANCH   7   8
HETATM    8  C9  UNL     1       3.090  -0.096  -0.825  1.00  0.00     0.070 C 
HETATM    9  C8  UNL     1       1.845  -0.810  -1.093  1.00  0.00     0.093 A 
HETATM   10  C7  UNL     1       0.747  -0.208  -1.664  1.00  0.00     0.000 A 
HETATM   11  N1  UNL     1       1.508  -2.134  -0.828  1.00  0.00    -0.244 NA
HETATM   12  C5  UNL     1      -0.296  -1.173  -1.749  1.00  0.00     0.015 A 
HETATM   13  C11 UNL     1       0.744   1.232  -2.050  1.00  0.00     0.052 C 
HETATM   14  C4  UNL     1       0.207  -2.369  -1.220  1.00  0.00     0.081 A 
HETATM   15  C6  UNL     1      -1.631  -1.092  -2.223  1.00  0.00     0.001 A 
HETATM   16  C3  UNL     1      -0.595  -3.537  -1.151  1.00  0.00     0.019 A 
HETATM   17  C2  UNL     1      -1.890  -3.448  -1.616  1.00  0.00     0.002 A 
HETATM   18  C1  UNL     1      -2.406  -2.230  -2.147  1.00  0.00     0.000 A 
HETATM   19  C10 UNL     1       2.188   1.645  -2.362  1.00  0.00     0.106 C 
HETATM   20  N2  UNL     1       3.231   1.104  -1.379  1.00  0.00    -0.345 N 
HETATM   21  C12 UNL     1       4.435   2.011  -1.240  1.00  0.00     0.126 C 
ENDBRANCH   7   8
ENDBRANCH   1   7
BRANCH   2  22
HETATM   22  C16 UNL     1       5.843  -2.812   1.326  1.00  0.00    -0.021 C 
HETATM   23  C17 UNL     1       5.447  -3.074   2.581  1.00  0.00    -0.005 C 
ENDBRANCH   2  22
BRANCH   6  24
HETATM   24  C21 UNL     1       5.183  -1.847  -2.796  1.00  0.00     0.209 C 
HETATM   25  O2  UNL     1       4.229  -0.948  -3.113  1.00  0.00    -0.644 OA
HETATM   26  O3  UNL     1       5.360  -2.736  -3.623  1.00  0.00    -0.644 OA
ENDBRANCH   6  24
BRANCH   3  27
HETATM   27  O4  UNL     1       8.476  -0.358   0.241  1.00  0.00    -0.303 OA
BRANCH  27  28
HETATM   28  C22 UNL     1       8.534   0.556   1.320  1.00  0.00     0.272 C 
HETATM   29  O5  UNL     1       7.443   1.435   1.127  1.00  0.00    -0.326 OA
HETATM   30  C23 UNL     1       7.341   2.404   2.136  1.00  0.00     0.184 C 
HETATM   31  C24 UNL     1       8.608   3.252   2.161  1.00  0.00     0.215 C 
HETATM   32  C25 UNL     1       9.826   2.372   2.348  1.00  0.00     0.220 C 
HETATM   33  O8  UNL     1       8.568   4.168   3.227  1.00  0.00    -0.218 OA
HETATM   34  C26 UNL     1       9.835   1.323   1.257  1.00  0.00     0.241 C 
HETATM   35  O7  UNL     1      10.985   3.161   2.266  1.00  0.00    -0.218 OA
HETATM   36  O6  UNL     1      10.910   0.449   1.487  1.00  0.00    -0.215 OA
BRANCH  30  37
HETATM   37  C27 UNL     1       6.105   3.256   1.877  1.00  0.00     0.214 C 
HETATM   38  O9  UNL     1       4.934   2.472   2.021  1.00  0.00    -0.218 OA
ENDBRANCH  30  37
ENDBRANCH  27  28
ENDBRANCH   3  27
TORSDOF 7
