REMARK  3 active torsions:
REMARK  status: ('A' for Active; 'I' for Inactive)
REMARK    1  A    between atoms: C1_1  and  O4_12 
REMARK    2  A    between atoms: C2_2  and  O3_10 
REMARK    3  A    between atoms: C5_5  and  C7_7 
ROOT
HETATM    1  C1  UNL     1       0.527   0.731  -0.054  1.00  0.00     0.117 A 
HETATM    2  C2  UNL     1       1.060  -0.500   0.145  1.00  0.00     0.116 A 
HETATM    3  C3  UNL     1       0.219  -1.544   0.286  1.00  0.00     0.026 A 
HETATM    4  C4  UNL     1      -1.114  -1.403   0.250  1.00  0.00     0.008 A 
HETATM    5  C5  UNL     1      -1.651  -0.190   0.057  1.00  0.00     0.067 A 
HETATM    6  C6  UNL     1      -0.817   0.854  -0.094  1.00  0.00     0.032 A 
ENDROOT
BRANCH   5   7
HETATM    7  C7  UNL     1      -3.004  -0.036   0.014  1.00  0.00     0.211 C 
HETATM    8  O1  UNL     1      -3.513   1.049  -0.158  1.00  0.00    -0.644 OA
HETATM    9  O2  UNL     1      -3.871  -1.064   0.158  1.00  0.00    -0.644 OA
ENDBRANCH   5   7
BRANCH   1  10
HETATM   10  O4  UNL     1       1.403   1.782  -0.216  1.00  0.00    -0.326 OA
HETATM   11  C9  UNL     1       0.902   3.064  -0.514  1.00  0.00     0.181 C 
ENDBRANCH   1  10
BRANCH   2  12
HETATM   12  O3  UNL     1       2.433  -0.611   0.163  1.00  0.00    -0.326 OA
HETATM   13  C8  UNL     1       3.019  -1.892   0.174  1.00  0.00     0.181 C 
ENDBRANCH   2  12
TORSDOF 3
