REMARK  0 active torsions:
REMARK  status: ('A' for Active; 'I' for Inactive)
ROOT
HETATM    1  C1  UNL     1      -2.298  -0.718  -2.180  1.00  0.00     0.182 C 
HETATM    2  C2  UNL     1      -3.041  -1.114  -0.946  1.00  0.00     0.036 C 
HETATM    3  C3  UNL     1      -2.124  -2.185  -0.370  1.00  0.00     0.003 C 
HETATM    4  C4  UNL     1      -0.688  -1.677  -0.370  1.00  0.00     0.010 C 
HETATM    5  C5  UNL     1      -0.688  -0.154  -0.370  1.00  0.00     0.034 C 
HETATM    6  C6  UNL     1      -1.360   0.353  -1.639  1.00  0.00     0.182 C 
HETATM    7  O1  UNL     1      -2.094   1.512  -1.348  1.00  0.00    -0.221 OA
HETATM    8  C7  UNL     1       0.747   0.353  -0.318  1.00  0.00     0.045 C 
HETATM    9  C8  UNL     1       1.379  -0.047   1.008  1.00  0.00     0.093 C 
HETATM   10  C9  UNL     1       1.431  -1.554   1.058  1.00  0.00     0.153 C 
HETATM   11  C10 UNL     1       0.030  -2.185   0.873  1.00  0.00     0.065 C 
HETATM   12  O2  UNL     1       2.444  -2.192   1.222  1.00  0.00    -0.296 OA
HETATM   13  C11 UNL     1       2.810   0.471   1.065  1.00  0.00     0.123 C 
HETATM   14  C12 UNL     1       2.662   1.913   1.530  1.00  0.00     0.130 C 
HETATM   15  C13 UNL     1       2.174   2.652   0.291  1.00  0.00     0.180 C 
HETATM   16  C14 UNL     1       0.753   1.871  -0.446  1.00  0.00     0.183 C 
HETATM   17  O3  UNL     1      -0.398   2.371   0.179  1.00  0.00    -0.221 OA
HETATM   18  O4  UNL     1       3.238   2.533  -0.615  1.00  0.00    -0.299 OA
HETATM   19  C15 UNL     1       3.313   0.594  -0.352  1.00  0.00     0.274 C 
HETATM   20  O5  UNL     1       3.667  -0.271  -1.118  1.00  0.00    -0.264 OA
HETATM   21  C16 UNL     1       3.913   2.543   2.129  1.00  0.00     0.033 C 
HETATM   22  O6  UNL     1       1.596   1.868   2.441  1.00  0.00    -0.356 OA
HETATM   23  C17 UNL     1       0.495   0.426   2.155  1.00  0.00     0.150 C 
HETATM   24  C18 UNL     1      -1.451   0.353   0.846  1.00  0.00     0.003 C 
HETATM   25  C19 UNL     1      -2.217  -3.443  -1.223  1.00  0.00     0.000 C 
HETATM   26  O7  UNL     1      -3.163  -0.197  -3.153  1.00  0.00    -0.221 OA
ENDROOT
TORSDOF 0
