REMARK  0 active torsions:
REMARK  status: ('A' for Active; 'I' for Inactive)
ROOT
HETATM    1  C1  UNL     1       0.367  -0.852  -0.007  1.00  0.00    -0.023 A 
HETATM    2  C2  UNL     1      -0.869  -1.146  -0.450  1.00  0.00    -0.026 A 
HETATM    3  C3  UNL     1      -1.604  -0.024  -0.514  1.00  0.00    -0.008 A 
HETATM    4  C4  UNL     1      -0.885   1.037  -0.118  1.00  0.00    -0.019 A 
HETATM    5  C5  UNL     1       0.525   0.634   0.264  1.00  0.00     0.037 A 
HETATM    6  C6  UNL     1       1.565   1.273  -0.667  1.00  0.00     0.009 C 
HETATM    7  C7  UNL     1       0.820   0.920   1.742  1.00  0.00     0.009 C 
HETATM    8  C8  UNL     1      -1.358   2.290  -0.071  1.00  0.00    -0.004 C 
HETATM    9  C9  UNL     1      -1.378  -2.510  -0.827  1.00  0.00     0.030 C 
HETATM   10  C10 UNL     1       1.349  -1.746   0.180  1.00  0.00    -0.004 C 
ENDROOT
TORSDOF 0
