REMARK  1 active torsions:
REMARK  status: ('A' for Active; 'I' for Inactive)
REMARK    1  A    between atoms: C5_5  and  C7_7 
ROOT
HETATM    1  C1  UNL     1       0.510   1.118  -0.294  1.00  0.00     0.003 A 
HETATM    2  C2  UNL     1       1.048  -0.077   0.028  1.00  0.00     0.123 A 
HETATM    3  C3  UNL     1       0.229  -1.114   0.300  1.00  0.00     0.003 A 
HETATM    4  C4  UNL     1      -1.105  -0.940   0.248  1.00  0.00     0.001 A 
HETATM    5  C5  UNL     1      -1.648   0.247  -0.069  1.00  0.00     0.042 A 
HETATM    6  C6  UNL     1      -0.825   1.273  -0.340  1.00  0.00     0.001 A 
HETATM    7  C8  UNL     1       0.744  -2.491   0.667  1.00  0.00     0.033 C 
HETATM    8  O2  UNL     1       2.402  -0.211   0.069  1.00  0.00    -0.191 OA
HETATM    9  C9  UNL     1       1.420   2.288  -0.605  1.00  0.00     0.033 C 
ENDROOT
BRANCH   5  10
HETATM   10  C7  UNL     1      -2.997   0.404  -0.115  1.00  0.00     0.234 C 
HETATM   11  O1  UNL     1      -3.559   1.438  -0.392  1.00  0.00    -0.283 OA
ENDBRANCH   5  10
TORSDOF 1
