REMARK  0 active torsions:
REMARK  status: ('A' for Active; 'I' for Inactive)
ROOT
HETATM    1  C1  UNL     1       0.005  -0.597  -0.965  1.00  0.00     0.055 C 
HETATM    2  C2  UNL     1      -0.845  -0.215   0.229  1.00  0.00     0.073 C 
HETATM    3  O1  UNL     1      -0.932   1.122   0.487  1.00  0.00    -0.278 OA
HETATM    4  C3  UNL     1       0.196   1.663   1.036  1.00  0.00     0.299 C 
HETATM    5  C4  UNL     1       1.381   1.781   0.377  1.00  0.00     0.060 C 
HETATM    6  C5  UNL     1       1.616   1.348  -0.875  1.00  0.00    -0.038 C 
HETATM    7  C6  UNL     1       0.600   0.607  -1.714  1.00  0.00     0.029 C 
HETATM    8  C7  UNL     1       2.957   1.573  -1.536  1.00  0.00     0.026 C 
HETATM    9  O2  UNL     1       0.154   2.093   2.171  1.00  0.00    -0.259 OA
HETATM   10  C8  UNL     1      -1.523  -1.141   0.939  1.00  0.00    -0.025 C 
HETATM   11  C9  UNL     1      -1.471  -2.628   0.666  1.00  0.00     0.028 C 
HETATM   12  C10 UNL     1      -2.429  -0.778   2.095  1.00  0.00     0.028 C 
ENDROOT
TORSDOF 0
