REMARK  9 active torsions:
REMARK  status: ('A' for Active; 'I' for Inactive)
REMARK    1  A    between atoms: C1_1  and  C2_2 
REMARK    2  A    between atoms: C1_1  and  C8_10 
REMARK    3  A    between atoms: C2_2  and  C3_3 
REMARK    4  A    between atoms: C2_2  and  O1_6 
REMARK    5  A    between atoms: O1_6  and  C6_7 
REMARK    6  A    between atoms: C9_11  and  C10_12 
REMARK    7  A    between atoms: C10_12  and  C11_13 
REMARK    8  A    between atoms: C11_13  and  C12_14 
REMARK    9  A    between atoms: C13_15  and  C14_16 
ROOT
HETATM    1  C8  UNL     1       0.730  -0.818   0.455  1.00  0.00    -0.025 C 
HETATM    2  C9  UNL     1       1.206   0.161  -0.330  1.00  0.00    -0.001 C 
ENDROOT
BRANCH   2   3
HETATM    3  C10 UNL     1       2.556   0.812  -0.129  1.00  0.00     0.149 C 
HETATM    4  C17 UNL     1       3.650  -0.061  -0.743  1.00  0.00     0.038 C 
HETATM    5  O4  UNL     1       2.803   0.934   1.256  1.00  0.00    -0.221 OA
BRANCH   3   6
HETATM    6  C11 UNL     1       2.578   2.224  -0.728  1.00  0.00     0.060 C 
BRANCH   6   7
HETATM    7  C12 UNL     1       1.535   3.103  -0.082  1.00  0.00    -0.025 C 
HETATM    8  C13 UNL     1       0.448   3.555  -0.724  1.00  0.00    -0.001 C 
BRANCH   8   9
HETATM    9  C14 UNL     1      -0.608   4.432  -0.085  1.00  0.00     0.145 C 
HETATM   10  C15 UNL     1      -1.873   4.469  -0.946  1.00  0.00     0.038 C 
HETATM   11  C16 UNL     1      -0.061   5.843   0.130  1.00  0.00     0.038 C 
HETATM   12  O3  UNL     1      -0.972   3.900   1.173  1.00  0.00    -0.222 OA
ENDBRANCH   8   9
ENDBRANCH   6   7
ENDBRANCH   3   6
ENDBRANCH   2   3
BRANCH   1  13
HETATM   13  C1  UNL     1      -0.617  -1.473   0.259  1.00  0.00     0.058 C 
BRANCH  13  14
HETATM   14  C2  UNL     1      -0.532  -2.991  -0.025  1.00  0.00     0.124 C 
HETATM   15  C5  UNL     1       0.338  -3.193  -1.274  1.00  0.00     0.035 C 
BRANCH  14  16
HETATM   16  C3  UNL     1      -1.950  -3.501  -0.250  1.00  0.00     0.001 C 
HETATM   17  C4  UNL     1      -2.281  -4.723  -0.691  1.00  0.00    -0.003 C 
ENDBRANCH  14  16
BRANCH  14  18
HETATM   18  O1  UNL     1       0.002  -3.569   1.141  1.00  0.00    -0.302 OA
BRANCH  18  19
HETATM   19  C6  UNL     1       0.609  -4.785   1.156  1.00  0.00     0.273 C 
HETATM   20  C7  UNL     1       1.102  -5.092   2.557  1.00  0.00     0.106 C 
HETATM   21  O2  UNL     1       0.747  -5.535   0.218  1.00  0.00    -0.264 OA
ENDBRANCH  18  19
ENDBRANCH  14  18
ENDBRANCH  13  14
ENDBRANCH   1  13
TORSDOF 9
