REMARK  11 active torsions:
REMARK  status: ('A' for Active; 'I' for Inactive)
REMARK    1  A    between atoms: C4_4  and  O3_14 
REMARK    2  A    between atoms: O3_14  and  C12_15 
REMARK    3  A    between atoms: C12_15  and  C13_16 
REMARK    4  A    between atoms: C19_24  and  O12_46 
REMARK    5  A    between atoms: C22_27  and  O7_32 
REMARK    6  A    between atoms: O7_32  and  C26_33 
REMARK    7  A    between atoms: C26_33  and  C27_34 
REMARK    8  A    between atoms: C31_39  and  O9_40 
REMARK    9  A    between atoms: O9_40  and  C32_41 
REMARK   10  A    between atoms: O12_46  and  C35_47 
REMARK   11  A    between atoms: C35_47  and  C36_48 
ROOT
HETATM    1  C1  UNL     1       3.003   1.560  -0.690  1.00  0.00     0.041 C 
HETATM    2  C2  UNL     1       3.027   0.005  -0.548  1.00  0.00     0.109 C 
HETATM    3  C3  UNL     1       4.466  -0.502  -0.353  1.00  0.00     0.182 C 
HETATM    4  C4  UNL     1       5.613   0.021  -1.224  1.00  0.00     0.182 C 
HETATM    5  C5  UNL     1       5.322   1.413  -1.804  1.00  0.00     0.047 C 
HETATM    6  C6  UNL     1       4.434   2.165  -0.806  1.00  0.00     0.032 C 
HETATM    7  C7  UNL     1       4.784   3.671  -0.651  1.00  0.00     0.102 C 
HETATM    8  O1  UNL     1       6.131   3.761  -0.261  1.00  0.00    -0.307 OA
HETATM    9  C8  UNL     1       7.077   2.948  -0.807  1.00  0.00     0.272 C 
HETATM   10  C9  UNL     1       6.627   2.186  -2.040  1.00  0.00     0.099 C 
HETATM   11  O2  UNL     1       8.214   2.883  -0.393  1.00  0.00    -0.264 OA
HETATM   12  C10 UNL     1       3.976   4.293   0.504  1.00  0.00     0.030 C 
HETATM   13  C11 UNL     1       4.618   4.608  -1.861  1.00  0.00     0.030 C 
HETATM   14  O5  UNL     1       4.745  -1.352   0.460  1.00  0.00    -0.293 OA
HETATM   15  C19 UNL     1       2.093  -0.553   0.572  1.00  0.00     0.138 C 
HETATM   16  C20 UNL     1       0.580  -0.287   0.406  1.00  0.00     0.087 C 
HETATM   17  C21 UNL     1       0.118   1.147   0.148  1.00  0.00     0.159 C 
HETATM   18  C22 UNL     1       0.449   1.636  -1.275  1.00  0.00     0.177 C 
HETATM   19  C23 UNL     1       1.929   1.705  -1.783  1.00  0.00     0.121 C 
HETATM   20  O6  UNL     1       2.228   0.660  -2.662  1.00  0.00    -0.356 OA
HETATM   21  C24 UNL     1       2.566  -0.480  -1.928  1.00  0.00     0.152 C 
HETATM   22  C25 UNL     1       2.036   2.965  -2.643  1.00  0.00     0.032 C 
HETATM   23  C29 UNL     1      -1.401   1.143   0.430  1.00  0.00     0.036 C 
HETATM   24  C30 UNL     1      -1.752  -0.272   0.920  1.00  0.00     0.031 C 
HETATM   25  C31 UNL     1      -0.418  -0.824   1.457  1.00  0.00     0.129 C 
HETATM   26  C34 UNL     1      -2.959  -0.255   1.866  1.00  0.00     0.003 C 
HETATM   27  O11 UNL     1       0.649   1.985   1.143  1.00  0.00    -0.223 OA
ENDROOT
BRANCH   4  28
HETATM   28  O3  UNL     1       5.900  -0.896  -2.253  1.00  0.00    -0.293 OA
BRANCH  28  29
HETATM   29  C12 UNL     1       6.830  -1.883  -2.071  1.00  0.00     0.296 C 
HETATM   30  O4  UNL     1       6.900  -2.785  -2.895  1.00  0.00    -0.259 OA
BRANCH  29  31
HETATM   31  C13 UNL     1       7.838  -1.948  -0.948  1.00  0.00     0.063 A 
HETATM   32  C14 UNL     1       8.781  -0.926  -0.800  1.00  0.00     0.005 A 
HETATM   33  C15 UNL     1       9.740  -1.002   0.211  1.00  0.00     0.000 A 
HETATM   34  C16 UNL     1       9.760  -2.104   1.069  1.00  0.00     0.000 A 
HETATM   35  C17 UNL     1       8.829  -3.132   0.910  1.00  0.00     0.000 A 
HETATM   36  C18 UNL     1       7.872  -3.063  -0.108  1.00  0.00     0.005 A 
ENDBRANCH  29  31
ENDBRANCH  28  29
ENDBRANCH   4  28
BRANCH  15  37
HETATM   37  O12 UNL     1       2.581  -0.095   1.797  1.00  0.00    -0.300 OA
BRANCH  37  38
HETATM   38  C35 UNL     1       2.867  -0.891   2.879  1.00  0.00     0.296 C 
HETATM   39  O13 UNL     1       3.261  -0.303   3.888  1.00  0.00    -0.259 OA
BRANCH  38  40
HETATM   40  C36 UNL     1       2.734  -2.381   3.066  1.00  0.00     0.063 A 
HETATM   41  C37 UNL     1       2.987  -3.349   2.080  1.00  0.00     0.005 A 
HETATM   42  C38 UNL     1       2.813  -4.710   2.336  1.00  0.00     0.000 A 
HETATM   43  C39 UNL     1       2.393  -5.143   3.594  1.00  0.00     0.000 A 
HETATM   44  C40 UNL     1       2.174  -4.201   4.599  1.00  0.00     0.000 A 
HETATM   45  C41 UNL     1       2.352  -2.841   4.337  1.00  0.00     0.005 A 
ENDBRANCH  38  40
ENDBRANCH  37  38
ENDBRANCH  15  37
BRANCH  18  46
HETATM   46  O7  UNL     1      -0.316   0.859  -2.163  1.00  0.00    -0.299 OA
BRANCH  46  47
HETATM   47  C26 UNL     1      -1.053   1.432  -3.148  1.00  0.00     0.272 C 
HETATM   48  O8  UNL     1      -1.204   2.622  -3.304  1.00  0.00    -0.264 OA
BRANCH  47  49
HETATM   49  C27 UNL     1      -1.679   0.370  -4.040  1.00  0.00     0.096 C 
HETATM   50  C28 UNL     1      -0.968  -0.991  -4.047  1.00  0.00     0.011 C 
ENDBRANCH  47  49
ENDBRANCH  46  47
ENDBRANCH  18  46
BRANCH  25  51
HETATM   51  O9  UNL     1      -0.138  -0.273   2.708  1.00  0.00    -0.304 OA
BRANCH  51  52
HETATM   52  C32 UNL     1      -0.477  -0.873   3.887  1.00  0.00     0.272 C 
HETATM   53  O10 UNL     1      -0.369  -0.294   4.947  1.00  0.00    -0.264 OA
HETATM   54  C33 UNL     1      -0.927  -2.324   3.829  1.00  0.00     0.106 C 
ENDBRANCH  51  52
ENDBRANCH  25  51
TORSDOF 11
