REMARK  1 active torsions:
REMARK  status: ('A' for Active; 'I' for Inactive)
REMARK    1  A    between atoms: C19_19  and  C22_25 
ROOT
HETATM    1  C1  UNL     1      -1.967  -0.863  -2.833  1.00  0.00     0.000 C 
HETATM    2  C2  UNL     1      -2.312  -1.818  -1.678  1.00  0.00     0.000 C 
HETATM    3  C3  UNL     1      -1.294  -2.963  -1.464  1.00  0.00     0.000 C 
HETATM    4  C4  UNL     1       0.139  -2.370  -1.282  1.00  0.00     0.000 C 
HETATM    5  C5  UNL     1       0.207  -0.866  -1.556  1.00  0.00     0.000 A 
HETATM    6  C6  UNL     1      -0.469  -0.515  -2.877  1.00  0.00     0.000 C 
HETATM    7  C7  UNL     1       1.381  -0.065  -0.997  1.00  0.00     0.000 A 
HETATM    8  C8  UNL     1       2.339  -0.730   0.013  1.00  0.00     0.003 C 
HETATM    9  C9  UNL     1       2.347  -2.265  -0.098  1.00  0.00     0.000 C 
HETATM   10  C10 UNL     1       0.919  -2.826  -0.039  1.00  0.00     0.000 C 
HETATM   11  C11 UNL     1       3.754  -0.095   0.033  1.00  0.00     0.033 C 
HETATM   12  C12 UNL     1       3.638   1.464  -0.023  1.00  0.00     0.007 C 
HETATM   13  C13 UNL     1       3.181   1.842  -1.442  1.00  0.00     0.000 C 
HETATM   14  C14 UNL     1       1.952   1.032  -1.906  1.00  0.00     0.000 C 
HETATM   15  C15 UNL     1       5.073   1.938   0.359  1.00  0.00     0.054 C 
HETATM   16  C16 UNL     1       5.270   3.341   0.971  1.00  0.00     0.007 C 
HETATM   17  C17 UNL     1       6.649   3.424   1.655  1.00  0.00     0.033 C 
HETATM   18  C18 UNL     1       7.031   2.103   2.335  1.00  0.00     0.147 C 
HETATM   19  C19 UNL     1       7.817   1.169   1.428  1.00  0.00     0.173 C 
HETATM   20  O1  UNL     1       6.831   0.335   0.891  1.00  0.00    -0.330 OA
HETATM   21  C20 UNL     1       5.587   0.841   1.306  1.00  0.00     0.215 C 
HETATM   22  C21 UNL     1       4.525  -0.241   1.357  1.00  0.00     0.203 C 
HETATM   23  O2  UNL     1       5.070  -1.519   1.571  1.00  0.00    -0.218 OA
HETATM   24  O3  UNL     1       5.880   1.355   2.574  1.00  0.00    -0.333 OA
HETATM   25  C25 UNL     1       5.104   4.484  -0.043  1.00  0.00     0.000 C 
HETATM   26  C26 UNL     1       2.606   2.070   0.964  1.00  0.00     0.000 C 
HETATM   27  C27 UNL     1       4.594  -0.678  -1.135  1.00  0.00     0.003 C 
HETATM   28  C28 UNL     1      -0.029   0.124  -0.452  1.00  0.00     0.000 A 
HETATM   29  C29 UNL     1      -1.779  -3.789  -0.251  1.00  0.00     0.000 C 
HETATM   30  C30 UNL     1      -1.336  -3.900  -2.695  1.00  0.00     0.000 C 
ENDROOT
BRANCH  19  31
HETATM   31  C22 UNL     1       8.904   0.329   2.110  1.00  0.00     0.154 C 
HETATM   32  C23 UNL     1      10.054   1.212   2.609  1.00  0.00     0.036 C 
HETATM   33  C24 UNL     1       8.379  -0.544   3.253  1.00  0.00     0.036 C 
HETATM   34  O4  UNL     1       9.448  -0.529   1.137  1.00  0.00    -0.223 OA
ENDBRANCH  19  31
TORSDOF 1
