REMARK  1 active torsions:
REMARK  status: ('A' for Active; 'I' for Inactive)
REMARK    1  A    between atoms: C1_2  and  C6_9 
ROOT
HETATM    1  N1  UNL     1       0.975   0.640  -0.782  1.00  0.00     0.343 N 
HETATM    2  C1  UNL     1      -0.463   0.620  -0.513  1.00  0.00     0.322 C 
HETATM    3  C2  UNL     1      -0.733   0.067   0.886  1.00  0.00     0.219 C 
HETATM    4  C3  UNL     1      -0.096  -1.296   1.092  1.00  0.00     0.187 C 
HETATM    5  C4  UNL     1       1.383  -1.276   0.719  1.00  0.00     0.074 C 
HETATM    6  C5  UNL     1       1.601  -0.676  -0.676  1.00  0.00     0.293 C 
HETATM    7  O1  UNL     1      -0.782  -2.224   0.285  1.00  0.00    -0.221 OA
HETATM    8  O2  UNL     1      -2.120  -0.085   1.075  1.00  0.00    -0.218 OA
ENDROOT
BRANCH   2   9
HETATM    9  C6  UNL     1      -1.007   2.034  -0.703  1.00  0.00     0.221 C 
HETATM   10  O3  UNL     1      -0.704   2.469  -2.013  1.00  0.00    -0.218 OA
ENDBRANCH   2   9
TORSDOF 1
