REMARK  6 active torsions:
REMARK  status: ('A' for Active; 'I' for Inactive)
REMARK    1  A    between atoms: C3_3  and  C4_4 
REMARK    2  A    between atoms: C4_4  and  C5_5 
REMARK    3  A    between atoms: C5_5  and  C6_6 
REMARK    4  A    between atoms: C8_8  and  C9_9 
REMARK    5  A    between atoms: C9_9  and  O1_10 
REMARK    6  A    between atoms: O1_10  and  C10_11 
ROOT
HETATM    1  C10 UNL     1       7.478  -0.753   0.461  1.00  0.00     0.097 A 
HETATM    2  C11 UNL     1       8.505   0.200   0.541  1.00  0.00     0.028 A 
HETATM    3  C12 UNL     1       9.840  -0.149   0.761  1.00  0.00     0.046 A 
HETATM    4  C13 UNL     1      10.198  -1.500   0.905  1.00  0.00     0.068 A 
HETATM    5  C14 UNL     1       9.206  -2.487   0.806  1.00  0.00     0.136 A 
HETATM    6  C15 UNL     1       7.883  -2.088   0.566  1.00  0.00     0.052 A 
HETATM    7  O2  UNL     1       9.476  -3.818   0.896  1.00  0.00    -0.190 OA
HETATM    8  C16 UNL     1      11.618  -1.882   1.133  1.00  0.00     0.200 C 
HETATM    9  C17 UNL     1      12.668  -0.839   0.965  1.00  0.00     0.067 A 
HETATM   10  C18 UNL     1      12.291   0.512   0.824  1.00  0.00     0.044 A 
HETATM   11  C19 UNL     1      10.864   0.923   0.813  1.00  0.00     0.196 C 
HETATM   12  O3  UNL     1      10.541   2.108   0.800  1.00  0.00    -0.287 OA
HETATM   13  C20 UNL     1      13.261   1.506   0.668  1.00  0.00    -0.001 A 
HETATM   14  C21 UNL     1      14.621   1.178   0.638  1.00  0.00    -0.020 A 
HETATM   15  C22 UNL     1      14.972  -0.164   0.771  1.00  0.00     0.023 A 
HETATM   16  C23 UNL     1      14.030  -1.190   0.944  1.00  0.00     0.134 A 
HETATM   17  O4  UNL     1      14.493  -2.468   1.030  1.00  0.00    -0.190 OA
HETATM   18  C24 UNL     1      15.684   2.230   0.444  1.00  0.00     0.031 C 
HETATM   19  O5  UNL     1      11.913  -3.025   1.463  1.00  0.00    -0.286 OA
ENDROOT
BRANCH   1  20
HETATM   20  O1  UNL     1       6.200  -0.327   0.196  1.00  0.00    -0.326 OA
BRANCH  20  21
HETATM   21  C9  UNL     1       5.252  -1.274  -0.250  1.00  0.00     0.174 C 
BRANCH  21  22
HETATM   22  C8  UNL     1       3.925  -0.601  -0.510  1.00  0.00    -0.002 C 
HETATM   23  C6  UNL     1       3.620   0.179  -1.563  1.00  0.00    -0.045 C 
HETATM   24  C7  UNL     1       4.609   0.510  -2.659  1.00  0.00     0.026 C 
BRANCH  23  25
HETATM   25  C5  UNL     1       2.259   0.826  -1.753  1.00  0.00     0.026 C 
BRANCH  25  26
HETATM   26  C4  UNL     1       1.199   0.528  -0.679  1.00  0.00     0.030 C 
BRANCH  26  27
HETATM   27  C3  UNL     1      -0.129   1.194  -0.946  1.00  0.00    -0.034 C 
HETATM   28  C2  UNL     1      -1.219   1.073  -0.167  1.00  0.00    -0.048 C 
HETATM   29  C1  UNL     1      -2.514   1.773  -0.505  1.00  0.00     0.026 C 
HETATM   30  C25 UNL     1      -1.262   0.246   1.097  1.00  0.00     0.026 C 
ENDBRANCH  26  27
ENDBRANCH  25  26
ENDBRANCH  23  25
ENDBRANCH  21  22
ENDBRANCH  20  21
ENDBRANCH   1  20
TORSDOF 6
