REMARK  0 active torsions:
REMARK  status: ('A' for Active; 'I' for Inactive)
ROOT
HETATM    1  C1  UNL     1      -2.163  -0.390  -0.325  1.00  0.00     0.030 A 
HETATM    2  C2  UNL     1      -1.853  -1.745  -0.231  1.00  0.00     0.156 A 
HETATM    3  C3  UNL     1      -0.532  -2.144   0.034  1.00  0.00     0.159 A 
HETATM    4  C4  UNL     1       0.468  -1.166   0.184  1.00  0.00     0.070 A 
HETATM    5  C5  UNL     1       0.146   0.200   0.081  1.00  0.00     0.044 A 
HETATM    6  C6  UNL     1      -1.175   0.583  -0.168  1.00  0.00     0.005 A 
HETATM    7  C7  UNL     1       1.177   1.263   0.209  1.00  0.00     0.198 C 
HETATM    8  C8  UNL     1       2.609   0.860   0.182  1.00  0.00     0.067 A 
HETATM    9  C9  UNL     1       2.927  -0.505   0.302  1.00  0.00     0.046 A 
HETATM   10  C10 UNL     1       1.881  -1.551   0.437  1.00  0.00     0.198 C 
HETATM   11  O1  UNL     1       2.195  -2.703   0.719  1.00  0.00    -0.286 OA
HETATM   12  C11 UNL     1       4.262  -0.908   0.271  1.00  0.00     0.030 A 
HETATM   13  C12 UNL     1       5.299   0.015   0.111  1.00  0.00     0.129 A 
HETATM   14  C13 UNL     1       4.974   1.370  -0.017  1.00  0.00     0.029 A 
HETATM   15  C14 UNL     1       3.635   1.811   0.027  1.00  0.00     0.132 A 
HETATM   16  O2  UNL     1       3.388   3.143  -0.124  1.00  0.00    -0.190 OA
HETATM   17  C15 UNL     1       6.106   2.357  -0.213  1.00  0.00     0.035 C 
HETATM   18  O3  UNL     1       6.590  -0.411   0.058  1.00  0.00    -0.190 OA
HETATM   19  O4  UNL     1       0.829   2.434   0.318  1.00  0.00    -0.286 OA
HETATM   20  O5  UNL     1      -0.305  -3.485   0.107  1.00  0.00    -0.188 OA
HETATM   21  O6  UNL     1      -2.814  -2.693  -0.399  1.00  0.00    -0.188 OA
ENDROOT
TORSDOF 0
