REMARK  4 active torsions:
REMARK  status: ('A' for Active; 'I' for Inactive)
REMARK    1  A    between atoms: C4_4  and  O2_9 
REMARK    2  A    between atoms: C6_6  and  O1_7 
REMARK    3  A    between atoms: C9_12  and  C12_17 
REMARK    4  A    between atoms: C15_20  and  O6_23 
ROOT
HETATM    1  C1  UNL     1       2.934   1.980   0.295  1.00  0.00     0.086 A 
HETATM    2  C2  UNL     1       2.496   0.647   0.432  1.00  0.00     0.107 A 
HETATM    3  C3  UNL     1       1.134   0.365   0.308  1.00  0.00     0.049 A 
HETATM    4  C4  UNL     1       0.172   1.332   0.013  1.00  0.00     0.098 A 
HETATM    5  C5  UNL     1       0.668   2.634  -0.108  1.00  0.00     0.049 A 
HETATM    6  C6  UNL     1       2.017   3.020  -0.002  1.00  0.00     0.101 A 
HETATM    7  O3  UNL     1       3.331  -0.384   0.759  1.00  0.00    -0.305 OA
HETATM    8  C9  UNL     1       4.621  -0.296   0.328  1.00  0.00     0.128 C 
HETATM    9  C10 UNL     1       5.218   0.903   0.157  1.00  0.00     0.192 C 
HETATM   10  C11 UNL     1       4.412   2.125   0.446  1.00  0.00     0.227 C 
HETATM   11  O4  UNL     1       5.021   3.138   0.761  1.00  0.00    -0.284 OA
HETATM   12  O5  UNL     1       6.473   1.073  -0.334  1.00  0.00    -0.185 OA
ENDROOT
BRANCH   8  13
HETATM   13  C12 UNL     1       5.392  -1.543   0.087  1.00  0.00     0.025 A 
HETATM   14  C13 UNL     1       4.766  -2.665  -0.468  1.00  0.00     0.004 A 
HETATM   15  C14 UNL     1       5.463  -3.863  -0.631  1.00  0.00     0.024 A 
HETATM   16  C15 UNL     1       6.800  -4.025  -0.238  1.00  0.00     0.094 A 
HETATM   17  C16 UNL     1       7.404  -2.899   0.342  1.00  0.00     0.024 A 
HETATM   18  C17 UNL     1       6.718  -1.695   0.511  1.00  0.00     0.004 A 
BRANCH  16  19
HETATM   19  O6  UNL     1       7.406  -5.242  -0.422  1.00  0.00    -0.328 OA
HETATM   20  C18 UNL     1       8.747  -5.391  -0.016  1.00  0.00     0.181 C 
ENDBRANCH  16  19
ENDBRANCH   8  13
BRANCH   6  21
HETATM   21  O1  UNL     1       2.197   4.370  -0.216  1.00  0.00    -0.328 OA
HETATM   22  C7  UNL     1       3.430   5.027  -0.133  1.00  0.00     0.181 C 
ENDBRANCH   6  21
BRANCH   4  23
HETATM   23  O2  UNL     1      -1.148   0.964  -0.059  1.00  0.00    -0.328 OA
HETATM   24  C8  UNL     1      -2.129   1.974  -0.072  1.00  0.00     0.181 C 
ENDBRANCH   4  23
TORSDOF 4
