REMARK  8 active torsions:
REMARK  status: ('A' for Active; 'I' for Inactive)
REMARK    1  A    between atoms: C5_5  and  C8_8 
REMARK    2  A    between atoms: C8_8  and  C9_9 
REMARK    3  A    between atoms: C10_10  and  C11_11 
REMARK    4  A    between atoms: C11_11  and  C12_12 
REMARK    5  A    between atoms: C12_12  and  C13_13 
REMARK    6  A    between atoms: C14_14  and  C15_15 
REMARK    7  A    between atoms: C15_15  and  C16_16 
REMARK    8  A    between atoms: C16_16  and  C17_17 
ROOT
HETATM    1  C9  UNL     1       6.359  -1.860   0.434  1.00  0.00    -0.008 C 
HETATM    2  C10 UNL     1       5.043  -1.821   0.146  1.00  0.00    -0.044 C 
HETATM    3  C22 UNL     1       4.089  -2.976   0.356  1.00  0.00     0.026 C 
ENDROOT
BRANCH   2   4
HETATM    4  C11 UNL     1       4.404  -0.561  -0.414  1.00  0.00     0.027 C 
BRANCH   4   5
HETATM    5  C12 UNL     1       3.504   0.162   0.600  1.00  0.00     0.030 C 
BRANCH   5   6
HETATM    6  C13 UNL     1       2.946   1.435   0.006  1.00  0.00    -0.034 C 
HETATM    7  C14 UNL     1       1.774   1.580  -0.638  1.00  0.00    -0.048 C 
HETATM    8  C21 UNL     1       0.799   0.450  -0.875  1.00  0.00     0.026 C 
BRANCH   7   9
HETATM    9  C15 UNL     1       1.354   2.930  -1.190  1.00  0.00     0.026 C 
BRANCH   9  10
HETATM   10  C16 UNL     1       0.161   3.540  -0.435  1.00  0.00     0.030 C 
BRANCH  10  11
HETATM   11  C17 UNL     1      -0.178   4.912  -0.968  1.00  0.00    -0.034 C 
HETATM   12  C18 UNL     1      -1.392   5.401  -1.283  1.00  0.00    -0.048 C 
HETATM   13  C19 UNL     1      -1.546   6.805  -1.825  1.00  0.00     0.026 C 
HETATM   14  C20 UNL     1      -2.697   4.654  -1.145  1.00  0.00     0.026 C 
ENDBRANCH  10  11
ENDBRANCH   9  10
ENDBRANCH   7   9
ENDBRANCH   5   6
ENDBRANCH   4   5
ENDBRANCH   2   4
BRANCH   1  15
HETATM   15  C8  UNL     1       7.092  -3.030   1.042  1.00  0.00     0.001 C 
BRANCH  15  16
HETATM   16  C5  UNL     1       8.603  -3.253   1.010  1.00  0.00     0.024 A 
HETATM   17  C4  UNL     1       9.024  -4.567   1.310  1.00  0.00     0.158 A 
HETATM   18  C3  UNL     1      10.377  -4.919   1.344  1.00  0.00     0.181 A 
HETATM   19  O1  UNL     1       8.132  -5.548   1.617  1.00  0.00    -0.188 OA
HETATM   20  C2  UNL     1      11.360  -3.971   1.069  1.00  0.00     0.158 A 
HETATM   21  O2  UNL     1      10.738  -6.192   1.651  1.00  0.00    -0.186 OA
HETATM   22  C1  UNL     1      10.947  -2.671   0.789  1.00  0.00     0.025 A 
HETATM   23  O3  UNL     1      12.669  -4.331   1.112  1.00  0.00    -0.188 OA
HETATM   24  C6  UNL     1       9.599  -2.287   0.763  1.00  0.00    -0.018 A 
HETATM   25  C7  UNL     1       9.333  -0.823   0.504  1.00  0.00     0.031 C 
ENDBRANCH  15  16
ENDBRANCH   1  15
TORSDOF 8
