REMARK  3 active torsions:
REMARK  status: ('A' for Active; 'I' for Inactive)
REMARK    1  A    between atoms: C5_5  and  C8_9 
REMARK    2  A    between atoms: C6_6  and  O1_7 
REMARK    3  A    between atoms: C8_9  and  C9_10 
ROOT
HETATM    1  C1  UNL     1      -0.149  -1.860  -0.188  1.00  0.00     0.155 A 
HETATM    2  C2  UNL     1       1.104  -2.474  -0.242  1.00  0.00     0.054 A 
HETATM    3  C3  UNL     1       2.310  -1.779  -0.289  1.00  0.00     0.105 A 
HETATM    4  C4  UNL     1       2.219  -0.382  -0.284  1.00  0.00     0.060 A 
HETATM    5  C5  UNL     1       0.977   0.280  -0.167  1.00  0.00     0.011 A 
HETATM    6  C6  UNL     1      -0.235  -0.453  -0.164  1.00  0.00     0.116 A 
HETATM    7  C13 UNL     1       3.510   0.359  -0.386  1.00  0.00     0.201 C 
HETATM    8  C14 UNL     1       4.742  -0.417  -0.085  1.00  0.00     0.087 A 
HETATM    9  C15 UNL     1       4.633  -1.814  -0.104  1.00  0.00     0.107 A 
HETATM   10  O2  UNL     1       3.479  -2.470  -0.413  1.00  0.00    -0.307 OA
HETATM   11  C16 UNL     1       5.803  -2.545   0.114  1.00  0.00     0.049 A 
HETATM   12  C17 UNL     1       7.041  -1.961   0.403  1.00  0.00     0.094 A 
HETATM   13  C18 UNL     1       7.094  -0.560   0.444  1.00  0.00     0.026 A 
HETATM   14  C19 UNL     1       5.956   0.228   0.215  1.00  0.00     0.134 A 
HETATM   15  O3  UNL     1       6.075   1.584   0.284  1.00  0.00    -0.190 OA
HETATM   16  C20 UNL     1       8.411   0.123   0.726  1.00  0.00     0.033 C 
HETATM   17  C21 UNL     1       9.476  -0.893   1.146  1.00  0.00     0.033 C 
HETATM   18  C22 UNL     1       9.383  -2.168   0.306  1.00  0.00     0.099 C 
HETATM   19  O4  UNL     1       8.143  -2.763   0.526  1.00  0.00    -0.336 OA
HETATM   20  C23 UNL     1      10.455  -3.163   0.771  1.00  0.00     0.030 C 
HETATM   21  C24 UNL     1       9.574  -1.907  -1.195  1.00  0.00     0.030 C 
HETATM   22  O5  UNL     1       3.596   1.520  -0.770  1.00  0.00    -0.286 OA
HETATM   23  O6  UNL     1      -1.228  -2.686  -0.196  1.00  0.00    -0.188 OA
ENDROOT
BRANCH   5  24
HETATM   24  C8  UNL     1       0.962   1.804  -0.098  1.00  0.00     0.054 C 
BRANCH  24  25
HETATM   25  C9  UNL     1      -0.193   2.506   0.569  1.00  0.00    -0.030 C 
HETATM   26  C10 UNL     1      -0.744   3.676   0.194  1.00  0.00    -0.048 C 
HETATM   27  C11 UNL     1      -1.913   4.264   0.950  1.00  0.00     0.026 C 
HETATM   28  C12 UNL     1      -0.276   4.517  -0.971  1.00  0.00     0.026 C 
ENDBRANCH  24  25
ENDBRANCH   5  24
BRANCH   6  29
HETATM   29  O1  UNL     1      -1.403   0.273  -0.159  1.00  0.00    -0.326 OA
HETATM   30  C7  UNL     1      -2.671  -0.307  -0.334  1.00  0.00     0.181 C 
ENDBRANCH   6  29
TORSDOF 3
