REMARK  4 active torsions:
REMARK  status: ('A' for Active; 'I' for Inactive)
REMARK    1  A    between atoms: C2_2  and  O4_34 
REMARK    2  A    between atoms: C3_3  and  C29_31 
REMARK    3  A    between atoms: C14_14  and  C17_17 
REMARK    4  A    between atoms: O4_34  and  C31_35 
ROOT
HETATM    1  C1  UNL     1      -0.824  -1.663  -1.110  1.00  0.00     0.030 C 
HETATM    2  C2  UNL     1      -1.180  -1.644   0.617  1.00  0.00     0.120 C 
HETATM    3  C3  UNL     1      -2.680  -0.977   1.280  1.00  0.00     0.056 C 
HETATM    4  C4  UNL     1      -3.507   0.146   0.070  1.00  0.00     0.005 A 
HETATM    5  C5  UNL     1      -2.886   0.480  -1.665  1.00  0.00     0.001 C 
HETATM    6  C6  UNL     1      -1.625  -0.680  -2.310  1.00  0.00     0.003 C 
HETATM    7  C7  UNL     1      -1.877   1.518  -1.473  1.00  0.00     0.005 C 
HETATM    8  C8  UNL     1      -1.489   0.406  -0.467  1.00  0.00     0.004 C 
HETATM    9  C9  UNL     1      -2.804  -1.134  -0.743  1.00  0.00     0.001 A 
HETATM   10  C10 UNL     1      -4.328  -0.899  -0.545  1.00  0.00     0.000 A 
HETATM   11  C11 UNL     1       0.232   0.839  -0.804  1.00  0.00     0.018 C 
HETATM   12  C12 UNL     1       0.408   2.452  -0.745  1.00  0.00    -0.035 C 
HETATM   13  C13 UNL     1       1.778   3.117  -0.508  1.00  0.00    -0.040 C 
HETATM   14  C14 UNL     1       2.599   2.453   0.620  1.00  0.00     0.093 C 
HETATM   15  C15 UNL     1       2.667   0.945   0.329  1.00  0.00     0.014 C 
HETATM   16  C16 UNL     1       1.274   0.303   0.244  1.00  0.00     0.005 C 
HETATM   17  C18 UNL     1       4.040   3.017   0.688  1.00  0.00     0.014 C 
HETATM   18  C19 UNL     1       4.139   4.436   0.121  1.00  0.00     0.001 C 
HETATM   19  C20 UNL     1       3.789   4.456  -1.380  1.00  0.00     0.004 C 
HETATM   20  C21 UNL     1       2.638   3.477  -1.742  1.00  0.00     0.018 C 
HETATM   21  C22 UNL     1       1.807   4.062  -2.899  1.00  0.00     0.004 C 
HETATM   22  C23 UNL     1       5.039   4.182  -2.240  1.00  0.00     0.000 C 
HETATM   23  C24 UNL     1      -0.620   3.332  -0.882  1.00  0.00    -0.031 C 
HETATM   24  C25 UNL     1      -2.067   2.964  -1.098  1.00  0.00     0.026 C 
HETATM   25  C26 UNL     1       0.928   0.581  -2.189  1.00  0.00     0.004 C 
HETATM   26  C27 UNL     1      -1.462   1.215   0.917  1.00  0.00     0.000 C 
HETATM   27  C28 UNL     1      -3.877   0.936  -2.753  1.00  0.00     0.000 C 
HETATM   28  C30 UNL     1      -2.651  -0.361   2.740  1.00  0.00     0.005 C 
ENDROOT
BRANCH   2  29
HETATM   29  O4  UNL     1      -0.995  -2.992   0.992  1.00  0.00    -0.332 OA
BRANCH  29  30
HETATM   30  C31 UNL     1      -0.077  -3.230   2.040  1.00  0.00     0.270 C 
HETATM   31  O5  UNL     1       1.228  -3.013   1.543  1.00  0.00    -0.326 OA
HETATM   32  C32 UNL     1       1.642  -3.924   0.554  1.00  0.00     0.181 C 
HETATM   33  C33 UNL     1       1.561  -5.359   1.035  1.00  0.00     0.215 C 
HETATM   34  C34 UNL     1       0.175  -5.681   1.552  1.00  0.00     0.220 C 
HETATM   35  O8  UNL     1       1.846  -6.232  -0.034  1.00  0.00    -0.218 OA
HETATM   36  C35 UNL     1      -0.247  -4.641   2.570  1.00  0.00     0.241 C 
HETATM   37  O7  UNL     1      -0.726  -5.675   0.467  1.00  0.00    -0.218 OA
HETATM   38  O6  UNL     1       0.527  -4.791   3.737  1.00  0.00    -0.215 OA
ENDBRANCH  29  30
ENDBRANCH   2  29
BRANCH   3  39
HETATM   39  C29 UNL     1      -3.553  -2.245   1.742  1.00  0.00     0.184 C 
HETATM   40  O3  UNL     1      -3.014  -2.916   2.872  1.00  0.00    -0.221 OA
ENDBRANCH   3  39
BRANCH  14  41
HETATM   41  C17 UNL     1       1.925   2.740   1.968  1.00  0.00     0.188 C 
HETATM   42  O1  UNL     1       1.141   3.626   2.217  1.00  0.00    -0.647 OA
HETATM   43  O2  UNL     1       2.325   1.905   2.946  1.00  0.00    -0.647 OA
ENDBRANCH  14  41
TORSDOF 4
