REMARK  6 active torsions:
REMARK  status: ('A' for Active; 'I' for Inactive)
REMARK    1  A    between atoms: C2_2  and  O4_34 
REMARK    2  A    between atoms: C16_16  and  C25_26 
REMARK    3  A    between atoms: O4_34  and  C31_35 
REMARK    4  A    between atoms: C31_35  and  C32_36 
REMARK    5  A    between atoms: C33_37  and  C34_38 
REMARK    6  A    between atoms: C36_40  and  O6_45 
ROOT
HETATM    1  C1  UNL     1      -1.951  -2.440  -1.823  1.00  0.00     0.127 C 
HETATM    2  C2  UNL     1      -1.750  -2.468  -0.162  1.00  0.00     0.101 C 
HETATM    3  C3  UNL     1      -2.966  -1.975   1.008  1.00  0.00     0.042 C 
HETATM    4  C4  UNL     1      -4.282  -0.857   0.247  1.00  0.00     0.006 A 
HETATM    5  C5  UNL     1      -4.021  -0.243  -1.573  1.00  0.00     0.007 C 
HETATM    6  C6  UNL     1      -2.878  -1.277  -2.579  1.00  0.00     0.056 C 
HETATM    7  C7  UNL     1      -3.020   0.830  -1.547  1.00  0.00     0.005 C 
HETATM    8  C8  UNL     1      -2.614  -0.186  -0.461  1.00  0.00     0.004 C 
HETATM    9  C9  UNL     1      -3.762  -1.861  -0.792  1.00  0.00     0.001 A 
HETATM   10  C10 UNL     1      -5.200  -1.868  -0.257  1.00  0.00     0.000 A 
HETATM   11  C11 UNL     1      -0.939   0.407  -0.573  1.00  0.00     0.018 C 
HETATM   12  C12 UNL     1      -0.850   2.016  -0.763  1.00  0.00    -0.032 C 
HETATM   13  C13 UNL     1      -1.911   2.801  -1.073  1.00  0.00    -0.031 C 
HETATM   14  C14 UNL     1      -3.296   2.309  -1.377  1.00  0.00     0.026 C 
HETATM   15  C15 UNL     1       0.472   2.800  -0.563  1.00  0.00    -0.012 C 
HETATM   16  C16 UNL     1       1.286   2.406   0.691  1.00  0.00     0.095 C 
HETATM   17  C17 UNL     1       1.356   0.875   0.745  1.00  0.00     0.014 C 
HETATM   18  C18 UNL     1      -0.053   0.259   0.731  1.00  0.00     0.005 C 
HETATM   19  C19 UNL     1       2.707   3.016   0.643  1.00  0.00     0.014 C 
HETATM   20  C20 UNL     1       2.678   4.431   0.053  1.00  0.00     0.004 C 
HETATM   21  C21 UNL     1       2.201   4.459  -1.418  1.00  0.00     0.032 C 
HETATM   22  C22 UNL     1       1.334   3.222  -1.784  1.00  0.00     0.142 C 
HETATM   23  C23 UNL     1       0.495   3.457  -3.045  1.00  0.00     0.037 C 
HETATM   24  O1  UNL     1       2.252   2.212  -2.136  1.00  0.00    -0.222 OA
HETATM   25  C24 UNL     1       1.558   5.829  -1.713  1.00  0.00     0.003 C 
HETATM   26  C26 UNL     1      -0.055  -0.082  -1.737  1.00  0.00     0.004 C 
HETATM   27  C27 UNL     1      -2.962   0.815   0.828  1.00  0.00     0.000 C 
HETATM   28  C28 UNL     1      -5.249   0.207  -2.379  1.00  0.00     0.000 C 
HETATM   29  C29 UNL     1      -2.276  -1.594   2.359  1.00  0.00     0.006 C 
HETATM   30  C30 UNL     1      -3.643  -3.292   1.619  1.00  0.00     0.006 C 
HETATM   31  O8  UNL     1      -0.747  -2.643  -2.531  1.00  0.00    -0.193 OA
ENDROOT
BRANCH   2  32
HETATM   32  O4  UNL     1      -1.198  -3.689   0.267  1.00  0.00    -0.276 OA
BRANCH  32  33
HETATM   33  C31 UNL     1       0.167  -3.675   0.433  1.00  0.00     0.300 C 
HETATM   34  O7  UNL     1       0.835  -3.184  -0.445  1.00  0.00    -0.259 OA
BRANCH  33  35
HETATM   35  C32 UNL     1       0.731  -4.121   1.587  1.00  0.00     0.069 C 
HETATM   36  C33 UNL     1       1.975  -3.988   2.090  1.00  0.00     0.005 C 
BRANCH  36  37
HETATM   37  C34 UNL     1       3.074  -3.257   1.788  1.00  0.00     0.002 A 
HETATM   38  C35 UNL     1       4.186  -3.420   2.537  1.00  0.00     0.026 A 
HETATM   39  C36 UNL     1       5.342  -2.734   2.406  1.00  0.00     0.119 A 
HETATM   40  C37 UNL     1       5.386  -1.773   1.457  1.00  0.00     0.153 A 
HETATM   41  C38 UNL     1       4.295  -1.576   0.701  1.00  0.00     0.029 A 
HETATM   42  O5  UNL     1       6.473  -0.992   1.217  1.00  0.00    -0.188 OA
HETATM   43  C39 UNL     1       3.170  -2.284   0.867  1.00  0.00     0.002 A 
BRANCH  39  44
HETATM   44  O6  UNL     1       6.349  -3.032   3.299  1.00  0.00    -0.326 OA
HETATM   45  C40 UNL     1       7.367  -2.095   3.559  1.00  0.00     0.181 C 
ENDBRANCH  39  44
ENDBRANCH  36  37
ENDBRANCH  33  35
ENDBRANCH  32  33
ENDBRANCH   2  32
BRANCH  16  46
HETATM   46  C25 UNL     1       0.596   2.938   1.960  1.00  0.00     0.188 C 
HETATM   47  O2  UNL     1      -0.290   3.756   2.025  1.00  0.00    -0.647 OA
HETATM   48  O3  UNL     1       1.091   2.399   3.091  1.00  0.00    -0.647 OA
ENDBRANCH  16  46
TORSDOF 6
