REMARK  7 active torsions:
REMARK  status: ('A' for Active; 'I' for Inactive)
REMARK    1  A    between atoms: C2_2  and  O4_41 
REMARK    2  A    between atoms: C21_22  and  C23_24 
REMARK    3  A    between atoms: C23_24  and  O2_25 
REMARK    4  A    between atoms: O2_25  and  C24_26 
REMARK    5  A    between atoms: C24_26  and  C25_28 
REMARK    6  A    between atoms: O4_41  and  C38_42 
REMARK    7  A    between atoms: C38_42  and  C39_44 
ROOT
HETATM    1  C1  UNL     1      -3.457  -1.577  -0.021  1.00  0.00     0.031 C 
HETATM    2  C2  UNL     1      -2.710  -1.719   1.885  1.00  0.00     0.124 C 
HETATM    3  C3  UNL     1      -3.716  -1.825   3.044  1.00  0.00     0.026 C 
HETATM    4  C4  UNL     1      -4.629  -1.985   1.824  1.00  0.00     0.009 C 
HETATM    5  C5  UNL     1      -4.550  -0.465   1.185  1.00  0.00     0.015 C 
HETATM    6  C6  UNL     1      -4.762  -0.804  -0.270  1.00  0.00     0.006 C 
HETATM    7  C7  UNL     1      -3.039   0.162   0.937  1.00  0.00    -0.050 C 
HETATM    8  C8  UNL     1      -1.907  -0.701   0.622  1.00  0.00    -0.023 C 
HETATM    9  C9  UNL     1      -2.066  -2.720   0.601  1.00  0.00     0.170 C 
HETATM   10  C10 UNL     1      -3.821  -3.259   0.918  1.00  0.00     0.038 C 
HETATM   11  O1  UNL     1      -1.562  -3.772   1.738  1.00  0.00    -0.219 OA
HETATM   12  C11 UNL     1      -0.679   0.289   0.680  1.00  0.00     0.017 C 
HETATM   13  C12 UNL     1      -0.781   1.666  -0.088  1.00  0.00     0.004 C 
HETATM   14  C13 UNL     1      -1.841   2.523   0.623  1.00  0.00     0.005 C 
HETATM   15  C14 UNL     1      -3.098   1.697   0.944  1.00  0.00     0.021 C 
HETATM   16  C15 UNL     1       0.650   2.435   0.026  1.00  0.00     0.000 C 
HETATM   17  C16 UNL     1       1.818   1.879   0.955  1.00  0.00     0.000 C 
HETATM   18  C17 UNL     1       1.893   0.386   0.498  1.00  0.00     0.000 C 
HETATM   19  C18 UNL     1       0.577  -0.210  -0.023  1.00  0.00     0.004 C 
HETATM   20  C19 UNL     1       3.329   2.327   0.838  1.00  0.00     0.000 C 
HETATM   21  C20 UNL     1       3.785   2.556  -0.580  1.00  0.00     0.002 C 
HETATM   22  C21 UNL     1       2.664   3.358  -1.270  1.00  0.00     0.028 C 
HETATM   23  C22 UNL     1       1.287   2.664  -1.340  1.00  0.00     0.003 C 
HETATM   24  C31 UNL     1       2.458   4.754  -0.638  1.00  0.00     0.003 C 
HETATM   25  C32 UNL     1       1.635   2.296   2.448  1.00  0.00     0.000 C 
HETATM   26  C33 UNL     1      -1.449   1.444  -1.505  1.00  0.00     0.000 C 
HETATM   27  C34 UNL     1      -0.522   0.694   2.180  1.00  0.00     0.004 C 
HETATM   28  C35 UNL     1      -5.771   0.435   1.553  1.00  0.00     0.004 C 
HETATM   29  C36 UNL     1      -3.570  -3.158   4.007  1.00  0.00     0.002 C 
HETATM   30  C37 UNL     1      -3.468  -0.593   3.939  1.00  0.00     0.002 C 
ENDROOT
BRANCH  22  31
HETATM   31  C23 UNL     1       3.116   3.361  -2.717  1.00  0.00     0.152 C 
BRANCH  31  32
HETATM   32  O2  UNL     1       3.227   4.635  -3.209  1.00  0.00    -0.298 OA
BRANCH  32  33
HETATM   33  C24 UNL     1       3.656   4.647  -4.496  1.00  0.00     0.296 C 
HETATM   34  O3  UNL     1       3.802   5.775  -4.960  1.00  0.00    -0.259 OA
BRANCH  33  35
HETATM   35  C25 UNL     1       3.970   3.483  -5.414  1.00  0.00     0.063 A 
HETATM   36  C26 UNL     1       3.893   2.083  -5.186  1.00  0.00     0.005 A 
HETATM   37  C27 UNL     1       4.224   1.145  -6.165  1.00  0.00     0.000 A 
HETATM   38  C28 UNL     1       4.651   1.558  -7.426  1.00  0.00     0.000 A 
HETATM   39  C29 UNL     1       4.737   2.922  -7.678  1.00  0.00     0.000 A 
HETATM   40  C30 UNL     1       4.402   3.854  -6.694  1.00  0.00     0.005 A 
ENDBRANCH  33  35
ENDBRANCH  32  33
ENDBRANCH  31  32
ENDBRANCH  22  31
BRANCH   2  41
HETATM   41  O4  UNL     1      -1.031  -1.687   2.183  1.00  0.00    -0.301 OA
BRANCH  41  42
HETATM   42  C38 UNL     1       0.295  -2.381   1.944  1.00  0.00     0.296 C 
HETATM   43  O5  UNL     1       1.227  -1.822   2.517  1.00  0.00    -0.259 OA
BRANCH  42  44
HETATM   44  C39 UNL     1       0.947  -3.602   1.310  1.00  0.00     0.063 C 
HETATM   45  C40 UNL     1       2.382  -3.726   1.329  1.00  0.00     0.006 C 
HETATM   46  C41 UNL     1       2.989  -4.995   1.284  1.00  0.00     0.014 C 
HETATM   47  C42 UNL     1       2.201  -6.152   1.357  1.00  0.00     0.070 C 
HETATM   48  C43 UNL     1       0.845  -5.968   1.093  1.00  0.00     0.014 C 
HETATM   49  N1  UNL     1       2.583  -7.469   1.576  1.00  0.00    -0.101 NA
HETATM   50  C44 UNL     1       0.371  -4.735   0.661  1.00  0.00     0.006 C 
ENDBRANCH  42  44
ENDBRANCH  41  42
ENDBRANCH   2  41
TORSDOF 7
