REMARK  4 active torsions:
REMARK  status: ('A' for Active; 'I' for Inactive)
REMARK    1  A    between atoms: C23_23  and  O3_29 
REMARK    2  A    between atoms: C24_24  and  C26_26 
REMARK    3  A    between atoms: O3_29  and  C27_30 
REMARK    4  A    between atoms: C28_32  and  C32_39 
ROOT
HETATM    1  C1  UNL     1       4.333   3.683  -1.507  1.00  0.00     0.004 C 
HETATM    2  C2  UNL     1       3.786   3.257  -0.136  1.00  0.00     0.021 C 
HETATM    3  C3  UNL     1       4.869   2.614   0.741  1.00  0.00     0.042 C 
HETATM    4  C4  UNL     1       6.078   3.560   0.865  1.00  0.00     0.003 C 
HETATM    5  C5  UNL     1       6.620   4.030  -0.496  1.00  0.00     0.000 C 
HETATM    6  C6  UNL     1       5.543   4.640  -1.419  1.00  0.00     0.000 C 
HETATM    7  C7  UNL     1       6.134   4.822  -2.836  1.00  0.00     0.000 C 
HETATM    8  C8  UNL     1       5.117   6.034  -0.914  1.00  0.00     0.000 C 
HETATM    9  C9  UNL     1       5.252   1.244   0.201  1.00  0.00     0.209 C 
HETATM   10  C10 UNL     1       4.096   0.354  -0.204  1.00  0.00     0.183 C 
HETATM   11  C11 UNL     1       2.674   0.871  -0.451  1.00  0.00     0.069 C 
HETATM   12  C12 UNL     1       2.561   2.371  -0.238  1.00  0.00    -0.043 C 
HETATM   13  C13 UNL     1       1.337   2.920  -0.250  1.00  0.00    -0.034 C 
HETATM   14  C14 UNL     1       0.092   2.078  -0.308  1.00  0.00     0.025 C 
HETATM   15  C15 UNL     1       0.239   0.863   0.630  1.00  0.00     0.005 C 
HETATM   16  C16 UNL     1       1.629   0.124   0.482  1.00  0.00     0.010 C 
HETATM   17  C17 UNL     1       1.465  -1.357   0.063  1.00  0.00     0.001 C 
HETATM   18  C18 UNL     1       0.279  -2.086   0.687  1.00  0.00     0.001 C 
HETATM   19  C19 UNL     1      -1.072  -1.410   0.406  1.00  0.00     0.012 C 
HETATM   20  C20 UNL     1      -1.086   0.049   0.923  1.00  0.00     0.003 C 
HETATM   21  C21 UNL     1      -2.382   0.711   0.373  1.00  0.00     0.035 C 
HETATM   22  C22 UNL     1      -3.601  -0.209   0.202  1.00  0.00     0.180 C 
HETATM   23  C23 UNL     1      -3.365  -1.494  -0.621  1.00  0.00     0.158 C 
HETATM   24  C24 UNL     1      -1.841  -1.671  -0.930  1.00  0.00     0.106 C 
HETATM   25  C25 UNL     1      -1.504  -3.063  -1.509  1.00  0.00     0.013 C 
HETATM   26  O10 UNL     1      -4.143  -0.498   1.475  1.00  0.00    -0.221 OA
HETATM   27  C33 UNL     1      -1.260   0.010   2.477  1.00  0.00     0.000 C 
HETATM   28  C34 UNL     1       2.282   0.099   1.902  1.00  0.00     0.001 C 
HETATM   29  C35 UNL     1       2.516   0.649  -1.978  1.00  0.00     0.011 C 
HETATM   30  O11 UNL     1       4.417  -0.807  -0.336  1.00  0.00    -0.293 OA
HETATM   31  O12 UNL     1       5.987   0.511   1.167  1.00  0.00    -0.215 OA
ENDROOT
BRANCH  23  32
HETATM   32  O3  UNL     1      -3.909  -2.570   0.101  1.00  0.00    -0.328 OA
BRANCH  32  33
HETATM   33  C27 UNL     1      -4.497  -3.615  -0.643  1.00  0.00     0.270 C 
HETATM   34  O4  UNL     1      -5.816  -3.266  -1.000  1.00  0.00    -0.318 OA
HETATM   35  C28 UNL     1      -6.739  -3.158   0.059  1.00  0.00     0.237 C 
HETATM   36  C29 UNL     1      -6.720  -4.374   0.981  1.00  0.00     0.223 C 
HETATM   37  C30 UNL     1      -5.334  -4.854   1.373  1.00  0.00     0.221 C 
HETATM   38  O7  UNL     1      -7.359  -5.446   0.316  1.00  0.00    -0.217 OA
HETATM   39  C31 UNL     1      -4.450  -4.907   0.143  1.00  0.00     0.241 C 
HETATM   40  O6  UNL     1      -4.759  -4.010   2.341  1.00  0.00    -0.218 OA
HETATM   41  O5  UNL     1      -4.889  -5.958  -0.687  1.00  0.00    -0.215 OA
BRANCH  35  42
HETATM   42  C32 UNL     1      -6.738  -1.758   0.666  1.00  0.00     0.217 C 
HETATM   43  O8  UNL     1      -6.986  -0.739   0.066  1.00  0.00    -0.646 OA
HETATM   44  O9  UNL     1      -6.357  -1.735   1.951  1.00  0.00    -0.646 OA
ENDBRANCH  35  42
ENDBRANCH  32  33
ENDBRANCH  23  32
BRANCH  24  45
HETATM   45  C26 UNL     1      -1.547  -0.714  -2.096  1.00  0.00     0.187 C 
HETATM   46  O1  UNL     1      -2.353  -0.107  -2.762  1.00  0.00    -0.647 OA
HETATM   47  O2  UNL     1      -0.252  -0.635  -2.413  1.00  0.00    -0.647 OA
ENDBRANCH  24  45
TORSDOF 4
