REMARK  1 active torsions:
REMARK  status: ('A' for Active; 'I' for Inactive)
REMARK    1  A    between atoms: C4_4  and  O2_8 
ROOT
HETATM    1  C1  UNL     1       0.829   0.701  -0.040  1.00  0.00     0.067 A 
HETATM    2  C2  UNL     1       0.187  -0.180   0.775  1.00  0.00     0.143 A 
HETATM    3  C3  UNL     1      -0.643  -1.313   0.337  1.00  0.00     0.240 A 
HETATM    4  C4  UNL     1      -0.758  -1.457  -1.145  1.00  0.00     0.138 A 
HETATM    5  C5  UNL     1      -0.126  -0.590  -1.988  1.00  0.00     0.070 A 
HETATM    6  C6  UNL     1       0.716   0.550  -1.508  1.00  0.00     0.200 A 
HETATM    7  O1  UNL     1       1.273   1.305  -2.270  1.00  0.00    -0.286 OA
HETATM    8  O3  UNL     1      -1.181  -2.060   1.121  1.00  0.00    -0.282 OA
HETATM    9  O4  UNL     1       0.400   0.110   2.114  1.00  0.00    -0.308 OA
HETATM   10  C8  UNL     1       1.230   1.248   2.086  1.00  0.00     0.078 A 
HETATM   11  C9  UNL     1       1.483   1.594   0.752  1.00  0.00     0.025 A 
HETATM   12  C10 UNL     1       1.735   1.939   3.334  1.00  0.00     0.058 C 
ENDROOT
BRANCH   4  13
HETATM   13  O2  UNL     1      -1.491  -2.446  -1.652  1.00  0.00    -0.325 OA
HETATM   14  C7  UNL     1      -2.600  -1.970  -2.399  1.00  0.00     0.181 C 
ENDBRANCH   4  13
TORSDOF 1
