REMARK  0 active torsions:
REMARK  status: ('A' for Active; 'I' for Inactive)
ROOT
HETATM    1  C1  UNL     1      -2.014  -1.480   0.617  1.00  0.00    -0.034 C 
HETATM    2  C2  UNL     1      -0.710  -1.526   0.969  1.00  0.00    -0.046 C 
HETATM    3  C3  UNL     1       0.292  -2.248   0.092  1.00  0.00     0.055 C 
HETATM    4  C4  UNL     1       1.550  -1.400  -0.254  1.00  0.00     0.163 C 
HETATM    5  C5  UNL     1       1.331   0.112  -0.538  1.00  0.00     0.090 C 
HETATM    6  C6  UNL     1       0.350   0.511  -1.668  1.00  0.00     0.152 C 
HETATM    7  C7  UNL     1      -1.108   0.476  -1.274  1.00  0.00    -0.004 C 
HETATM    8  C8  UNL     1      -1.643   1.179  -0.251  1.00  0.00    -0.045 C 
HETATM    9  C9  UNL     1      -3.020   0.801   0.266  1.00  0.00     0.026 C 
HETATM   10  C10 UNL     1      -2.971  -0.451   1.185  1.00  0.00     0.030 C 
HETATM   11  C11 UNL     1      -0.903   2.302   0.431  1.00  0.00     0.026 C 
HETATM   12  O1  UNL     1       0.756   1.794  -2.163  1.00  0.00    -0.296 OA
HETATM   13  C12 UNL     1       2.054   1.950  -1.900  1.00  0.00     0.292 C 
HETATM   14  C13 UNL     1       2.518   0.931  -0.965  1.00  0.00     0.046 C 
HETATM   15  C14 UNL     1       3.786   0.751  -0.547  1.00  0.00     0.001 C 
HETATM   16  O2  UNL     1       2.764   2.817  -2.354  1.00  0.00    -0.259 OA
HETATM   17  O3  UNL     1       2.203  -2.005  -1.355  1.00  0.00    -0.223 OA
HETATM   18  C15 UNL     1      -0.197  -0.823   2.202  1.00  0.00     0.026 C 
ENDROOT
TORSDOF 0
