REMARK  2 active torsions:
REMARK  status: ('A' for Active; 'I' for Inactive)
REMARK    1  A    between atoms: C1_1  and  O2_3 
REMARK    2  A    between atoms: O2_3  and  C2_4 
ROOT
HETATM    1  C2  UNL     1      -2.029   0.271  -0.881  1.00  0.00     0.142 C 
HETATM    2  C3  UNL     1      -1.309   1.600  -0.805  1.00  0.00    -0.021 C 
HETATM    3  C4  UNL     1      -1.963   2.795  -1.447  1.00  0.00     0.029 C 
HETATM    4  C5  UNL     1      -0.113   1.730  -0.191  1.00  0.00    -0.029 C 
HETATM    5  C6  UNL     1       0.617   0.572   0.461  1.00  0.00     0.042 C 
HETATM    6  C7  UNL     1      -0.170  -0.770   0.492  1.00  0.00     0.011 C 
HETATM    7  C8  UNL     1      -1.082  -0.926  -0.736  1.00  0.00     0.035 C 
HETATM    8  C9  UNL     1       0.773  -1.988   0.670  1.00  0.00     0.004 C 
HETATM    9  C10 UNL     1       1.789  -2.147  -0.492  1.00  0.00     0.035 C 
HETATM   10  C11 UNL     1       2.203  -0.809  -1.121  1.00  0.00     0.143 A 
HETATM   11  C12 UNL     1       1.951   0.361  -0.213  1.00  0.00    -0.012 A 
HETATM   12  C13 UNL     1       3.068   1.078  -0.105  1.00  0.00     0.036 A 
HETATM   13  C14 UNL     1       4.104   0.391  -0.861  1.00  0.00     0.291 A 
HETATM   14  O3  UNL     1       3.617  -0.744  -1.387  1.00  0.00    -0.297 OA
HETATM   15  O4  UNL     1       5.234   0.801  -0.978  1.00  0.00    -0.260 OA
HETATM   16  C15 UNL     1       3.236   2.359   0.672  1.00  0.00     0.036 C 
HETATM   17  C16 UNL     1       1.498  -1.908   2.020  1.00  0.00     0.000 C 
ENDROOT
BRANCH   1  18
HETATM   18  O2  UNL     1      -3.000   0.228   0.156  1.00  0.00    -0.300 OA
BRANCH  18  19
HETATM   19  C1  UNL     1      -3.918  -0.713  -0.049  1.00  0.00     0.273 C 
HETATM   20  O1  UNL     1      -3.977  -1.389  -1.047  1.00  0.00    -0.264 OA
HETATM   21  C17 UNL     1      -4.912  -0.891   1.068  1.00  0.00     0.106 C 
ENDBRANCH  18  19
ENDBRANCH   1  18
TORSDOF 2
