REMARK  5 active torsions:
REMARK  status: ('A' for Active; 'I' for Inactive)
REMARK    1  A    between atoms: C5_5  and  O3_17 
REMARK    2  A    between atoms: O3_17  and  C15_18 
REMARK    3  A    between atoms: C15_18  and  C16_19 
REMARK    4  A    between atoms: C16_19  and  C19_23 
REMARK    5  A    between atoms: C17_20  and  C18_21 
ROOT
HETATM    1  C1  UNL     1      -2.996  -0.476  -2.901  1.00  0.00     0.030 C 
HETATM    2  C2  UNL     1      -2.651   0.631  -1.918  1.00  0.00    -0.034 C 
HETATM    3  C3  UNL     1      -1.477   0.731  -1.248  1.00  0.00    -0.046 C 
HETATM    4  C4  UNL     1      -0.308  -0.224  -1.426  1.00  0.00     0.052 C 
HETATM    5  C5  UNL     1       0.375  -0.758  -0.145  1.00  0.00     0.135 C 
HETATM    6  C6  UNL     1      -0.473  -1.415   0.975  1.00  0.00     0.088 C 
HETATM    7  C7  UNL     1      -1.305  -2.675   0.631  1.00  0.00     0.152 C 
HETATM    8  C8  UNL     1      -1.995  -2.627  -0.709  1.00  0.00    -0.004 C 
HETATM    9  C9  UNL     1      -3.158  -1.966  -0.870  1.00  0.00    -0.045 C 
HETATM   10  C10 UNL     1      -3.709  -1.681  -2.248  1.00  0.00     0.026 C 
HETATM   11  C11 UNL     1      -3.942  -1.439   0.308  1.00  0.00     0.026 C 
HETATM   12  O1  UNL     1      -0.436  -3.806   0.764  1.00  0.00    -0.296 OA
HETATM   13  C12 UNL     1       0.473  -3.503   1.691  1.00  0.00     0.292 C 
HETATM   14  C13 UNL     1       0.441  -2.072   1.973  1.00  0.00     0.046 C 
HETATM   15  C14 UNL     1       1.103  -1.431   2.955  1.00  0.00     0.001 C 
HETATM   16  O2  UNL     1       1.228  -4.282   2.225  1.00  0.00    -0.259 OA
HETATM   17  C20 UNL     1      -1.298   1.860  -0.266  1.00  0.00     0.026 C 
ENDROOT
BRANCH   5  18
HETATM   18  O3  UNL     1       1.119   0.310   0.428  1.00  0.00    -0.300 OA
BRANCH  18  19
HETATM   19  C15 UNL     1       2.234   0.571  -0.249  1.00  0.00     0.294 C 
HETATM   20  O6  UNL     1       2.597  -0.057  -1.216  1.00  0.00    -0.259 OA
BRANCH  19  21
HETATM   21  C16 UNL     1       3.033   1.698   0.249  1.00  0.00     0.072 C 
HETATM   22  C17 UNL     1       2.436   2.807   0.714  1.00  0.00     0.013 C 
BRANCH  22  23
HETATM   23  C18 UNL     1       3.302   3.933   1.213  1.00  0.00     0.208 C 
HETATM   24  O4  UNL     1       2.515   5.089   1.389  1.00  0.00    -0.215 OA
ENDBRANCH  22  23
BRANCH  21  25
HETATM   25  C19 UNL     1       4.537   1.637   0.249  1.00  0.00     0.214 C 
HETATM   26  O5  UNL     1       4.952   0.290   0.249  1.00  0.00    -0.215 OA
ENDBRANCH  21  25
ENDBRANCH  19  21
ENDBRANCH  18  19
ENDBRANCH   5  18
TORSDOF 5
