REMARK  1 active torsions:
REMARK  status: ('A' for Active; 'I' for Inactive)
REMARK    1  A    between atoms: C3_3  and  C10_12 
ROOT
HETATM    1  C1  UNL     1       0.444  -3.322   0.518  1.00  0.00     0.158 A 
HETATM    2  C2  UNL     1       0.481  -1.990   0.994  1.00  0.00     0.156 A 
HETATM    3  C3  UNL     1       0.383  -0.908   0.082  1.00  0.00     0.032 A 
HETATM    4  C4  UNL     1       0.246  -1.168  -1.311  1.00  0.00     0.025 A 
HETATM    5  C5  UNL     1       0.209  -2.510  -1.783  1.00  0.00     0.105 A 
HETATM    6  C6  UNL     1       0.309  -3.582  -0.867  1.00  0.00     0.054 A 
HETATM    7  O1  UNL     1       0.080  -2.770  -3.106  1.00  0.00    -0.273 OA
HETATM    8  C7  UNL     1      -0.019  -1.803  -4.039  1.00  0.00     0.300 A 
HETATM    9  C8  UNL     1       0.016  -0.385  -3.619  1.00  0.00     0.069 A 
HETATM   10  C9  UNL     1       0.141  -0.070  -2.316  1.00  0.00     0.007 A 
HETATM   11  O2  UNL     1      -0.135  -2.053  -5.217  1.00  0.00    -0.259 OA
HETATM   12  O7  UNL     1       0.610  -1.772   2.313  1.00  0.00    -0.188 OA
HETATM   13  O8  UNL     1       0.537  -4.348   1.377  1.00  0.00    -0.188 OA
ENDROOT
BRANCH   3  14
HETATM   14  C10 UNL     1       0.422   0.459   0.592  1.00  0.00     0.032 A 
HETATM   15  C11 UNL     1      -0.775   1.207   0.781  1.00  0.00     0.025 A 
HETATM   16  C12 UNL     1      -0.711   2.539   1.277  1.00  0.00     0.105 A 
HETATM   17  C18 UNL     1      -2.121   0.639   0.477  1.00  0.00     0.007 A 
HETATM   18  C13 UNL     1       0.543   3.117   1.582  1.00  0.00     0.054 A 
HETATM   19  O5  UNL     1      -1.840   3.260   1.463  1.00  0.00    -0.273 OA
HETATM   20  C14 UNL     1       1.733   2.375   1.395  1.00  0.00     0.158 A 
HETATM   21  C15 UNL     1       1.678   1.049   0.898  1.00  0.00     0.156 A 
HETATM   22  O4  UNL     1       2.916   2.932   1.686  1.00  0.00    -0.188 OA
HETATM   23  O3  UNL     1       2.821   0.365   0.729  1.00  0.00    -0.188 OA
HETATM   24  C16 UNL     1      -3.072   2.777   1.197  1.00  0.00     0.300 A 
HETATM   25  C17 UNL     1      -3.213   1.400   0.680  1.00  0.00     0.069 A 
HETATM   26  O6  UNL     1      -4.072   3.436   1.367  1.00  0.00    -0.259 OA
ENDBRANCH   3  14
TORSDOF 1
