REMARK  7 active torsions:
REMARK  status: ('A' for Active; 'I' for Inactive)
REMARK    1  A    between atoms: C5_7  and  C8_10 
REMARK    2  A    between atoms: C8_10  and  O2_11 
REMARK    3  A    between atoms: O2_11  and  C9_12 
REMARK    4  A    between atoms: C9_12  and  C10_13 
REMARK    5  A    between atoms: C10_13  and  C11_14 
REMARK    6  A    between atoms: C10_13  and  C14_19 
REMARK    7  A    between atoms: C14_19  and  O5_21 
ROOT
HETATM    1  C9  UNL     1      -0.514   1.096  -0.252  1.00  0.00     0.305 C 
HETATM    2  O6  UNL     1       0.178   1.969  -0.721  1.00  0.00    -0.261 OA
ENDROOT
BRANCH   1   3
HETATM    3  O2  UNL     1      -0.096  -0.150  -0.047  1.00  0.00    -0.295 OA
BRANCH   3   4
HETATM    4  C8  UNL     1       1.256  -0.338  -0.441  1.00  0.00     0.176 C 
BRANCH   4   5
HETATM    5  C5  UNL     1       1.660  -1.766  -0.180  1.00  0.00     0.017 A 
HETATM    6  C1  UNL     1       2.920  -2.147   0.547  1.00  0.00     0.270 A 
HETATM    7  N1  UNL     1       2.902  -3.623   0.557  1.00  0.00     0.146 N 
HETATM    8  C2  UNL     1       4.201  -1.692  -0.172  1.00  0.00     0.189 C 
HETATM    9  C4  UNL     1       4.143  -4.051  -0.090  1.00  0.00     0.254 C 
HETATM   10  C7  UNL     1       1.668  -4.084  -0.117  1.00  0.00     0.276 A 
HETATM   11  C3  UNL     1       4.565  -2.914  -1.014  1.00  0.00     0.071 C 
HETATM   12  C6  UNL     1       0.961  -2.836  -0.555  1.00  0.00     0.005 A 
HETATM   13  O1  UNL     1       5.225  -1.436   0.774  1.00  0.00    -0.221 OA
ENDBRANCH   4   5
ENDBRANCH   3   4
ENDBRANCH   1   3
BRANCH   1  14
HETATM   14  C10 UNL     1      -1.939   1.367   0.147  1.00  0.00     0.253 C 
HETATM   15  O4  UNL     1      -2.369   0.381   1.059  1.00  0.00    -0.211 OA
BRANCH  14  16
HETATM   16  C11 UNL     1      -2.891   1.355  -1.051  1.00  0.00     0.164 C 
HETATM   17  C12 UNL     1      -2.775   0.080  -1.885  1.00  0.00     0.036 C 
HETATM   18  O3  UNL     1      -2.393   2.430  -1.816  1.00  0.00    -0.223 OA
HETATM   19  C13 UNL     1      -4.334   1.676  -0.660  1.00  0.00     0.036 C 
ENDBRANCH  14  16
BRANCH  14  20
HETATM   20  C14 UNL     1      -1.920   2.713   0.871  1.00  0.00     0.155 C 
HETATM   21  C15 UNL     1      -0.863   2.771   1.975  1.00  0.00     0.035 C 
BRANCH  20  22
HETATM   22  O5  UNL     1      -3.184   2.918   1.457  1.00  0.00    -0.351 OA
HETATM   23  C16 UNL     1      -3.332   4.201   2.024  1.00  0.00     0.174 C 
ENDBRANCH  20  22
ENDBRANCH  14  20
ENDBRANCH   1  14
TORSDOF 7
