REMARK  0 active torsions:
REMARK  status: ('A' for Active; 'I' for Inactive)
ROOT
HETATM    1  C1  UNL     1      -5.233  -0.111   0.863  1.00  0.00     0.002 A 
HETATM    2  C2  UNL     1      -5.316   1.293   0.754  1.00  0.00     0.000 A 
HETATM    3  C3  UNL     1      -4.180   2.037   0.367  1.00  0.00     0.006 A 
HETATM    4  C4  UNL     1      -2.949   1.383   0.086  1.00  0.00     0.071 A 
HETATM    5  C5  UNL     1      -2.857  -0.039   0.182  1.00  0.00     0.062 A 
HETATM    6  C6  UNL     1      -4.018  -0.771   0.578  1.00  0.00     0.017 A 
HETATM    7  N1  UNL     1      -1.688  -0.674  -0.115  1.00  0.00    -0.325 N 
HETATM    8  C7  UNL     1      -0.506   0.057  -0.697  1.00  0.00     0.211 C 
HETATM    9  N2  UNL     1      -0.586   1.567  -0.641  1.00  0.00    -0.295 N 
HETATM   10  C8  UNL     1      -1.762   2.211  -0.297  1.00  0.00     0.260 C 
HETATM   11  O1  UNL     1      -1.754   3.420  -0.318  1.00  0.00    -0.267 OA
HETATM   12  C9  UNL     1       0.639   2.401  -0.953  1.00  0.00     0.111 C 
HETATM   13  C10 UNL     1       1.897   1.613  -1.424  1.00  0.00     0.052 C 
HETATM   14  C11 UNL     1       2.037   0.322  -0.639  1.00  0.00    -0.002 A 
HETATM   15  C12 UNL     1       0.898  -0.404  -0.275  1.00  0.00     0.097 A 
HETATM   16  N3  UNL     1       1.326  -1.533   0.471  1.00  0.00    -0.246 NA
HETATM   17  C13 UNL     1       2.713  -1.482   0.518  1.00  0.00     0.081 A 
HETATM   18  C14 UNL     1       3.106  -0.351  -0.158  1.00  0.00     0.015 A 
HETATM   19  C15 UNL     1       4.473  -0.010  -0.291  1.00  0.00     0.001 A 
HETATM   20  C16 UNL     1       5.441  -0.873   0.289  1.00  0.00     0.000 A 
HETATM   21  C17 UNL     1       5.031  -2.043   0.988  1.00  0.00     0.002 A 
HETATM   22  C18 UNL     1       3.654  -2.353   1.111  1.00  0.00     0.019 A 
HETATM   23  C19 UNL     1      -1.574  -2.141   0.068  1.00  0.00     0.128 C 
ENDROOT
TORSDOF 0
