REMARK  2 active torsions:
REMARK  status: ('A' for Active; 'I' for Inactive)
REMARK    1  A    between atoms: C2_2  and  O5_26 
REMARK    2  A    between atoms: C3_3  and  O4_24 
ROOT
HETATM    1  C1  UNL     1       2.293  -2.834   1.721  1.00  0.00     0.026 A 
HETATM    2  C2  UNL     1       1.561  -3.482   0.715  1.00  0.00     0.116 A 
HETATM    3  C3  UNL     1       0.709  -2.741  -0.123  1.00  0.00     0.114 A 
HETATM    4  C4  UNL     1       0.584  -1.348   0.042  1.00  0.00     0.032 A 
HETATM    5  C5  UNL     1       1.351  -0.688   1.058  1.00  0.00    -0.015 A 
HETATM    6  C6  UNL     1       2.188  -1.446   1.891  1.00  0.00    -0.002 A 
HETATM    7  C7  UNL     1       1.302   0.790   1.260  1.00  0.00     0.095 C 
HETATM    8  C8  UNL     1      -0.098   1.365   1.406  1.00  0.00     0.177 C 
HETATM    9  C9  UNL     1      -0.424   2.587   0.606  1.00  0.00     0.033 A 
HETATM   10  C10 UNL     1      -1.712   2.764   0.032  1.00  0.00    -0.015 A 
HETATM   11  C11 UNL     1      -2.782   1.734   0.129  1.00  0.00     0.062 C 
HETATM   12  C12 UNL     1      -2.583   0.548  -0.847  1.00  0.00     0.255 C 
HETATM   13  N1  UNL     1      -1.718  -0.506  -0.285  1.00  0.00     0.144 N 
HETATM   14  C13 UNL     1      -0.356  -0.599  -0.848  1.00  0.00     0.279 C 
HETATM   15  C14 UNL     1      -2.395  -1.799  -0.192  1.00  0.00     0.286 C 
HETATM   16  C15 UNL     1      -1.973   3.959  -0.683  1.00  0.00     0.022 A 
HETATM   17  C16 UNL     1      -0.982   4.954  -0.870  1.00  0.00     0.119 A 
HETATM   18  C17 UNL     1       0.291   4.763  -0.332  1.00  0.00     0.119 A 
HETATM   19  C18 UNL     1       0.563   3.583   0.404  1.00  0.00     0.029 A 
HETATM   20  O1  UNL     1       1.056   5.811  -0.638  1.00  0.00    -0.300 OA
HETATM   21  C19 UNL     1       0.282   6.754  -1.412  1.00  0.00     0.304 A 
HETATM   22  O2  UNL     1      -1.014   6.124  -1.509  1.00  0.00    -0.300 OA
HETATM   23  O3  UNL     1      -0.853   0.774   2.146  1.00  0.00    -0.291 OA
ENDROOT
BRANCH   2  24
HETATM   24  O5  UNL     1       1.674  -4.786   0.561  1.00  0.00    -0.326 OA
HETATM   25  C21 UNL     1       2.653  -5.466   1.333  1.00  0.00     0.181 C 
ENDBRANCH   2  24
BRANCH   3  26
HETATM   26  O4  UNL     1       0.024  -3.360  -1.065  1.00  0.00    -0.326 OA
HETATM   27  C20 UNL     1       0.694  -4.344  -1.839  1.00  0.00     0.181 C 
ENDBRANCH   3  26
TORSDOF 2
