REMARK  2 active torsions:
REMARK  status: ('A' for Active; 'I' for Inactive)
REMARK    1  A    between atoms: C6_6  and  O1_7 
REMARK    2  A    between atoms: C10_12  and  O2_13 
ROOT
HETATM    1  C1  UNL     1      -2.799   0.504   1.049  1.00  0.00     0.026 A 
HETATM    2  C2  UNL     1      -2.879   0.502  -0.361  1.00  0.00     0.002 A 
HETATM    3  C3  UNL     1      -1.721   0.291  -1.141  1.00  0.00     0.004 A 
HETATM    4  C4  UNL     1      -0.461   0.080  -0.517  1.00  0.00     0.042 A 
HETATM    5  C5  UNL     1      -0.377   0.082   0.938  1.00  0.00     0.107 A 
HETATM    6  C6  UNL     1      -1.561   0.297   1.695  1.00  0.00     0.112 A 
HETATM    7  N1  UNL     1       0.838  -0.119   1.590  1.00  0.00    -0.220 NA
HETATM    8  C8  UNL     1       1.887  -0.309   0.744  1.00  0.00     0.184 A 
HETATM    9  C9  UNL     1       1.934  -0.334  -0.613  1.00  0.00     0.066 A 
HETATM   10  C10 UNL     1       0.719  -0.135  -1.326  1.00  0.00     0.099 A 
HETATM   11  C12 UNL     1       3.168  -0.551  -1.113  1.00  0.00     0.032 A 
HETATM   12  C13 UNL     1       3.979  -0.674   0.029  1.00  0.00     0.125 A 
HETATM   13  O3  UNL     1       3.184  -0.524   1.201  1.00  0.00    -0.287 OA
ENDROOT
BRANCH   6  14
HETATM   14  O1  UNL     1      -1.523   0.304   3.037  1.00  0.00    -0.327 OA
HETATM   15  C7  UNL     1      -2.576   0.965   3.727  1.00  0.00     0.181 C 
ENDBRANCH   6  14
BRANCH  10  16
HETATM   16  O2  UNL     1       0.559  -0.125  -2.660  1.00  0.00    -0.328 OA
HETATM   17  C11 UNL     1       1.533  -0.789  -3.453  1.00  0.00     0.181 C 
ENDBRANCH  10  16
TORSDOF 2
