REMARK  11 active torsions:
REMARK  status: ('A' for Active; 'I' for Inactive)
REMARK    1  A    between atoms: C1_1  and  C2_2 
REMARK    2  A    between atoms: C1_1  and  C8_8 
REMARK    3  A    between atoms: C2_2  and  C3_3 
REMARK    4  A    between atoms: C3_3  and  C4_4 
REMARK    5  A    between atoms: C4_4  and  C5_5 
REMARK    6  A    between atoms: C5_5  and  C6_6 
REMARK    7  A    between atoms: C9_9  and  C10_10 
REMARK    8  A    between atoms: C10_10  and  C11_12 
REMARK    9  A    between atoms: C12_13  and  C13_14 
REMARK   10  A    between atoms: C14_15  and  C15_16 
REMARK   11  A    between atoms: C15_16  and  C16_17 
ROOT
HETATM    1  C10 UNL     1      -2.354  -1.152   1.908  1.00  0.00     0.238 C 
HETATM    2  O1  UNL     1      -3.764  -1.152   1.908  1.00  0.00    -0.204 OA
ENDROOT
BRANCH   1   3
HETATM    3  C9  UNL     1      -1.852  -0.482   0.656  1.00  0.00     0.015 C 
HETATM    4  C8  UNL     1      -0.684   0.176   0.707  1.00  0.00    -0.027 C 
BRANCH   4   5
HETATM    5  C1  UNL     1      -0.182   0.848  -0.543  1.00  0.00     0.026 C 
BRANCH   5   6
HETATM    6  C2  UNL     1       0.127   2.328  -0.326  1.00  0.00     0.005 C 
BRANCH   6   7
HETATM    7  C3  UNL     1       0.648   3.014  -1.590  1.00  0.00     0.000 C 
BRANCH   7   8
HETATM    8  C4  UNL     1       0.955   4.496  -1.373  1.00  0.00     0.000 C 
BRANCH   8   9
HETATM    9  C5  UNL     1       1.476   5.182  -2.637  1.00  0.00     0.000 C 
BRANCH   9  10
HETATM   10  C6  UNL     1       1.781   6.664  -2.422  1.00  0.00     0.000 C 
HETATM   11  C7  UNL     1       2.303   7.348  -3.686  1.00  0.00     0.000 C 
ENDBRANCH   9  10
ENDBRANCH   8   9
ENDBRANCH   7   8
ENDBRANCH   6   7
ENDBRANCH   5   6
ENDBRANCH   4   5
ENDBRANCH   1   3
BRANCH   1  12
HETATM   12  C11 UNL     1      -1.867  -2.529   1.908  1.00  0.00    -0.041 C 
HETATM   13  C12 UNL     1      -1.471  -3.652   1.908  1.00  0.00    -0.011 C 
BRANCH  13  14
HETATM   14  C13 UNL     1      -1.012  -4.953   1.908  1.00  0.00    -0.011 C 
HETATM   15  C14 UNL     1      -0.613  -6.074   1.908  1.00  0.00    -0.041 C 
BRANCH  15  16
HETATM   16  C15 UNL     1      -0.127  -7.451   1.908  1.00  0.00     0.238 C 
HETATM   17  O2  UNL     1       1.281  -7.451   1.908  1.00  0.00    -0.204 OA
BRANCH  16  18
HETATM   18  C16 UNL     1      -0.629  -8.121   3.158  1.00  0.00     0.019 C 
HETATM   19  C17 UNL     1      -0.785  -9.455   3.152  1.00  0.00    -0.001 C 
ENDBRANCH  16  18
ENDBRANCH  15  16
ENDBRANCH  13  14
ENDBRANCH   1  12
TORSDOF 11
