REMARK  1 active torsions:
REMARK  status: ('A' for Active; 'I' for Inactive)
REMARK    1  A    between atoms: C9_9  and  C10_10 
ROOT
HETATM    1  C1  UNL     1       3.045   2.508   0.652  1.00  0.00    -0.001 A 
HETATM    2  C2  UNL     1       3.787   1.437   0.121  1.00  0.00    -0.005 A 
HETATM    3  C3  UNL     1       3.168   0.182  -0.070  1.00  0.00    -0.026 A 
HETATM    4  C4  UNL     1       1.797  -0.022   0.262  1.00  0.00    -0.020 A 
HETATM    5  C5  UNL     1       1.066   1.051   0.812  1.00  0.00    -0.026 A 
HETATM    6  C6  UNL     1       1.691   2.308   0.996  1.00  0.00    -0.005 A 
HETATM    7  C7  UNL     1      -0.336   0.603   1.127  1.00  0.00     0.023 C 
HETATM    8  C8  UNL     1      -0.527  -0.621   0.176  1.00  0.00     0.024 C 
HETATM    9  C9  UNL     1       0.904  -1.248   0.141  1.00  0.00     0.110 C 
HETATM   10  C11 UNL     1      -1.736  -1.375   0.760  1.00  0.00     0.036 C 
HETATM   11  C12 UNL     1      -2.867  -0.391   0.394  1.00  0.00     0.142 C 
HETATM   12  C13 UNL     1      -2.791   0.887   1.262  1.00  0.00     0.035 C 
HETATM   13  C14 UNL     1      -1.457   1.642   1.037  1.00  0.00     0.007 C 
HETATM   14  O3  UNL     1      -4.123  -1.024   0.549  1.00  0.00    -0.222 OA
HETATM   15  C15 UNL     1      -2.535  -0.072  -1.035  1.00  0.00    -0.017 C 
HETATM   16  C16 UNL     1      -1.059  -0.240  -1.234  1.00  0.00     0.026 C 
HETATM   17  C17 UNL     1      -3.404   0.303  -1.992  1.00  0.00    -0.007 C 
HETATM   18  C18 UNL     1       3.969  -0.926  -0.617  1.00  0.00     0.031 C 
ENDROOT
BRANCH   9  19
HETATM   19  C10 UNL     1       1.234  -2.086  -1.072  1.00  0.00     0.189 C 
HETATM   20  O1  UNL     1       1.285  -3.399  -0.856  1.00  0.00    -0.647 OA
HETATM   21  O2  UNL     1       1.436  -1.574  -2.149  1.00  0.00    -0.647 OA
ENDBRANCH   9  19
TORSDOF 1
