REMARK  2 active torsions:
REMARK  status: ('A' for Active; 'I' for Inactive)
REMARK    1  A    between atoms: C6_6  and  C7_7 
REMARK    2  A    between atoms: C7_7  and  C8_8 
ROOT
HETATM    1  C1  UNL     1      -1.408  -1.145  -0.769  1.00  0.00     0.023 A 
HETATM    2  C2  UNL     1      -1.273  -1.988  -1.836  1.00  0.00     0.127 A 
HETATM    3  C3  UNL     1      -0.033  -2.465  -2.322  1.00  0.00     0.176 A 
HETATM    4  C4  UNL     1       1.123  -2.008  -1.623  1.00  0.00     0.130 A 
HETATM    5  C5  UNL     1       1.002  -1.123  -0.502  1.00  0.00     0.022 A 
HETATM    6  C6  UNL     1      -0.275  -0.680  -0.060  1.00  0.00    -0.014 A 
HETATM    7  C12 UNL     1       2.248  -0.686   0.186  1.00  0.00     0.007 A 
HETATM    8  C13 UNL     1       3.436  -1.131  -0.265  1.00  0.00     0.069 A 
HETATM    9  C14 UNL     1       3.492  -2.043  -1.428  1.00  0.00     0.300 A 
HETATM   10  O1  UNL     1       2.346  -2.420  -2.027  1.00  0.00    -0.271 OA
HETATM   11  O2  UNL     1       4.576  -2.424  -1.805  1.00  0.00    -0.259 OA
HETATM   12  O3  UNL     1       0.191  -3.289  -3.355  1.00  0.00    -0.186 OA
HETATM   13  O4  UNL     1      -2.518  -2.301  -2.357  1.00  0.00    -0.303 OA
HETATM   14  C15 UNL     1      -3.424  -1.582  -1.525  1.00  0.00     0.123 A 
HETATM   15  C16 UNL     1      -2.715  -0.865  -0.537  1.00  0.00     0.029 A 
ENDROOT
BRANCH   6  16
HETATM   16  C7  UNL     1      -0.422   0.232   1.090  1.00  0.00     0.052 C 
BRANCH  16  17
HETATM   17  C8  UNL     1      -0.127   1.662   0.721  1.00  0.00    -0.030 C 
HETATM   18  C9  UNL     1      -0.426   2.627   1.606  1.00  0.00    -0.048 C 
HETATM   19  C10 UNL     1      -1.014   2.228   2.934  1.00  0.00     0.026 C 
HETATM   20  C11 UNL     1      -0.160   4.059   1.225  1.00  0.00     0.026 C 
ENDBRANCH  16  17
ENDBRANCH   6  16
TORSDOF 2
