REMARK  2 active torsions:
REMARK  status: ('A' for Active; 'I' for Inactive)
REMARK    1  A    between atoms: C3_3  and  C10_13 
REMARK    2  A    between atoms: C10_13  and  C11_14 
ROOT
HETATM    1  C1  UNL     1      -1.732   1.002   1.967  1.00  0.00     0.050 A 
HETATM    2  C2  UNL     1      -1.602   0.158   0.901  1.00  0.00     0.100 A 
HETATM    3  C3  UNL     1      -0.354  -0.301   0.436  1.00  0.00     0.028 A 
HETATM    4  C4  UNL     1       0.803   0.148   1.125  1.00  0.00     0.103 A 
HETATM    5  C5  UNL     1       0.666   1.033   2.244  1.00  0.00     0.048 A 
HETATM    6  C6  UNL     1      -0.615   1.484   2.694  1.00  0.00     0.135 A 
HETATM    7  O1  UNL     1      -0.621   2.310   3.750  1.00  0.00    -0.190 OA
HETATM    8  C7  UNL     1       1.912   1.474   2.936  1.00  0.00     0.009 A 
HETATM    9  C8  UNL     1       3.104   1.031   2.490  1.00  0.00     0.069 A 
HETATM   10  C9  UNL     1       3.170   0.119   1.328  1.00  0.00     0.300 A 
HETATM   11  O2  UNL     1       2.027  -0.262   0.723  1.00  0.00    -0.273 OA
HETATM   12  O3  UNL     1       4.254  -0.260   0.955  1.00  0.00    -0.259 OA
HETATM   13  O4  UNL     1      -2.846  -0.154   0.379  1.00  0.00    -0.305 OA
HETATM   14  C15 UNL     1      -3.750   0.564   1.213  1.00  0.00     0.123 A 
HETATM   15  C16 UNL     1      -3.037   1.281   2.199  1.00  0.00     0.031 A 
ENDROOT
BRANCH   3  16
HETATM   16  C10 UNL     1      -0.256  -1.209  -0.719  1.00  0.00     0.056 C 
BRANCH  16  17
HETATM   17  C11 UNL     1      -0.240  -0.463  -2.027  1.00  0.00    -0.030 C 
HETATM   18  C12 UNL     1       0.076  -1.137  -3.144  1.00  0.00    -0.048 C 
HETATM   19  C13 UNL     1       0.119  -0.385  -4.447  1.00  0.00     0.026 C 
HETATM   20  C14 UNL     1       0.369  -2.610  -3.037  1.00  0.00     0.026 C 
ENDBRANCH  16  17
ENDBRANCH   3  16
TORSDOF 2
