REMARK  1 active torsions:
REMARK  status: ('A' for Active; 'I' for Inactive)
REMARK    1  A    between atoms: C19_19  and  C22_22 
ROOT
HETATM    1  C1  UNL     1      -5.380  -1.068   1.456  1.00  0.00     0.000 C 
HETATM    2  C2  UNL     1      -5.262  -2.467   2.053  1.00  0.00     0.000 C 
HETATM    3  C3  UNL     1      -4.157  -3.283   1.346  1.00  0.00     0.000 C 
HETATM    4  C4  UNL     1      -2.962  -2.368   0.927  1.00  0.00     0.004 C 
HETATM    5  C5  UNL     1      -2.774  -1.027   1.694  1.00  0.00     0.004 C 
HETATM    6  C6  UNL     1      -4.118  -0.246   1.750  1.00  0.00     0.000 C 
HETATM    7  C7  UNL     1      -1.723  -0.172   0.912  1.00  0.00     0.018 C 
HETATM    8  C8  UNL     1      -0.442  -0.919   0.579  1.00  0.00    -0.049 C 
HETATM    9  C9  UNL     1      -0.442  -2.261   0.530  1.00  0.00    -0.034 C 
HETATM   10  C10 UNL     1      -1.634  -3.132   0.812  1.00  0.00     0.025 C 
HETATM   11  C11 UNL     1       0.835  -0.100   0.341  1.00  0.00     0.015 C 
HETATM   12  C12 UNL     1       0.438   1.274  -0.298  1.00  0.00     0.003 C 
HETATM   13  C13 UNL     1      -0.397   2.068   0.738  1.00  0.00     0.001 C 
HETATM   14  C14 UNL     1      -1.444   1.227   1.501  1.00  0.00     0.004 C 
HETATM   15  C15 UNL     1       1.735   2.051  -0.639  1.00  0.00     0.000 C 
HETATM   16  C16 UNL     1       2.764   1.379  -1.585  1.00  0.00     0.000 C 
HETATM   17  C17 UNL     1       3.124   0.031  -0.935  1.00  0.00     0.000 C 
HETATM   18  C18 UNL     1       1.879  -0.806  -0.572  1.00  0.00     0.004 C 
HETATM   19  C19 UNL     1       3.877   2.469  -1.573  1.00  0.00     0.000 C 
HETATM   20  C20 UNL     1       3.076   3.796  -1.626  1.00  0.00     0.000 C 
HETATM   21  C21 UNL     1       1.652   3.506  -1.116  1.00  0.00     0.000 C 
HETATM   22  C25 UNL     1       2.305   1.140  -3.038  1.00  0.00     0.000 C 
HETATM   23  C26 UNL     1      -0.441   1.125  -1.571  1.00  0.00     0.000 C 
HETATM   24  C27 UNL     1       1.503  -0.013   1.742  1.00  0.00     0.004 C 
HETATM   25  C28 UNL     1      -2.259  -1.286   3.129  1.00  0.00     0.000 C 
HETATM   26  C29 UNL     1      -3.777  -4.458   2.278  1.00  0.00     0.000 C 
HETATM   27  C30 UNL     1      -4.761  -3.934   0.073  1.00  0.00     0.000 C 
ENDROOT
BRANCH  19  28
HETATM   28  C22 UNL     1       5.020   2.433  -2.615  1.00  0.00     0.000 C 
HETATM   29  C23 UNL     1       5.968   3.637  -2.441  1.00  0.00     0.000 C 
HETATM   30  C24 UNL     1       5.862   1.147  -2.545  1.00  0.00     0.000 C 
ENDBRANCH  19  28
TORSDOF 1
