REMARK  3 active torsions:
REMARK  status: ('A' for Active; 'I' for Inactive)
REMARK    1  A    between atoms: C2_2  and  C3_3 
REMARK    2  A    between atoms: C3_3  and  C5_5 
REMARK    3  A    between atoms: C5_5  and  C6_7 
ROOT
HETATM    1  C5  UNL     1       0.018   0.797  -0.686  1.00  0.00     0.387 C 
HETATM    2  N1  UNL     1      -0.340   2.197  -0.822  1.00  0.00     0.628 N 
ENDROOT
BRANCH   1   3
HETATM    3  C3  UNL     1      -0.519   0.232   0.631  1.00  0.00     0.048 C 
HETATM    4  C4  UNL     1       0.022   0.975   1.853  1.00  0.00     0.003 C 
BRANCH   3   5
HETATM    5  C2  UNL     1      -0.348  -1.283   0.736  1.00  0.00     0.003 C 
HETATM    6  C1  UNL     1       1.119  -1.715   0.721  1.00  0.00     0.000 C 
ENDBRANCH   3   5
ENDBRANCH   1   3
BRANCH   1   7
HETATM    7  C6  UNL     1      -0.463   0.020  -1.881  1.00  0.00     0.224 C 
HETATM    8  O1  UNL     1      -1.643  -0.148  -2.082  1.00  0.00    -0.646 OA
HETATM    9  O2  UNL     1       0.496  -0.453  -2.672  1.00  0.00    -0.646 OA
ENDBRANCH   1   7
TORSDOF 3
