REMARK  5 active torsions:
REMARK  status: ('A' for Active; 'I' for Inactive)
REMARK    1  A    between atoms: C2_2  and  C9_12 
REMARK    2  A    between atoms: C4_4  and  O3_10 
REMARK    3  A    between atoms: C6_6  and  O1_7 
REMARK    4  A    between atoms: C11_16  and  C17_26 
REMARK    5  A    between atoms: C15_21  and  C16_22 
ROOT
HETATM    1  C9  UNL     1       1.239   0.797  -0.156  1.00  0.00     0.170 C 
HETATM    2  O4  UNL     1       0.244   1.747   0.148  1.00  0.00    -0.325 OA
HETATM    3  C10 UNL     1      -0.863   1.269   0.887  1.00  0.00     0.267 C 
HETATM    4  O5  UNL     1      -0.898   2.170   1.979  1.00  0.00    -0.326 OA
HETATM    5  C11 UNL     1      -1.974   1.956   2.853  1.00  0.00     0.184 C 
HETATM    6  C12 UNL     1      -1.855   0.561   3.451  1.00  0.00     0.215 C 
HETATM    7  C13 UNL     1      -1.760  -0.505   2.380  1.00  0.00     0.217 C 
HETATM    8  C14 UNL     1      -0.703  -0.161   1.347  1.00  0.00     0.204 C 
HETATM    9  O6  UNL     1       0.551  -0.293   1.931  1.00  0.00    -0.346 OA
HETATM   10  C15 UNL     1       1.574  -0.172   0.986  1.00  0.00     0.180 C 
HETATM   11  O8  UNL     1      -1.428  -1.728   2.995  1.00  0.00    -0.218 OA
HETATM   12  O9  UNL     1      -2.950   0.255   4.278  1.00  0.00    -0.218 OA
ENDROOT
BRANCH   1  13
HETATM   13  C2  UNL     1       1.033   0.097  -1.500  1.00  0.00     0.011 A 
HETATM   14  C1  UNL     1       2.096  -0.269  -2.238  1.00  0.00     0.025 A 
HETATM   15  C6  UNL     1       1.986  -0.876  -3.436  1.00  0.00     0.121 A 
HETATM   16  C5  UNL     1       0.743  -1.120  -3.904  1.00  0.00     0.175 A 
HETATM   17  C4  UNL     1      -0.352  -0.808  -3.181  1.00  0.00     0.121 A 
HETATM   18  O2  UNL     1       0.602  -1.712  -5.123  1.00  0.00    -0.186 OA
HETATM   19  C3  UNL     1      -0.178  -0.163  -2.015  1.00  0.00     0.025 A 
BRANCH  15  20
HETATM   20  O1  UNL     1       3.051  -1.207  -4.239  1.00  0.00    -0.326 OA
HETATM   21  C7  UNL     1       4.285  -0.561  -4.028  1.00  0.00     0.181 C 
ENDBRANCH  15  20
BRANCH  17  22
HETATM   22  O3  UNL     1      -1.612  -1.030  -3.679  1.00  0.00    -0.326 OA
HETATM   23  C8  UNL     1      -2.307  -2.070  -3.027  1.00  0.00     0.181 C 
ENDBRANCH  17  22
ENDBRANCH   1  13
BRANCH  10  24
HETATM   24  C16 UNL     1       2.846   0.207   1.734  1.00  0.00     0.215 C 
HETATM   25  O7  UNL     1       3.152  -0.792   2.687  1.00  0.00    -0.218 OA
ENDBRANCH  10  24
BRANCH   5  26
HETATM   26  C17 UNL     1      -3.305   2.297   2.191  1.00  0.00     0.214 C 
HETATM   27  O10 UNL     1      -4.254   2.689   3.164  1.00  0.00    -0.218 OA
ENDBRANCH   5  26
TORSDOF 5
