REMARK  13 active torsions:
REMARK  status: ('A' for Active; 'I' for Inactive)
REMARK    1  A    between atoms: N1_7  and  C11_17 
REMARK    2  A    between atoms: C11_17  and  C12_18 
REMARK    3  A    between atoms: C12_18  and  C13_20 
REMARK    4  A    between atoms: C13_20  and  C14_22 
REMARK    5  A    between atoms: C14_22  and  C15_24 
REMARK    6  A    between atoms: C15_24  and  O6_25 
REMARK    7  A    between atoms: O6_25  and  P1_26 
REMARK    8  A    between atoms: P1_26  and  O9_29 
REMARK    9  A    between atoms: O9_29  and  P2_30 
REMARK   10  A    between atoms: P2_30  and  O10_31 
REMARK   11  A    between atoms: O10_31  and  C16_32 
REMARK   12  A    between atoms: C16_32  and  C17_33 
REMARK   13  A    between atoms: C20_36  and  N5_38 
ROOT
HETATM    1  O6  UNL     1       4.652  -0.473   0.814  1.00  0.00    -0.268 OA
ENDROOT
BRANCH   1   2
HETATM    2  C15 UNL     1       4.007  -1.717   0.738  1.00  0.00     0.190 C 
BRANCH   2   3
HETATM    3  C14 UNL     1       3.284  -1.789  -0.603  1.00  0.00     0.215 C 
HETATM    4  O5  UNL     1       4.273  -1.961  -1.591  1.00  0.00    -0.218 OA
BRANCH   3   5
HETATM    5  C13 UNL     1       2.270  -2.918  -0.732  1.00  0.00     0.217 C 
HETATM    6  O4  UNL     1       2.786  -4.055  -0.085  1.00  0.00    -0.218 OA
BRANCH   5   7
HETATM    7  C12 UNL     1       0.876  -2.641  -0.177  1.00  0.00     0.207 C 
HETATM    8  O3  UNL     1       0.982  -2.170   1.144  1.00  0.00    -0.218 OA
BRANCH   7   9
HETATM    9  C11 UNL     1       0.011  -1.667  -0.991  1.00  0.00     0.143 C 
BRANCH   9  10
HETATM   10  N1  UNL     1       0.140  -1.776  -2.469  1.00  0.00    -0.308 N 
HETATM   11  C5  UNL     1      -0.270  -2.966  -3.108  1.00  0.00     0.079 A 
HETATM   12  C4  UNL     1      -0.039  -3.026  -4.494  1.00  0.00     0.097 A 
HETATM   13  C6  UNL     1      -0.900  -4.072  -2.499  1.00  0.00     0.014 A 
HETATM   14  C3  UNL     1      -0.346  -4.207  -5.205  1.00  0.00     0.016 A 
HETATM   15  N2  UNL     1       0.500  -1.955  -5.205  1.00  0.00    -0.237 NA
HETATM   16  C2  UNL     1      -0.888  -5.319  -4.574  1.00  0.00    -0.024 A 
HETATM   17  C1  UNL     1      -1.195  -5.239  -3.195  1.00  0.00    -0.024 A 
HETATM   18  C26 UNL     1      -1.169  -6.574  -5.365  1.00  0.00     0.031 C 
HETATM   19  C27 UNL     1      -1.818  -6.408  -2.469  1.00  0.00     0.031 C 
HETATM   20  C8  UNL     1       0.820  -0.863  -4.591  1.00  0.00     0.159 A 
HETATM   21  C7  UNL     1       0.689  -0.697  -3.140  1.00  0.00     0.170 A 
HETATM   22  C9  UNL     1       1.342   0.269  -5.369  1.00  0.00     0.237 A 
HETATM   23  N4  UNL     1       1.096   0.433  -2.618  1.00  0.00    -0.172 NA
HETATM   24  C10 UNL     1       1.640   1.453  -3.381  1.00  0.00     0.372 A 
HETATM   25  N3  UNL     1       1.696   1.342  -4.769  1.00  0.00    -0.163 NA
HETATM   26  O1  UNL     1       2.070   2.470  -2.828  1.00  0.00    -0.242 OA
HETATM   27  O2  UNL     1       1.427   0.276  -6.728  1.00  0.00    -0.167 OA
ENDBRANCH   9  10
ENDBRANCH   7   9
ENDBRANCH   5   7
ENDBRANCH   3   5
ENDBRANCH   2   3
ENDBRANCH   1   2
BRANCH   1  28
HETATM   28  P1  UNL     1       5.218   0.056   2.240  1.00  0.00     0.418 P 
HETATM   29  O7  UNL     1       6.528   0.944   1.925  1.00  0.00    -0.624 OA
HETATM   30  O8  UNL     1       5.636  -1.102   3.085  1.00  0.00    -0.624 OA
BRANCH  28  31
HETATM   31  O9  UNL     1       4.175   0.964   3.077  1.00  0.00    -0.180 OA
BRANCH  31  32
HETATM   32  P2  UNL     1       2.668   1.138   2.537  1.00  0.00     0.418 P 
HETATM   33  O14 UNL     1       1.779  -0.144   2.946  1.00  0.00    -0.624 OA
HETATM   34  O15 UNL     1       2.571   1.299   1.058  1.00  0.00    -0.624 OA
BRANCH  32  35
HETATM   35  O10 UNL     1       1.983   2.440   3.236  1.00  0.00    -0.268 OA
BRANCH  35  36
HETATM   36  C16 UNL     1       0.836   2.984   2.633  1.00  0.00     0.187 C 
BRANCH  36  37
HETATM   37  C17 UNL     1       0.224   4.081   3.498  1.00  0.00     0.181 C 
HETATM   38  C18 UNL     1      -0.123   3.642   4.910  1.00  0.00     0.216 C 
HETATM   39  C19 UNL     1      -1.516   3.088   4.731  1.00  0.00     0.234 C 
HETATM   40  O13 UNL     1      -0.210   4.766   5.755  1.00  0.00    -0.218 OA
HETATM   41  C20 UNL     1      -2.070   4.007   3.656  1.00  0.00     0.237 C 
HETATM   42  O12 UNL     1      -2.227   3.188   5.938  1.00  0.00    -0.216 OA
HETATM   43  O11 UNL     1      -0.978   4.482   2.892  1.00  0.00    -0.331 OA
BRANCH  41  44
HETATM   44  N5  UNL     1      -3.135   3.418   2.833  1.00  0.00    -0.288 N 
HETATM   45  C21 UNL     1      -4.478   3.915   2.525  1.00  0.00     0.221 C 
HETATM   46  C22 UNL     1      -4.941   2.936   1.423  1.00  0.00     0.208 C 
HETATM   47  N8  UNL     1      -4.459   5.349   2.204  1.00  0.00    -0.227 NA
HETATM   48  N6  UNL     1      -3.947   1.833   1.430  1.00  0.00    -0.242 NA
HETATM   49  C24 UNL     1      -4.980   3.499   0.019  1.00  0.00     0.189 C 
HETATM   50  C23 UNL     1      -2.971   2.232   2.172  1.00  0.00     0.173 C 
HETATM   51  N7  UNL     1      -4.818   4.788  -0.141  1.00  0.00    -0.205 NA
HETATM   52  N9  UNL     1      -5.196   2.691  -1.068  1.00  0.00    -0.130 N 
HETATM   53  C25 UNL     1      -4.606   5.625   0.960  1.00  0.00     0.197 C 
ENDBRANCH  41  44
ENDBRANCH  36  37
ENDBRANCH  35  36
ENDBRANCH  32  35
ENDBRANCH  31  32
ENDBRANCH  28  31
ENDBRANCH   1  28
TORSDOF 13
