REMARK  7 active torsions:
REMARK  status: ('A' for Active; 'I' for Inactive)
REMARK    1  A    between atoms: N1_7  and  C11_17 
REMARK    2  A    between atoms: C11_17  and  C12_18 
REMARK    3  A    between atoms: C12_18  and  C13_20 
REMARK    4  A    between atoms: C13_20  and  C14_22 
REMARK    5  A    between atoms: C14_22  and  C15_24 
REMARK    6  A    between atoms: C15_24  and  O6_25 
REMARK    7  A    between atoms: O6_25  and  P1_26 
ROOT
HETATM    1  C1  UNL     1      -2.188  -1.564   1.527  1.00  0.00    -0.024 A 
HETATM    2  C2  UNL     1      -1.798  -2.884   1.208  1.00  0.00    -0.024 A 
HETATM    3  C3  UNL     1      -0.458  -3.142   0.951  1.00  0.00     0.016 A 
HETATM    4  C4  UNL     1       0.505  -2.109   0.941  1.00  0.00     0.097 A 
HETATM    5  C5  UNL     1       0.125  -0.787   1.240  1.00  0.00     0.079 A 
HETATM    6  C6  UNL     1      -1.224  -0.565   1.587  1.00  0.00     0.014 A 
HETATM    7  N1  UNL     1       1.153   0.178   1.168  1.00  0.00    -0.308 N 
HETATM    8  C7  UNL     1       2.455  -0.123   0.808  1.00  0.00     0.170 A 
HETATM    9  C8  UNL     1       2.723  -1.537   0.531  1.00  0.00     0.159 A 
HETATM   10  N2  UNL     1       1.813  -2.451   0.605  1.00  0.00    -0.237 NA
HETATM   11  C9  UNL     1       4.093  -1.916   0.160  1.00  0.00     0.237 A 
HETATM   12  N3  UNL     1       4.998  -1.017   0.074  1.00  0.00    -0.163 NA
HETATM   13  C10 UNL     1       4.714   0.330   0.294  1.00  0.00     0.372 A 
HETATM   14  N4  UNL     1       3.448   0.721   0.697  1.00  0.00    -0.172 NA
HETATM   15  O1  UNL     1       5.599   1.174   0.125  1.00  0.00    -0.242 OA
HETATM   16  O2  UNL     1       4.486  -3.199  -0.073  1.00  0.00    -0.167 OA
HETATM   17  C16 UNL     1      -2.809  -4.003   1.132  1.00  0.00     0.031 C 
HETATM   18  C17 UNL     1      -3.624  -1.224   1.855  1.00  0.00     0.031 C 
ENDROOT
BRANCH   7  19
HETATM   19  C11 UNL     1       0.898   1.607   1.500  1.00  0.00     0.143 C 
BRANCH  19  20
HETATM   20  C12 UNL     1       0.993   2.597   0.326  1.00  0.00     0.207 C 
HETATM   21  O3  UNL     1       1.996   3.544   0.640  1.00  0.00    -0.218 OA
BRANCH  20  22
HETATM   22  C13 UNL     1      -0.269   3.383  -0.039  1.00  0.00     0.217 C 
HETATM   23  O4  UNL     1      -0.816   3.985   1.115  1.00  0.00    -0.218 OA
BRANCH  22  24
HETATM   24  C14 UNL     1      -1.414   2.695  -0.775  1.00  0.00     0.215 C 
HETATM   25  O5  UNL     1      -2.188   1.964   0.145  1.00  0.00    -0.218 OA
BRANCH  24  26
HETATM   26  C15 UNL     1      -1.040   1.778  -1.929  1.00  0.00     0.191 C 
BRANCH  26  27
HETATM   27  O6  UNL     1      -0.578   0.575  -1.381  1.00  0.00    -0.261 OA
BRANCH  27  28
HETATM   28  P1  UNL     1      -0.148  -0.667  -2.314  1.00  0.00     0.423 P 
HETATM   29  O7  UNL     1       1.442  -0.879  -2.242  1.00  0.00    -0.617 OA
HETATM   30  O8  UNL     1      -0.926  -1.956  -1.753  1.00  0.00    -0.617 OA
HETATM   31  O9  UNL     1      -0.495  -0.450  -3.747  1.00  0.00    -0.617 OA
ENDBRANCH  27  28
ENDBRANCH  26  27
ENDBRANCH  24  26
ENDBRANCH  22  24
ENDBRANCH  20  22
ENDBRANCH  19  20
ENDBRANCH   7  19
TORSDOF 7
