REMARK  1 active torsions:
REMARK  status: ('A' for Active; 'I' for Inactive)
REMARK    1  A    between atoms: C9_9  and  C10_11 
ROOT
HETATM    1  C1  UNL     1      -3.428   3.057   0.014  1.00  0.00     0.000 A 
HETATM    2  C2  UNL     1      -3.916   1.751  -0.016  1.00  0.00     0.002 A 
HETATM    3  C3  UNL     1      -3.027   0.673  -0.022  1.00  0.00     0.025 A 
HETATM    4  C4  UNL     1      -1.638   0.850   0.001  1.00  0.00     0.103 A 
HETATM    5  C5  UNL     1      -1.175   2.175   0.030  1.00  0.00     0.062 A 
HETATM    6  C6  UNL     1      -2.049   3.269   0.037  1.00  0.00     0.005 A 
HETATM    7  C7  UNL     1       0.286   2.400   0.053  1.00  0.00     0.200 A 
HETATM    8  C8  UNL     1       1.103   1.167   0.037  1.00  0.00     0.067 A 
HETATM    9  C9  UNL     1       0.542  -0.068   0.009  1.00  0.00     0.103 A 
HETATM   10  O1  UNL     1      -0.817  -0.242  -0.007  1.00  0.00    -0.307 OA
HETATM   11  O2  UNL     1       0.801   3.515   0.081  1.00  0.00    -0.286 OA
ENDROOT
BRANCH   9  12
HETATM   12  C10 UNL     1       1.405  -1.274  -0.006  1.00  0.00     0.023 A 
HETATM   13  C11 UNL     1       0.787  -2.540  -0.039  1.00  0.00     0.002 A 
HETATM   14  C12 UNL     1       1.527  -3.722  -0.054  1.00  0.00     0.000 A 
HETATM   15  C13 UNL     1       2.922  -3.677  -0.036  1.00  0.00     0.000 A 
HETATM   16  C14 UNL     1       3.559  -2.438  -0.003  1.00  0.00     0.000 A 
HETATM   17  C15 UNL     1       2.812  -1.258   0.011  1.00  0.00     0.002 A 
ENDBRANCH   9  12
TORSDOF 1
