REMARK  9 active torsions:
REMARK  status: ('A' for Active; 'I' for Inactive)
REMARK    1  A    between atoms: C9_9  and  C11_12 
REMARK    2  A    between atoms: C12_13  and  C13_14 
REMARK    3  A    between atoms: C14_15  and  C15_16 
REMARK    4  A    between atoms: C16_17  and  C17_18 
REMARK    5  A    between atoms: C18_19  and  C19_20 
REMARK    6  A    between atoms: C20_21  and  C22_23 
REMARK    7  A    between atoms: C23_24  and  C24_25 
REMARK    8  A    between atoms: C25_26  and  C27_28 
REMARK    9  A    between atoms: C28_29  and  C29_30 
ROOT
HETATM    1  C17 UNL     1       1.842   0.955  -0.098  1.00  0.00    -0.000 C 
HETATM    2  C18 UNL     1       0.736   0.173  -0.175  1.00  0.00    -0.000 C 
ENDROOT
BRANCH   1   3
HETATM    3  C16 UNL     1       1.831   2.333  -0.592  1.00  0.00    -0.004 C 
HETATM    4  C15 UNL     1       2.855   3.223  -0.483  1.00  0.00    -0.022 C 
HETATM    5  C38 UNL     1       4.171   2.852   0.157  1.00  0.00     0.031 C 
BRANCH   4   6
HETATM    6  C14 UNL     1       2.622   4.579  -1.011  1.00  0.00    -0.004 C 
HETATM    7  C13 UNL     1       3.269   5.688  -0.577  1.00  0.00    -0.001 C 
BRANCH   7   8
HETATM    8  C12 UNL     1       2.856   7.019  -1.038  1.00  0.00    -0.004 C 
HETATM    9  C11 UNL     1       3.154   8.172  -0.402  1.00  0.00    -0.024 C 
HETATM   10  C39 UNL     1       4.064   8.214   0.801  1.00  0.00     0.031 C 
BRANCH   9  11
HETATM   11  C9  UNL     1       2.566   9.444  -0.903  1.00  0.00    -0.002 C 
HETATM   12  C5  UNL     1       1.284   9.793  -1.103  1.00  0.00    -0.022 C 
HETATM   13  C4  UNL     1       1.282  11.200  -1.673  1.00  0.00     0.111 C 
HETATM   14  C6  UNL     1      -0.015   9.049  -0.826  1.00  0.00     0.019 C 
HETATM   15  C3  UNL     1       0.205  12.079  -1.030  1.00  0.00     0.064 C 
HETATM   16  O1  UNL     1       2.538  11.731  -1.308  1.00  0.00    -0.350 OA
HETATM   17  C40 UNL     1       1.219  11.219  -3.207  1.00  0.00     0.034 C 
HETATM   18  C2  UNL     1      -1.157  11.405  -0.906  1.00  0.00     0.155 C 
HETATM   19  C1  UNL     1      -1.040  10.045  -0.223  1.00  0.00     0.037 C 
HETATM   20  O3  UNL     1      -1.785  11.292  -2.158  1.00  0.00    -0.223 OA
HETATM   21  C10 UNL     1       3.429  10.637  -1.206  1.00  0.00     0.168 C 
HETATM   22  C7  UNL     1       0.121   7.930   0.236  1.00  0.00     0.004 C 
HETATM   23  C8  UNL     1      -0.569   8.394  -2.108  1.00  0.00     0.004 C 
ENDBRANCH   9  11
ENDBRANCH   7   8
ENDBRANCH   4   6
ENDBRANCH   1   3
BRANCH   2  24
HETATM   24  C19 UNL     1       0.720  -1.218   0.278  1.00  0.00    -0.004 C 
HETATM   25  C20 UNL     1      -0.377  -2.026   0.254  1.00  0.00    -0.022 C 
HETATM   26  C21 UNL     1      -1.718  -1.478  -0.181  1.00  0.00     0.031 C 
BRANCH  25  27
HETATM   27  C22 UNL     1      -0.191  -3.433   0.650  1.00  0.00    -0.004 C 
HETATM   28  C23 UNL     1      -1.134  -4.409   0.582  1.00  0.00    -0.001 C 
BRANCH  28  29
HETATM   29  C24 UNL     1      -0.831  -5.801   0.920  1.00  0.00    -0.004 C 
HETATM   30  C25 UNL     1      -1.689  -6.856   0.867  1.00  0.00    -0.022 C 
HETATM   31  C26 UNL     1      -3.142  -6.735   0.460  1.00  0.00     0.031 C 
BRANCH  30  32
HETATM   32  C27 UNL     1      -1.144  -8.189   1.185  1.00  0.00    -0.009 C 
HETATM   33  C28 UNL     1      -1.878  -9.319   1.237  1.00  0.00    -0.023 C 
BRANCH  33  34
HETATM   34  C29 UNL     1      -1.299 -10.691   1.511  1.00  0.00     0.040 C 
HETATM   35  C30 UNL     1      -1.372 -11.623   0.277  1.00  0.00     0.010 C 
HETATM   36  C31 UNL     1      -2.830 -12.080   0.058  1.00  0.00     0.038 C 
HETATM   37  C36 UNL     1      -0.878 -10.891  -0.992  1.00  0.00     0.001 C 
HETATM   38  C37 UNL     1      -0.444 -12.839   0.496  1.00  0.00     0.001 C 
HETATM   39  C32 UNL     1      -3.448 -12.760   1.277  1.00  0.00     0.174 C 
HETATM   40  C33 UNL     1      -2.993 -12.180   2.587  1.00  0.00    -0.002 C 
HETATM   41  O2  UNL     1      -3.161 -14.147   1.259  1.00  0.00    -0.219 OA
HETATM   42  C34 UNL     1      -2.019 -11.264   2.711  1.00  0.00    -0.042 C 
HETATM   43  C35 UNL     1      -1.620 -10.706   4.056  1.00  0.00     0.026 C 
ENDBRANCH  33  34
ENDBRANCH  30  32
ENDBRANCH  28  29
ENDBRANCH  25  27
ENDBRANCH   2  24
TORSDOF 9
