REMARK  2 active torsions:
REMARK  status: ('A' for Active; 'I' for Inactive)
REMARK    1  A    between atoms: C9_10  and  C19_21 
REMARK    2  A    between atoms: C19_21  and  O1_22 
ROOT
HETATM    1  C1  UNL     1      -4.005   1.087   0.734  1.00  0.00     0.000 A 
HETATM    2  C2  UNL     1      -4.005  -0.113   1.462  1.00  0.00     0.001 A 
HETATM    3  C3  UNL     1      -2.811  -0.763   1.793  1.00  0.00     0.012 A 
HETATM    4  C4  UNL     1      -1.610  -0.155   1.425  1.00  0.00     0.043 A 
HETATM    5  C5  UNL     1      -1.629   1.001   0.651  1.00  0.00     0.047 A 
HETATM    6  C6  UNL     1      -2.808   1.653   0.286  1.00  0.00     0.004 A 
HETATM    7  C7  UNL     1      -0.253   1.320   0.235  1.00  0.00     0.189 C 
HETATM    8  C8  UNL     1       0.615   0.583   1.293  1.00  0.00     0.140 C 
HETATM    9  N1  UNL     1      -0.261  -0.578   1.567  1.00  0.00    -0.224 NA
HETATM   10  C9  UNL     1       0.035  -1.766   0.696  1.00  0.00     0.085 C 
HETATM   11  C10 UNL     1       1.312  -1.594  -0.208  1.00  0.00     0.060 C 
HETATM   12  C11 UNL     1       2.445  -1.341   0.776  1.00  0.00     0.045 C 
HETATM   13  C12 UNL     1       2.090   0.062   1.272  1.00  0.00     0.241 C 
HETATM   14  N2  UNL     1       2.739   1.073   0.504  1.00  0.00     0.141 N 
HETATM   15  C13 UNL     1       2.208   2.279   1.157  1.00  0.00     0.253 C 
HETATM   16  C14 UNL     1       0.992   1.867   2.058  1.00  0.00     0.060 C 
HETATM   17  C15 UNL     1       2.444   0.783  -0.907  1.00  0.00     0.273 C 
HETATM   18  C16 UNL     1       1.504  -0.428  -1.202  1.00  0.00    -0.011 C 
HETATM   19  C17 UNL     1       1.023  -0.581  -2.451  1.00  0.00    -0.032 C 
HETATM   20  C18 UNL     1       1.169   0.409  -3.575  1.00  0.00     0.030 C 
HETATM   21  O3  UNL     1       0.013   2.104  -0.663  1.00  0.00    -0.290 OA
ENDROOT
BRANCH  10  22
HETATM   22  C19 UNL     1      -1.061  -2.750   0.234  1.00  0.00     0.303 C 
HETATM   23  O2  UNL     1      -1.180  -3.820   0.799  1.00  0.00    -0.258 OA
BRANCH  22  24
HETATM   24  O1  UNL     1      -1.845  -2.480  -0.847  1.00  0.00    -0.295 OA
HETATM   25  C20 UNL     1      -1.946  -1.242  -1.498  1.00  0.00     0.185 C 
ENDBRANCH  22  24
ENDBRANCH  10  22
TORSDOF 2
