REMARK  10 active torsions:
REMARK  status: ('A' for Active; 'I' for Inactive)
REMARK    1  A    between atoms: N3_8  and  C20_32 
REMARK    2  A    between atoms: C6_10  and  C7_12 
REMARK    3  A    between atoms: C7_12  and  N5_13 
REMARK    4  A    between atoms: N5_13  and  C8_14 
REMARK    5  A    between atoms: C11_17  and  C12_18 
REMARK    6  A    between atoms: N6_20  and  C13_21 
REMARK    7  A    between atoms: C13_21  and  C14_22 
REMARK    8  A    between atoms: C13_21  and  C15_25 
REMARK    9  A    between atoms: C15_25  and  C16_26 
REMARK   10  A    between atoms: C16_26  and  C17_27 
ROOT
HETATM    1  C8  UNL     1       1.068   0.430  -0.154  1.00  0.00     0.058 C 
HETATM    2  C9  UNL     1       1.339   0.654   1.311  1.00  0.00     0.071 C 
HETATM    3  C10 UNL     1       2.567   0.011   1.875  1.00  0.00    -0.016 C 
HETATM    4  C11 UNL     1       3.166  -0.990   1.182  1.00  0.00     0.040 C 
HETATM    5  C18 UNL     1       2.683  -1.430  -0.140  1.00  0.00     0.004 C 
HETATM    6  C19 UNL     1       1.681  -0.778  -0.778  1.00  0.00     0.015 C 
ENDROOT
BRANCH   1   7
HETATM    7  N5  UNL     1      -0.232   1.013  -0.775  1.00  0.00    -0.273 NA
BRANCH   7   8
HETATM    8  C7  UNL     1      -0.246   1.555  -2.147  1.00  0.00     0.151 C 
BRANCH   8   9
HETATM    9  C6  UNL     1      -1.437   2.503  -2.356  1.00  0.00     0.152 C 
HETATM   10  C5  UNL     1      -1.448   3.136  -3.747  1.00  0.00     0.136 C 
HETATM   11  N3  UNL     1      -2.669   3.908  -4.050  1.00  0.00    -0.284 N 
HETATM   12  C3  UNL     1      -3.863   3.453  -3.567  1.00  0.00     0.144 A 
HETATM   13  C2  UNL     1      -3.872   2.289  -2.735  1.00  0.00     0.196 A 
HETATM   14  C4  UNL     1      -5.153   3.931  -3.851  1.00  0.00     0.249 A 
HETATM   15  N2  UNL     1      -5.011   1.646  -2.377  1.00  0.00    -0.037 NA
HETATM   16  N4  UNL     1      -2.707   1.792  -2.206  1.00  0.00    -0.249 NA
HETATM   17  C1  UNL     1      -6.217   2.151  -2.733  1.00  0.00     0.772 A 
HETATM   18  N1  UNL     1      -6.278   3.305  -3.436  1.00  0.00    -0.029 NA
HETATM   19  N7  UNL     1      -7.371   1.512  -2.357  1.00  0.00     0.062 N 
HETATM   20  O1  UNL     1      -5.509   5.090  -4.469  1.00  0.00    -0.167 OA
BRANCH  11  21
HETATM   21  C20 UNL     1      -2.479   4.961  -4.917  1.00  0.00     0.318 C 
HETATM   22  O7  UNL     1      -3.343   5.680  -5.346  1.00  0.00    -0.262 OA
ENDBRANCH  11  21
ENDBRANCH   8   9
ENDBRANCH   7   8
ENDBRANCH   1   7
BRANCH   4  23
HETATM   23  C12 UNL     1       4.389  -1.680   1.758  1.00  0.00     0.209 C 
HETATM   24  O2  UNL     1       5.601  -1.384   1.355  1.00  0.00    -0.170 OA
HETATM   25  N6  UNL     1       4.204  -2.666   2.683  1.00  0.00    -0.237 NA
BRANCH  25  26
HETATM   26  C13 UNL     1       2.896  -3.067   3.219  1.00  0.00     0.193 C 
BRANCH  26  27
HETATM   27  C14 UNL     1       2.125  -3.892   2.196  1.00  0.00     0.209 C 
HETATM   28  O3  UNL     1       0.829  -3.542   2.136  1.00  0.00    -0.646 OA
HETATM   29  O4  UNL     1       2.592  -4.759   1.497  1.00  0.00    -0.646 OA
ENDBRANCH  26  27
BRANCH  26  30
HETATM   30  C15 UNL     1       3.091  -3.878   4.514  1.00  0.00     0.047 C 
BRANCH  30  31
HETATM   31  C16 UNL     1       3.842  -3.089   5.599  1.00  0.00     0.100 C 
BRANCH  31  32
HETATM   32  C17 UNL     1       3.955  -3.871   6.895  1.00  0.00     0.185 C 
HETATM   33  O5  UNL     1       3.294  -3.661   7.888  1.00  0.00    -0.647 OA
HETATM   34  O6  UNL     1       4.896  -4.833   6.795  1.00  0.00    -0.647 OA
ENDBRANCH  31  32
ENDBRANCH  30  31
ENDBRANCH  26  30
ENDBRANCH  25  26
ENDBRANCH   4  23
TORSDOF 10
