REMARK  5 active torsions:
REMARK  status: ('A' for Active; 'I' for Inactive)
REMARK    1  A    between atoms: C3_3  and  O3_15 
REMARK    2  A    between atoms: C7_7  and  O2_13 
REMARK    3  A    between atoms: O3_15  and  C12_16 
REMARK    4  A    between atoms: C12_16  and  C13_17 
REMARK    5  A    between atoms: C13_17  and  C14_19 
ROOT
HETATM    1  C1  UNL     1      -2.481   2.418  -0.148  1.00  0.00     0.002 C 
HETATM    2  C2  UNL     1      -2.130   1.075  -0.058  1.00  0.00     0.026 C 
HETATM    3  C3  UNL     1      -0.801   0.633   0.004  1.00  0.00     0.110 C 
HETATM    4  C4  UNL     1       0.232   1.598   0.161  1.00  0.00     0.087 C 
HETATM    5  C5  UNL     1      -0.123   2.961   0.034  1.00  0.00     0.040 C 
HETATM    6  C6  UNL     1      -1.463   3.358  -0.133  1.00  0.00     0.004 C 
HETATM    7  C7  UNL     1       0.867   4.048   0.102  1.00  0.00     0.100 C 
HETATM    8  C8  UNL     1       2.158   3.660   0.182  1.00  0.00     0.085 C 
HETATM    9  C9  UNL     1       2.535   2.250   0.364  1.00  0.00     0.263 C 
HETATM   10  N1  UNL     1       1.546   1.295   0.372  1.00  0.00    -0.292 N 
HETATM   11  C10 UNL     1       2.000  -0.083   0.602  1.00  0.00     0.134 C 
HETATM   12  O1  UNL     1       3.725   1.989   0.495  1.00  0.00    -0.267 OA
ENDROOT
BRANCH   3  13
HETATM   13  O3  UNL     1      -0.636  -0.726   0.092  1.00  0.00    -0.327 OA
BRANCH  13  14
HETATM   14  C12 UNL     1      -0.782  -1.405  -1.131  1.00  0.00     0.184 C 
BRANCH  14  15
HETATM   15  C13 UNL     1      -1.101  -2.881  -0.920  1.00  0.00     0.210 C 
HETATM   16  O4  UNL     1      -2.370  -2.992  -0.317  1.00  0.00    -0.218 OA
BRANCH  15  17
HETATM   17  C14 UNL     1      -0.076  -3.729  -0.162  1.00  0.00     0.157 C 
HETATM   18  C15 UNL     1      -0.310  -5.220  -0.439  1.00  0.00     0.036 C 
HETATM   19  O5  UNL     1       1.200  -3.414  -0.655  1.00  0.00    -0.223 OA
HETATM   20  C16 UNL     1      -0.066  -3.505   1.352  1.00  0.00     0.036 C 
ENDBRANCH  15  17
ENDBRANCH  14  15
ENDBRANCH  13  14
ENDBRANCH   3  13
BRANCH   7  21
HETATM   21  O2  UNL     1       0.560   5.357  -0.172  1.00  0.00    -0.328 OA
HETATM   22  C11 UNL     1       0.403   6.151   0.982  1.00  0.00     0.181 C 
ENDBRANCH   7  21
TORSDOF 5
