REMARK  2 active torsions:
REMARK  status: ('A' for Active; 'I' for Inactive)
REMARK    1  A    between atoms: C2_2  and  C12_13 
REMARK    2  A    between atoms: C7_8  and  C9_10 
ROOT
HETATM    1  C1  UNL     1       2.916  -0.873  -0.554  1.00  0.00     0.008 A 
HETATM    2  C2  UNL     1       2.904   0.437  -0.039  1.00  0.00     0.064 A 
HETATM    3  C3  UNL     1       1.703   1.019   0.404  1.00  0.00     0.004 A 
HETATM    4  C4  UNL     1       0.537   0.268   0.319  1.00  0.00     0.003 A 
HETATM    5  C5  UNL     1       0.557  -1.026  -0.195  1.00  0.00     0.090 A 
HETATM    6  C6  UNL     1       1.738  -1.619  -0.640  1.00  0.00     0.024 A 
HETATM    7  O1  UNL     1      -0.703  -1.578  -0.190  1.00  0.00    -0.329 OA
HETATM    8  C7  UNL     1      -1.597  -0.689   0.486  1.00  0.00     0.144 C 
HETATM    9  C8  UNL     1      -0.863   0.660   0.691  1.00  0.00     0.063 C 
ENDROOT
BRANCH   2  10
HETATM   10  C12 UNL     1       4.162   1.221   0.032  1.00  0.00     0.211 C 
HETATM   11  O2  UNL     1       4.205   2.488   0.496  1.00  0.00    -0.644 OA
HETATM   12  O3  UNL     1       5.226   0.737  -0.338  1.00  0.00    -0.644 OA
ENDBRANCH   2  10
BRANCH   8  13
HETATM   13  C9  UNL     1      -2.910  -0.528  -0.240  1.00  0.00    -0.017 C 
HETATM   14  C10 UNL     1      -4.154  -0.484   0.611  1.00  0.00     0.029 C 
HETATM   15  C11 UNL     1      -2.954  -0.393  -1.575  1.00  0.00    -0.007 C 
ENDBRANCH   8  13
TORSDOF 2
