REMARK  0 active torsions:
REMARK  status: ('A' for Active; 'I' for Inactive)
ROOT
HETATM    1  C1  UNL     1      -0.438  -0.032  -0.001  1.00  0.00     0.390 C 
HETATM    2  O1  UNL     1       0.836  -0.462  -0.013  1.00  0.00    -0.139 OA
HETATM    3  O2  UNL     1      -0.704   1.145   0.018  1.00  0.00    -0.251 OA
ENDROOT
TORSDOF 0
