REMARK  1 active torsions:
REMARK  status: ('A' for Active; 'I' for Inactive)
REMARK    1  A    between atoms: C3_3  and  C6_7 
ROOT
HETATM    1  C1  UNL     1       0.706   0.616  -0.060  1.00  0.00     0.022 A 
HETATM    2  C2  UNL     1       0.961  -0.764   0.022  1.00  0.00     0.102 A 
HETATM    3  C3  UNL     1       2.283  -1.251   0.029  1.00  0.00     0.141 A 
HETATM    4  N1  UNL     1       3.298  -0.386  -0.041  1.00  0.00    -0.239 NA
HETATM    5  C4  UNL     1       3.047   0.938  -0.118  1.00  0.00     0.099 A 
HETATM    6  C5  UNL     1       1.780   1.514  -0.133  1.00  0.00     0.022 A 
HETATM    7  N2  UNL     1      -0.273  -1.419   0.079  1.00  0.00    -0.244 NA
HETATM    8  C7  UNL     1      -1.296  -0.478   0.033  1.00  0.00     0.081 A 
HETATM    9  C8  UNL     1      -0.721   0.798  -0.053  1.00  0.00     0.019 A 
HETATM   10  C9  UNL     1      -1.523   1.955  -0.118  1.00  0.00     0.002 A 
HETATM   11  C10 UNL     1      -2.898   1.786  -0.092  1.00  0.00     0.000 A 
HETATM   12  C11 UNL     1      -3.480   0.498  -0.007  1.00  0.00     0.002 A 
HETATM   13  C12 UNL     1      -2.696  -0.644   0.058  1.00  0.00     0.019 A 
ENDROOT
BRANCH   3  14
HETATM   14  C6  UNL     1       2.527  -2.716   0.115  1.00  0.00     0.255 C 
HETATM   15  O1  UNL     1       3.642  -3.216   0.121  1.00  0.00    -0.281 OA
ENDBRANCH   3  14
TORSDOF 1
