REMARK  1 active torsions:
REMARK  status: ('A' for Active; 'I' for Inactive)
REMARK    1  A    between atoms: N2_12  and  C12_14 
ROOT
HETATM    1  C1  UNL     1      -3.134   0.300  -1.403  1.00  0.00     0.006 A 
HETATM    2  C2  UNL     1      -3.213  -1.034  -1.220  1.00  0.00     0.061 A 
HETATM    3  C3  UNL     1      -2.002  -1.808  -0.874  1.00  0.00     0.261 A 
HETATM    4  N1  UNL     1      -0.821  -1.118  -0.726  1.00  0.00    -0.299 N 
HETATM    5  C4  UNL     1      -0.739   0.222  -0.933  1.00  0.00     0.041 A 
HETATM    6  C5  UNL     1      -1.837   0.939  -1.261  1.00  0.00     0.013 A 
HETATM    7  C6  UNL     1       0.593   0.946  -0.812  1.00  0.00     0.061 C 
HETATM    8  C7  UNL     1       1.799   0.011  -0.844  1.00  0.00     0.012 C 
HETATM    9  C8  UNL     1       1.487  -1.043   0.219  1.00  0.00     0.045 C 
HETATM   10  C9  UNL     1       0.360  -1.911  -0.361  1.00  0.00     0.111 C 
HETATM   11  C10 UNL     1       1.050  -0.422   1.565  1.00  0.00     0.106 C 
HETATM   12  N2  UNL     1       1.189   1.029   1.628  1.00  0.00    -0.312 N 
HETATM   13  C11 UNL     1       0.693   1.782   0.479  1.00  0.00     0.110 C 
HETATM   14  O2  UNL     1      -2.081  -3.021  -0.726  1.00  0.00    -0.267 OA
ENDROOT
BRANCH  12  15
HETATM   15  C12 UNL     1       1.648   1.669   2.749  1.00  0.00     0.313 C 
HETATM   16  O1  UNL     1       1.708   2.872   2.827  1.00  0.00    -0.262 OA
ENDBRANCH  12  15
TORSDOF 1
