REMARK  2 active torsions:
REMARK  status: ('A' for Active; 'I' for Inactive)
REMARK    1  A    between atoms: C7_7  and  C12_14 
REMARK    2  A    between atoms: C13_15  and  C14_16 
ROOT
HETATM    1  C1  UNL     1       0.725   2.762   0.430  1.00  0.00     0.001 C 
HETATM    2  C2  UNL     1       0.516   2.976  -1.073  1.00  0.00     0.004 C 
HETATM    3  C3  UNL     1      -0.799   2.360  -1.607  1.00  0.00     0.018 C 
HETATM    4  C4  UNL     1      -0.893   0.871  -1.156  1.00  0.00    -0.004 C 
HETATM    5  C5  UNL     1      -0.556   0.534   0.320  1.00  0.00     0.025 C 
HETATM    6  C6  UNL     1       0.734   1.265   0.757  1.00  0.00     0.004 C 
HETATM    7  C7  UNL     1      -0.296  -0.999   0.391  1.00  0.00     0.046 C 
HETATM    8  C8  UNL     1      -1.410  -1.825  -0.223  1.00  0.00    -0.011 C 
HETATM    9  C9  UNL     1      -2.267  -1.319  -1.135  1.00  0.00     0.161 C 
HETATM   10  C10 UNL     1      -2.134   0.095  -1.586  1.00  0.00     0.212 C 
HETATM   11  O1  UNL     1      -2.980   0.563  -2.337  1.00  0.00    -0.285 OA
HETATM   12  O2  UNL     1      -3.259  -2.050  -1.712  1.00  0.00    -0.188 OA
HETATM   13  C11 UNL     1      -1.451  -3.280   0.193  1.00  0.00     0.029 C 
HETATM   14  C18 UNL     1      -1.715   0.903   1.274  1.00  0.00     0.005 C 
HETATM   15  C19 UNL     1      -0.724   2.442  -3.156  1.00  0.00     0.004 C 
HETATM   16  C20 UNL     1      -1.987   3.253  -1.181  1.00  0.00     0.004 C 
ENDROOT
BRANCH   7  17
HETATM   17  C12 UNL     1       0.045  -1.472   1.786  1.00  0.00    -0.022 C 
HETATM   18  C13 UNL     1       1.201  -1.963   2.285  1.00  0.00    -0.006 C 
BRANCH  18  19
HETATM   19  C14 UNL     1       2.510  -2.225   1.687  1.00  0.00     0.013 A 
HETATM   20  C15 UNL     1       3.638  -2.797   2.529  1.00  0.00     0.179 A 
HETATM   21  O3  UNL     1       4.769  -2.964   1.681  1.00  0.00    -0.293 OA
HETATM   22  C16 UNL     1       4.369  -2.530   0.455  1.00  0.00     0.296 A 
HETATM   23  C17 UNL     1       2.972  -2.064   0.428  1.00  0.00     0.067 A 
HETATM   24  O4  UNL     1       5.096  -2.530  -0.534  1.00  0.00    -0.259 OA
ENDBRANCH  18  19
ENDBRANCH   7  17
TORSDOF 2
