REMARK  4 active torsions:
REMARK  status: ('A' for Active; 'I' for Inactive)
REMARK    1  A    between atoms: C2_2  and  O2_12 
REMARK    2  A    between atoms: C5_5  and  C8_9 
REMARK    3  A    between atoms: C6_6  and  O1_7 
REMARK    4  A    between atoms: C8_9  and  C9_10 
ROOT
HETATM    1  C1  UNL     1      -0.051   1.508  -0.207  1.00  0.00     0.048 A 
HETATM    2  C2  UNL     1       1.354   1.562  -0.207  1.00  0.00     0.096 A 
HETATM    3  C3  UNL     1       2.098   0.369  -0.207  1.00  0.00     0.024 A 
HETATM    4  C4  UNL     1       1.440  -0.871  -0.207  1.00  0.00     0.000 A 
HETATM    5  C5  UNL     1       0.035  -0.924  -0.207  1.00  0.00     0.005 A 
HETATM    6  C6  UNL     1      -0.715   0.268  -0.207  1.00  0.00     0.092 A 
ENDROOT
BRANCH   5   7
HETATM    7  C8  UNL     1      -0.652  -2.244  -0.207  1.00  0.00     0.054 C 
BRANCH   7   8
HETATM    8  C9  UNL     1      -1.260  -2.567   1.133  1.00  0.00    -0.021 C 
HETATM    9  C10 UNL     1      -2.213  -3.512   1.191  1.00  0.00    -0.005 C 
ENDBRANCH   7   8
ENDBRANCH   5   7
BRANCH   6  10
HETATM   10  O1  UNL     1      -2.033   0.230  -0.207  1.00  0.00    -0.328 OA
HETATM   11  C7  UNL     1      -2.734   1.445  -0.424  1.00  0.00     0.181 C 
ENDBRANCH   6  10
BRANCH   2  12
HETATM   12  O2  UNL     1       1.971   2.727  -0.207  1.00  0.00    -0.328 OA
HETATM   13  C11 UNL     1       3.391   2.728  -0.182  1.00  0.00     0.181 C 
ENDBRANCH   2  12
TORSDOF 4
