REMARK  8 active torsions:
REMARK  status: ('A' for Active; 'I' for Inactive)
REMARK    1  A    between atoms: C7_8  and  C29_37 
REMARK    2  A    between atoms: C8_9  and  N3_23 
REMARK    3  A    between atoms: C10_12  and  C14_18 
REMARK    4  A    between atoms: C14_18  and  C15_19 
REMARK       I    between atoms: N3_23  and  C18_24 
REMARK    5  A    between atoms: C18_24  and  C19_26 
REMARK    6  A    between atoms: C19_26  and  C20_27 
REMARK    7  A    between atoms: C19_26  and  N4_34 
REMARK    8  A    between atoms: C20_27  and  C21_28 
ROOT
HETATM    1  C1  UNL     1       1.922  -4.761   1.694  1.00  0.00    -0.020 C 
HETATM    2  C2  UNL     1       0.771  -5.517   1.161  1.00  0.00    -0.003 C 
HETATM    3  C3  UNL     1      -0.469  -4.975   1.196  1.00  0.00     0.020 C 
HETATM    4  C4  UNL     1      -0.613  -3.577   1.715  1.00  0.00     0.076 C 
HETATM    5  C5  UNL     1       0.321  -3.381   2.885  1.00  0.00     0.077 C 
HETATM    6  C6  UNL     1       1.729  -3.758   2.585  1.00  0.00    -0.023 C 
HETATM    7  O1  UNL     1      -1.808  -2.927   1.666  1.00  0.00    -0.335 OA
HETATM    8  C7  UNL     1      -1.975  -2.130   0.523  1.00  0.00     0.152 C 
HETATM    9  C8  UNL     1      -0.867  -1.053   0.438  1.00  0.00     0.213 C 
HETATM   10  C9  UNL     1       0.394  -1.522  -0.309  1.00  0.00     0.277 C 
HETATM   11  N1  UNL     1       1.446  -0.646  -0.272  1.00  0.00    -0.229 NA
HETATM   12  C10 UNL     1       2.653  -0.807  -1.103  1.00  0.00     0.187 C 
HETATM   13  C11 UNL     1       3.715  -1.680  -0.442  1.00  0.00     0.278 C 
HETATM   14  N2  UNL     1       3.255  -2.865   0.046  1.00  0.00    -0.213 NA
HETATM   15  C12 UNL     1       3.992  -3.831   0.624  1.00  0.00     0.080 C 
HETATM   16  C13 UNL     1       3.307  -5.042   1.202  1.00  0.00     0.073 C 
HETATM   17  O2  UNL     1       4.881  -1.367  -0.388  1.00  0.00    -0.268 OA
HETATM   18  O3  UNL     1       0.456  -2.564  -0.917  1.00  0.00    -0.268 OA
ENDROOT
BRANCH   9  19
HETATM   19  N3  UNL     1      -0.518  -0.566   1.779  1.00  0.00    -0.226 NA
HETATM   20  C18 UNL     1      -0.380   0.724   2.225  1.00  0.00     0.284 C 
HETATM   21  O4  UNL     1       0.130   0.915   3.303  1.00  0.00    -0.268 OA
BRANCH  20  22
HETATM   22  C19 UNL     1      -0.963   1.880   1.395  1.00  0.00     0.303 C 
BRANCH  22  23
HETATM   23  C20 UNL     1      -0.080   2.200   0.172  1.00  0.00     0.070 C 
BRANCH  23  24
HETATM   24  C21 UNL     1      -0.069   3.641  -0.295  1.00  0.00    -0.020 A 
HETATM   25  C22 UNL     1      -0.450   3.982  -1.599  1.00  0.00    -0.004 A 
HETATM   26  C23 UNL     1      -0.403   5.304  -2.043  1.00  0.00    -0.000 A 
HETATM   27  C24 UNL     1       0.042   6.312  -1.187  1.00  0.00    -0.000 A 
HETATM   28  C25 UNL     1       0.446   5.986   0.108  1.00  0.00    -0.000 A 
HETATM   29  C26 UNL     1       0.395   4.661   0.544  1.00  0.00    -0.004 A 
ENDBRANCH  23  24
ENDBRANCH  22  23
BRANCH  22  30
HETATM   30  N4  UNL     1      -2.391   1.673   1.152  1.00  0.00     0.149 N 
HETATM   31  C27 UNL     1      -3.140   1.651   2.406  1.00  0.00     0.286 C 
HETATM   32  C28 UNL     1      -2.979   2.658   0.259  1.00  0.00     0.286 C 
ENDBRANCH  22  30
ENDBRANCH  20  22
ENDBRANCH   9  19
BRANCH   8  33
HETATM   33  C29 UNL     1      -3.410  -1.567   0.539  1.00  0.00     0.030 C 
HETATM   34  C30 UNL     1      -4.456  -2.655   0.861  1.00  0.00     0.003 C 
HETATM   35  C31 UNL     1      -3.803  -0.913  -0.801  1.00  0.00     0.003 C 
ENDBRANCH   8  33
BRANCH  12  36
HETATM   36  C14 UNL     1       3.200   0.571  -1.530  1.00  0.00     0.034 C 
BRANCH  36  37
HETATM   37  C15 UNL     1       2.292   1.356  -2.499  1.00  0.00     0.002 C 
HETATM   38  C16 UNL     1       2.704   2.839  -2.531  1.00  0.00     0.000 C 
HETATM   39  C17 UNL     1       2.309   0.780  -3.925  1.00  0.00     0.000 C 
ENDBRANCH  36  37
ENDBRANCH  12  36
TORSDOF 8
