REMARK  1 active torsions:
REMARK  status: ('A' for Active; 'I' for Inactive)
REMARK    1  A    between atoms: C2_2  and  O4_13 
ROOT
HETATM    1  C1  UNL     1      -0.069  -1.191  -0.662  1.00  0.00     0.180 A 
HETATM    2  C2  UNL     1       1.039  -0.830   0.025  1.00  0.00     0.122 A 
HETATM    3  C3  UNL     1       0.992   0.369   0.638  1.00  0.00     0.028 A 
HETATM    4  C4  UNL     1      -0.070   1.187   0.599  1.00  0.00     0.027 A 
HETATM    5  C5  UNL     1      -1.167   0.815  -0.084  1.00  0.00     0.131 A 
HETATM    6  C6  UNL     1      -1.145  -0.379  -0.708  1.00  0.00     0.181 A 
HETATM    7  O1  UNL     1      -2.246  -0.777  -1.407  1.00  0.00    -0.186 OA
HETATM    8  O2  UNL     1      -2.287   1.599  -0.163  1.00  0.00    -0.271 OA
HETATM    9  C7  UNL     1      -2.232   2.795   0.490  1.00  0.00     0.300 A 
HETATM   10  C8  UNL     1      -1.131   3.182   1.182  1.00  0.00     0.069 A 
HETATM   11  C9  UNL     1      -0.062   2.375   1.229  1.00  0.00     0.008 A 
HETATM   12  O3  UNL     1      -3.188   3.544   0.463  1.00  0.00    -0.259 OA
HETATM   13  O5  UNL     1      -0.174  -2.368  -1.333  1.00  0.00    -0.186 OA
ENDROOT
BRANCH   2  14
HETATM   14  O4  UNL     1       2.215  -1.532   0.176  1.00  0.00    -0.326 OA
HETATM   15  C10 UNL     1       2.425  -2.793  -0.407  1.00  0.00     0.181 C 
ENDBRANCH   2  14
TORSDOF 1
