REMARK  3 active torsions:
REMARK  status: ('A' for Active; 'I' for Inactive)
REMARK    1  A    between atoms: C2_2  and  O3_23 
REMARK    2  A    between atoms: C15_15  and  C17_17 
REMARK    3  A    between atoms: O3_23  and  C21_24 
ROOT
HETATM    1  C1  UNL     1      -2.529   0.131   1.790  1.00  0.00     0.030 C 
HETATM    2  C2  UNL     1      -2.584  -1.411   1.700  1.00  0.00     0.124 C 
HETATM    3  C3  UNL     1      -1.869  -1.909   0.451  1.00  0.00     0.026 C 
HETATM    4  C4  UNL     1      -0.433  -1.401   0.451  1.00  0.00     0.002 C 
HETATM    5  C5  UNL     1      -0.433   0.121   0.451  1.00  0.00     0.000 C 
HETATM    6  C6  UNL     1      -1.091   0.629   1.727  1.00  0.00     0.003 C 
HETATM    7  C7  UNL     1       1.001   0.629   0.383  1.00  0.00     0.000 C 
HETATM    8  C8  UNL     1       1.603   0.269  -0.969  1.00  0.00     0.003 C 
HETATM    9  C9  UNL     1       0.692  -0.721  -1.683  1.00  0.00     0.000 C 
HETATM   10  C10 UNL     1       0.284  -1.909  -0.793  1.00  0.00     0.000 C 
HETATM   11  C11 UNL     1       1.746   1.528  -1.813  1.00  0.00     0.003 C 
HETATM   12  C12 UNL     1       2.633   2.437  -0.972  1.00  0.00     0.031 C 
HETATM   13  C13 UNL     1       2.232   3.889  -1.198  1.00  0.00     0.003 C 
HETATM   14  C14 UNL     1       1.013   2.142   0.557  1.00  0.00     0.000 C 
HETATM   15  C15 UNL     1       4.032   2.204  -1.530  1.00  0.00     0.157 C 
HETATM   16  C16 UNL     1       2.974  -0.362  -0.762  1.00  0.00     0.033 C 
HETATM   17  O2  UNL     1       4.575   2.608  -2.757  1.00  0.00    -0.223 OA
HETATM   18  C18 UNL     1      -1.210   0.629  -0.757  1.00  0.00     0.000 C 
HETATM   19  C19 UNL     1      -1.869  -3.432   0.441  1.00  0.00     0.002 C 
HETATM   20  C20 UNL     1      -2.591  -1.393  -0.787  1.00  0.00     0.002 C 
ENDROOT
BRANCH   2  21
HETATM   21  O3  UNL     1      -3.924  -1.820   1.655  1.00  0.00    -0.304 OA
BRANCH  21  22
HETATM   22  C21 UNL     1      -4.413  -2.615   2.614  1.00  0.00     0.272 C 
HETATM   23  C22 UNL     1      -5.856  -3.056   2.566  1.00  0.00     0.106 C 
HETATM   24  O4  UNL     1      -3.700  -2.981   3.518  1.00  0.00    -0.264 OA
ENDBRANCH  21  22
ENDBRANCH   2  21
BRANCH  15  25
HETATM   25  C17 UNL     1       5.210   2.751  -0.735  1.00  0.00     0.212 C 
HETATM   26  O1  UNL     1       6.140   3.325  -1.612  1.00  0.00    -0.218 OA
ENDBRANCH  15  25
TORSDOF 3
