REMARK  0 active torsions:
REMARK  status: ('A' for Active; 'I' for Inactive)
ROOT
HETATM    1  C1  UNL     1      -4.604  -0.104  -0.051  1.00  0.00     0.000 A 
HETATM    2  C2  UNL     1      -4.193   1.228  -0.050  1.00  0.00     0.002 A 
HETATM    3  C3  UNL     1      -2.833   1.537  -0.040  1.00  0.00     0.025 A 
HETATM    4  C4  UNL     1      -1.886   0.512  -0.031  1.00  0.00     0.103 A 
HETATM    5  C5  UNL     1      -2.288  -0.827  -0.032  1.00  0.00     0.062 A 
HETATM    6  C6  UNL     1      -3.656  -1.129  -0.043  1.00  0.00     0.005 A 
HETATM    7  C7  UNL     1      -1.262  -1.926  -0.024  1.00  0.00     0.204 A 
HETATM    8  C8  UNL     1       0.145  -1.412  -0.014  1.00  0.00     0.125 A 
HETATM    9  C9  UNL     1       0.403  -0.097  -0.011  1.00  0.00     0.110 A 
HETATM   10  O1  UNL     1      -0.564   0.891  -0.020  1.00  0.00    -0.307 OA
HETATM   11  C10 UNL     1       1.798   0.338   0.021  1.00  0.00     0.046 A 
HETATM   12  C11 UNL     1       2.810  -0.623  -0.060  1.00  0.00     0.105 A 
HETATM   13  O2  UNL     1       2.579  -1.965  -0.176  1.00  0.00    -0.273 OA
HETATM   14  C12 UNL     1       1.239  -2.436   0.010  1.00  0.00     0.305 C 
HETATM   15  O3  UNL     1       1.001  -3.608   0.180  1.00  0.00    -0.259 OA
HETATM   16  C13 UNL     1       4.154  -0.240  -0.055  1.00  0.00     0.025 A 
HETATM   17  C14 UNL     1       4.501   1.106   0.045  1.00  0.00     0.002 A 
HETATM   18  C15 UNL     1       3.502   2.072   0.133  1.00  0.00     0.000 A 
HETATM   19  C16 UNL     1       2.158   1.691   0.119  1.00  0.00     0.004 A 
HETATM   20  O4  UNL     1      -1.543  -3.101  -0.024  1.00  0.00    -0.286 OA
ENDROOT
TORSDOF 0
