REMARK  5 active torsions:
REMARK  status: ('A' for Active; 'I' for Inactive)
REMARK    1  A    between atoms: C1_1  and  C7_9 
REMARK    2  A    between atoms: C7_9  and  C8_10 
REMARK    3  A    between atoms: C8_10  and  C9_12 
REMARK    4  A    between atoms: C8_10  and  C11_16 
REMARK    5  A    between atoms: C9_12  and  C10_13 
ROOT
HETATM    1  C11 UNL     1       1.016   1.124   0.642  1.00  0.00     0.155 C 
HETATM    2  O6  UNL     1       1.067  -0.109  -0.024  1.00  0.00    -0.329 OA
HETATM    3  C12 UNL     1       0.182  -0.385  -0.989  1.00  0.00     0.116 A 
HETATM    4  C13 UNL     1       0.231  -1.573  -1.631  1.00  0.00     0.026 A 
HETATM    5  C14 UNL     1      -0.653  -1.849  -2.595  1.00  0.00     0.002 A 
HETATM    6  C15 UNL     1      -1.585  -0.949  -2.924  1.00  0.00     0.002 A 
HETATM    7  C16 UNL     1      -2.508  -1.236  -3.930  1.00  0.00     0.029 A 
HETATM    8  C17 UNL     1      -3.480  -0.297  -4.274  1.00  0.00     0.156 A 
HETATM    9  C18 UNL     1      -3.531   0.929  -3.611  1.00  0.00     0.156 A 
HETATM   10  C19 UNL     1      -2.608   1.216  -2.605  1.00  0.00     0.029 A 
HETATM   11  C20 UNL     1      -1.636   0.278  -2.262  1.00  0.00     0.002 A 
HETATM   12  O7  UNL     1      -4.476   1.841  -3.945  1.00  0.00    -0.188 OA
HETATM   13  O8  UNL     1      -4.376  -0.577  -5.251  1.00  0.00    -0.188 OA
HETATM   14  O9  UNL     1      -0.660   0.428  -1.286  1.00  0.00     0.000 OA
HETATM   15  C21 UNL     1       1.206   2.251  -0.364  1.00  0.00     0.100 C 
HETATM   16  C22 UNL     1       0.109   2.193  -1.399  1.00  0.00     0.304 C 
HETATM   17  O10 UNL     1       0.074   3.093  -2.388  1.00  0.00    -0.187 OA
HETATM   18  O11 UNL     1      -0.738   1.334  -1.334  1.00  0.00    -0.187 OA
ENDROOT
BRANCH   1  19
HETATM   19  C8  UNL     1       2.124   1.184   1.685  1.00  0.00     0.166 C 
HETATM   20  O3  UNL     1       2.977   2.259   1.400  1.00  0.00    -0.223 OA
BRANCH  19  21
HETATM   21  C7  UNL     1       2.918  -0.116   1.658  1.00  0.00     0.060 C 
BRANCH  21  22
HETATM   22  C1  UNL     1       2.008  -1.264   1.963  1.00  0.00    -0.017 A 
HETATM   23  C2  UNL     1       2.542  -2.509   2.295  1.00  0.00     0.025 A 
HETATM   24  C3  UNL     1       1.694  -3.579   2.579  1.00  0.00     0.156 A 
HETATM   25  C4  UNL     1       0.311  -3.405   2.530  1.00  0.00     0.156 A 
HETATM   26  O2  UNL     1       2.213  -4.788   2.902  1.00  0.00    -0.188 OA
HETATM   27  C5  UNL     1      -0.224  -2.160   2.198  1.00  0.00     0.029 A 
HETATM   28  O1  UNL     1      -0.513  -4.444   2.806  1.00  0.00    -0.188 OA
HETATM   29  C6  UNL     1       0.625  -1.090   1.914  1.00  0.00    -0.002 A 
ENDBRANCH  21  22
ENDBRANCH  19  21
BRANCH  19  30
HETATM   30  C9  UNL     1       1.512   1.375   3.067  1.00  0.00     0.131 C 
BRANCH  30  31
HETATM   31  C10 UNL     1       0.725   2.662   3.096  1.00  0.00     0.188 C 
HETATM   32  O4  UNL     1       0.096   3.037   4.216  1.00  0.00    -0.647 OA
HETATM   33  O5  UNL     1       0.663   3.354   2.107  1.00  0.00    -0.647 OA
ENDBRANCH  30  31
ENDBRANCH  19  30
ENDBRANCH   1  19
TORSDOF 5
