REMARK  5 active torsions:
REMARK  status: ('A' for Active; 'I' for Inactive)
REMARK    1  A    between atoms: C3_3  and  O1_8 
REMARK    2  A    between atoms: O1_8  and  C8_9 
REMARK    3  A    between atoms: C8_9  and  C9_10 
REMARK    4  A    between atoms: C13_15  and  O5_24 
REMARK    5  A    between atoms: O5_24  and  C20_25 
ROOT
HETATM    1  C1  UNL     1      -0.769   1.936   0.270  1.00  0.00     0.005 C 
HETATM    2  C2  UNL     1      -0.769   0.413   0.270  1.00  0.00     0.057 C 
HETATM    3  C3  UNL     1       0.307  -0.095   1.221  1.00  0.00     0.127 C 
HETATM    4  C4  UNL     1       1.646   0.529   0.852  1.00  0.00     0.030 C 
HETATM    5  C5  UNL     1       1.426   1.819   1.433  1.00  0.00     0.003 C 
HETATM    6  C6  UNL     1       0.667   2.443   0.270  1.00  0.00     0.000 C 
HETATM    7  C7  UNL     1       0.669   3.959   0.418  1.00  0.00     0.000 C 
HETATM    8  C13 UNL     1      -0.397   0.044  -1.160  1.00  0.00     0.139 C 
HETATM    9  C14 UNL     1      -1.170   1.103  -1.945  1.00  0.00     0.121 A 
HETATM   10  C15 UNL     1      -1.438   2.304  -1.048  1.00  0.00     0.016 C 
HETATM   11  C16 UNL     1      -2.503   0.509  -2.330  1.00  0.00     0.277 A 
HETATM   12  O3  UNL     1      -2.591   0.570  -3.664  1.00  0.00    -0.297 OA
HETATM   13  C17 UNL     1      -1.109   1.289  -4.405  1.00  0.00     0.175 A 
HETATM   14  C18 UNL     1      -0.363   1.535  -3.130  1.00  0.00    -0.004 A 
HETATM   15  C19 UNL     1       0.860   2.068  -3.059  1.00  0.00    -0.006 C 
HETATM   16  O4  UNL     1      -3.335   0.063  -1.576  1.00  0.00    -0.264 OA
HETATM   17  C22 UNL     1      -1.474   2.531   1.482  1.00  0.00     0.000 C 
ENDROOT
BRANCH   3  18
HETATM   18  O1  UNL     1       0.399  -1.490   1.120  1.00  0.00    -0.301 OA
BRANCH  18  19
HETATM   19  C8  UNL     1       0.176  -2.255   2.196  1.00  0.00     0.291 C 
HETATM   20  O2  UNL     1      -0.104  -1.743   3.253  1.00  0.00    -0.260 OA
BRANCH  19  21
HETATM   21  C9  UNL     1       0.265  -3.599   2.098  1.00  0.00     0.037 C 
HETATM   22  C10 UNL     1       0.042  -4.363   3.173  1.00  0.00    -0.025 C 
HETATM   23  C11 UNL     1      -0.304  -3.729   4.484  1.00  0.00     0.030 C 
HETATM   24  C12 UNL     1       0.611  -4.234   0.788  1.00  0.00     0.036 C 
ENDBRANCH  19  21
ENDBRANCH  18  19
ENDBRANCH   3  18
BRANCH   8  25
HETATM   25  O5  UNL     1      -0.824  -1.251  -1.485  1.00  0.00    -0.303 OA
BRANCH  25  26
HETATM   26  C20 UNL     1       0.059  -2.155  -1.925  1.00  0.00     0.272 C 
HETATM   27  O6  UNL     1      -0.309  -3.272  -2.205  1.00  0.00    -0.264 OA
HETATM   28  C21 UNL     1       1.513  -1.782  -2.071  1.00  0.00     0.106 C 
ENDBRANCH  25  26
ENDBRANCH   8  25
TORSDOF 5
