REMARK  1 active torsions:
REMARK  status: ('A' for Active; 'I' for Inactive)
REMARK    1  A    between atoms: C16_16  and  C19_19 
ROOT
HETATM    1  C1  UNL     1      -4.219  -0.208   0.585  1.00  0.00     0.034 C 
HETATM    2  C2  UNL     1      -4.136  -1.731   0.712  1.00  0.00     0.156 C 
HETATM    3  C3  UNL     1      -3.267  -2.288  -0.408  1.00  0.00     0.055 C 
HETATM    4  C4  UNL     1      -1.936  -1.604  -0.395  1.00  0.00    -0.046 C 
HETATM    5  C5  UNL     1      -1.936  -0.107  -0.395  1.00  0.00     0.017 C 
HETATM    6  C6  UNL     1      -2.831   0.401   0.728  1.00  0.00     0.006 C 
HETATM    7  C7  UNL     1      -0.516   0.401  -0.182  1.00  0.00     0.034 C 
HETATM    8  C8  UNL     1       0.178  -0.458   0.867  1.00  0.00     0.156 C 
HETATM    9  C9  UNL     1       0.544  -1.806   0.258  1.00  0.00     0.058 C 
HETATM   10  C10 UNL     1      -0.795  -2.301  -0.395  1.00  0.00    -0.032 C 
HETATM   11  C11 UNL     1       1.443   0.244   1.342  1.00  0.00     0.153 C 
HETATM   12  C12 UNL     1       1.937   1.190   0.256  1.00  0.00     0.035 C 
HETATM   13  C13 UNL     1       0.758   1.965  -0.317  1.00  0.00     0.003 C 
HETATM   14  C14 UNL     1      -0.560   1.847   0.294  1.00  0.00     0.003 C 
HETATM   15  C15 UNL     1       2.956   2.201   0.766  1.00  0.00     0.003 C 
HETATM   16  C16 UNL     1       2.502   0.263  -0.811  1.00  0.00     0.060 C 
HETATM   17  C17 UNL     1       3.090  -0.944   0.064  1.00  0.00     0.010 C 
HETATM   18  C18 UNL     1       2.567  -0.774   1.484  1.00  0.00     0.033 C 
HETATM   19  O2  UNL     1       1.144   0.900   2.545  1.00  0.00    -0.223 OA
HETATM   20  O3  UNL     1      -0.684  -0.656   1.954  1.00  0.00    -0.223 OA
HETATM   21  C21 UNL     1      -2.461   0.401  -1.732  1.00  0.00     0.004 C 
HETATM   22  O4  UNL     1      -3.570  -2.065   1.951  1.00  0.00    -0.223 OA
ENDROOT
BRANCH  16  23
HETATM   23  C19 UNL     1       3.591   0.942  -1.605  1.00  0.00     0.151 C 
HETATM   24  C20 UNL     1       3.475   1.050  -3.106  1.00  0.00     0.072 C 
HETATM   25  O1  UNL     1       4.555   1.400  -1.039  1.00  0.00    -0.296 OA
ENDBRANCH  16  23
TORSDOF 1
