REMARK  7 active torsions:
REMARK  status: ('A' for Active; 'I' for Inactive)
REMARK    1  A    between atoms: C3_3  and  C22_32 
REMARK    2  A    between atoms: C12_13  and  C20_26 
REMARK    3  A    between atoms: C14_15  and  C15_16 
REMARK    4  A    between atoms: C15_16  and  O2_17 
REMARK    5  A    between atoms: O2_17  and  C16_18 
REMARK    6  A    between atoms: C16_18  and  C17_19 
REMARK    7  A    between atoms: C18_20  and  C19_21 
ROOT
HETATM    1  C1  UNL     1      -4.209  -0.151  -1.302  1.00  0.00     0.024 A 
HETATM    2  C2  UNL     1      -3.993  -1.528  -1.378  1.00  0.00     0.136 A 
HETATM    3  C3  UNL     1      -2.727  -2.017  -1.696  1.00  0.00     0.090 A 
HETATM    4  C4  UNL     1      -1.679  -1.126  -1.924  1.00  0.00     0.110 A 
HETATM    5  C5  UNL     1      -1.890   0.251  -1.878  1.00  0.00     0.083 A 
HETATM    6  C6  UNL     1      -3.162   0.738  -1.552  1.00  0.00    -0.013 A 
HETATM    7  C7  UNL     1      -3.398   2.214  -1.472  1.00  0.00     0.031 C 
HETATM    8  C8  UNL     1      -0.732   1.154  -2.158  1.00  0.00     0.302 C 
HETATM    9  O1  UNL     1       0.205   1.103  -1.086  1.00  0.00    -0.271 OA
HETATM   10  C9  UNL     1       0.921  -0.057  -0.957  1.00  0.00     0.126 A 
HETATM   11  C10 UNL     1       0.628  -1.312  -1.506  1.00  0.00     0.119 A 
HETATM   12  C11 UNL     1       1.517  -2.379  -1.302  1.00  0.00     0.011 A 
HETATM   13  C12 UNL     1       2.664  -2.217  -0.525  1.00  0.00     0.088 A 
HETATM   14  C13 UNL     1       2.936  -0.982   0.052  1.00  0.00     0.137 A 
HETATM   15  C14 UNL     1       2.068   0.089  -0.163  1.00  0.00     0.058 A 
HETATM   16  O6  UNL     1       4.040  -0.819   0.821  1.00  0.00    -0.190 OA
HETATM   17  C21 UNL     1       1.231  -3.708  -1.928  1.00  0.00     0.033 C 
HETATM   18  O9  UNL     1      -0.461  -1.647  -2.281  1.00  0.00    -0.305 OA
HETATM   19  O10 UNL     1      -0.607   1.829  -3.152  1.00  0.00    -0.259 OA
HETATM   20  O12 UNL     1      -5.013  -2.388  -1.143  1.00  0.00    -0.190 OA
ENDROOT
BRANCH  15  21
HETATM   21  C15 UNL     1       2.366   1.416   0.463  1.00  0.00     0.183 C 
BRANCH  21  22
HETATM   22  O2  UNL     1       1.487   1.636   1.533  1.00  0.00    -0.293 OA
BRANCH  22  23
HETATM   23  C16 UNL     1       1.570   2.766   2.244  1.00  0.00     0.296 C 
HETATM   24  O5  UNL     1       2.401   3.597   1.965  1.00  0.00    -0.259 OA
BRANCH  23  25
HETATM   25  C17 UNL     1       0.723   2.979   3.275  1.00  0.00     0.075 C 
HETATM   26  C18 UNL     1       0.805   4.108   3.986  1.00  0.00     0.076 C 
BRANCH  26  27
HETATM   27  C19 UNL     1      -0.042   4.321   5.017  1.00  0.00     0.211 C 
HETATM   28  O3  UNL     1       0.041   5.451   5.729  1.00  0.00    -0.644 OA
HETATM   29  O4  UNL     1      -0.874   3.490   5.296  1.00  0.00    -0.644 OA
ENDBRANCH  26  27
ENDBRANCH  23  25
ENDBRANCH  22  23
ENDBRANCH  21  22
ENDBRANCH  15  21
BRANCH  13  30
HETATM   30  C20 UNL     1       3.507  -3.256  -0.335  1.00  0.00     0.213 C 
HETATM   31  O7  UNL     1       4.606  -3.097   0.411  1.00  0.00    -0.644 OA
HETATM   32  O8  UNL     1       3.268  -4.328  -0.838  1.00  0.00    -0.644 OA
ENDBRANCH  13  30
BRANCH   3  33
HETATM   33  C22 UNL     1      -2.516  -3.349  -1.783  1.00  0.00     0.238 C 
HETATM   34  O11 UNL     1      -1.389  -3.784  -1.779  1.00  0.00    -0.283 OA
ENDBRANCH   3  33
TORSDOF 7
