REMARK  2 active torsions:
REMARK  status: ('A' for Active; 'I' for Inactive)
REMARK    1  A    between atoms: C12_12  and  C16_16 
REMARK    2  A    between atoms: C16_16  and  C17_18 
ROOT
HETATM    1  C1  UNL     1      -3.625  -0.669  -0.149  1.00  0.00     0.181 C 
HETATM    2  C2  UNL     1      -3.334  -1.474   1.015  1.00  0.00     0.209 C 
HETATM    3  C3  UNL     1      -2.151  -2.313   0.551  1.00  0.00     0.035 C 
HETATM    4  C4  UNL     1      -0.950  -1.409   0.311  1.00  0.00     0.008 C 
HETATM    5  C5  UNL     1      -1.276  -0.415  -0.796  1.00  0.00     0.011 C 
HETATM    6  C6  UNL     1      -2.546   0.346  -0.437  1.00  0.00     0.068 C 
HETATM    7  C7  UNL     1      -0.122   0.567  -0.952  1.00  0.00     0.018 C 
HETATM    8  C8  UNL     1       1.174  -0.181  -0.952  1.00  0.00    -0.049 C 
HETATM    9  C9  UNL     1       1.207  -1.518  -0.952  1.00  0.00    -0.035 C 
HETATM   10  C10 UNL     1       0.247  -2.255  -0.102  1.00  0.00     0.025 C 
HETATM   11  C11 UNL     1       2.432   0.630  -0.964  1.00  0.00     0.024 C 
HETATM   12  C12 UNL     1       2.388   1.654   0.162  1.00  0.00     0.035 C 
HETATM   13  C13 UNL     1       1.077   2.470   0.110  1.00  0.00     0.003 C 
HETATM   14  C14 UNL     1      -0.138   1.556   0.207  1.00  0.00     0.004 C 
HETATM   15  C15 UNL     1       2.472   0.929   1.499  1.00  0.00     0.003 C 
HETATM   16  C18 UNL     1      -1.485  -1.164  -2.105  1.00  0.00     0.001 C 
HETATM   17  C19 UNL     1      -1.808  -3.340   1.622  1.00  0.00     0.003 C 
HETATM   18  C20 UNL     1      -2.514  -3.030  -0.743  1.00  0.00     0.003 C 
HETATM   19  O3  UNL     1      -4.427  -2.284   1.355  1.00  0.00    -0.215 OA
HETATM   20  O4  UNL     1      -4.623  -0.794  -0.818  1.00  0.00    -0.293 OA
ENDROOT
BRANCH  12  21
HETATM   21  C16 UNL     1       3.563   2.609  -0.000  1.00  0.00     0.185 C 
HETATM   22  O1  UNL     1       4.377   2.545   1.140  1.00  0.00    -0.221 OA
BRANCH  21  23
HETATM   23  C17 UNL     1       3.042   4.030  -0.173  1.00  0.00     0.215 C 
HETATM   24  O2  UNL     1       3.536   4.838   0.860  1.00  0.00    -0.218 OA
ENDBRANCH  21  23
ENDBRANCH  12  21
TORSDOF 2
