REMARK  1 active torsions:
REMARK  status: ('A' for Active; 'I' for Inactive)
REMARK    1  A    between atoms: C1_1  and  C5_6 
ROOT
HETATM    1  C1  UNL     1       0.476   0.366   0.281  1.00  0.00     0.142 A 
HETATM    2  C2  UNL     1      -0.890   0.281   0.138  1.00  0.00     0.030 A 
HETATM    3  C3  UNL     1      -1.132  -0.861  -0.662  1.00  0.00     0.029 A 
HETATM    4  C4  UNL     1       0.103  -1.394  -0.952  1.00  0.00     0.123 A 
HETATM    5  O1  UNL     1       1.086  -0.651  -0.381  1.00  0.00    -0.302 OA
ENDROOT
BRANCH   1   6
HETATM    6  C5  UNL     1       1.119   1.325   0.981  1.00  0.00     0.259 C 
HETATM    7  O2  UNL     1       0.489   2.192   1.538  1.00  0.00    -0.281 OA
ENDBRANCH   1   6
TORSDOF 1
