REMARK  0 active torsions:
REMARK  status: ('A' for Active; 'I' for Inactive)
ROOT
HETATM    1  C1  UNL     1      -2.975   1.133   0.497  1.00  0.00     0.030 C 
HETATM    2  C2  UNL     1      -2.879  -0.354   0.055  1.00  0.00     0.026 C 
HETATM    3  C3  UNL     1      -1.666  -1.041   0.638  1.00  0.00    -0.048 C 
HETATM    4  C4  UNL     1      -0.558  -1.252  -0.096  1.00  0.00    -0.030 C 
HETATM    5  C5  UNL     1       0.810  -1.404   0.504  1.00  0.00     0.053 C 
HETATM    6  C6  UNL     1       1.766  -0.421  -0.119  1.00  0.00    -0.001 A 
HETATM    7  C7  UNL     1       1.730   0.975  -0.151  1.00  0.00     0.078 A 
HETATM    8  C8  UNL     1       0.808   2.042   0.370  1.00  0.00     0.073 C 
HETATM    9  C9  UNL     1      -0.634   1.882  -0.034  1.00  0.00    -0.042 C 
HETATM   10  C10 UNL     1      -1.643   1.759   0.847  1.00  0.00    -0.034 C 
HETATM   11  C11 UNL     1      -0.962   1.859  -1.495  1.00  0.00     0.026 C 
HETATM   12  O1  UNL     1       2.817   1.451  -0.830  1.00  0.00    -0.310 OA
HETATM   13  C12 UNL     1       3.546   0.387  -1.236  1.00  0.00     0.118 A 
HETATM   14  C13 UNL     1       2.953  -0.781  -0.830  1.00  0.00     0.001 A 
HETATM   15  C14 UNL     1       3.453  -2.169  -1.082  1.00  0.00     0.033 C 
HETATM   16  C15 UNL     1      -1.697  -1.496   2.064  1.00  0.00     0.026 C 
ENDROOT
TORSDOF 0
