REMARK  0 active torsions:
REMARK  status: ('A' for Active; 'I' for Inactive)
ROOT
HETATM    1  C1  UNL     1      -1.898   0.258   0.155  1.00  0.00    -0.005 A 
HETATM    2  C2  UNL     1      -1.898  -1.079   0.155  1.00  0.00     0.089 A 
HETATM    3  C3  UNL     1      -0.620  -1.859   0.155  1.00  0.00     0.015 A 
HETATM    4  C4  UNL     1       0.049  -1.358   0.153  1.00  0.00    -0.043 A 
HETATM    5  C5  UNL     1       0.562   0.076   0.154  1.00  0.00     0.019 A 
HETATM    6  C6  UNL     1      -0.620   1.037   0.155  1.00  0.00     0.032 A 
HETATM    7  C7  UNL     1       1.409   0.314  -1.089  1.00  0.00     0.004 C 
HETATM    8  C8  UNL     1       2.684  -0.513  -0.999  1.00  0.00     0.001 C 
HETATM    9  C9  UNL     1       2.533  -1.295   0.271  1.00  0.00     0.004 C 
HETATM   10  C10 UNL     1       1.317  -2.202   0.138  1.00  0.00     0.022 C 
HETATM   11  C11 UNL     1       1.767   1.791  -1.184  1.00  0.00     0.000 C 
HETATM   12  C12 UNL     1       1.408   0.312   1.398  1.00  0.00     0.004 C 
HETATM   13  O1  UNL     1      -3.041  -1.518   0.145  1.00  0.00    -0.327 OA
HETATM   14  C13 UNL     1      -4.040  -0.257   0.175  1.00  0.00     0.171 A 
HETATM   15  C14 UNL     1      -3.146   0.737   0.166  1.00  0.00    -0.016 A 
HETATM   16  C15 UNL     1      -3.495   2.192   0.170  1.00  0.00     0.029 C 
ENDROOT
TORSDOF 0
