REMARK  0 active torsions:
REMARK  status: ('A' for Active; 'I' for Inactive)
ROOT
HETATM    1  C1  UNL     1       0.890   1.434   0.944  1.00  0.00     0.024 A 
HETATM    2  C2  UNL     1      -0.410   1.842   1.125  1.00  0.00     0.076 A 
HETATM    3  C3  UNL     1      -1.645   1.043   0.990  1.00  0.00     0.051 C 
HETATM    4  C4  UNL     1      -1.278  -0.469   0.964  1.00  0.00     0.009 C 
HETATM    5  C5  UNL     1       0.011  -0.783   0.140  1.00  0.00     0.035 C 
HETATM    6  C6  UNL     1       1.245   0.029   0.621  1.00  0.00     0.176 C 
HETATM    7  O1  UNL     1       1.769  -0.581   1.770  1.00  0.00    -0.219 OA
HETATM    8  C7  UNL     1      -0.240  -0.598  -1.367  1.00  0.00     0.033 C 
HETATM    9  C8  UNL     1      -1.409  -1.458  -1.843  1.00  0.00     0.152 C 
HETATM   10  C9  UNL     1      -2.684  -1.194  -1.047  1.00  0.00     0.033 C 
HETATM   11  C10 UNL     1      -2.457  -1.317   0.460  1.00  0.00     0.003 C 
HETATM   12  O2  UNL     1      -1.656  -1.177  -3.194  1.00  0.00    -0.224 OA
HETATM   13  C11 UNL     1       1.014  -0.999  -2.133  1.00  0.00     0.003 C 
HETATM   14  C12 UNL     1       0.349  -2.248   0.385  1.00  0.00     0.003 C 
HETATM   15  O3  UNL     1      -0.481   3.160   1.422  1.00  0.00    -0.310 OA
HETATM   16  C13 UNL     1       0.805   3.608   1.441  1.00  0.00     0.118 A 
HETATM   17  C14 UNL     1       1.685   2.585   1.154  1.00  0.00     0.003 A 
HETATM   18  C15 UNL     1       3.177   2.674   1.079  1.00  0.00     0.033 C 
ENDROOT
TORSDOF 0
