REMARK  4 active torsions:
REMARK  status: ('A' for Active; 'I' for Inactive)
REMARK    1  A    between atoms: S1_2  and  S2_3 
REMARK    2  A    between atoms: S2_3  and  S3_4 
REMARK    3  A    between atoms: S3_4  and  C2_5 
REMARK    4  A    between atoms: C2_5  and  C3_6 
ROOT
HETATM    1  S3  UNL     1      -0.242   0.480   1.011  1.00  0.00    -0.067 SA
ENDROOT
BRANCH   1   2
HETATM    2  S2  UNL     1      -0.318  -1.426   1.734  1.00  0.00    -0.023 SA
BRANCH   2   3
HETATM    3  S1  UNL     1      -0.777  -2.422   0.013  1.00  0.00    -0.070 SA
HETATM    4  C1  UNL     1      -2.592  -2.422   0.013  1.00  0.00     0.082 C 
ENDBRANCH   2   3
ENDBRANCH   1   2
BRANCH   1   5
HETATM    5  C2  UNL     1       1.496   0.662   0.521  1.00  0.00     0.095 C 
BRANCH   5   6
HETATM    6  C3  UNL     1       1.717   2.041  -0.041  1.00  0.00    -0.014 C 
HETATM    7  C4  UNL     1       1.301   2.297  -1.291  1.00  0.00    -0.004 C 
ENDBRANCH   5   6
ENDBRANCH   1   5
TORSDOF 4
