REMARK  7 active torsions:
REMARK  status: ('A' for Active; 'I' for Inactive)
REMARK    1  A    between atoms: C6_6  and  O1_7 
REMARK    2  A    between atoms: O1_7  and  C7_8 
REMARK    3  A    between atoms: C7_8  and  C8_9 
REMARK    4  A    between atoms: C13_15  and  O3_18 
REMARK    5  A    between atoms: O3_18  and  C16_19 
REMARK    6  A    between atoms: C16_19  and  C17_20 
REMARK    7  A    between atoms: C18_21  and  S1_22 
ROOT
HETATM    1  C1  UNL     1       0.607   2.293   1.338  1.00  0.00     0.022 A 
HETATM    2  C2  UNL     1      -0.693   2.701   1.518  1.00  0.00     0.076 A 
HETATM    3  C3  UNL     1      -1.928   1.902   1.384  1.00  0.00     0.051 C 
HETATM    4  C4  UNL     1      -1.561   0.391   1.357  1.00  0.00     0.009 C 
HETATM    5  C5  UNL     1      -0.272   0.076   0.533  1.00  0.00     0.032 C 
HETATM    6  C6  UNL     1       0.962   0.889   1.015  1.00  0.00     0.148 C 
HETATM    7  C12 UNL     1      -0.523   0.261  -0.974  1.00  0.00     0.030 C 
HETATM    8  C13 UNL     1      -1.693  -0.599  -1.449  1.00  0.00     0.125 C 
HETATM    9  C14 UNL     1      -2.967  -0.335  -0.653  1.00  0.00     0.030 C 
HETATM   10  C15 UNL     1      -2.740  -0.457   0.853  1.00  0.00     0.003 C 
HETATM   11  C20 UNL     1       0.731  -0.140  -1.739  1.00  0.00     0.003 C 
HETATM   12  C21 UNL     1       0.066  -1.388   0.778  1.00  0.00     0.003 C 
HETATM   13  C22 UNL     1      -1.256   0.014   2.801  1.00  0.00     0.001 C 
HETATM   14  O5  UNL     1      -0.764   4.019   1.816  1.00  0.00    -0.310 OA
HETATM   15  C23 UNL     1       0.522   4.467   1.835  1.00  0.00     0.118 A 
HETATM   16  C24 UNL     1       1.402   3.444   1.547  1.00  0.00     0.003 A 
HETATM   17  C25 UNL     1       2.894   3.533   1.472  1.00  0.00     0.033 C 
ENDROOT
BRANCH   6  18
HETATM   18  O1  UNL     1       1.486   0.279   2.163  1.00  0.00    -0.297 OA
BRANCH  18  19
HETATM   19  C7  UNL     1       2.738  -0.193   2.158  1.00  0.00     0.292 C 
HETATM   20  O2  UNL     1       3.417  -0.092   1.164  1.00  0.00    -0.260 OA
BRANCH  19  21
HETATM   21  C8  UNL     1       3.243  -0.781   3.265  1.00  0.00     0.037 C 
HETATM   22  C9  UNL     1       4.644  -1.308   3.259  1.00  0.00     0.036 C 
HETATM   23  C10 UNL     1       2.491  -0.892   4.365  1.00  0.00    -0.025 C 
HETATM   24  C11 UNL     1       1.090  -0.364   4.370  1.00  0.00     0.030 C 
ENDBRANCH  19  21
ENDBRANCH  18  19
ENDBRANCH   6  18
BRANCH   8  25
HETATM   25  O3  UNL     1      -1.939  -0.317  -2.800  1.00  0.00    -0.301 OA
BRANCH  25  26
HETATM   26  C16 UNL     1      -1.824  -1.285  -3.717  1.00  0.00     0.296 C 
HETATM   27  O4  UNL     1      -1.508  -2.401  -3.381  1.00  0.00    -0.259 OA
BRANCH  26  28
HETATM   28  C17 UNL     1      -2.061  -1.013  -5.019  1.00  0.00     0.075 C 
HETATM   29  C18 UNL     1      -1.946  -1.980  -5.936  1.00  0.00     0.036 C 
BRANCH  29  30
HETATM   30  S1  UNL     1      -2.265  -1.615  -7.685  1.00  0.00    -0.112 SA
HETATM   31  C19 UNL     1      -2.109  -2.927  -8.929  1.00  0.00     0.074 C 
ENDBRANCH  29  30
ENDBRANCH  26  28
ENDBRANCH  25  26
ENDBRANCH   8  25
TORSDOF 7
