REMARK  6 active torsions:
REMARK  status: ('A' for Active; 'I' for Inactive)
REMARK    1  A    between atoms: C4_4  and  C7_7 
REMARK    2  A    between atoms: C8_8  and  C10_10 
REMARK    3  A    between atoms: C10_10  and  O1_11 
REMARK    4  A    between atoms: C13_14  and  C18_21 
REMARK    5  A    between atoms: C16_17  and  O2_18 
REMARK    6  A    between atoms: C18_21  and  C19_22 
ROOT
HETATM    1  C10 UNL     1       0.804  -1.198  -0.214  1.00  0.00     0.165 A 
HETATM    2  C12 UNL     1       1.313  -1.340   1.194  1.00  0.00     0.009 A 
HETATM    3  C13 UNL     1       2.596  -1.135   1.537  1.00  0.00     0.020 A 
HETATM    4  C14 UNL     1       3.661  -0.743   0.550  1.00  0.00     0.194 A 
HETATM    5  C15 UNL     1       3.151  -0.601  -0.857  1.00  0.00     0.064 A 
HETATM    6  C16 UNL     1       1.869  -0.805  -1.200  1.00  0.00     0.107 A 
HETATM    7  O3  UNL     1       4.814  -0.559   0.859  1.00  0.00    -0.287 OA
ENDROOT
BRANCH   1   8
HETATM    8  C8  UNL     1      -0.264  -0.149  -0.228  1.00  0.00    -0.010 C 
HETATM    9  C7  UNL     1      -1.546  -0.502  -0.360  1.00  0.00    -0.005 C 
HETATM   10  C9  UNL     1       0.105   1.296  -0.092  1.00  0.00     0.029 C 
BRANCH   9  11
HETATM   11  C4  UNL     1      -2.500   0.435  -0.373  1.00  0.00     0.002 A 
HETATM   12  C3  UNL     1      -3.843   0.057  -0.298  1.00  0.00     0.026 A 
HETATM   13  C2  UNL     1      -4.792   1.057  -0.314  1.00  0.00     0.119 A 
HETATM   14  C1  UNL     1      -4.442   2.385  -0.399  1.00  0.00     0.119 A 
HETATM   15  O4  UNL     1      -6.138   0.878  -0.250  1.00  0.00    -0.300 OA
HETATM   16  C6  UNL     1      -3.126   2.786  -0.474  1.00  0.00     0.026 A 
HETATM   17  O5  UNL     1      -5.525   3.208  -0.400  1.00  0.00    -0.300 OA
HETATM   18  C5  UNL     1      -2.143   1.792  -0.460  1.00  0.00     0.002 A 
HETATM   19  C21 UNL     1      -6.596   2.245  -0.305  1.00  0.00     0.304 A 
ENDBRANCH   9  11
ENDBRANCH   1   8
BRANCH   1  20
HETATM   20  O1  UNL     1       0.322  -2.454  -0.607  1.00  0.00    -0.343 OA
HETATM   21  C11 UNL     1       0.095  -2.725  -1.963  1.00  0.00     0.175 C 
ENDBRANCH   1  20
BRANCH   6  22
HETATM   22  O2  UNL     1       1.518  -0.650  -2.500  1.00  0.00    -0.329 OA
HETATM   23  C17 UNL     1       1.630   0.607  -3.111  1.00  0.00     0.181 C 
ENDBRANCH   6  22
BRANCH   3  24
HETATM   24  C18 UNL     1       2.984  -1.307   2.972  1.00  0.00     0.055 C 
BRANCH  24  25
HETATM   25  C19 UNL     1       4.447  -1.033   3.130  1.00  0.00    -0.021 C 
HETATM   26  C20 UNL     1       5.019  -1.127   4.335  1.00  0.00    -0.005 C 
ENDBRANCH  24  25
ENDBRANCH   3  24
TORSDOF 6
