REMARK  8 active torsions:
REMARK  status: ('A' for Active; 'I' for Inactive)
REMARK    1  A    between atoms: O1_1  and  C1_2 
REMARK    2  A    between atoms: O1_1  and  C12_19 
REMARK    3  A    between atoms: C1_2  and  C2_3 
REMARK    4  A    between atoms: C6_7  and  O4_13 
REMARK    5  A    between atoms: C7_8  and  O2_9 
REMARK    6  A    between atoms: O2_9  and  C8_10 
REMARK    7  A    between atoms: O4_13  and  C10_14 
REMARK    8  A    between atoms: C12_19  and  C13_20 
ROOT
HETATM    1  C2  UNL     1      -1.577  -0.145   1.173  1.00  0.00     0.176 A 
HETATM    2  C3  UNL     1      -2.847  -0.878   1.173  1.00  0.00     0.174 A 
HETATM    3  C4  UNL     1      -2.924  -2.343   1.145  1.00  0.00     0.174 A 
HETATM    4  C5  UNL     1      -1.738  -3.205   1.108  1.00  0.00     0.175 A 
HETATM    5  C6  UNL     1      -0.383  -2.551   1.153  1.00  0.00     0.184 A 
HETATM    6  C7  UNL     1      -0.298  -0.938   1.173  1.00  0.00     0.184 A 
HETATM    7  O6  UNL     1      -2.526  -3.066   2.319  1.00  0.00    -0.349 OA
HETATM    8  O7  UNL     1      -2.350  -0.241   2.378  1.00  0.00    -0.349 OA
ENDROOT
BRANCH   1   9
HETATM    9  C1  UNL     1      -1.015   0.963   0.323  1.00  0.00     0.184 C 
BRANCH   9  10
HETATM   10  O1  UNL     1       0.306   1.226   0.710  1.00  0.00    -0.296 OA
BRANCH  10  11
HETATM   11  C12 UNL     1       1.009   2.179   0.087  1.00  0.00     0.296 C 
HETATM   12  O8  UNL     1       2.147   2.406   0.421  1.00  0.00    -0.259 OA
BRANCH  11  13
HETATM   13  C13 UNL     1       0.445   2.888  -0.915  1.00  0.00     0.063 A 
HETATM   14  C14 UNL     1       0.820   4.214  -1.129  1.00  0.00     0.005 A 
HETATM   15  C15 UNL     1       0.238   4.946  -2.164  1.00  0.00     0.000 A 
HETATM   16  C16 UNL     1      -0.719   4.351  -2.985  1.00  0.00     0.000 A 
HETATM   17  C17 UNL     1      -1.095   3.025  -2.772  1.00  0.00     0.000 A 
HETATM   18  C18 UNL     1      -0.512   2.293  -1.737  1.00  0.00     0.005 A 
ENDBRANCH  11  13
ENDBRANCH  10  11
ENDBRANCH   9  10
ENDBRANCH   1   9
BRANCH   6  19
HETATM   19  O2  UNL     1       0.410  -0.577   2.328  1.00  0.00    -0.299 OA
BRANCH  19  20
HETATM   20  C8  UNL     1       1.592   0.042   2.222  1.00  0.00     0.273 C 
HETATM   21  O3  UNL     1       2.202   0.352   3.218  1.00  0.00    -0.264 OA
HETATM   22  C9  UNL     1       2.163   0.351   0.860  1.00  0.00     0.106 C 
ENDBRANCH  19  20
ENDBRANCH   6  19
BRANCH   5  23
HETATM   23  O4  UNL     1       0.322  -2.987   0.022  1.00  0.00    -0.299 OA
BRANCH  23  24
HETATM   24  C10 UNL     1       1.428  -3.727   0.167  1.00  0.00     0.273 C 
HETATM   25  C11 UNL     1       2.187  -4.196  -1.051  1.00  0.00     0.106 C 
HETATM   26  O5  UNL     1       1.819  -4.019   1.272  1.00  0.00    -0.264 OA
ENDBRANCH  23  24
ENDBRANCH   5  23
TORSDOF 8
