REMARK  3 active torsions:
REMARK  status: ('A' for Active; 'I' for Inactive)
REMARK    1  A    between atoms: O1_9  and  C9_10 
REMARK    2  A    between atoms: C14_16  and  O3_17 
REMARK    3  A    between atoms: O3_17  and  C15_18 
ROOT
HETATM    1  C1  UNL     1      -0.614   0.748   0.932  1.00  0.00     0.029 C 
HETATM    2  C2  UNL     1      -0.614  -0.775   0.932  1.00  0.00     0.015 A 
HETATM    3  C3  UNL     1      -1.966  -1.282   0.449  1.00  0.00     0.006 A 
HETATM    4  C4  UNL     1       0.141  -1.375   0.641  1.00  0.00     0.028 A 
HETATM    5  C5  UNL     1       1.620  -1.044   0.497  1.00  0.00     0.014 A 
HETATM    6  C6  UNL     1       1.828   0.420   0.731  1.00  0.00     0.001 A 
HETATM    7  C7  UNL     1       0.797   1.247   0.932  1.00  0.00     0.002 C 
HETATM    8  C8  UNL     1       1.060   2.703   1.163  1.00  0.00     0.000 C 
HETATM    9  O1  UNL     1       1.907  -1.349  -0.841  1.00  0.00     0.000 OA
HETATM   10  C9  UNL     1       0.852  -2.067  -1.243  1.00  0.00     0.139 A 
HETATM   11  C10 UNL     1       0.513  -2.554   1.485  1.00  0.00     0.010 C 
HETATM   12  C11 UNL     1       0.607  -3.260   2.616  1.00  0.00    -0.002 C 
HETATM   13  O2  UNL     1       0.310  -2.361  -2.282  1.00  0.00    -0.294 OA
HETATM   14  C12 UNL     1       0.459  -1.143  -0.083  1.00  0.00     0.063 A 
HETATM   15  C13 UNL     1      -0.729   0.101  -1.376  1.00  0.00     0.041 C 
HETATM   16  C14 UNL     1      -1.283   1.117  -0.385  1.00  0.00     0.125 C 
HETATM   17  C17 UNL     1       0.528  -2.616  -0.466  1.00  0.00     0.014 A 
HETATM   18  O5  UNL     1       1.835  -0.977   0.126  1.00  0.00     0.000 OA
ENDROOT
BRANCH  16  19
HETATM   19  O3  UNL     1      -1.026   2.440  -0.769  1.00  0.00    -0.304 OA
BRANCH  19  20
HETATM   20  C15 UNL     1      -1.543   2.919  -1.907  1.00  0.00     0.272 C 
HETATM   21  C16 UNL     1      -1.267   4.344  -2.320  1.00  0.00     0.106 C 
HETATM   22  O4  UNL     1      -2.232   2.211  -2.602  1.00  0.00    -0.264 OA
ENDBRANCH  19  20
ENDBRANCH  16  19
TORSDOF 3
