REMARK  2 active torsions:
REMARK  status: ('A' for Active; 'I' for Inactive)
REMARK       I    between atoms: N1_1  and  C1_2 
REMARK    1  A    between atoms: N2_3  and  C2_4 
REMARK    2  A    between atoms: C2_4  and  C3_5 
ROOT
HETATM    1  N1  UNL     1      -3.945  -0.589   0.000  1.00  0.00    -0.113 NA
HETATM    2  C1  UNL     1      -2.853   0.041   0.000  1.00  0.00     0.757 C 
HETATM    3  N2  UNL     1      -1.757  -0.592   0.000  1.00  0.00    -0.080 NA
HETATM    4  N3  UNL     1      -2.853   1.307   0.000  1.00  0.00     0.061 N 
HETATM    5  H1  UNL     1      -4.830  -0.078   0.000  1.00  0.00     0.206 HD
ENDROOT
BRANCH   3   6
HETATM    6  C2  UNL     1      -0.484   0.143   0.000  1.00  0.00     0.171 C 
BRANCH   6   7
HETATM    7  C3  UNL     1       0.654  -0.829   0.000  1.00  0.00    -0.008 C 
HETATM    8  C4  UNL     1       1.915  -0.383   0.000  1.00  0.00    -0.046 C 
HETATM    9  C5  UNL     1       3.053  -1.355   0.000  1.00  0.00     0.026 C 
HETATM   10  C6  UNL     1       2.188   1.089   0.000  1.00  0.00     0.026 C 
ENDBRANCH   6   7
ENDBRANCH   3   6
TORSDOF 2
