REMARK  1 active torsions:
REMARK  status: ('A' for Active; 'I' for Inactive)
REMARK    1  A    between atoms: C1_1  and  C7_10 
ROOT
HETATM    1  C1  UNL     1       0.790   0.755  -0.202  1.00  0.00     0.069 A 
HETATM    2  C2  UNL     1       1.307  -0.443   0.125  1.00  0.00     0.036 A 
HETATM    3  C3  UNL     1       0.514  -1.491   0.407  1.00  0.00     0.159 A 
HETATM    4  C4  UNL     1      -0.821  -1.337   0.359  1.00  0.00     0.181 A 
HETATM    5  C5  UNL     1      -1.358  -0.149   0.031  1.00  0.00     0.159 A 
HETATM    6  C6  UNL     1      -0.547   0.885  -0.244  1.00  0.00     0.036 A 
HETATM    7  O1  UNL     1      -2.709  -0.006  -0.013  1.00  0.00    -0.188 OA
HETATM    8  O2  UNL     1      -1.639  -2.385   0.641  1.00  0.00    -0.186 OA
HETATM    9  O3  UNL     1       1.033  -2.705   0.737  1.00  0.00    -0.188 OA
ENDROOT
BRANCH   1  10
HETATM   10  C7  UNL     1       1.592   1.819  -0.486  1.00  0.00     0.211 C 
HETATM   11  O4  UNL     1       1.110   3.038  -0.819  1.00  0.00    -0.644 OA
HETATM   12  O5  UNL     1       2.799   1.729  -0.452  1.00  0.00    -0.644 OA
ENDBRANCH   1  10
TORSDOF 1
