REMARK  4 active torsions:
REMARK  status: ('A' for Active; 'I' for Inactive)
REMARK    1  A    between atoms: C4_4  and  C7_8 
REMARK    2  A    between atoms: C7_8  and  O3_10 
REMARK    3  A    between atoms: O3_10  and  C8_11 
REMARK    4  A    between atoms: C8_11  and  C9_12 
ROOT
HETATM    1  O3  UNL     1      -2.042   0.038  -0.141  1.00  0.00    -0.296 OA
ENDROOT
BRANCH   1   2
HETATM    2  C7  UNL     1      -2.555   1.232  -0.460  1.00  0.00     0.296 C 
HETATM    3  O2  UNL     1      -3.752   1.383  -0.502  1.00  0.00    -0.259 OA
BRANCH   2   4
HETATM    4  C4  UNL     1      -1.733   2.268  -0.735  1.00  0.00     0.067 A 
HETATM    5  C3  UNL     1      -0.350   2.094  -0.686  1.00  0.00     0.035 A 
HETATM    6  C2  UNL     1       0.498   3.164  -0.970  1.00  0.00     0.158 A 
HETATM    7  C1  UNL     1      -0.036   4.408  -1.303  1.00  0.00     0.181 A 
HETATM    8  O9  UNL     1       1.842   2.994  -0.923  1.00  0.00    -0.188 OA
HETATM    9  C6  UNL     1      -1.419   4.583  -1.351  1.00  0.00     0.158 A 
HETATM   10  O10 UNL     1       0.788   5.448  -1.579  1.00  0.00    -0.186 OA
HETATM   11  C5  UNL     1      -2.268   3.513  -1.067  1.00  0.00     0.035 A 
HETATM   12  O1  UNL     1      -1.939   5.792  -1.674  1.00  0.00    -0.188 OA
ENDBRANCH   2   4
ENDBRANCH   1   2
BRANCH   1  13
HETATM   13  C8  UNL     1      -0.652  -0.138  -0.092  1.00  0.00     0.184 C 
BRANCH  13  14
HETATM   14  C9  UNL     1      -0.334  -1.577   0.292  1.00  0.00     0.181 C 
HETATM   15  C10 UNL     1       0.460  -1.583   1.592  1.00  0.00     0.215 C 
HETATM   16  C11 UNL     1       0.887  -3.001   1.957  1.00  0.00     0.220 C 
HETATM   17  O8  UNL     1      -0.340  -1.065   2.621  1.00  0.00    -0.218 OA
HETATM   18  C12 UNL     1       1.569  -3.677   0.772  1.00  0.00     0.244 C 
HETATM   19  O7  UNL     1       1.782  -2.948   3.034  1.00  0.00    -0.218 OA
HETATM   20  C13 UNL     1       0.714  -3.555  -0.483  1.00  0.00     0.303 C 
HETATM   21  O6  UNL     1       1.762  -5.034   1.066  1.00  0.00    -0.215 OA
HETATM   22  O4  UNL     1       0.413  -2.188  -0.760  1.00  0.00    -0.324 OA
HETATM   23  O5  UNL     1       1.412  -4.101  -1.569  1.00  0.00    -0.187 OA
ENDBRANCH  13  14
ENDBRANCH   1  13
TORSDOF 4
