REMARK  4 active torsions:
REMARK  status: ('A' for Active; 'I' for Inactive)
REMARK    1  A    between atoms: C4_4  and  C7_8 
REMARK    2  A    between atoms: C7_8  and  O3_10 
REMARK    3  A    between atoms: O3_10  and  C8_11 
REMARK    4  A    between atoms: C9_13  and  C13_20 
ROOT
HETATM    1  O3  UNL     1      -0.725   0.075  -0.560  1.00  0.00    -0.270 OA
ENDROOT
BRANCH   1   2
HETATM    2  C7  UNL     1      -0.186   1.199  -1.129  1.00  0.00     0.298 C 
HETATM    3  O2  UNL     1      -0.902   2.152  -1.353  1.00  0.00    -0.259 OA
BRANCH   2   4
HETATM    4  C4  UNL     1       1.118   1.249  -1.530  1.00  0.00     0.068 A 
HETATM    5  C3  UNL     1       1.631   2.348  -2.109  1.00  0.00     0.035 A 
HETATM    6  C2  UNL     1       2.909   2.398  -2.520  1.00  0.00     0.158 A 
HETATM    7  C1  UNL     1       3.696   1.318  -2.355  1.00  0.00     0.181 A 
HETATM    8  O9  UNL     1       3.393   3.528  -3.105  1.00  0.00    -0.188 OA
HETATM    9  C6  UNL     1       3.211   0.215  -1.756  1.00  0.00     0.158 A 
HETATM   10  O10 UNL     1       4.997   1.343  -2.756  1.00  0.00    -0.186 OA
HETATM   11  C5  UNL     1       1.929   0.190  -1.357  1.00  0.00     0.035 A 
HETATM   12  O1  UNL     1       4.011  -0.875  -1.602  1.00  0.00    -0.188 OA
ENDBRANCH   2   4
ENDBRANCH   1   2
BRANCH   1  13
HETATM   13  C8  UNL     1      -2.126  -0.069  -0.514  1.00  0.00     0.277 C 
HETATM   14  O4  UNL     1      -2.636   0.698   0.554  1.00  0.00    -0.326 OA
HETATM   15  C9  UNL     1      -2.429   0.200   1.849  1.00  0.00     0.184 C 
HETATM   16  C10 UNL     1      -2.808  -1.268   1.992  1.00  0.00     0.215 C 
HETATM   17  C11 UNL     1      -2.254  -2.151   0.894  1.00  0.00     0.220 C 
HETATM   18  O7  UNL     1      -2.352  -1.780   3.223  1.00  0.00    -0.218 OA
HETATM   19  C12 UNL     1      -2.522  -1.529  -0.459  1.00  0.00     0.241 C 
HETATM   20  O6  UNL     1      -0.870  -2.302   1.091  1.00  0.00    -0.218 OA
HETATM   21  O5  UNL     1      -3.899  -1.642  -0.742  1.00  0.00    -0.215 OA
BRANCH  15  22
HETATM   22  C13 UNL     1      -1.071   0.608   2.408  1.00  0.00     0.214 C 
HETATM   23  O8  UNL     1      -1.077   0.446   3.814  1.00  0.00    -0.218 OA
ENDBRANCH  15  22
ENDBRANCH   1  13
TORSDOF 4
