REMARK  5 active torsions:
REMARK  status: ('A' for Active; 'I' for Inactive)
REMARK    1  A    between atoms: C4_4  and  C7_8 
REMARK    2  A    between atoms: C7_8  and  O3_10 
REMARK    3  A    between atoms: O3_10  and  C8_11 
REMARK    4  A    between atoms: C8_11  and  C9_12 
REMARK    5  A    between atoms: C9_12  and  C10_13 
ROOT
HETATM    1  C1  UNL     1       0.732   3.568  -0.706  1.00  0.00     0.181 A 
HETATM    2  C2  UNL     1       1.364   2.420  -0.407  1.00  0.00     0.158 A 
HETATM    3  C3  UNL     1       0.643   1.319  -0.128  1.00  0.00     0.035 A 
HETATM    4  C4  UNL     1      -0.702   1.300  -0.129  1.00  0.00     0.067 A 
HETATM    5  C5  UNL     1      -1.294   2.474  -0.436  1.00  0.00     0.035 A 
HETATM    6  C6  UNL     1      -0.611   3.596  -0.720  1.00  0.00     0.158 A 
HETATM    7  O1  UNL     1      -1.263   4.752  -1.024  1.00  0.00    -0.188 OA
HETATM    8  O6  UNL     1       2.725   2.372  -0.387  1.00  0.00    -0.188 OA
HETATM    9  O7  UNL     1       1.440   4.696  -0.990  1.00  0.00    -0.186 OA
ENDROOT
BRANCH   4  10
HETATM   10  C7  UNL     1      -1.484   0.207   0.150  1.00  0.00     0.296 C 
HETATM   11  O2  UNL     1      -2.685   0.396   0.084  1.00  0.00    -0.259 OA
BRANCH  10  12
HETATM   12  O3  UNL     1      -1.160  -1.084   0.494  1.00  0.00    -0.296 OA
BRANCH  12  13
HETATM   13  C8  UNL     1       0.127  -1.596   0.665  1.00  0.00     0.188 C 
BRANCH  13  14
HETATM   14  C9  UNL     1       0.010  -3.052   1.096  1.00  0.00     0.215 C 
HETATM   15  O5  UNL     1       1.299  -3.582   1.292  1.00  0.00    -0.218 OA
BRANCH  14  16
HETATM   16  C10 UNL     1      -0.687  -3.933   0.077  1.00  0.00     0.218 C 
HETATM   17  O4  UNL     1      -0.581  -5.270   0.520  1.00  0.00    -0.218 OA
ENDBRANCH  14  16
ENDBRANCH  13  14
ENDBRANCH  12  13
ENDBRANCH  10  12
ENDBRANCH   4  10
TORSDOF 5
