REMARK  4 active torsions:
REMARK  status: ('A' for Active; 'I' for Inactive)
REMARK    1  A    between atoms: C3_3  and  O5_20 
REMARK    2  A    between atoms: C7_8  and  C10_12 
REMARK    3  A    between atoms: O5_20  and  C16_21 
REMARK    4  A    between atoms: C17_23  and  C21_30 
ROOT
HETATM    1  C1  UNL     1      -4.623  -0.637  -0.139  1.00  0.00     0.135 A 
HETATM    2  C2  UNL     1      -4.105   0.657  -0.107  1.00  0.00     0.052 A 
HETATM    3  C3  UNL     1      -2.723   0.860  -0.085  1.00  0.00     0.104 A 
HETATM    4  C4  UNL     1      -1.849  -0.235  -0.095  1.00  0.00     0.084 A 
HETATM    5  C5  UNL     1      -2.380  -1.532  -0.128  1.00  0.00     0.107 A 
HETATM    6  C6  UNL     1      -3.760  -1.733  -0.149  1.00  0.00     0.052 A 
HETATM    7  O1  UNL     1      -1.589  -2.660  -0.140  1.00  0.00    -0.307 OA
HETATM    8  C7  UNL     1      -0.224  -2.491  -0.119  1.00  0.00     0.103 A 
HETATM    9  C8  UNL     1       0.403  -1.310  -0.087  1.00  0.00     0.067 A 
HETATM   10  C9  UNL     1      -0.359  -0.024  -0.072  1.00  0.00     0.201 A 
HETATM   11  O2  UNL     1       0.163   1.065  -0.044  1.00  0.00    -0.286 OA
HETATM   12  O11 UNL     1      -5.964  -0.830  -0.160  1.00  0.00    -0.190 OA
ENDROOT
BRANCH   3  13
HETATM   13  O5  UNL     1      -2.226   2.120  -0.054  1.00  0.00    -0.303 OA
BRANCH  13  14
HETATM   14  C16 UNL     1      -0.840   2.326  -0.032  1.00  0.00     0.274 C 
HETATM   15  O6  UNL     1      -0.490   3.027   1.161  1.00  0.00    -0.326 OA
HETATM   16  C17 UNL     1       0.918   3.238   1.268  1.00  0.00     0.184 C 
HETATM   17  C18 UNL     1       1.426   4.089   0.111  1.00  0.00     0.215 C 
HETATM   18  C19 UNL     1       1.053   3.458  -1.226  1.00  0.00     0.220 C 
HETATM   19  O9  UNL     1       2.821   4.194   0.197  1.00  0.00    -0.218 OA
HETATM   20  C20 UNL     1      -0.434   3.123  -1.265  1.00  0.00     0.241 C 
HETATM   21  O8  UNL     1       1.349   4.360  -2.259  1.00  0.00    -0.218 OA
HETATM   22  O7  UNL     1      -0.704   2.364  -2.412  1.00  0.00    -0.215 OA
BRANCH  16  23
HETATM   23  C21 UNL     1       1.217   3.951   2.581  1.00  0.00     0.214 C 
HETATM   24  O10 UNL     1       2.055   3.150   3.369  1.00  0.00    -0.218 OA
ENDBRANCH  16  23
ENDBRANCH  13  14
ENDBRANCH   3  13
BRANCH   8  25
HETATM   25  C10 UNL     1       0.534  -3.592  -0.131  1.00  0.00     0.025 A 
HETATM   26  C11 UNL     1      -0.066  -4.851  -0.163  1.00  0.00     0.004 A 
HETATM   27  C12 UNL     1       0.725  -6.000  -0.176  1.00  0.00     0.030 A 
HETATM   28  C13 UNL     1       2.115  -5.890  -0.156  1.00  0.00     0.156 A 
HETATM   29  C14 UNL     1       2.715  -4.631  -0.124  1.00  0.00     0.156 A 
HETATM   30  O4  UNL     1       2.884  -7.006  -0.169  1.00  0.00    -0.188 OA
HETATM   31  C15 UNL     1       1.924  -3.482  -0.111  1.00  0.00     0.032 A 
HETATM   32  O3  UNL     1       4.066  -4.524  -0.104  1.00  0.00    -0.188 OA
ENDBRANCH   8  25
TORSDOF 4
