REMARK  2 active torsions:
REMARK  status: ('A' for Active; 'I' for Inactive)
REMARK    1  A    between atoms: C3_3  and  O5_21 
REMARK    2  A    between atoms: C8_9  and  C10_12 
ROOT
HETATM    1  C1  UNL     1      -4.468  -0.005  -0.516  1.00  0.00     0.104 A 
HETATM    2  C2  UNL     1      -3.973  -1.300  -0.411  1.00  0.00     0.047 A 
HETATM    3  C3  UNL     1      -2.588  -1.481  -0.245  1.00  0.00     0.101 A 
HETATM    4  C4  UNL     1      -1.754  -0.347  -0.190  1.00  0.00     0.084 A 
HETATM    5  C5  UNL     1      -2.306   0.940  -0.302  1.00  0.00     0.107 A 
HETATM    6  C6  UNL     1      -3.680   1.141  -0.468  1.00  0.00     0.050 A 
HETATM    7  O1  UNL     1      -1.534   2.084  -0.255  1.00  0.00    -0.305 OA
HETATM    8  C7  UNL     1      -0.177   1.944  -0.093  1.00  0.00     0.126 A 
HETATM    9  C8  UNL     1       0.467   0.778   0.024  1.00  0.00     0.064 A 
HETATM   10  C9  UNL     1      -0.268  -0.522  -0.013  1.00  0.00     0.201 A 
HETATM   11  O2  UNL     1       0.272  -1.598   0.089  1.00  0.00    -0.286 OA
HETATM   12  C18 UNL     1      -5.104  -2.154  -0.509  1.00  0.00     0.031 A 
HETATM   13  C19 UNL     1      -6.198  -1.334  -0.666  1.00  0.00     0.123 A 
HETATM   14  O6  UNL     1      -5.821  -0.028  -0.671  1.00  0.00    -0.305 OA
ENDROOT
BRANCH   9  15
HETATM   15  C10 UNL     1       1.795   0.776   0.177  1.00  0.00     0.007 A 
HETATM   16  C11 UNL     1       2.491   1.988   0.213  1.00  0.00     0.026 A 
HETATM   17  C12 UNL     1       3.859   1.936   0.373  1.00  0.00     0.119 A 
HETATM   18  C13 UNL     1       4.529   0.741   0.494  1.00  0.00     0.119 A 
HETATM   19  O4  UNL     1       4.694   3.008   0.430  1.00  0.00    -0.300 OA
HETATM   20  C14 UNL     1       3.869  -0.469   0.463  1.00  0.00     0.026 A 
HETATM   21  O3  UNL     1       5.870   0.911   0.643  1.00  0.00    -0.300 OA
HETATM   22  C15 UNL     1       2.481  -0.446   0.302  1.00  0.00     0.002 A 
HETATM   23  C16 UNL     1       5.967   2.350   0.601  1.00  0.00     0.304 A 
ENDBRANCH   9  15
BRANCH   3  24
HETATM   24  O5  UNL     1      -2.065  -2.726  -0.138  1.00  0.00    -0.328 OA
HETATM   25  C17 UNL     1      -0.683  -2.894   0.027  1.00  0.00     0.181 C 
ENDBRANCH   3  24
TORSDOF 2
