REMARK  5 active torsions:
REMARK  status: ('A' for Active; 'I' for Inactive)
REMARK    1  A    between atoms: C6_6  and  C7_7 
REMARK    2  A    between atoms: C7_7  and  C8_8 
REMARK    3  A    between atoms: C12_13  and  C15_17 
REMARK    4  A    between atoms: C17_19  and  C21_25 
REMARK    5  A    between atoms: C21_25  and  C22_26 
ROOT
HETATM    1  C1  UNL     1      -2.863  -3.851   2.132  1.00  0.00     0.131 A 
HETATM    2  C2  UNL     1      -2.439  -5.050   1.564  1.00  0.00     0.055 A 
HETATM    3  C3  UNL     1      -1.323  -5.071   0.727  1.00  0.00     0.138 A 
HETATM    4  C4  UNL     1      -0.620  -3.889   0.453  1.00  0.00     0.082 A 
HETATM    5  C5  UNL     1      -1.068  -2.685   1.008  1.00  0.00     0.097 A 
HETATM    6  C6  UNL     1      -2.176  -2.669   1.856  1.00  0.00     0.030 A 
HETATM    7  O1  UNL     1      -0.454  -1.478   0.798  1.00  0.00    -0.329 OA
HETATM    8  C12 UNL     1       0.451  -1.455  -0.309  1.00  0.00     0.151 C 
HETATM    9  C13 UNL     1       1.396  -2.645  -0.298  1.00  0.00     0.104 C 
HETATM   10  C14 UNL     1       0.581  -3.921  -0.448  1.00  0.00     0.180 C 
HETATM   11  O2  UNL     1       0.861  -4.833  -1.189  1.00  0.00    -0.291 OA
HETATM   12  O5  UNL     1      -0.916  -6.240   0.175  1.00  0.00    -0.190 OA
HETATM   13  O6  UNL     1      -3.942  -3.832   2.952  1.00  0.00    -0.190 OA
ENDROOT
BRANCH   8  14
HETATM   14  C15 UNL     1       1.259  -0.197  -0.245  1.00  0.00     0.007 A 
HETATM   15  C16 UNL     1       1.190   0.730  -1.285  1.00  0.00    -0.004 A 
HETATM   16  C17 UNL     1       1.943   1.903  -1.225  1.00  0.00     0.009 A 
HETATM   17  C18 UNL     1       2.766   2.148  -0.126  1.00  0.00     0.152 A 
HETATM   18  C19 UNL     1       2.835   1.222   0.914  1.00  0.00     0.156 A 
HETATM   19  O4  UNL     1       3.497   3.288  -0.068  1.00  0.00    -0.188 OA
HETATM   20  C20 UNL     1       2.082   0.049   0.855  1.00  0.00     0.028 A 
HETATM   21  O3  UNL     1       3.634   1.460   1.982  1.00  0.00    -0.188 OA
BRANCH  16  22
HETATM   22  C21 UNL     1       1.869   2.898  -2.341  1.00  0.00     0.054 C 
BRANCH  22  23
HETATM   23  C22 UNL     1       0.924   2.401  -3.391  1.00  0.00    -0.030 C 
HETATM   24  C23 UNL     1       0.700   3.132  -4.488  1.00  0.00    -0.048 C 
HETATM   25  C24 UNL     1      -0.245   2.635  -5.538  1.00  0.00     0.026 C 
HETATM   26  C25 UNL     1       1.394   4.446  -4.667  1.00  0.00     0.026 C 
ENDBRANCH  22  23
ENDBRANCH  16  22
ENDBRANCH   8  14
BRANCH   6  27
HETATM   27  C7  UNL     1      -2.628  -1.381   2.470  1.00  0.00     0.056 C 
BRANCH  27  28
HETATM   28  C8  UNL     1      -1.436  -0.531   2.781  1.00  0.00    -0.030 C 
HETATM   29  C9  UNL     1      -1.601   0.673   3.339  1.00  0.00    -0.048 C 
HETATM   30  C10 UNL     1      -0.409   1.524   3.650  1.00  0.00     0.026 C 
HETATM   31  C11 UNL     1      -2.977   1.171   3.652  1.00  0.00     0.026 C 
ENDBRANCH  27  28
ENDBRANCH   6  27
TORSDOF 5
