REMARK  1 active torsions:
REMARK  status: ('A' for Active; 'I' for Inactive)
REMARK    1  A    between atoms: C9_10  and  O2_11 
ROOT
HETATM    1  C1  UNL     1      -4.580   1.475  -0.062  1.00  0.00     0.117 A 
HETATM    2  C2  UNL     1      -4.460  -0.017  -0.002  1.00  0.00     0.001 A 
HETATM    3  C3  UNL     1      -3.286  -0.652   0.028  1.00  0.00     0.002 A 
HETATM    4  C4  UNL     1      -2.078   0.158   0.000  1.00  0.00     0.044 A 
HETATM    5  C5  UNL     1      -2.176   1.554  -0.052  1.00  0.00     0.098 A 
HETATM    6  O1  UNL     1      -3.364   2.232  -0.080  1.00  0.00    -0.332 OA
HETATM    7  C6  UNL     1      -1.024   2.347  -0.079  1.00  0.00     0.049 A 
HETATM    8  C7  UNL     1       0.239   1.757  -0.054  1.00  0.00     0.109 A 
HETATM    9  C8  UNL     1       0.338   0.356  -0.002  1.00  0.00     0.068 A 
HETATM   10  C9  UNL     1      -0.817  -0.446   0.026  1.00  0.00     0.100 A 
HETATM   11  C11 UNL     1       1.609  -0.206   0.022  1.00  0.00     0.109 A 
HETATM   12  C12 UNL     1       2.724   0.599  -0.006  1.00  0.00     0.088 A 
HETATM   13  C13 UNL     1       2.638   2.072  -0.063  1.00  0.00     0.302 A 
HETATM   14  O3  UNL     1       1.302   2.623  -0.083  1.00  0.00    -0.273 OA
HETATM   15  O4  UNL     1       3.622   2.772  -0.091  1.00  0.00    -0.259 OA
HETATM   16  C14 UNL     1       3.848  -0.268   0.029  1.00  0.00     0.030 A 
HETATM   17  C15 UNL     1       3.323  -1.557   0.077  1.00  0.00     0.102 A 
HETATM   18  O5  UNL     1       1.960  -1.518   0.073  1.00  0.00    -0.307 OA
HETATM   19  C16 UNL     1       4.096  -2.714   0.123  1.00  0.00     0.052 A 
HETATM   20  C17 UNL     1       5.484  -2.538   0.119  1.00  0.00     0.133 A 
HETATM   21  C18 UNL     1       6.051  -1.262   0.072  1.00  0.00     0.028 A 
HETATM   22  C19 UNL     1       5.246  -0.114   0.026  1.00  0.00     0.004 A 
HETATM   23  O6  UNL     1       6.293  -3.625   0.163  1.00  0.00    -0.190 OA
HETATM   24  C20 UNL     1      -5.378   1.919   1.157  1.00  0.00     0.035 C 
HETATM   25  C21 UNL     1      -5.239   1.761  -1.406  1.00  0.00     0.035 C 
ENDROOT
BRANCH  10  26
HETATM   26  O2  UNL     1      -0.709  -1.796   0.076  1.00  0.00    -0.328 OA
HETATM   27  C10 UNL     1       0.558  -2.397   0.112  1.00  0.00     0.181 C 
ENDBRANCH  10  26
TORSDOF 1
