REMARK  5 active torsions:
REMARK  status: ('A' for Active; 'I' for Inactive)
REMARK    1  A    between atoms: C1_1  and  C14_16 
REMARK    2  A    between atoms: N1_2  and  C6_8 
REMARK    3  A    between atoms: C2_3  and  C5_6 
REMARK    4  A    between atoms: C6_8  and  C7_9 
REMARK    5  A    between atoms: C7_9  and  C8_10 
ROOT
HETATM    1  C1  UNL     1       1.042  -1.964   1.996  1.00  0.00     0.106 A 
HETATM    2  N1  UNL     1       0.180  -1.345   1.288  1.00  0.00    -0.307 N 
HETATM    3  C2  UNL     1      -1.026  -1.693   1.525  1.00  0.00     0.074 A 
HETATM    4  C3  UNL     1      -0.931  -2.638   2.479  1.00  0.00     0.017 A 
HETATM    5  C4  UNL     1       0.361  -2.815   2.778  1.00  0.00     0.022 A 
ENDROOT
BRANCH   2   6
HETATM    6  C6  UNL     1       0.621  -0.318   0.309  1.00  0.00     0.058 C 
BRANCH   6   7
HETATM    7  C7  UNL     1      -0.342   0.348  -0.683  1.00  0.00     0.072 C 
BRANCH   7   8
HETATM    8  C8  UNL     1       0.247   1.365  -1.649  1.00  0.00    -0.016 A 
HETATM    9  C9  UNL     1      -0.573   1.964  -2.533  1.00  0.00    -0.004 A 
HETATM   10  C10 UNL     1      -0.118   2.867  -3.415  1.00  0.00    -0.000 A 
HETATM   11  C11 UNL     1       1.183   3.191  -3.429  1.00  0.00    -0.000 A 
HETATM   12  C12 UNL     1       2.016   2.608  -2.554  1.00  0.00    -0.000 A 
HETATM   13  C13 UNL     1       1.549   1.706  -1.675  1.00  0.00    -0.004 A 
ENDBRANCH   7   8
ENDBRANCH   6   7
ENDBRANCH   2   6
BRANCH   1  14
HETATM   14  C14 UNL     1       2.394  -1.853   2.029  1.00  0.00     0.252 C 
HETATM   15  O2  UNL     1       3.096  -2.520   2.752  1.00  0.00    -0.281 OA
ENDBRANCH   1  14
BRANCH   3  16
HETATM   16  C5  UNL     1      -2.376  -1.278   1.001  1.00  0.00     0.226 C 
HETATM   17  O1  UNL     1      -2.784  -0.040   1.569  1.00  0.00    -0.214 OA
ENDBRANCH   3  16
TORSDOF 5
