REMARK  6 active torsions:
REMARK  status: ('A' for Active; 'I' for Inactive)
REMARK    1  A    between atoms: C5_5  and  C7_7 
REMARK    2  A    between atoms: C8_8  and  C9_9 
REMARK    3  A    between atoms: C10_10  and  C11_11 
REMARK    4  A    between atoms: C11_11  and  C12_12 
REMARK    5  A    between atoms: C12_12  and  C13_13 
REMARK    6  A    between atoms: C13_13  and  C14_14 
ROOT
HETATM    1  C9  UNL     1      -0.342  -0.428   1.312  1.00  0.00     0.003 C 
HETATM    2  C10 UNL     1       0.869  -0.342   1.885  1.00  0.00     0.037 C 
ENDROOT
BRANCH   2   3
HETATM    3  C11 UNL     1       1.596   0.936   1.908  1.00  0.00     0.173 C 
HETATM    4  O1  UNL     1       2.248   1.250   2.875  1.00  0.00    -0.291 OA
BRANCH   3   5
HETATM    5  C12 UNL     1       1.506   1.836   0.705  1.00  0.00     0.074 C 
BRANCH   5   6
HETATM    6  C13 UNL     1       2.844   2.492   0.369  1.00  0.00     0.035 C 
BRANCH   6   7
HETATM    7  C14 UNL     1       2.797   3.190  -0.944  1.00  0.00    -0.022 A 
HETATM    8  C15 UNL     1       2.412   4.541  -1.010  1.00  0.00    -0.004 A 
HETATM    9  C16 UNL     1       2.367   5.199  -2.250  1.00  0.00    -0.000 A 
HETATM   10  C17 UNL     1       2.705   4.510  -3.426  1.00  0.00    -0.000 A 
HETATM   11  C18 UNL     1       3.088   3.158  -3.362  1.00  0.00    -0.000 A 
HETATM   12  C19 UNL     1       3.135   2.498  -2.121  1.00  0.00    -0.004 A 
ENDBRANCH   6   7
ENDBRANCH   5   6
ENDBRANCH   3   5
ENDBRANCH   2   3
BRANCH   1  13
HETATM   13  C8  UNL     1      -1.068  -1.703   1.287  1.00  0.00     0.000 C 
HETATM   14  C7  UNL     1      -2.279  -1.791   0.717  1.00  0.00     0.000 C 
BRANCH  14  15
HETATM   15  C5  UNL     1      -2.979  -3.111   0.717  1.00  0.00     0.000 A 
HETATM   16  C4  UNL     1      -2.232  -4.305   0.717  1.00  0.00     0.000 A 
HETATM   17  C3  UNL     1      -2.893  -5.545   0.717  1.00  0.00     0.000 A 
HETATM   18  C2  UNL     1      -4.297  -5.596   0.717  1.00  0.00     0.000 A 
HETATM   19  C1  UNL     1      -5.043  -4.406   0.717  1.00  0.00     0.000 A 
HETATM   20  C6  UNL     1      -4.385  -3.164   0.717  1.00  0.00     0.000 A 
ENDBRANCH  14  15
ENDBRANCH   1  13
TORSDOF 6
