REMARK  5 active torsions:
REMARK  status: ('A' for Active; 'I' for Inactive)
REMARK    1  A    between atoms: C2_2  and  O8_27 
REMARK    2  A    between atoms: C8_10  and  C11_14 
REMARK    3  A    between atoms: C13_16  and  O6_24 
REMARK    4  A    between atoms: C14_17  and  O5_22 
REMARK    5  A    between atoms: C15_18  and  O4_20 
ROOT
HETATM    1  C1  UNL     1      -3.707   2.153  -0.027  1.00  0.00     0.149 A 
HETATM    2  C2  UNL     1      -3.189   3.447   0.005  1.00  0.00     0.144 A 
HETATM    3  C3  UNL     1      -1.808   3.650   0.027  1.00  0.00     0.160 A 
HETATM    4  C4  UNL     1      -0.933   2.554   0.017  1.00  0.00     0.091 A 
HETATM    5  C5  UNL     1      -1.464   1.258  -0.016  1.00  0.00     0.130 A 
HETATM    6  C6  UNL     1      -2.845   1.057  -0.037  1.00  0.00     0.147 A 
HETATM    7  O1  UNL     1      -3.346  -0.201  -0.068  1.00  0.00    -0.299 OA
HETATM    8  C7  UNL     1      -4.734  -0.402  -0.090  1.00  0.00     0.149 A 
HETATM    9  O2  UNL     1      -0.673   0.130  -0.028  1.00  0.00    -0.305 OA
HETATM   10  C8  UNL     1       0.691   0.299  -0.007  1.00  0.00     0.103 A 
HETATM   11  C9  UNL     1       1.319   1.480   0.025  1.00  0.00     0.067 A 
HETATM   12  C10 UNL     1       0.556   2.766   0.040  1.00  0.00     0.202 A 
HETATM   13  O3  UNL     1       1.078   3.854   0.068  1.00  0.00    -0.286 OA
HETATM   14  O7  UNL     1      -1.311   4.910   0.058  1.00  0.00    -0.188 OA
HETATM   15  O9  UNL     1      -5.048   1.960  -0.048  1.00  0.00    -0.299 OA
HETATM   16  C21 UNL     1      -5.569   0.658  -0.080  1.00  0.00     0.149 A 
ENDROOT
BRANCH  10  17
HETATM   17  C11 UNL     1       1.449  -0.802  -0.019  1.00  0.00     0.027 A 
HETATM   18  C12 UNL     1       0.850  -2.061  -0.051  1.00  0.00     0.028 A 
HETATM   19  C13 UNL     1       1.641  -3.210  -0.064  1.00  0.00     0.118 A 
HETATM   20  C14 UNL     1       3.031  -3.100  -0.044  1.00  0.00     0.138 A 
HETATM   21  C15 UNL     1       3.631  -1.841  -0.012  1.00  0.00     0.118 A 
HETATM   22  C16 UNL     1       2.840  -0.692   0.001  1.00  0.00     0.028 A 
BRANCH  19  23
HETATM   23  O6  UNL     1       1.058  -4.433  -0.095  1.00  0.00    -0.326 OA
HETATM   24  C19 UNL     1       1.853  -5.588  -0.108  1.00  0.00     0.181 C 
ENDBRANCH  19  23
BRANCH  20  25
HETATM   25  O5  UNL     1       3.799  -4.216  -0.057  1.00  0.00    -0.324 OA
HETATM   26  C18 UNL     1       5.197  -4.105  -0.037  1.00  0.00     0.182 C 
ENDBRANCH  20  25
BRANCH  21  27
HETATM   27  O4  UNL     1       4.981  -1.734   0.008  1.00  0.00    -0.326 OA
HETATM   28  C17 UNL     1       5.584  -0.468   0.027  1.00  0.00     0.181 C 
ENDBRANCH  21  27
ENDBRANCH  10  17
BRANCH   2  29
HETATM   29  O8  UNL     1      -4.028   4.511   0.015  1.00  0.00    -0.324 OA
HETATM   30  C20 UNL     1      -3.533   5.792   0.297  1.00  0.00     0.182 C 
ENDBRANCH   2  29
TORSDOF 5
