REMARK  18 active torsions:
REMARK  status: ('A' for Active; 'I' for Inactive)
REMARK    1  A    between atoms: C6_6  and  C7_7 
REMARK    2  A    between atoms: C7_7  and  C8_8 
REMARK    3  A    between atoms: C8_8  and  C9_9 
REMARK    4  A    between atoms: C9_9  and  C10_10 
REMARK    5  A    between atoms: C10_10  and  C11_11 
REMARK    6  A    between atoms: C18_19  and  C19_21 
REMARK    7  A    between atoms: C19_21  and  C20_22 
REMARK    8  A    between atoms: C20_22  and  C21_23 
REMARK    9  A    between atoms: C21_23  and  C22_24 
REMARK   10  A    between atoms: C22_24  and  C23_25 
REMARK   11  A    between atoms: C23_25  and  C24_26 
REMARK   12  A    between atoms: C24_26  and  C25_27 
REMARK   13  A    between atoms: C25_27  and  C26_28 
REMARK   14  A    between atoms: C26_28  and  C27_29 
REMARK   15  A    between atoms: C27_29  and  C28_30 
REMARK   16  A    between atoms: C28_30  and  C29_31 
REMARK   17  A    between atoms: C29_31  and  C30_32 
REMARK   18  A    between atoms: C30_32  and  C31_33 
ROOT
HETATM    1  C1  UNL     1      -0.388   5.912   3.147  1.00  0.00     0.036 C 
HETATM    2  C2  UNL     1      -1.905   5.901   3.019  1.00  0.00     0.003 C 
HETATM    3  C3  UNL     1      -2.389   4.469   2.834  1.00  0.00     0.000 C 
HETATM    4  C4  UNL     1      -3.907   4.458   2.706  1.00  0.00     0.003 C 
HETATM    5  C5  UNL     1      -4.391   3.025   2.522  1.00  0.00     0.030 C 
HETATM    6  C6  UNL     1      -3.771   2.437   1.261  1.00  0.00     0.115 C 
HETATM    7  C13 UNL     1       0.234   5.325   1.887  1.00  0.00     0.182 C 
HETATM    8  C14 UNL     1      -0.179   6.159   0.681  1.00  0.00     0.182 C 
HETATM    9  O1  UNL     1       0.964   6.681   0.060  1.00  0.00    -0.221 OA
HETATM   10  C15 UNL     1      -0.936   5.281  -0.307  1.00  0.00     0.038 C 
HETATM   11  C16 UNL     1      -2.339   5.838  -0.510  1.00  0.00     0.038 C 
HETATM   12  C17 UNL     1      -3.096   4.960  -1.498  1.00  0.00     0.179 C 
HETATM   13  C18 UNL     1      -3.188   3.542  -0.951  1.00  0.00     0.145 C 
HETATM   14  O2  UNL     1      -3.867   3.557   0.276  1.00  0.00    -0.357 OA
HETATM   15  O7  UNL     1      -4.388   5.474  -1.684  1.00  0.00    -0.221 OA
HETATM   16  O8  UNL     1      -0.212   4.007   1.717  1.00  0.00    -0.221 OA
ENDROOT
BRANCH  13  17
HETATM   17  C19 UNL     1      -1.786   2.985  -0.748  1.00  0.00     0.032 C 
BRANCH  17  18
HETATM   18  C20 UNL     1      -1.606   1.736  -1.600  1.00  0.00     0.003 C 
BRANCH  18  19
HETATM   19  C21 UNL     1      -0.203   1.179  -1.397  1.00  0.00     0.000 C 
BRANCH  19  20
HETATM   20  C22 UNL     1      -0.024  -0.070  -2.249  1.00  0.00     0.000 C 
BRANCH  20  21
HETATM   21  C23 UNL     1       1.379  -0.627  -2.046  1.00  0.00     0.003 C 
BRANCH  21  22
HETATM   22  C24 UNL     1       1.559  -1.876  -2.898  1.00  0.00     0.033 C 
BRANCH  22  23
HETATM   23  C25 UNL     1       2.962  -2.433  -2.695  1.00  0.00     0.152 C 
HETATM   24  O6  UNL     1       3.906  -1.469  -3.073  1.00  0.00    -0.224 OA
BRANCH  23  25
HETATM   25  C26 UNL     1       3.160  -2.789  -1.227  1.00  0.00     0.033 C 
BRANCH  25  26
HETATM   26  C27 UNL     1       3.470  -4.274  -1.101  1.00  0.00     0.005 C 
BRANCH  26  27
HETATM   27  C28 UNL     1       3.668  -4.629   0.367  1.00  0.00     0.033 C 
BRANCH  27  28
HETATM   28  C29 UNL     1       3.979  -6.115   0.493  1.00  0.00     0.157 C 
HETATM   29  O5  UNL     1       2.913  -6.861  -0.029  1.00  0.00    -0.223 OA
BRANCH  28  30
HETATM   30  C30 UNL     1       5.250  -6.436  -0.282  1.00  0.00     0.064 C 
BRANCH  30  31
HETATM   31  C31 UNL     1       6.277  -6.995   0.652  1.00  0.00     0.042 A 
HETATM   32  C32 UNL     1       7.640  -7.423   0.261  1.00  0.00     0.292 A 
HETATM   33  O3  UNL     1       8.125  -7.390  -0.845  1.00  0.00    -0.260 OA
HETATM   34  O4  UNL     1       8.266  -7.887   1.470  1.00  0.00    -0.297 OA
HETATM   35  C33 UNL     1       7.333  -7.750   2.555  1.00  0.00     0.146 A 
HETATM   36  C34 UNL     1       6.103  -7.181   1.958  1.00  0.00     0.005 A 
HETATM   37  C35 UNL     1       7.890  -6.811   3.617  1.00  0.00     0.038 C 
ENDBRANCH  30  31
ENDBRANCH  28  30
ENDBRANCH  27  28
ENDBRANCH  26  27
ENDBRANCH  25  26
ENDBRANCH  23  25
ENDBRANCH  22  23
ENDBRANCH  21  22
ENDBRANCH  20  21
ENDBRANCH  19  20
ENDBRANCH  18  19
ENDBRANCH  17  18
ENDBRANCH  13  17
BRANCH   6  38
HETATM   38  C7  UNL     1      -4.255   1.005   1.077  1.00  0.00     0.030 C 
BRANCH  38  39
HETATM   39  C8  UNL     1      -3.635   0.417  -0.184  1.00  0.00     0.003 C 
BRANCH  39  40
HETATM   40  C9  UNL     1      -4.119  -1.015  -0.368  1.00  0.00     0.000 C 
BRANCH  40  41
HETATM   41  C10 UNL     1      -3.499  -1.603  -1.629  1.00  0.00     0.000 C 
BRANCH  41  42
HETATM   42  C11 UNL     1      -3.983  -3.036  -1.813  1.00  0.00     0.000 C 
HETATM   43  C12 UNL     1      -3.363  -3.624  -3.073  1.00  0.00     0.000 C 
ENDBRANCH  41  42
ENDBRANCH  40  41
ENDBRANCH  39  40
ENDBRANCH  38  39
ENDBRANCH   6  38
TORSDOF 18
