REMARK  7 active torsions:
REMARK  status: ('A' for Active; 'I' for Inactive)
REMARK    1  A    between atoms: C1_1  and  O12_38 
REMARK    2  A    between atoms: C8_8  and  C25_33 
REMARK    3  A    between atoms: C9_9  and  C19_22 
REMARK    4  A    between atoms: C13_13  and  O3_20 
REMARK    5  A    between atoms: C15_15  and  O1_17 
REMARK    6  A    between atoms: C19_22  and  O4_23 
REMARK    7  A    between atoms: O4_23  and  C20_24 
ROOT
HETATM    1  C1  UNL     1      -4.315   1.883   1.653  1.00  0.00     0.121 A 
HETATM    2  C2  UNL     1      -4.270   0.493   1.591  1.00  0.00     0.175 A 
HETATM    3  C3  UNL     1      -3.042  -0.166   1.637  1.00  0.00     0.117 A 
HETATM    4  C4  UNL     1      -1.844   0.558   1.740  1.00  0.00     0.002 A 
HETATM    5  C5  UNL     1      -1.891   1.962   1.824  1.00  0.00    -0.022 A 
HETATM    6  C6  UNL     1      -3.133   2.613   1.766  1.00  0.00     0.022 A 
HETATM    7  C7  UNL     1      -0.632   2.789   1.912  1.00  0.00     0.029 C 
HETATM    8  C8  UNL     1       0.591   1.982   2.344  1.00  0.00     0.041 C 
HETATM    9  C9  UNL     1       0.681   0.686   1.549  1.00  0.00     0.041 C 
HETATM   10  C10 UNL     1      -0.538  -0.193   1.821  1.00  0.00     0.045 C 
HETATM   11  C11 UNL     1      -0.562  -1.297   0.810  1.00  0.00    -0.030 A 
HETATM   12  C12 UNL     1      -0.469  -2.625   1.225  1.00  0.00     0.096 A 
HETATM   13  C13 UNL     1      -0.491  -3.654   0.283  1.00  0.00     0.105 A 
HETATM   14  C14 UNL     1      -0.606  -3.354  -1.074  1.00  0.00     0.171 A 
HETATM   15  C15 UNL     1      -0.700  -2.026  -1.490  1.00  0.00     0.120 A 
HETATM   16  C16 UNL     1      -0.677  -0.998  -0.548  1.00  0.00     0.019 A 
HETATM   17  O2  UNL     1      -0.628  -4.354  -1.989  1.00  0.00    -0.186 OA
HETATM   18  O10 UNL     1      -3.004  -1.520   1.582  1.00  0.00    -0.328 OA
HETATM   19  C26 UNL     1      -1.774  -2.189   1.628  1.00  0.00     0.159 C 
HETATM   20  O11 UNL     1      -5.418  -0.219   1.486  1.00  0.00    -0.186 OA
ENDROOT
BRANCH   9  21
HETATM   21  C19 UNL     1       0.742   1.014   0.063  1.00  0.00     0.146 C 
BRANCH  21  22
HETATM   22  O4  UNL     1       1.940   0.523  -0.476  1.00  0.00    -0.329 OA
BRANCH  22  23
HETATM   23  C20 UNL     1       2.222   0.706  -1.837  1.00  0.00     0.270 C 
HETATM   24  O5  UNL     1       2.365  -0.571  -2.460  1.00  0.00    -0.326 OA
HETATM   25  C21 UNL     1       2.617  -0.461  -3.861  1.00  0.00     0.181 C 
HETATM   26  C22 UNL     1       3.919   0.286  -4.118  1.00  0.00     0.215 C 
HETATM   27  C23 UNL     1       3.901   1.653  -3.442  1.00  0.00     0.220 C 
HETATM   28  O8  UNL     1       4.988  -0.465  -3.608  1.00  0.00    -0.218 OA
HETATM   29  C24 UNL     1       3.501   1.520  -1.976  1.00  0.00     0.241 C 
HETATM   30  O7  UNL     1       5.179   2.223  -3.522  1.00  0.00    -0.218 OA
HETATM   31  O6  UNL     1       3.293   2.799  -1.440  1.00  0.00    -0.215 OA
ENDBRANCH  22  23
ENDBRANCH  21  22
ENDBRANCH   9  21
BRANCH   8  32
HETATM   32  C25 UNL     1       0.475   1.653   3.827  1.00  0.00     0.183 C 
HETATM   33  O9  UNL     1       1.561   2.211   4.516  1.00  0.00    -0.221 OA
ENDBRANCH   8  32
BRANCH  13  34
HETATM   34  O3  UNL     1      -0.400  -4.944   0.687  1.00  0.00    -0.330 OA
HETATM   35  C18 UNL     1       0.522  -5.305   1.679  1.00  0.00     0.181 C 
ENDBRANCH  13  34
BRANCH  15  36
HETATM   36  O1  UNL     1      -0.812  -1.735  -2.808  1.00  0.00    -0.326 OA
HETATM   37  C17 UNL     1       0.198  -2.123  -3.700  1.00  0.00     0.181 C 
ENDBRANCH  15  36
BRANCH   1  38
HETATM   38  O12 UNL     1      -5.507   2.525   1.604  1.00  0.00    -0.326 OA
HETATM   39  C27 UNL     1      -5.546   3.922   1.489  1.00  0.00     0.181 C 
ENDBRANCH   1  38
TORSDOF 7
