REMARK  1 active torsions:
REMARK  status: ('A' for Active; 'I' for Inactive)
REMARK    1  A    between atoms: C12_14  and  C15_18 
ROOT
HETATM    1  C1  UNL     1       4.449  -0.834   0.531  1.00  0.00     0.028 A 
HETATM    2  C2  UNL     1       4.498   0.568   0.401  1.00  0.00     0.002 A 
HETATM    3  C3  UNL     1       3.307   1.295   0.201  1.00  0.00     0.003 A 
HETATM    4  C4  UNL     1       2.051   0.633   0.129  1.00  0.00     0.044 A 
HETATM    5  C5  UNL     1       1.998  -0.787   0.260  1.00  0.00     0.068 A 
HETATM    6  C6  UNL     1       3.211  -1.512   0.463  1.00  0.00     0.134 A 
HETATM    7  O1  UNL     1       3.209  -2.846   0.592  1.00  0.00    -0.190 OA
HETATM    8  C7  UNL     1       0.699  -1.533   0.190  1.00  0.00     0.200 A 
HETATM    9  C8  UNL     1      -0.537  -0.713  -0.039  1.00  0.00     0.067 A 
HETATM   10  C9  UNL     1      -0.476   0.707  -0.168  1.00  0.00     0.044 A 
HETATM   11  C10 UNL     1       0.819   1.453  -0.084  1.00  0.00     0.196 A 
HETATM   12  O2  UNL     1       0.867   2.658  -0.185  1.00  0.00    -0.287 OA
HETATM   13  C11 UNL     1      -1.672   1.443  -0.381  1.00  0.00     0.002 A 
HETATM   14  C12 UNL     1      -2.918   0.787  -0.471  1.00  0.00     0.013 A 
HETATM   15  C13 UNL     1      -2.982  -0.615  -0.346  1.00  0.00     0.026 A 
HETATM   16  C14 UNL     1      -1.803  -1.363  -0.129  1.00  0.00     0.134 A 
HETATM   17  O3  UNL     1      -1.908  -2.695  -0.015  1.00  0.00    -0.190 OA
HETATM   18  O5  UNL     1       0.649  -2.738   0.309  1.00  0.00    -0.286 OA
ENDROOT
BRANCH  14  19
HETATM   19  C15 UNL     1      -4.148   1.564  -0.695  1.00  0.00     0.209 C 
HETATM   20  O4  UNL     1      -4.855   1.683   0.520  1.00  0.00    -0.215 OA
ENDBRANCH  14  19
TORSDOF 1
