REMARK  2 active torsions:
REMARK  status: ('A' for Active; 'I' for Inactive)
REMARK    1  A    between atoms: N1_9  and  O1_10 
REMARK    2  A    between atoms: C16_20  and  C17_21 
ROOT
HETATM    1  C1  UNL     1      -3.697  -1.689   0.024  1.00  0.00    -0.000 A 
HETATM    2  C2  UNL     1      -3.697  -3.026   0.024  1.00  0.00     0.002 A 
HETATM    3  C3  UNL     1      -2.540  -3.695  -0.001  1.00  0.00     0.019 A 
HETATM    4  C4  UNL     1      -1.382  -3.026  -0.001  1.00  0.00     0.087 A 
HETATM    5  C5  UNL     1      -1.382  -1.689  -0.001  1.00  0.00     0.006 A 
HETATM    6  C6  UNL     1      -2.540  -1.021   0.012  1.00  0.00    -0.002 A 
HETATM    7  C7  UNL     1       0.016  -1.153  -0.001  1.00  0.00     0.121 A 
HETATM    8  C8  UNL     1       0.881  -2.389   0.011  1.00  0.00     0.266 A 
HETATM    9  N1  UNL     1      -0.200  -3.480  -0.012  1.00  0.00    -0.185 N 
HETATM   10  O2  UNL     1       2.085  -2.491   0.031  1.00  0.00    -0.269 OA
HETATM   11  C10 UNL     1       0.269  -0.395   1.296  1.00  0.00     0.129 A 
HETATM   12  C11 UNL     1       1.457   0.540   1.114  1.00  0.00     0.057 A 
HETATM   13  C12 UNL     1       1.881   2.688   0.103  1.00  0.00     0.043 A 
HETATM   14  C13 UNL     1       1.564   1.199   0.081  1.00  0.00     0.064 A 
HETATM   15  C14 UNL     1       0.517   1.062  -1.016  1.00  0.00     0.260 C 
HETATM   16  C15 UNL     1       0.276  -0.414  -1.307  1.00  0.00     0.051 C 
HETATM   17  N2  UNL     1       1.128   1.682  -2.160  1.00  0.00     0.335 N 
HETATM   18  C16 UNL     1       0.558   3.352  -0.252  1.00  0.00     0.257 C 
HETATM   19  C19 UNL     1       0.957   0.789   1.416  1.00  0.00     0.120 A 
HETATM   20  O3  UNL     1      -0.859   0.399   1.548  1.00  0.00    -0.358 OA
ENDROOT
BRANCH   9  21
HETATM   21  O1  UNL     1       0.077  -4.766  -0.039  1.00  0.00    -0.248 OA
HETATM   22  C9  UNL     1       1.411  -5.196  -0.050  1.00  0.00     0.209 C 
ENDBRANCH   9  21
BRANCH  18  23
HETATM   23  C17 UNL     1       0.578   4.839  -0.583  1.00  0.00     0.036 C 
HETATM   24  C18 UNL     1      -0.615   5.522   0.072  1.00  0.00     0.002 C 
ENDBRANCH  18  23
TORSDOF 2
