REMARK  3 active torsions:
REMARK  status: ('A' for Active; 'I' for Inactive)
REMARK    1  A    between atoms: N1_9  and  O1_10 
REMARK    2  A    between atoms: C16_20  and  C17_21 
REMARK    3  A    between atoms: C16_20  and  C19_23 
ROOT
HETATM    1  C1  UNL     1      -3.612  -1.970  -0.079  1.00  0.00    -0.000 A 
HETATM    2  C2  UNL     1      -3.612  -3.307  -0.079  1.00  0.00     0.002 A 
HETATM    3  C3  UNL     1      -2.455  -3.975  -0.103  1.00  0.00     0.019 A 
HETATM    4  C4  UNL     1      -1.297  -3.307  -0.103  1.00  0.00     0.087 A 
HETATM    5  C5  UNL     1      -1.297  -1.970  -0.103  1.00  0.00     0.006 A 
HETATM    6  C6  UNL     1      -2.455  -1.301  -0.091  1.00  0.00    -0.002 A 
HETATM    7  C7  UNL     1       0.101  -1.433  -0.103  1.00  0.00     0.121 A 
HETATM    8  C8  UNL     1       0.966  -2.670  -0.092  1.00  0.00     0.266 A 
HETATM    9  N1  UNL     1      -0.115  -3.761  -0.114  1.00  0.00    -0.185 N 
HETATM   10  O2  UNL     1       2.170  -2.772  -0.072  1.00  0.00    -0.269 OA
HETATM   11  C10 UNL     1       0.354  -0.676   1.194  1.00  0.00     0.129 A 
HETATM   12  C11 UNL     1       1.542   0.260   1.012  1.00  0.00     0.057 A 
HETATM   13  C12 UNL     1       1.966   2.407   0.000  1.00  0.00     0.044 A 
HETATM   14  C13 UNL     1       1.649   0.918  -0.022  1.00  0.00     0.064 A 
HETATM   15  C14 UNL     1       0.602   0.781  -1.119  1.00  0.00     0.260 C 
HETATM   16  C15 UNL     1       0.361  -0.695  -1.410  1.00  0.00     0.051 C 
HETATM   17  N2  UNL     1       1.213   1.401  -2.263  1.00  0.00     0.335 N 
HETATM   18  C16 UNL     1       0.643   3.072  -0.355  1.00  0.00     0.257 C 
HETATM   19  C20 UNL     1       1.042   0.508   1.313  1.00  0.00     0.120 A 
HETATM   20  O4  UNL     1      -0.774   0.118   1.445  1.00  0.00    -0.358 OA
ENDROOT
BRANCH   9  21
HETATM   21  O1  UNL     1       0.162  -5.047  -0.142  1.00  0.00    -0.248 OA
HETATM   22  C9  UNL     1       1.496  -5.477  -0.153  1.00  0.00     0.209 C 
ENDBRANCH   9  21
BRANCH  18  23
HETATM   23  C17 UNL     1       0.663   4.558  -0.686  1.00  0.00     0.037 C 
HETATM   24  C18 UNL     1      -0.530   5.241  -0.031  1.00  0.00     0.002 C 
ENDBRANCH  18  23
BRANCH  18  25
HETATM   25  C19 UNL     1      -0.629   3.190   0.473  1.00  0.00     0.216 C 
HETATM   26  O3  UNL     1      -0.303   3.586   1.778  1.00  0.00    -0.218 OA
ENDBRANCH  18  25
TORSDOF 3
