REMARK  0 active torsions:
REMARK  status: ('A' for Active; 'I' for Inactive)
ROOT
HETATM    1  C1  UNL     1      -0.685  -1.374  -0.913  1.00  0.00     0.068 C 
HETATM    2  N1  UNL     1      -0.685  -2.824  -0.913  1.00  0.00    -0.220 NA
HETATM    3  C2  UNL     1      -2.064  -3.265  -0.827  1.00  0.00     0.101 C 
HETATM    4  C3  UNL     1       0.201  -1.036  -3.310  1.00  0.00    -0.032 C 
HETATM    5  C4  UNL     1       1.128  -0.409  -2.316  1.00  0.00     0.025 C 
HETATM    6  C5  UNL     1       0.751  -0.866  -0.913  1.00  0.00     0.049 C 
HETATM    7  C6  UNL     1       0.875   0.305   0.053  1.00  0.00     0.142 A 
HETATM    8  O1  UNL     1       1.971   0.328   1.126  1.00  0.00    -0.356 OA
HETATM    9  C7  UNL     1       0.687   0.407   0.567  1.00  0.00     0.129 A 
HETATM   10  C8  UNL     1      -0.195  -0.593   1.304  1.00  0.00     0.113 C 
HETATM   11  C9  UNL     1      -1.354  -1.005   0.405  1.00  0.00     0.031 C 
HETATM   12  C10 UNL     1       0.598  -1.864   1.483  1.00  0.00     0.219 C 
HETATM   13  O2  UNL     1       1.406  -2.288   2.275  1.00  0.00    -0.278 OA
HETATM   14  C11 UNL     1      -0.658   0.023   2.587  1.00  0.00     0.007 A 
HETATM   15  C12 UNL     1      -1.412  -0.729   3.489  1.00  0.00    -0.002 A 
HETATM   16  C13 UNL     1      -1.844  -0.155   4.684  1.00  0.00    -0.000 A 
HETATM   17  C14 UNL     1      -1.522   1.169   4.979  1.00  0.00     0.002 A 
HETATM   18  C15 UNL     1      -0.768   1.921   4.078  1.00  0.00     0.021 A 
HETATM   19  C16 UNL     1      -0.336   1.347   2.882  1.00  0.00     0.099 A 
HETATM   20  N2  UNL     1       0.348   2.029   2.064  1.00  0.00    -0.148 NA
HETATM   21  O3  UNL     1       0.755   1.488   0.935  1.00  0.00     0.000 OA
HETATM   22  C17 UNL     1       1.513   2.244   0.029  1.00  0.00     0.000 C 
HETATM   23  C18 UNL     1       1.016   1.107  -2.403  1.00  0.00     0.035 C 
HETATM   24  C19 UNL     1       0.142  -0.897  -4.639  1.00  0.00    -0.033 C 
HETATM   25  C20 UNL     1       1.109   0.004  -5.341  1.00  0.00     0.030 C 
ENDROOT
TORSDOF 0
