REMARK  3 active torsions:
REMARK  status: ('A' for Active; 'I' for Inactive)
REMARK    1  A    between atoms: C7_7  and  C10_13 
REMARK    2  A    between atoms: N1_9  and  O1_10 
REMARK    3  A    between atoms: C18_22  and  C19_23 
ROOT
HETATM    1  C10 UNL     1      -0.731  -0.278  -0.336  1.00  0.00     0.043 C 
HETATM    2  C11 UNL     1       0.575  -1.062  -0.336  1.00  0.00     0.030 C 
HETATM    3  C12 UNL     1       1.750  -0.093  -0.336  1.00  0.00     0.086 C 
HETATM    4  C13 UNL     1       1.365   1.274   0.162  1.00  0.00     0.028 A 
HETATM    5  C14 UNL     1       0.227   1.429   1.135  1.00  0.00     0.032 C 
HETATM    6  C15 UNL     1      -0.438   1.195  -0.593  1.00  0.00     0.117 C 
HETATM    7  O3  UNL     1       0.649   1.260  -1.476  1.00  0.00    -0.353 OA
HETATM    8  C16 UNL     1       2.276   2.228  -2.054  1.00  0.00     0.154 C 
HETATM    9  C17 UNL     1       1.761   2.465  -0.660  1.00  0.00     0.039 A 
HETATM   10  C18 UNL     1       2.388   2.369   0.088  1.00  0.00     0.027 A 
HETATM   11  N2  UNL     1       2.132  -0.009  -1.720  1.00  0.00    -0.332 N 
HETATM   12  C21 UNL     1       2.026  -1.296  -2.233  1.00  0.00     0.049 C 
HETATM   13  C22 UNL     1       0.716  -1.812  -1.654  1.00  0.00     0.047 C 
HETATM   14  C23 UNL     1       2.542   1.171  -2.431  1.00  0.00     0.078 C 
ENDROOT
BRANCH   1  15
HETATM   15  C7  UNL     1      -1.414  -0.430   1.017  1.00  0.00     0.107 A 
HETATM   16  C5  UNL     1      -1.902  -1.820   1.280  1.00  0.00     0.005 A 
HETATM   17  C4  UNL     1      -3.232  -1.845   1.409  1.00  0.00     0.087 A 
HETATM   18  C6  UNL     1      -1.198  -2.950   1.401  1.00  0.00    -0.002 A 
HETATM   19  C3  UNL     1      -3.859  -2.999   1.659  1.00  0.00     0.019 A 
HETATM   20  N1  UNL     1      -3.723  -0.685   1.274  1.00  0.00    -0.185 N 
HETATM   21  C2  UNL     1      -3.155  -4.129   1.780  1.00  0.00     0.002 A 
HETATM   22  C1  UNL     1      -1.824  -4.105   1.652  1.00  0.00    -0.000 A 
HETATM   23  C8  UNL     1      -2.814   0.169   1.055  1.00  0.00     0.264 A 
HETATM   24  O2  UNL     1      -3.036   1.345   0.892  1.00  0.00    -0.269 OA
BRANCH  20  25
HETATM   25  O1  UNL     1      -5.006  -0.405   1.351  1.00  0.00    -0.248 OA
HETATM   26  C9  UNL     1      -5.428   0.794   1.943  1.00  0.00     0.209 C 
ENDBRANCH  20  25
ENDBRANCH   1  15
BRANCH  10  27
HETATM   27  C19 UNL     1       3.774   1.998  -0.217  1.00  0.00    -0.026 C 
HETATM   28  C20 UNL     1       4.782   2.585   0.434  1.00  0.00    -0.005 C 
ENDBRANCH  10  27
TORSDOF 3
