REMARK  2 active torsions:
REMARK  status: ('A' for Active; 'I' for Inactive)
REMARK    1  A    between atoms: C5_5  and  C6_6 
REMARK    2  A    between atoms: C6_6  and  C7_7 
ROOT
HETATM    1  C1  UNL     1      -1.633  -0.889   0.028  1.00  0.00     0.009 C 
HETATM    2  C2  UNL     1      -0.812  -2.175  -0.223  1.00  0.00     0.024 C 
HETATM    3  C3  UNL     1       0.557  -1.642  -0.242  1.00  0.00    -0.018 A 
HETATM    4  C4  UNL     1       0.614  -0.322  -0.235  1.00  0.00     0.009 A 
HETATM    5  C5  UNL     1      -0.706   0.325  -0.209  1.00  0.00     0.034 C 
HETATM    6  C8  UNL     1       1.998   0.147  -0.314  1.00  0.00     0.289 A 
HETATM    7  O3  UNL     1       2.786  -1.075  -0.350  1.00  0.00    -0.321 OA
HETATM    8  C9  UNL     1       1.897  -2.226  -0.327  1.00  0.00     0.167 A 
HETATM    9  O4  UNL     1       2.326   0.917   0.811  1.00  0.00    -0.185 OA
ENDROOT
BRANCH   5  10
HETATM   10  C6  UNL     1      -0.809   1.335   0.926  1.00  0.00     0.102 C 
BRANCH  10  11
HETATM   11  C7  UNL     1      -1.184   2.686   0.367  1.00  0.00     0.185 C 
HETATM   12  O1  UNL     1      -1.369   2.836  -0.950  1.00  0.00    -0.647 OA
HETATM   13  O2  UNL     1      -1.317   3.631   1.107  1.00  0.00    -0.647 OA
ENDBRANCH  10  11
ENDBRANCH   5  10
TORSDOF 2
