REMARK  4 active torsions:
REMARK  status: ('A' for Active; 'I' for Inactive)
REMARK    1  A    between atoms: C12_14  and  C15_18 
REMARK    2  A    between atoms: C15_18  and  O4_19 
REMARK    3  A    between atoms: O4_19  and  C16_20 
REMARK    4  A    between atoms: C17_22  and  C21_29 
ROOT
HETATM    1  C1  UNL     1       7.770   1.631  -0.113  1.00  0.00     0.028 A 
HETATM    2  C2  UNL     1       7.699   0.231   0.016  1.00  0.00     0.002 A 
HETATM    3  C3  UNL     1       6.449  -0.420  -0.057  1.00  0.00     0.003 A 
HETATM    4  C4  UNL     1       5.254   0.322  -0.260  1.00  0.00     0.044 A 
HETATM    5  C5  UNL     1       5.322   1.740  -0.389  1.00  0.00     0.068 A 
HETATM    6  C6  UNL     1       6.592   2.385  -0.312  1.00  0.00     0.134 A 
HETATM    7  O1  UNL     1       6.703   3.717  -0.430  1.00  0.00    -0.190 OA
HETATM    8  C7  UNL     1       4.088   2.569  -0.601  1.00  0.00     0.200 A 
HETATM    9  C8  UNL     1       2.787   1.826  -0.687  1.00  0.00     0.067 A 
HETATM   10  C9  UNL     1       2.728   0.406  -0.559  1.00  0.00     0.044 A 
HETATM   11  C10 UNL     1       3.957  -0.418  -0.332  1.00  0.00     0.196 A 
HETATM   12  O2  UNL     1       3.902  -1.623  -0.213  1.00  0.00    -0.287 OA
HETATM   13  C11 UNL     1       1.475  -0.256  -0.646  1.00  0.00     0.002 A 
HETATM   14  C12 UNL     1       0.285   0.475  -0.861  1.00  0.00     0.010 A 
HETATM   15  C13 UNL     1       0.340   1.879  -0.988  1.00  0.00     0.026 A 
HETATM   16  C14 UNL     1       1.578   2.553  -0.900  1.00  0.00     0.134 A 
HETATM   17  O3  UNL     1       1.586   3.887  -1.027  1.00  0.00    -0.190 OA
HETATM   18  O10 UNL     1       4.141   3.774  -0.701  1.00  0.00    -0.286 OA
ENDROOT
BRANCH  14  19
HETATM   19  C15 UNL     1      -1.006  -0.224  -0.953  1.00  0.00     0.172 C 
BRANCH  19  20
HETATM   20  O4  UNL     1      -1.447  -0.566   0.342  1.00  0.00    -0.324 OA
BRANCH  20  21
HETATM   21  C16 UNL     1      -2.637  -1.332   0.340  1.00  0.00     0.270 C 
HETATM   22  O5  UNL     1      -3.701  -0.512  -0.125  1.00  0.00    -0.326 OA
HETATM   23  C17 UNL     1      -4.961  -1.162  -0.228  1.00  0.00     0.184 C 
HETATM   24  C18 UNL     1      -5.401  -1.654   1.170  1.00  0.00     0.215 C 
HETATM   25  C19 UNL     1      -4.324  -2.555   1.813  1.00  0.00     0.220 C 
HETATM   26  O8  UNL     1      -6.613  -2.373   1.039  1.00  0.00    -0.218 OA
HETATM   27  C20 UNL     1      -2.951  -1.844   1.770  1.00  0.00     0.241 C 
HETATM   28  O7  UNL     1      -4.676  -2.842   3.156  1.00  0.00    -0.218 OA
HETATM   29  O6  UNL     1      -1.940  -2.750   2.182  1.00  0.00    -0.215 OA
BRANCH  23  30
HETATM   30  C21 UNL     1      -5.938  -0.148  -0.834  1.00  0.00     0.214 C 
HETATM   31  O9  UNL     1      -5.522   0.129  -2.152  1.00  0.00    -0.218 OA
ENDBRANCH  23  30
ENDBRANCH  20  21
ENDBRANCH  19  20
ENDBRANCH  14  19
TORSDOF 4
