REMARK  2 active torsions:
REMARK  status: ('A' for Active; 'I' for Inactive)
REMARK    1  A    between atoms: C1_1  and  C11_14 
REMARK    2  A    between atoms: C8_11  and  C9_12 
ROOT
HETATM    1  C1  UNL     1      -0.786  -1.025  -0.288  1.00  0.00     0.086 C 
HETATM    2  C2  UNL     1      -0.318   0.405  -0.243  1.00  0.00    -0.009 A 
HETATM    3  C3  UNL     1      -1.256   1.440  -0.352  1.00  0.00     0.079 A 
HETATM    4  C4  UNL     1      -2.729   1.151  -0.428  1.00  0.00     0.297 C 
HETATM    5  O1  UNL     1      -3.018  -0.214  -0.756  1.00  0.00    -0.298 OA
HETATM    6  C5  UNL     1      -2.270  -1.117   0.062  1.00  0.00     0.159 C 
HETATM    7  O2  UNL     1      -3.583   1.984  -0.233  1.00  0.00    -0.259 OA
HETATM    8  C6  UNL     1      -0.785   2.748  -0.331  1.00  0.00     0.104 A 
HETATM    9  N1  UNL     1       0.521   3.079  -0.232  1.00  0.00    -0.242 NA
HETATM   10  C7  UNL     1       1.402   2.059  -0.151  1.00  0.00     0.099 A 
HETATM   11  C8  UNL     1       1.038   0.722  -0.156  1.00  0.00     0.016 A 
ENDROOT
BRANCH   1  12
HETATM   12  C11 UNL     1       0.016  -1.845   0.713  1.00  0.00     0.189 C 
HETATM   13  O3  UNL     1       0.710  -2.859   0.038  1.00  0.00    -0.220 OA
ENDBRANCH   1  12
BRANCH  11  14
HETATM   14  C9  UNL     1       1.963  -0.241  -0.078  1.00  0.00     0.001 C 
HETATM   15  C10 UNL     1       3.258   0.082   0.005  1.00  0.00     0.000 C 
ENDBRANCH  11  14
TORSDOF 2
