REMARK  0 active torsions:
REMARK  status: ('A' for Active; 'I' for Inactive)
ROOT
HETATM    1  N1  UNL     1       1.711   1.866   0.066  1.00  0.00    -0.248 NA
HETATM    2  C1  UNL     1       2.591   0.845   0.147  1.00  0.00     0.098 A 
HETATM    3  C2  UNL     1       2.227  -0.492   0.143  1.00  0.00     0.016 A 
HETATM    4  C3  UNL     1       0.871  -0.808   0.056  1.00  0.00    -0.016 A 
HETATM    5  C4  UNL     1      -0.067   0.227  -0.053  1.00  0.00     0.046 A 
HETATM    6  C5  UNL     1       0.404   1.534  -0.033  1.00  0.00     0.060 A 
HETATM    7  C6  UNL     1      -0.597   2.643  -0.127  1.00  0.00     0.052 C 
HETATM    8  C7  UNL     1      -1.540  -0.062  -0.130  1.00  0.00     0.294 C 
HETATM    9  O1  UNL     1      -1.828  -1.428  -0.458  1.00  0.00    -0.325 OA
HETATM   10  C8  UNL     1      -1.081  -2.331   0.360  1.00  0.00     0.150 C 
HETATM   11  C9  UNL     1       0.403  -2.238   0.010  1.00  0.00     0.059 C 
HETATM   12  O2  UNL     1      -2.106   0.761  -1.113  1.00  0.00    -0.185 OA
ENDROOT
TORSDOF 0
