REMARK  10 active torsions:
REMARK  status: ('A' for Active; 'I' for Inactive)
REMARK    1  A    between atoms: C1_1  and  O2_21 
REMARK    2  A    between atoms: C2_2  and  O1_19 
REMARK    3  A    between atoms: C5_5  and  C7_7 
REMARK    4  A    between atoms: C7_7  and  C8_8 
REMARK    5  A    between atoms: C8_8  and  C9_9 
REMARK    6  A    between atoms: C9_9  and  C10_10 
REMARK    7  A    between atoms: C9_9  and  N3_16 
REMARK    8  A    between atoms: C10_10  and  C11_11 
REMARK    9  A    between atoms: C11_11  and  C12_12 
REMARK   10  A    between atoms: C12_12  and  N1_13 
ROOT
HETATM    1  C7  UNL     1       0.553  -0.752   0.808  1.00  0.00     0.028 C 
ENDROOT
BRANCH   1   2
HETATM    2  C5  UNL     1       1.250   0.561   0.808  1.00  0.00    -0.020 A 
HETATM    3  C4  UNL     1       2.654   0.613   0.808  1.00  0.00    -0.002 A 
HETATM    4  C3  UNL     1       3.311   1.855   0.808  1.00  0.00     0.026 A 
HETATM    5  C2  UNL     1       2.566   3.049   0.808  1.00  0.00     0.116 A 
HETATM    6  C1  UNL     1       1.160   2.998   0.808  1.00  0.00     0.116 A 
HETATM    7  C6  UNL     1       0.506   1.754   0.808  1.00  0.00     0.022 A 
BRANCH   5   8
HETATM    8  O1  UNL     1       3.190   4.211   0.808  1.00  0.00    -0.326 OA
HETATM    9  C15 UNL     1       4.607   4.207   0.740  1.00  0.00     0.181 C 
ENDBRANCH   5   8
BRANCH   6  10
HETATM   10  O2  UNL     1       0.455   4.111   0.808  1.00  0.00    -0.326 OA
HETATM   11  C16 UNL     1       0.895   5.180   1.635  1.00  0.00     0.181 C 
ENDBRANCH   6  10
ENDBRANCH   1   2
BRANCH   1  12
HETATM   12  C8  UNL     1       0.598  -1.414  -0.570  1.00  0.00     0.029 C 
BRANCH  12  13
HETATM   13  C9  UNL     1      -0.119  -2.764  -0.600  1.00  0.00     0.106 C 
BRANCH  13  14
HETATM   14  C10 UNL     1      -1.480  -2.691  -1.293  1.00  0.00     0.026 C 
BRANCH  14  15
HETATM   15  C11 UNL     1      -2.459  -1.760  -0.576  1.00  0.00     0.028 C 
BRANCH  15  16
HETATM   16  C12 UNL     1      -3.840  -1.736  -1.235  1.00  0.00     0.128 C 
BRANCH  16  17
HETATM   17  N1  UNL     1      -4.754  -0.844  -0.508  1.00  0.00    -0.249 NA
HETATM   18  C13 UNL     1      -6.029  -0.674  -0.965  1.00  0.00     0.217 C 
HETATM   19  N2  UNL     1      -6.393  -1.311  -2.018  1.00  0.00    -0.124 N 
ENDBRANCH  16  17
ENDBRANCH  15  16
ENDBRANCH  14  15
ENDBRANCH  13  14
BRANCH  13  20
HETATM   20  N3  UNL     1       0.729  -3.797  -1.209  1.00  0.00    -0.251 NA
HETATM   21  C14 UNL     1       1.834  -4.240  -0.539  1.00  0.00     0.217 C 
HETATM   22  N4  UNL     1       2.109  -3.715   0.596  1.00  0.00    -0.124 N 
ENDBRANCH  13  20
ENDBRANCH  12  13
ENDBRANCH   1  12
TORSDOF 10
