REMARK  1 active torsions:
REMARK  status: ('A' for Active; 'I' for Inactive)
REMARK    1  A    between atoms: C1_1  and  C10_13 
ROOT
HETATM    1  C1  UNL     1       0.894  -0.639  -0.015  1.00  0.00     0.038 C 
HETATM    2  C2  UNL     1       1.911   0.412  -0.373  1.00  0.00     0.129 C 
HETATM    3  N1  UNL     1       1.291   1.499  -1.121  1.00  0.00    -0.267 NA
HETATM    4  C3  UNL     1      -0.069   1.716  -1.101  1.00  0.00     0.099 C 
HETATM    5  C4  UNL     1      -0.950   0.815  -0.633  1.00  0.00     0.078 C 
HETATM    6  C5  UNL     1      -0.436  -0.465  -0.153  1.00  0.00    -0.012 C 
HETATM    7  C6  UNL     1      -1.437  -1.551   0.131  1.00  0.00     0.059 C 
HETATM    8  C7  UNL     1      -2.803  -0.979   0.495  1.00  0.00     0.157 C 
HETATM    9  O1  UNL     1      -3.233  -0.087  -0.535  1.00  0.00    -0.298 OA
HETATM   10  C8  UNL     1      -2.429   1.097  -0.557  1.00  0.00     0.297 C 
HETATM   11  O2  UNL     1      -2.890   2.213  -0.519  1.00  0.00    -0.259 OA
HETATM   12  C9  UNL     1       2.522   0.971   0.905  1.00  0.00     0.031 C 
ENDROOT
BRANCH   1  13
HETATM   13  C10 UNL     1       1.337  -1.819   0.471  1.00  0.00     0.231 C 
HETATM   14  O3  UNL     1       1.070  -2.847  -0.104  1.00  0.00    -0.283 OA
ENDBRANCH   1  13
TORSDOF 1
