REMARK  12 active torsions:
REMARK  status: ('A' for Active; 'I' for Inactive)
REMARK    1  A    between atoms: C7_10  and  O4_14 
REMARK    2  A    between atoms: C8_11  and  C9_12 
REMARK    3  A    between atoms: O4_14  and  C11_15 
REMARK    4  A    between atoms: C12_17  and  C22_33 
REMARK    5  A    between atoms: C13_18  and  O10_29 
REMARK    6  A    between atoms: C14_19  and  O8_25 
REMARK    7  A    between atoms: C15_20  and  O6_21 
REMARK    8  A    between atoms: O6_21  and  C16_22 
REMARK    9  A    between atoms: O8_25  and  C18_26 
REMARK   10  A    between atoms: O10_29  and  C20_30 
REMARK   11  A    between atoms: C22_33  and  O12_34 
REMARK   12  A    between atoms: O12_34  and  C23_35 
ROOT
HETATM    1  C11 UNL     1      -0.182   0.321  -0.172  1.00  0.00     0.269 C 
HETATM    2  O5  UNL     1      -0.065   1.743  -0.185  1.00  0.00    -0.326 OA
HETATM    3  C12 UNL     1       0.591   2.240   0.981  1.00  0.00     0.178 C 
HETATM    4  C13 UNL     1       2.011   1.697   1.076  1.00  0.00     0.184 C 
HETATM    5  C14 UNL     1       2.009   0.172   1.040  1.00  0.00     0.187 C 
HETATM    6  C15 UNL     1       1.192  -0.335  -0.144  1.00  0.00     0.210 C 
ENDROOT
BRANCH   1   7
HETATM    7  O4  UNL     1      -0.867  -0.095  -1.323  1.00  0.00    -0.303 OA
BRANCH   7   8
HETATM    8  C7  UNL     1      -2.079  -0.789  -1.206  1.00  0.00     0.250 C 
HETATM    9  O3  UNL     1      -1.859  -1.968  -0.411  1.00  0.00    -0.303 OA
HETATM   10  C6  UNL     1      -2.886  -2.879  -0.485  1.00  0.00     0.124 C 
HETATM   11  C4  UNL     1      -3.857  -2.894  -1.412  1.00  0.00     0.084 C 
HETATM   12  C3  UNL     1      -3.853  -1.922  -2.489  1.00  0.00    -0.008 C 
HETATM   13  C5  UNL     1      -4.986  -3.888  -1.437  1.00  0.00     0.298 C 
HETATM   14  C2  UNL     1      -4.928  -1.812  -3.286  1.00  0.00     0.003 C 
HETATM   15  C8  UNL     1      -2.594  -1.113  -2.607  1.00  0.00     0.101 C 
HETATM   16  C1  UNL     1      -6.160  -2.645  -3.083  1.00  0.00     0.178 C 
HETATM   17  O1  UNL     1      -6.206  -3.223  -1.775  1.00  0.00    -0.293 OA
HETATM   18  O2  UNL     1      -4.878  -5.069  -1.206  1.00  0.00    -0.259 OA
BRANCH  15  19
HETATM   19  C9  UNL     1      -1.560  -1.891  -3.360  1.00  0.00    -0.017 C 
HETATM   20  C10 UNL     1      -1.917  -2.973  -4.061  1.00  0.00    -0.004 C 
ENDBRANCH  15  19
ENDBRANCH   7   8
ENDBRANCH   1   7
BRANCH   6  21
HETATM   21  O6  UNL     1       1.037  -1.724  -0.034  1.00  0.00    -0.296 OA
BRANCH  21  22
HETATM   22  C16 UNL     1       1.512  -2.528  -0.992  1.00  0.00     0.273 C 
HETATM   23  C17 UNL     1       1.344  -4.023  -0.874  1.00  0.00     0.106 C 
HETATM   24  O7  UNL     1       2.074  -2.058  -1.952  1.00  0.00    -0.264 OA
ENDBRANCH  21  22
ENDBRANCH   6  21
BRANCH   3  25
HETATM   25  C22 UNL     1       0.642   3.761   0.915  1.00  0.00     0.184 C 
BRANCH  25  26
HETATM   26  O12 UNL     1      -0.047   4.300   2.011  1.00  0.00    -0.299 OA
BRANCH  26  27
HETATM   27  C23 UNL     1      -0.133   5.627   2.159  1.00  0.00     0.273 C 
HETATM   28  C24 UNL     1      -0.875   6.208   3.338  1.00  0.00     0.106 C 
HETATM   29  O13 UNL     1       0.383   6.361   1.350  1.00  0.00    -0.264 OA
ENDBRANCH  26  27
ENDBRANCH  25  26
ENDBRANCH   3  25
BRANCH   5  30
HETATM   30  O8  UNL     1       3.328  -0.287   0.920  1.00  0.00    -0.299 OA
BRANCH  30  31
HETATM   31  C18 UNL     1       3.853  -1.069   1.870  1.00  0.00     0.273 C 
HETATM   32  C19 UNL     1       5.273  -1.564   1.741  1.00  0.00     0.106 C 
HETATM   33  O9  UNL     1       3.190  -1.380   2.831  1.00  0.00    -0.264 OA
ENDBRANCH  30  31
ENDBRANCH   5  30
BRANCH   4  34
HETATM   34  O10 UNL     1       2.588   2.127   2.279  1.00  0.00    -0.299 OA
BRANCH  34  35
HETATM   35  C20 UNL     1       3.692   2.884   2.258  1.00  0.00     0.273 C 
HETATM   36  C21 UNL     1       4.313   3.347   3.553  1.00  0.00     0.106 C 
HETATM   37  O11 UNL     1       4.190   3.196   1.203  1.00  0.00    -0.264 OA
ENDBRANCH  34  35
ENDBRANCH   4  34
TORSDOF 12
