REMARK  1 active torsions:
REMARK  status: ('A' for Active; 'I' for Inactive)
REMARK    1  A    between atoms: C5_5  and  C7_7 
ROOT
HETATM    1  C1  UNL     1       1.582   0.856  -0.226  1.00  0.00     0.131 A 
HETATM    2  C2  UNL     1       2.117  -0.388   0.107  1.00  0.00     0.029 A 
HETATM    3  C3  UNL     1       1.269  -1.458   0.391  1.00  0.00     0.030 A 
HETATM    4  C4  UNL     1      -0.114  -1.284   0.342  1.00  0.00     0.137 A 
HETATM    5  C5  UNL     1      -0.649  -0.039   0.009  1.00  0.00     0.092 A 
HETATM    6  C6  UNL     1       0.199   1.031  -0.274  1.00  0.00     0.035 A 
HETATM    7  O3  UNL     1      -0.939  -2.324   0.618  1.00  0.00    -0.190 OA
HETATM    8  O4  UNL     1       2.406   1.896  -0.502  1.00  0.00    -0.190 OA
ENDROOT
BRANCH   5   9
HETATM    9  C7  UNL     1      -1.989   0.130  -0.038  1.00  0.00     0.213 C 
HETATM   10  O1  UNL     1      -2.502   1.324  -0.357  1.00  0.00    -0.644 OA
HETATM   11  O2  UNL     1      -2.723  -0.797   0.208  1.00  0.00    -0.644 OA
ENDBRANCH   5   9
TORSDOF 1
