REMARK  0 active torsions:
REMARK  status: ('A' for Active; 'I' for Inactive)
ROOT
HETATM    1  C1  UNL     1      -0.770  -5.044  -2.986  1.00  0.00     0.002 A 
HETATM    2  C2  UNL     1       0.348  -4.621  -2.269  1.00  0.00    -0.004 A 
HETATM    3  C3  UNL     1       0.337  -3.382  -1.623  1.00  0.00    -0.024 A 
HETATM    4  C4  UNL     1      -0.794  -2.561  -1.692  1.00  0.00     0.001 A 
HETATM    5  C5  UNL     1      -1.913  -2.990  -2.411  1.00  0.00     0.099 A 
HETATM    6  C6  UNL     1      -1.899  -4.228  -3.056  1.00  0.00     0.025 A 
HETATM    7  O1  UNL     1      -3.063  -2.263  -2.539  1.00  0.00    -0.274 OA
HETATM    8  C7  UNL     1      -3.135  -0.988  -1.887  1.00  0.00     0.293 A 
HETATM    9  C8  UNL     1      -1.927  -0.537  -1.124  1.00  0.00     0.028 A 
HETATM   10  C9  UNL     1      -0.815  -1.269  -1.023  1.00  0.00     0.056 A 
HETATM   11  O2  UNL     1       0.257  -0.824  -0.323  1.00  0.00     0.000 OA
HETATM   12  C10 UNL     1      -1.969   0.796  -0.443  1.00  0.00     0.054 A 
HETATM   13  C11 UNL     1      -0.667   1.042   0.254  1.00  0.00     0.015 A 
HETATM   14  C12 UNL     1      -0.509   2.187   0.923  1.00  0.00     0.127 A 
HETATM   15  C13 UNL     1       0.763   2.407   1.593  1.00  0.00     0.043 A 
HETATM   16  C14 UNL     1       1.767   1.438   1.516  1.00  0.00     0.096 A 
HETATM   17  O3  UNL     1       1.640   0.260   0.834  1.00  0.00    -0.326 OA
HETATM   18  C15 UNL     1       0.399  -0.007   0.168  1.00  0.00     0.173 A 
HETATM   19  O4  UNL     1       0.221  -1.037  -0.439  1.00  0.00     0.000 OA
HETATM   20  C16 UNL     1       2.991   1.644   2.156  1.00  0.00     0.024 A 
HETATM   21  C17 UNL     1       3.217   2.816   2.876  1.00  0.00     0.002 A 
HETATM   22  C18 UNL     1       2.219   3.786   2.957  1.00  0.00    -0.004 A 
HETATM   23  C19 UNL     1       0.994   3.582   2.317  1.00  0.00    -0.018 A 
HETATM   24  C20 UNL     1      -0.075   4.626   2.406  1.00  0.00     0.031 C 
HETATM   25  O5  UNL     1      -1.499   3.111   0.976  1.00  0.00    -0.191 OA
HETATM   26  O6  UNL     1      -4.129  -0.305  -1.951  1.00  0.00    -0.259 OA
HETATM   27  C21 UNL     1       1.540  -2.931  -0.855  1.00  0.00     0.031 C 
ENDROOT
TORSDOF 0
