REMARK  2 active torsions:
REMARK  status: ('A' for Active; 'I' for Inactive)
REMARK    1  A    between atoms: C5_5  and  O3_17 
REMARK    2  A    between atoms: O3_17  and  C15_18 
ROOT
HETATM    1  C1  UNL     1      -1.280   1.561  -3.047  1.00  0.00     0.030 C 
HETATM    2  C2  UNL     1      -2.249   0.617  -2.353  1.00  0.00     0.026 C 
HETATM    3  C3  UNL     1      -1.669   0.472  -0.981  1.00  0.00    -0.045 C 
HETATM    4  C4  UNL     1      -0.815  -0.514  -0.686  1.00  0.00    -0.005 C 
HETATM    5  C5  UNL     1      -0.235  -0.659   0.686  1.00  0.00     0.152 C 
HETATM    6  C6  UNL     1       1.201  -0.151   0.686  1.00  0.00     0.088 C 
HETATM    7  C7  UNL     1       1.201   1.372   0.686  1.00  0.00     0.135 C 
HETATM    8  C8  UNL     1       1.731   1.880  -0.648  1.00  0.00     0.052 C 
HETATM    9  C9  UNL     1       0.821   1.433  -1.750  1.00  0.00    -0.046 C 
HETATM   10  C10 UNL     1      -0.370   2.008  -1.946  1.00  0.00    -0.034 C 
HETATM   11  C11 UNL     1       1.253   0.317  -2.650  1.00  0.00     0.026 C 
HETATM   12  O1  UNL     1       2.141   1.711   1.670  1.00  0.00    -0.300 OA
HETATM   13  C12 UNL     1       2.412   0.573   2.563  1.00  0.00     0.292 C 
HETATM   14  C13 UNL     1       1.858  -0.513   1.981  1.00  0.00     0.046 C 
HETATM   15  C14 UNL     1       1.892  -1.748   2.494  1.00  0.00     0.001 C 
HETATM   16  O2  UNL     1       3.013   0.604   3.611  1.00  0.00    -0.260 OA
HETATM   17  C17 UNL     1      -2.052   1.452   0.084  1.00  0.00     0.026 C 
ENDROOT
BRANCH   5  18
HETATM   18  O3  UNL     1      -0.253  -2.010   1.060  1.00  0.00    -0.299 OA
BRANCH  18  19
HETATM   19  C15 UNL     1      -0.932  -2.394   2.146  1.00  0.00     0.273 C 
HETATM   20  C16 UNL     1      -0.951  -3.849   2.549  1.00  0.00     0.106 C 
HETATM   21  O4  UNL     1      -1.531  -1.578   2.805  1.00  0.00    -0.264 OA
ENDBRANCH  18  19
ENDBRANCH   5  18
TORSDOF 2
