REMARK  0 active torsions:
REMARK  status: ('A' for Active; 'I' for Inactive)
ROOT
HETATM    1  C1  UNL     1       3.136   1.048  -0.558  1.00  0.00    -0.022 C 
HETATM    2  C2  UNL     1       2.051   2.137  -0.490  1.00  0.00     0.048 C 
HETATM    3  C3  UNL     1       0.778   1.741  -1.177  1.00  0.00    -0.043 C 
HETATM    4  C4  UNL     1      -0.420   1.894  -0.589  1.00  0.00    -0.030 C 
HETATM    5  C5  UNL     1      -1.608   1.073  -0.982  1.00  0.00     0.047 C 
HETATM    6  C6  UNL     1      -1.750  -0.146  -0.049  1.00  0.00    -0.045 C 
HETATM    7  C7  UNL     1      -0.510  -1.062  -0.020  1.00  0.00     0.059 C 
HETATM    8  C8  UNL     1       0.581  -0.622   0.976  1.00  0.00     0.174 C 
HETATM    9  C9  UNL     1       1.950  -1.053   0.534  1.00  0.00    -0.014 C 
HETATM   10  C10 UNL     1       2.945  -0.367  -0.055  1.00  0.00    -0.010 C 
HETATM   11  C11 UNL     1       2.260  -2.494   0.796  1.00  0.00     0.029 C 
HETATM   12  O1  UNL     1       0.308  -1.192   2.227  1.00  0.00    -0.219 OA
HETATM   13  C12 UNL     1      -2.850  -0.387   0.671  1.00  0.00    -0.051 C 
HETATM   14  C13 UNL     1      -2.916  -1.593   1.556  1.00  0.00     0.026 C 
HETATM   15  C14 UNL     1      -4.017   0.548   0.592  1.00  0.00     0.026 C 
HETATM   16  C15 UNL     1       0.844   1.160  -2.555  1.00  0.00     0.026 C 
ENDROOT
TORSDOF 0
