REMARK  1 active torsions:
REMARK  status: ('A' for Active; 'I' for Inactive)
REMARK    1  A    between atoms: C9_9  and  C10_10 
ROOT
HETATM    1  C1  UNL     1      -3.265   1.648   0.241  1.00  0.00     0.003 C 
HETATM    2  C2  UNL     1      -3.756   0.293   0.735  1.00  0.00     0.010 C 
HETATM    3  C3  UNL     1      -2.598  -0.696   0.735  1.00  0.00     0.081 C 
HETATM    4  C4  UNL     1      -1.279   0.065   0.735  1.00  0.00     0.045 C 
HETATM    5  C5  UNL     1      -1.150   0.578  -0.694  1.00  0.00     0.102 C 
HETATM    6  C6  UNL     1      -1.957   1.861  -0.847  1.00  0.00     0.028 C 
HETATM    7  C7  UNL     1       0.333   0.891  -0.840  1.00  0.00     0.027 C 
HETATM    8  C8  UNL     1       1.017  -0.142   0.046  1.00  0.00     0.018 C 
HETATM    9  C9  UNL     1      -0.125  -0.918   0.879  1.00  0.00     0.091 C 
HETATM   10  C11 UNL     1       1.774  -1.136  -0.826  1.00  0.00     0.035 C 
HETATM   11  C12 UNL     1       2.951  -0.333  -1.363  1.00  0.00     0.142 C 
HETATM   12  C13 UNL     1       2.484   0.540  -2.520  1.00  0.00     0.035 C 
HETATM   13  C14 UNL     1       0.756   0.679  -2.287  1.00  0.00     0.005 C 
HETATM   14  C15 UNL     1       3.352   0.536  -0.212  1.00  0.00    -0.017 C 
HETATM   15  C16 UNL     1       1.960   0.562   1.012  1.00  0.00     0.025 C 
HETATM   16  C17 UNL     1       4.515   1.184  -0.089  1.00  0.00    -0.007 C 
HETATM   17  O3  UNL     1       3.998  -1.141  -1.829  1.00  0.00    -0.222 OA
HETATM   18  O4  UNL     1      -1.777  -0.409  -1.467  1.00  0.00    -0.307 OA
HETATM   19  C18 UNL     1      -2.605  -1.414  -0.593  1.00  0.00     0.271 C 
HETATM   20  O5  UNL     1      -3.109  -2.469  -0.897  1.00  0.00    -0.264 OA
HETATM   21  C19 UNL     1      -2.737  -1.619   1.938  1.00  0.00     0.010 C 
ENDROOT
BRANCH   9  22
HETATM   22  C10 UNL     1       0.269  -1.109   2.323  1.00  0.00     0.185 C 
HETATM   23  O1  UNL     1       0.284  -2.336   2.856  1.00  0.00    -0.647 OA
HETATM   24  O2  UNL     1       0.570  -0.153   2.998  1.00  0.00    -0.647 OA
ENDBRANCH   9  22
TORSDOF 1
