REMARK  1 active torsions:
REMARK  status: ('A' for Active; 'I' for Inactive)
REMARK    1  A    between atoms: C9_9  and  C10_10 
ROOT
HETATM    1  C1  UNL     1      -3.346   1.887   0.491  1.00  0.00    -0.028 C 
HETATM    2  C2  UNL     1      -3.820   0.680   0.148  1.00  0.00    -0.022 C 
HETATM    3  C3  UNL     1      -2.895  -0.366  -0.430  1.00  0.00     0.099 C 
HETATM    4  C4  UNL     1      -1.569  -0.271   0.326  1.00  0.00     0.049 C 
HETATM    5  C5  UNL     1      -1.099   1.058  -0.256  1.00  0.00     0.106 C 
HETATM    6  C6  UNL     1      -1.879   2.223   0.366  1.00  0.00     0.053 C 
HETATM    7  C7  UNL     1       0.411   1.070   0.006  1.00  0.00     0.027 C 
HETATM    8  C8  UNL     1       0.835  -0.422   0.042  1.00  0.00     0.018 C 
HETATM    9  C9  UNL     1      -0.453  -1.258  -0.042  1.00  0.00     0.091 C 
HETATM   10  C11 UNL     1       1.872  -0.723  -1.054  1.00  0.00     0.035 C 
HETATM   11  C12 UNL     1       3.038   0.143  -0.549  1.00  0.00     0.142 C 
HETATM   12  C13 UNL     1       2.743   1.634  -0.823  1.00  0.00     0.035 C 
HETATM   13  C14 UNL     1       1.239   1.930  -0.958  1.00  0.00     0.005 C 
HETATM   14  C15 UNL     1       3.072  -0.180   0.962  1.00  0.00    -0.017 C 
HETATM   15  C16 UNL     1       1.672  -0.721   1.304  1.00  0.00     0.025 C 
HETATM   16  C17 UNL     1       4.103  -0.023   1.799  1.00  0.00    -0.007 C 
HETATM   17  O3  UNL     1       4.266  -0.112  -1.175  1.00  0.00    -0.222 OA
HETATM   18  O4  UNL     1      -1.381   0.982  -1.623  1.00  0.00    -0.306 OA
HETATM   19  C18 UNL     1      -2.475   0.115  -1.815  1.00  0.00     0.275 C 
HETATM   20  O5  UNL     1      -2.981  -0.187  -2.870  1.00  0.00    -0.264 OA
HETATM   21  C19 UNL     1      -3.571  -1.730  -0.389  1.00  0.00     0.014 C 
ENDROOT
BRANCH   9  22
HETATM   22  C10 UNL     1      -0.411  -2.406   0.936  1.00  0.00     0.185 C 
HETATM   23  O1  UNL     1      -0.543  -3.663   0.498  1.00  0.00    -0.647 OA
HETATM   24  O2  UNL     1      -0.258  -2.189   2.115  1.00  0.00    -0.647 OA
ENDBRANCH   9  22
TORSDOF 1
