REMARK  1 active torsions:
REMARK  status: ('A' for Active; 'I' for Inactive)
REMARK    1  A    between atoms: C9_9  and  C10_10 
ROOT
HETATM    1  C1  UNL     1      -3.081   1.589   0.204  1.00  0.00     0.185 C 
HETATM    2  C2  UNL     1      -3.571   0.235   0.697  1.00  0.00     0.191 C 
HETATM    3  C3  UNL     1      -2.414  -0.755   0.697  1.00  0.00     0.111 C 
HETATM    4  C4  UNL     1      -1.095   0.006   0.697  1.00  0.00     0.047 C 
HETATM    5  C5  UNL     1      -0.966   0.520  -0.731  1.00  0.00     0.105 C 
HETATM    6  C6  UNL     1      -1.773   1.802  -0.885  1.00  0.00     0.064 C 
HETATM    7  C7  UNL     1       0.518   0.833  -0.877  1.00  0.00     0.027 C 
HETATM    8  C8  UNL     1       1.201  -0.201   0.008  1.00  0.00     0.018 C 
HETATM    9  C9  UNL     1       0.059  -0.977   0.841  1.00  0.00     0.091 C 
HETATM   10  C11 UNL     1       1.958  -1.195  -0.863  1.00  0.00     0.035 C 
HETATM   11  C12 UNL     1       3.135  -0.392  -1.400  1.00  0.00     0.142 C 
HETATM   12  C13 UNL     1       2.668   0.481  -2.558  1.00  0.00     0.035 C 
HETATM   13  C14 UNL     1       0.941   0.621  -2.325  1.00  0.00     0.005 C 
HETATM   14  C15 UNL     1       3.536   0.478  -0.250  1.00  0.00    -0.017 C 
HETATM   15  C16 UNL     1       2.144   0.503   0.975  1.00  0.00     0.025 C 
HETATM   16  C17 UNL     1       4.699   1.126  -0.126  1.00  0.00    -0.007 C 
HETATM   17  O3  UNL     1       4.182  -1.200  -1.867  1.00  0.00    -0.222 OA
HETATM   18  O4  UNL     1      -1.592  -0.468  -1.504  1.00  0.00    -0.306 OA
HETATM   19  C18 UNL     1      -2.421  -1.473  -0.630  1.00  0.00     0.273 C 
HETATM   20  O5  UNL     1      -2.924  -2.528  -0.935  1.00  0.00    -0.264 OA
HETATM   21  C19 UNL     1      -2.553  -1.677   1.901  1.00  0.00     0.013 C 
HETATM   22  O6  UNL     1      -4.073   0.366   2.000  1.00  0.00    -0.220 OA
HETATM   23  O7  UNL     1      -4.187   2.191  -0.412  1.00  0.00    -0.221 OA
ENDROOT
BRANCH   9  24
HETATM   24  C10 UNL     1       0.453  -1.167   2.285  1.00  0.00     0.185 C 
HETATM   25  O1  UNL     1       0.469  -2.394   2.818  1.00  0.00    -0.647 OA
HETATM   26  O2  UNL     1       0.755  -0.212   2.960  1.00  0.00    -0.647 OA
ENDBRANCH   9  24
TORSDOF 1
