REMARK  2 active torsions:
REMARK  status: ('A' for Active; 'I' for Inactive)
REMARK    1  A    between atoms: C1_1  and  C2_2 
REMARK    2  A    between atoms: C4_4  and  O2_9 
ROOT
HETATM    1  C1  UNL     1       0.306   0.253   0.220  1.00  0.00     0.032 A 
HETATM    2  C9  UNL     1      -0.514   1.528   0.082  1.00  0.00     0.051 A 
HETATM    3  C10 UNL     1       0.404   2.686  -0.226  1.00  0.00     0.113 A 
HETATM    4  O3  UNL     1      -0.052   3.795  -0.374  1.00  0.00    -0.302 OA
HETATM    5  C11 UNL     1       1.890   2.459  -0.347  1.00  0.00     0.122 A 
HETATM    6  C12 UNL     1       2.197   0.999  -0.119  1.00  0.00     0.158 A 
HETATM    7  O4  UNL     1       3.338   0.606  -0.173  1.00  0.00    -0.296 OA
HETATM    8  C13 UNL     1       1.078   0.030   0.176  1.00  0.00     0.063 A 
HETATM    9  C14 UNL     1      -0.250   0.775   0.188  1.00  0.00     0.018 A 
HETATM   10  C15 UNL     1      -0.483   1.420  -1.173  1.00  0.00     0.014 A 
HETATM   11  C16 UNL     1       0.645   2.398  -1.472  1.00  0.00     0.052 C 
HETATM   12  C17 UNL     1       0.412   3.043  -2.832  1.00  0.00     0.007 C 
ENDROOT
BRANCH   1  13
HETATM   13  C2  UNL     1      -0.605  -0.896   0.525  1.00  0.00    -0.020 A 
HETATM   14  C3  UNL     1      -0.070  -2.141   0.858  1.00  0.00     0.022 A 
HETATM   15  C4  UNL     1      -0.918  -3.211   1.141  1.00  0.00     0.119 A 
HETATM   16  C5  UNL     1      -2.301  -3.036   1.093  1.00  0.00     0.153 A 
HETATM   17  C6  UNL     1      -2.836  -1.792   0.760  1.00  0.00     0.029 A 
HETATM   18  O1  UNL     1      -3.126  -4.076   1.369  1.00  0.00    -0.188 OA
HETATM   19  C7  UNL     1      -1.988  -0.722   0.476  1.00  0.00    -0.002 A 
BRANCH  15  20
HETATM   20  O2  UNL     1      -0.399  -4.420   1.464  1.00  0.00    -0.326 OA
HETATM   21  C8  UNL     1       0.918  -4.514   1.935  1.00  0.00     0.181 C 
ENDBRANCH  15  20
ENDBRANCH   1  13
TORSDOF 2
