REMARK  3 active torsions:
REMARK  status: ('A' for Active; 'I' for Inactive)
REMARK    1  A    between atoms: C1_1  and  O10_41 
REMARK    2  A    between atoms: C7_8  and  C10_12 
REMARK    3  A    between atoms: C23_27  and  C26_31 
ROOT
HETATM    1  C1  UNL     1      -2.857   3.725   0.029  1.00  0.00     0.004 A 
HETATM    2  C2  UNL     1      -2.339   5.019   0.061  1.00  0.00     0.028 A 
HETATM    3  C3  UNL     1      -0.958   5.221   0.083  1.00  0.00     0.136 A 
HETATM    4  C4  UNL     1      -0.083   4.126   0.073  1.00  0.00     0.087 A 
HETATM    5  C5  UNL     1      -0.614   2.830   0.041  1.00  0.00     0.105 A 
HETATM    6  C6  UNL     1      -1.994   2.629   0.019  1.00  0.00     0.025 A 
HETATM    7  O1  UNL     1       0.177   1.702   0.029  1.00  0.00    -0.307 OA
HETATM    8  C7  UNL     1       1.541   1.871   0.049  1.00  0.00     0.103 A 
HETATM    9  C8  UNL     1       2.169   3.052   0.081  1.00  0.00     0.067 A 
HETATM   10  C9  UNL     1       1.406   4.338   0.096  1.00  0.00     0.202 A 
HETATM   11  O2  UNL     1       1.929   5.426   0.124  1.00  0.00    -0.286 OA
HETATM   12  O9  UNL     1      -0.461   6.482   0.114  1.00  0.00    -0.190 OA
ENDROOT
BRANCH   1  13
HETATM   13  O10 UNL     1      -4.198   3.532   0.008  1.00  0.00     0.000 OA
HETATM   14  C32 UNL     1      -4.719   2.230  -0.024  1.00  0.00     0.009 A 
HETATM   15  C29 UNL     1      -3.677   1.685  -0.013  1.00  0.00     0.044 A 
HETATM   16  O6  UNL     1      -4.371   2.848   0.003  1.00  0.00     0.000 OA
HETATM   17  C28 UNL     1      -2.736   1.447  -1.015  1.00  0.00    -0.022 A 
HETATM   18  C30 UNL     1      -3.903   0.725   0.974  1.00  0.00    -0.022 A 
HETATM   19  C27 UNL     1      -2.022   0.249  -1.030  1.00  0.00    -0.002 A 
HETATM   20  C26 UNL     1      -2.248  -0.711  -0.044  1.00  0.00     0.022 A 
HETATM   21  C31 UNL     1      -3.189  -0.473   0.958  1.00  0.00    -0.002 A 
BRANCH  20  22
HETATM   22  C23 UNL     1      -1.563  -1.859  -0.059  1.00  0.00     0.103 A 
HETATM   23  O4  UNL     1      -0.190  -1.779  -0.041  1.00  0.00    -0.307 OA
HETATM   24  C22 UNL     1       0.526  -2.956  -0.057  1.00  0.00     0.107 A 
HETATM   25  C17 UNL     1       1.916  -2.845  -0.039  1.00  0.00     0.048 A 
HETATM   26  C21 UNL     1      -0.088  -4.215  -0.089  1.00  0.00     0.087 A 
HETATM   27  C12 UNL     1       2.491  -1.638  -0.008  1.00  0.00     0.004 A 
HETATM   28  C18 UNL     1       2.706  -3.994  -0.053  1.00  0.00     0.135 A 
HETATM   29  C11 UNL     1       1.700  -0.489   0.005  1.00  0.00     0.002 A 
HETATM   30  C13 UNL     1       3.881  -1.528   0.012  1.00  0.00     0.000 A 
HETATM   31  C10 UNL     1       2.300   0.770   0.037  1.00  0.00     0.023 A 
HETATM   32  C15 UNL     1       3.690   0.880   0.057  1.00  0.00     0.002 A 
HETATM   33  C14 UNL     1       4.481  -0.269   0.045  1.00  0.00     0.000 A 
HETATM   34  O3  UNL     1       4.649  -2.644  -0.000  1.00  0.00     0.000 OA
HETATM   35  C16 UNL     1       6.046  -2.533  -0.053  1.00  0.00     0.000 C 
HETATM   36  O8  UNL     1       4.057  -3.888  -0.035  1.00  0.00    -0.190 OA
HETATM   37  C19 UNL     1       2.105  -5.252  -0.085  1.00  0.00     0.055 A 
HETATM   38  C20 UNL     1       0.713  -5.364  -0.103  1.00  0.00     0.138 A 
HETATM   39  O7  UNL     1       0.135  -6.590  -0.134  1.00  0.00    -0.190 OA
HETATM   40  C25 UNL     1      -1.588  -4.329  -0.109  1.00  0.00     0.202 A 
HETATM   41  C24 UNL     1      -2.266  -2.996  -0.090  1.00  0.00     0.067 A 
HETATM   42  O5  UNL     1      -2.180  -5.382  -0.136  1.00  0.00    -0.286 OA
ENDBRANCH  20  22
ENDBRANCH   1  13
TORSDOF 3
