REMARK  0 active torsions:
REMARK  status: ('A' for Active; 'I' for Inactive)
ROOT
HETATM    1  C1  UNL     1      -3.246  -1.475   1.012  1.00  0.00     0.004 C 
HETATM    2  C2  UNL     1      -3.861  -0.094   0.824  1.00  0.00     0.035 C 
HETATM    3  C3  UNL     1      -2.777   0.996   0.799  1.00  0.00     0.250 C 
HETATM    4  N1  UNL     1      -1.527   0.588   0.119  1.00  0.00     0.135 N 
HETATM    5  C4  UNL     1      -1.648  -0.559  -0.816  1.00  0.00     0.223 C 
HETATM    6  C5  UNL     1      -2.297  -1.803  -0.148  1.00  0.00     0.034 C 
HETATM    7  C6  UNL     1      -0.275  -0.906  -1.447  1.00  0.00     0.053 C 
HETATM    8  C7  UNL     1       0.309   0.320  -2.160  1.00  0.00     0.011 C 
HETATM    9  C8  UNL     1       0.525   1.402  -1.098  1.00  0.00     0.072 C 
HETATM   10  C9  UNL     1      -0.834   1.758  -0.457  1.00  0.00     0.253 C 
HETATM   11  C10 UNL     1       1.565   0.943  -0.039  1.00  0.00     0.277 C 
HETATM   12  C11 UNL     1       1.543  -0.551   0.238  1.00  0.00    -0.015 C 
HETATM   13  C12 UNL     1       0.711  -1.398  -0.406  1.00  0.00    -0.031 C 
HETATM   14  C13 UNL     1       2.537  -1.039   1.266  1.00  0.00     0.026 C 
HETATM   15  C14 UNL     1       3.936  -0.525   0.898  1.00  0.00     0.043 C 
HETATM   16  C15 UNL     1       3.936   0.982   0.584  1.00  0.00     0.291 C 
HETATM   17  N2  UNL     1       2.934   1.313  -0.440  1.00  0.00     0.341 N 
ENDROOT
TORSDOF 0
