REMARK  6 active torsions:
REMARK  status: ('A' for Active; 'I' for Inactive)
REMARK    1  A    between atoms: C2_2  and  O2_33 
REMARK    2  A    between atoms: C15_16  and  C19_20 
REMARK    3  A    between atoms: C20_21  and  C21_22 
REMARK    4  A    between atoms: C21_22  and  C22_23 
REMARK    5  A    between atoms: O2_33  and  C32_34 
REMARK    6  A    between atoms: C36_38  and  C37_40 
ROOT
HETATM    1  C1  UNL     1       3.496   0.299   1.719  1.00  0.00     0.030 C 
HETATM    2  C2  UNL     1       3.016  -1.057   1.178  1.00  0.00     0.118 C 
HETATM    3  C3  UNL     1       3.236  -1.160  -0.354  1.00  0.00     0.025 C 
HETATM    4  C4  UNL     1       2.637   0.107  -1.084  1.00  0.00     0.002 C 
HETATM    5  C5  UNL     1       1.957   1.207  -0.205  1.00  0.00     0.000 C 
HETATM    6  C6  UNL     1       2.748   1.496   1.104  1.00  0.00     0.003 C 
HETATM    7  C7  UNL     1       0.426   0.924   0.121  1.00  0.00     0.003 C 
HETATM    8  C8  UNL     1      -0.268  -0.139  -0.803  1.00  0.00     0.000 C 
HETATM    9  C9  UNL     1       0.275   0.104  -2.236  1.00  0.00     0.000 C 
HETATM   10  C10 UNL     1       1.801  -0.145  -2.373  1.00  0.00     0.000 C 
HETATM   11  C11 UNL     1      -1.854  -0.176  -0.719  1.00  0.00     0.003 C 
HETATM   12  C12 UNL     1      -2.496   1.240  -0.676  1.00  0.00     0.034 C 
HETATM   13  C13 UNL     1      -1.856   2.176   0.383  1.00  0.00     0.152 C 
HETATM   14  C14 UNL     1      -0.350   2.273   0.152  1.00  0.00     0.033 C 
HETATM   15  O1  UNL     1      -2.088   1.779   1.719  1.00  0.00    -0.224 OA
HETATM   16  C15 UNL     1      -4.049   1.178  -0.607  1.00  0.00     0.020 C 
HETATM   17  C16 UNL     1      -4.563   0.348   0.584  1.00  0.00     0.004 C 
HETATM   18  C17 UNL     1      -3.906  -1.035   0.627  1.00  0.00     0.000 C 
HETATM   19  C18 UNL     1      -2.369  -0.998   0.504  1.00  0.00     0.000 C 
HETATM   20  C27 UNL     1      -2.399  -0.908  -1.965  1.00  0.00     0.000 C 
HETATM   21  C28 UNL     1       0.185  -1.539  -0.400  1.00  0.00     0.000 C 
HETATM   22  C29 UNL     1       2.092   2.492  -1.055  1.00  0.00     0.000 C 
HETATM   23  C30 UNL     1       2.678  -2.502  -0.857  1.00  0.00     0.002 C 
HETATM   24  C31 UNL     1       4.748  -1.242  -0.650  1.00  0.00     0.002 C 
ENDROOT
BRANCH   2  25
HETATM   25  O2  UNL     1       3.713  -2.084   1.865  1.00  0.00    -0.332 OA
BRANCH  25  26
HETATM   26  C32 UNL     1       3.348  -2.188   3.229  1.00  0.00     0.270 C 
HETATM   27  C33 UNL     1       2.910  -3.627   3.613  1.00  0.00     0.241 C 
HETATM   28  C34 UNL     1       4.092  -4.619   3.725  1.00  0.00     0.220 C 
HETATM   29  O7  UNL     1       1.902  -4.117   2.744  1.00  0.00    -0.215 OA
HETATM   30  C35 UNL     1       5.207  -4.006   4.600  1.00  0.00     0.215 C 
HETATM   31  O6  UNL     1       4.631  -4.922   2.449  1.00  0.00    -0.218 OA
HETATM   32  C36 UNL     1       5.555  -2.547   4.205  1.00  0.00     0.184 C 
HETATM   33  O5  UNL     1       4.781  -4.029   5.953  1.00  0.00    -0.218 OA
HETATM   34  O3  UNL     1       4.379  -1.734   4.107  1.00  0.00    -0.326 OA
BRANCH  32  35
HETATM   35  C37 UNL     1       6.373  -2.449   2.912  1.00  0.00     0.214 C 
HETATM   36  O4  UNL     1       6.607  -1.086   2.639  1.00  0.00    -0.218 OA
ENDBRANCH  32  35
ENDBRANCH  25  26
ENDBRANCH   2  25
BRANCH  16  37
HETATM   37  C19 UNL     1      -4.693   2.543  -0.637  1.00  0.00    -0.048 C 
HETATM   38  C20 UNL     1      -5.002   3.231  -1.748  1.00  0.00    -0.030 C 
HETATM   39  C26 UNL     1      -5.004   3.162   0.699  1.00  0.00     0.026 C 
BRANCH  38  40
HETATM   40  C21 UNL     1      -4.693   2.611  -3.084  1.00  0.00     0.051 C 
BRANCH  40  41
HETATM   41  C22 UNL     1      -5.111   3.531  -4.201  1.00  0.00    -0.030 C 
HETATM   42  C23 UNL     1      -6.399   3.529  -4.582  1.00  0.00    -0.048 C 
HETATM   43  C24 UNL     1      -7.361   2.625  -3.861  1.00  0.00     0.026 C 
HETATM   44  C25 UNL     1      -6.815   4.434  -5.713  1.00  0.00     0.026 C 
ENDBRANCH  40  41
ENDBRANCH  38  40
ENDBRANCH  16  37
TORSDOF 6
