REMARK  11 active torsions:
REMARK  status: ('A' for Active; 'I' for Inactive)
REMARK    1  A    between atoms: C1_2  and  C2_3 
REMARK    2  A    between atoms: C1_2  and  C4_5 
REMARK    3  A    between atoms: C5_6  and  C6_7 
REMARK    4  A    between atoms: C7_8  and  C8_9 
REMARK    5  A    between atoms: C8_9  and  C9_10 
REMARK    6  A    between atoms: C10_11  and  C11_12 
REMARK    7  A    between atoms: C11_12  and  C12_13 
REMARK    8  A    between atoms: C12_13  and  C13_14 
REMARK    9  A    between atoms: C13_14  and  C14_15 
REMARK   10  A    between atoms: C14_15  and  C15_16 
REMARK   11  A    between atoms: C15_16  and  C16_17 
ROOT
HETATM    1  C9  UNL     1      -0.877  -2.167  -0.451  1.00  0.00     0.155 A 
HETATM    2  C10 UNL     1       0.609  -2.160   0.057  1.00  0.00     0.143 A 
HETATM    3  O2  UNL     1       0.117  -1.329  -0.943  1.00  0.00    -0.353 OA
ENDROOT
BRANCH   1   4
HETATM    4  C8  UNL     1      -1.956  -1.305   0.190  1.00  0.00     0.109 C 
BRANCH   4   5
HETATM    5  C7  UNL     1      -2.880  -0.805  -0.824  1.00  0.00    -0.075 C 
HETATM    6  C6  UNL     1      -3.633  -0.398  -1.651  1.00  0.00    -0.014 C 
BRANCH   6   7
HETATM    7  C5  UNL     1      -4.506   0.075  -2.609  1.00  0.00    -0.011 C 
HETATM    8  C4  UNL     1      -5.259   0.482  -3.436  1.00  0.00    -0.041 C 
BRANCH   8   9
HETATM    9  C1  UNL     1      -6.183   0.982  -4.450  1.00  0.00     0.238 C 
HETATM   10  O1  UNL     1      -6.810  -0.106  -5.091  1.00  0.00    -0.204 OA
BRANCH   9  11
HETATM   11  C2  UNL     1      -7.222   1.823  -3.758  1.00  0.00     0.019 C 
HETATM   12  C3  UNL     1      -7.735   2.876  -4.415  1.00  0.00    -0.001 C 
ENDBRANCH   9  11
ENDBRANCH   8   9
ENDBRANCH   6   7
ENDBRANCH   4   5
ENDBRANCH   1   4
BRANCH   2  13
HETATM   13  C11 UNL     1       1.063  -1.291   1.221  1.00  0.00     0.032 C 
BRANCH  13  14
HETATM   14  C12 UNL     1       2.589  -1.194   1.221  1.00  0.00     0.003 C 
BRANCH  14  15
HETATM   15  C13 UNL     1       3.125  -0.322   2.357  1.00  0.00     0.000 C 
BRANCH  15  16
HETATM   16  C14 UNL     1       4.651  -0.226   2.357  1.00  0.00     0.005 C 
BRANCH  16  17
HETATM   17  C15 UNL     1       5.187   0.648   3.491  1.00  0.00     0.026 C 
BRANCH  17  18
HETATM   18  C16 UNL     1       6.690   0.730   3.491  1.00  0.00    -0.026 C 
HETATM   19  C17 UNL     1       7.265   1.944   3.491  1.00  0.00    -0.005 C 
ENDBRANCH  17  18
ENDBRANCH  16  17
ENDBRANCH  15  16
ENDBRANCH  14  15
ENDBRANCH  13  14
ENDBRANCH   2  13
TORSDOF 11
