REMARK  12 active torsions:
REMARK  status: ('A' for Active; 'I' for Inactive)
REMARK    1  A    between atoms: C1_2  and  C2_3 
REMARK    2  A    between atoms: C1_2  and  C4_5 
REMARK    3  A    between atoms: C5_6  and  C6_7 
REMARK    4  A    between atoms: C7_8  and  C8_9 
REMARK    5  A    between atoms: C8_9  and  C9_10 
REMARK    6  A    between atoms: C9_10  and  C10_11 
REMARK    7  A    between atoms: C10_11  and  C11_12 
REMARK    8  A    between atoms: C11_12  and  C12_13 
REMARK    9  A    between atoms: C12_13  and  C13_14 
REMARK   10  A    between atoms: C13_14  and  C14_15 
REMARK   11  A    between atoms: C14_15  and  C15_16 
REMARK   12  A    between atoms: C15_16  and  C16_17 
ROOT
HETATM    1  C9  UNL     1      -0.664  -0.086  -0.962  1.00  0.00     0.180 C 
HETATM    2  O2  UNL     1      -1.404   1.113  -1.011  1.00  0.00    -0.221 OA
ENDROOT
BRANCH   1   3
HETATM    3  C8  UNL     1      -1.192  -1.018  -2.053  1.00  0.00     0.111 C 
BRANCH   3   4
HETATM    4  C7  UNL     1      -2.474  -1.593  -1.658  1.00  0.00    -0.075 C 
HETATM    5  C6  UNL     1      -3.520  -2.061  -1.335  1.00  0.00    -0.014 C 
BRANCH   5   6
HETATM    6  C5  UNL     1      -4.732  -2.604  -0.962  1.00  0.00    -0.011 C 
HETATM    7  C4  UNL     1      -5.778  -3.072  -0.639  1.00  0.00    -0.041 C 
BRANCH   7   8
HETATM    8  C1  UNL     1      -7.060  -3.647  -0.244  1.00  0.00     0.238 C 
HETATM    9  O1  UNL     1      -8.000  -2.613  -0.055  1.00  0.00    -0.204 OA
BRANCH   8  10
HETATM   10  C2  UNL     1      -7.526  -4.551  -1.353  1.00  0.00     0.019 C 
HETATM   11  C3  UNL     1      -8.226  -5.652  -1.031  1.00  0.00    -0.001 C 
ENDBRANCH   8  10
ENDBRANCH   7   8
ENDBRANCH   5   6
ENDBRANCH   3   4
ENDBRANCH   1   3
BRANCH   1  12
HETATM   12  C10 UNL     1       0.815   0.258  -1.145  1.00  0.00     0.111 C 
HETATM   13 CL1  UNL     1       1.053   1.038  -2.730  1.00  0.00    -0.113 Cl
BRANCH  12  14
HETATM   14  C11 UNL     1       1.349   1.172  -0.042  1.00  0.00     0.019 C 
BRANCH  14  15
HETATM   15  C12 UNL     1       2.875   1.267  -0.040  1.00  0.00     0.001 C 
BRANCH  15  16
HETATM   16  C13 UNL     1       3.411   2.134   1.099  1.00  0.00     0.000 C 
BRANCH  16  17
HETATM   17  C14 UNL     1       4.937   2.230   1.099  1.00  0.00     0.005 C 
BRANCH  17  18
HETATM   18  C15 UNL     1       5.474   3.099   2.237  1.00  0.00     0.026 C 
BRANCH  18  19
HETATM   19  C16 UNL     1       6.977   3.182   2.237  1.00  0.00    -0.026 C 
HETATM   20  C17 UNL     1       7.552   4.395   2.237  1.00  0.00    -0.005 C 
ENDBRANCH  18  19
ENDBRANCH  17  18
ENDBRANCH  16  17
ENDBRANCH  15  16
ENDBRANCH  14  15
ENDBRANCH  12  14
ENDBRANCH   1  12
TORSDOF 12
