REMARK  12 active torsions:
REMARK  status: ('A' for Active; 'I' for Inactive)
REMARK    1  A    between atoms: C1_2  and  C2_3 
REMARK    2  A    between atoms: C1_2  and  C4_5 
REMARK    3  A    between atoms: C5_6  and  C6_7 
REMARK    4  A    between atoms: C7_8  and  C8_9 
REMARK    5  A    between atoms: C8_9  and  C9_10 
REMARK    6  A    between atoms: C9_10  and  C10_11 
REMARK    7  A    between atoms: C10_11  and  C11_12 
REMARK    8  A    between atoms: C11_12  and  C12_13 
REMARK    9  A    between atoms: C12_13  and  C13_14 
REMARK   10  A    between atoms: C13_14  and  C14_15 
REMARK   11  A    between atoms: C14_15  and  C15_16 
REMARK   12  A    between atoms: C15_16  and  C16_17 
ROOT
HETATM    1  C9  UNL     1       1.001  -0.519   0.326  1.00  0.00     0.195 C 
HETATM    2  O3  UNL     1       0.610  -1.737   0.918  1.00  0.00    -0.220 OA
ENDROOT
BRANCH   1   3
HETATM    3  C8  UNL     1       2.526  -0.422   0.392  1.00  0.00     0.112 C 
BRANCH   3   4
HETATM    4  C7  UNL     1       2.961  -0.128   1.754  1.00  0.00    -0.075 C 
HETATM    5  C6  UNL     1       3.316   0.112   2.864  1.00  0.00    -0.014 C 
BRANCH   5   6
HETATM    6  C5  UNL     1       3.728   0.390   4.151  1.00  0.00    -0.011 C 
HETATM    7  C4  UNL     1       4.083   0.630   5.261  1.00  0.00    -0.041 C 
BRANCH   7   8
HETATM    8  C1  UNL     1       4.519   0.925   6.623  1.00  0.00     0.238 C 
HETATM    9  O1  UNL     1       4.105  -0.113   7.483  1.00  0.00    -0.204 OA
BRANCH   8  10
HETATM   10  C2  UNL     1       6.022   1.007   6.623  1.00  0.00     0.019 C 
HETATM   11  C3  UNL     1       6.597   2.221   6.623  1.00  0.00    -0.001 C 
ENDBRANCH   8  10
ENDBRANCH   7   8
ENDBRANCH   5   6
ENDBRANCH   3   4
ENDBRANCH   1   3
BRANCH   1  12
HETATM   12  C10 UNL     1       0.469  -0.491  -1.107  1.00  0.00     0.183 C 
HETATM   13  O2  UNL     1       1.016  -1.589  -1.802  1.00  0.00    -0.221 OA
BRANCH  12  14
HETATM   14  C11 UNL     1      -1.055  -0.594  -1.173  1.00  0.00     0.036 C 
BRANCH  14  15
HETATM   15  C12 UNL     1      -1.610  -0.260  -2.558  1.00  0.00     0.003 C 
BRANCH  15  16
HETATM   16  C13 UNL     1      -3.138  -0.294  -2.605  1.00  0.00     0.000 C 
BRANCH  16  17
HETATM   17  C14 UNL     1      -3.693   0.037  -3.991  1.00  0.00     0.005 C 
BRANCH  17  18
HETATM   18  C15 UNL     1      -5.220   0.001  -4.039  1.00  0.00     0.026 C 
BRANCH  18  19
HETATM   19  C16 UNL     1      -5.760   0.336  -5.404  1.00  0.00    -0.026 C 
HETATM   20  C17 UNL     1      -6.570  -0.549  -6.008  1.00  0.00    -0.005 C 
ENDBRANCH  18  19
ENDBRANCH  17  18
ENDBRANCH  16  17
ENDBRANCH  15  16
ENDBRANCH  14  15
ENDBRANCH  12  14
ENDBRANCH   1  12
TORSDOF 12
