REMARK  1 active torsions:
REMARK  status: ('A' for Active; 'I' for Inactive)
REMARK    1  A    between atoms: C8_9  and  C10_11 
ROOT
HETATM    1  C10 UNL     1      -0.279  -0.666   0.361  1.00  0.00     0.024 A 
HETATM    2  C11 UNL     1      -1.363  -1.016   1.201  1.00  0.00     0.004 A 
HETATM    3  C12 UNL     1      -2.639  -0.441   0.988  1.00  0.00     0.024 A 
HETATM    4  C13 UNL     1      -2.832   0.486  -0.063  1.00  0.00     0.096 A 
HETATM    5  C14 UNL     1      -1.746   0.830  -0.906  1.00  0.00     0.047 A 
HETATM    6  C15 UNL     1      -0.465   0.258  -0.699  1.00  0.00     0.133 A 
HETATM    7  O2  UNL     1       0.563   0.586  -1.498  1.00  0.00    -0.190 OA
HETATM    8  C16 UNL     1      -1.984   1.787  -2.012  1.00  0.00     0.002 C 
HETATM    9  C17 UNL     1      -3.172   2.416  -2.104  1.00  0.00     0.001 C 
HETATM   10  C18 UNL     1      -4.236   2.225  -1.035  1.00  0.00     0.117 C 
HETATM   11  O3  UNL     1      -4.055   1.023  -0.262  1.00  0.00    -0.332 OA
HETATM   12  C19 UNL     1      -4.174   3.412  -0.072  1.00  0.00     0.035 C 
HETATM   13  C20 UNL     1      -5.621   2.150  -1.682  1.00  0.00     0.035 C 
ENDROOT
BRANCH   1  14
HETATM   14  C8  UNL     1       1.051  -1.272   0.594  1.00  0.00     0.010 C 
HETATM   15  C7  UNL     1       1.176  -2.775   0.770  1.00  0.00     0.175 C 
HETATM   16  O1  UNL     1       2.492  -3.295   0.521  1.00  0.00    -0.326 OA
HETATM   17  C5  UNL     1       3.590  -2.537   0.729  1.00  0.00     0.097 A 
HETATM   18  C4  UNL     1       3.486  -1.125   0.816  1.00  0.00     0.022 A 
HETATM   19  C6  UNL     1       4.859  -3.152   0.844  1.00  0.00     0.052 A 
HETATM   20  C3  UNL     1       4.639  -0.332   1.029  1.00  0.00     0.004 A 
HETATM   21  C9  UNL     1       2.152  -0.496   0.666  1.00  0.00     0.000 C 
HETATM   22  C2  UNL     1       5.904  -0.955   1.150  1.00  0.00     0.028 A 
HETATM   23  C1  UNL     1       6.014  -2.363   1.057  1.00  0.00     0.133 A 
HETATM   24  O4  UNL     1       7.213  -2.949   1.168  1.00  0.00    -0.190 OA
ENDBRANCH   1  14
TORSDOF 1
