REMARK  1 active torsions:
REMARK  status: ('A' for Active; 'I' for Inactive)
REMARK    1  A    between atoms: C13_15  and  C15_17 
ROOT
HETATM    1  C1  UNL     1      -1.563  -1.889  -0.502  1.00  0.00     0.092 A 
HETATM    2  C2  UNL     1      -0.756  -2.852   0.145  1.00  0.00     0.024 A 
HETATM    3  C3  UNL     1       0.639  -2.658   0.248  1.00  0.00    -0.000 A 
HETATM    4  C4  UNL     1       1.242  -1.500  -0.299  1.00  0.00     0.000 A 
HETATM    5  C5  UNL     1       0.439  -0.535  -0.971  1.00  0.00     0.088 A 
HETATM    6  C6  UNL     1      -0.963  -0.730  -1.072  1.00  0.00     0.022 A 
HETATM    7  C7  UNL     1      -1.807   0.270  -1.773  1.00  0.00     0.033 C 
HETATM    8  C8  UNL     1      -3.190  -0.289  -2.146  1.00  0.00     0.033 C 
HETATM    9  C9  UNL     1      -3.803  -1.064  -0.965  1.00  0.00     0.099 C 
HETATM   10  O1  UNL     1      -2.897  -2.102  -0.564  1.00  0.00    -0.336 OA
HETATM   11  C10 UNL     1      -4.049  -0.143   0.236  1.00  0.00     0.030 C 
HETATM   12  C11 UNL     1      -5.117  -1.732  -1.373  1.00  0.00     0.030 C 
HETATM   13  O2  UNL     1       0.986   0.578  -1.508  1.00  0.00    -0.331 OA
HETATM   14  C12 UNL     1       2.406   0.707  -1.652  1.00  0.00     0.153 C 
HETATM   15  C13 UNL     1       3.131   0.172  -0.406  1.00  0.00     0.059 C 
HETATM   16  C14 UNL     1       2.709  -1.295  -0.170  1.00  0.00     0.035 C 
ENDROOT
BRANCH  15  17
HETATM   17  C15 UNL     1       2.877   1.031   0.789  1.00  0.00     0.006 A 
HETATM   18  C16 UNL     1       1.650   0.928   1.471  1.00  0.00    -0.000 A 
HETATM   19  C17 UNL     1       1.402   1.732   2.596  1.00  0.00     0.027 A 
HETATM   20  C18 UNL     1       2.375   2.643   3.043  1.00  0.00     0.133 A 
HETATM   21  C19 UNL     1       3.600   2.744   2.360  1.00  0.00     0.054 A 
HETATM   22  O4  UNL     1       2.143   3.397   4.098  1.00  0.00    -0.190 OA
HETATM   23  C20 UNL     1       3.855   1.941   1.233  1.00  0.00     0.129 A 
HETATM   24  O3  UNL     1       5.008   2.045   0.602  1.00  0.00    -0.190 OA
ENDBRANCH  15  17
TORSDOF 1
