REMARK  5 active torsions:
REMARK  status: ('A' for Active; 'I' for Inactive)
REMARK    1  A    between atoms: C1_1  and  C2_2 
REMARK    2  A    between atoms: C1_1  and  C7_8 
REMARK    3  A    between atoms: C2_2  and  C3_3 
REMARK    4  A    between atoms: C4_4  and  C5_5 
REMARK    5  A    between atoms: C7_8  and  C8_9 
ROOT
HETATM    1  C8  UNL     1       1.266   0.543  -0.908  1.00  0.00    -0.007 A 
HETATM    2  C9  UNL     1       2.393  -0.193  -0.877  1.00  0.00     0.036 A 
HETATM    3  C10 UNL     1       3.721   0.440  -0.857  1.00  0.00     0.191 A 
HETATM    4  C11 UNL     1       3.809   1.906  -0.932  1.00  0.00     0.016 A 
HETATM    5  C12 UNL     1       2.693   2.664  -0.963  1.00  0.00     0.009 A 
HETATM    6  C13 UNL     1       1.297   2.065  -0.904  1.00  0.00     0.193 A 
HETATM    7  O2  UNL     1       0.656   2.541   0.262  1.00  0.00    -0.214 OA
HETATM    8  C14 UNL     1       5.160   2.574  -0.973  1.00  0.00     0.034 C 
HETATM    9  O3  UNL     1       4.717  -0.242  -0.789  1.00  0.00    -0.287 OA
ENDROOT
BRANCH   1  10
HETATM   10  C7  UNL     1      -0.078  -0.143  -0.955  1.00  0.00     0.021 C 
HETATM   11  C15 UNL     1      -0.967   0.395  -2.078  1.00  0.00     0.004 C 
BRANCH  10  12
HETATM   12  C1  UNL     1      -0.779  -0.143   0.402  1.00  0.00     0.009 C 
BRANCH  12  13
HETATM   13  C2  UNL     1      -1.688  -1.357   0.596  1.00  0.00     0.026 C 
BRANCH  13  14
HETATM   14  C3  UNL     1      -2.272  -1.424   1.983  1.00  0.00    -0.027 C 
HETATM   15  C4  UNL     1      -3.332  -2.221   2.193  1.00  0.00     0.016 C 
HETATM   16  C6  UNL     1      -3.883  -3.008   1.035  1.00  0.00     0.034 C 
BRANCH  15  17
HETATM   17  C5  UNL     1      -3.979  -2.359   3.504  1.00  0.00     0.230 C 
HETATM   18  O1  UNL     1      -4.949  -3.066   3.635  1.00  0.00    -0.283 OA
ENDBRANCH  15  17
ENDBRANCH  13  14
ENDBRANCH  12  13
ENDBRANCH  10  12
ENDBRANCH   1  10
TORSDOF 5
