REMARK  3 active torsions:
REMARK  status: ('A' for Active; 'I' for Inactive)
REMARK    1  A    between atoms: C10_11  and  O1_13 
REMARK    2  A    between atoms: C19_23  and  O5_28 
REMARK    3  A    between atoms: C20_24  and  O4_26 
ROOT
HETATM    1  C1  UNL     1       2.607  -0.105  -0.310  1.00  0.00    -0.022 A 
HETATM    2  C2  UNL     1       1.344  -0.785  -0.443  1.00  0.00    -0.022 A 
HETATM    3  C3  UNL     1       0.340  -0.795   0.684  1.00  0.00     0.060 C 
HETATM    4  C4  UNL     1       0.180   0.625   1.340  1.00  0.00     0.245 C 
HETATM    5  N1  UNL     1       1.082   0.709   2.512  1.00  0.00     0.142 N 
HETATM    6  C5  UNL     1       2.469   0.279   2.262  1.00  0.00     0.255 C 
HETATM    7  C6  UNL     1       3.016   0.701   0.883  1.00  0.00     0.061 C 
HETATM    8  C7  UNL     1       0.557   0.047   3.707  1.00  0.00     0.286 C 
HETATM    9  C8  UNL     1      -1.225   1.104   1.594  1.00  0.00     0.009 A 
HETATM   10  C9  UNL     1      -2.340   0.529   0.922  1.00  0.00     0.027 A 
HETATM   11  C10 UNL     1      -2.129  -0.572  -0.047  1.00  0.00     0.140 C 
HETATM   12  C11 UNL     1      -1.016  -1.510   0.442  1.00  0.00     0.041 C 
HETATM   13  C13 UNL     1      -3.666   0.988   1.166  1.00  0.00     0.117 A 
HETATM   14  C14 UNL     1      -3.885   2.025   2.074  1.00  0.00     0.119 A 
HETATM   15  C15 UNL     1      -2.781   2.611   2.736  1.00  0.00     0.026 A 
HETATM   16  C16 UNL     1      -1.465   2.164   2.502  1.00  0.00    -0.001 A 
HETATM   17  O2  UNL     1      -5.192   2.279   2.141  1.00  0.00    -0.300 OA
HETATM   18  C17 UNL     1      -5.897   1.383   1.258  1.00  0.00     0.304 A 
HETATM   19  O3  UNL     1      -4.838   0.596   0.668  1.00  0.00    -0.300 OA
HETATM   20  C18 UNL     1       1.064  -1.453  -1.672  1.00  0.00     0.022 A 
HETATM   21  C19 UNL     1       2.008  -1.494  -2.721  1.00  0.00     0.116 A 
HETATM   22  C20 UNL     1       3.256  -0.861  -2.568  1.00  0.00     0.116 A 
HETATM   23  C21 UNL     1       3.547  -0.170  -1.375  1.00  0.00     0.022 A 
ENDROOT
BRANCH  11  24
HETATM   24  O1  UNL     1      -1.811  -0.043  -1.318  1.00  0.00    -0.350 OA
HETATM   25  C12 UNL     1      -2.877   0.666  -1.908  1.00  0.00     0.175 C 
ENDBRANCH  11  24
BRANCH  21  26
HETATM   26  O5  UNL     1       1.711  -2.139  -3.859  1.00  0.00    -0.326 OA
HETATM   27  C23 UNL     1       0.439  -2.760  -3.963  1.00  0.00     0.181 C 
ENDBRANCH  21  26
BRANCH  22  28
HETATM   28  O4  UNL     1       4.164  -0.908  -3.553  1.00  0.00    -0.326 OA
HETATM   29  C22 UNL     1       5.402  -0.246  -3.350  1.00  0.00     0.181 C 
ENDBRANCH  22  28
TORSDOF 3
