REMARK  3 active torsions:
REMARK  status: ('A' for Active; 'I' for Inactive)
REMARK    1  A    between atoms: C6_6  and  C7_7 
REMARK    2  A    between atoms: C7_7  and  C8_8 
REMARK    3  A    between atoms: C12_13  and  C15_18 
ROOT
HETATM    1  C1  UNL     1      -2.867  -1.348   1.012  1.00  0.00     0.131 A 
HETATM    2  C2  UNL     1      -2.705  -2.651   1.541  1.00  0.00     0.055 A 
HETATM    3  C3  UNL     1      -1.410  -3.186   1.734  1.00  0.00     0.138 A 
HETATM    4  C4  UNL     1      -0.274  -2.408   1.393  1.00  0.00     0.089 A 
HETATM    5  C5  UNL     1      -0.432  -1.102   0.863  1.00  0.00     0.103 A 
HETATM    6  C6  UNL     1      -1.733  -0.572   0.674  1.00  0.00     0.030 A 
HETATM    7  O1  UNL     1       0.654  -0.365   0.543  1.00  0.00    -0.305 OA
HETATM    8  C12 UNL     1       1.926  -0.793   0.693  1.00  0.00     0.128 A 
HETATM    9  C13 UNL     1       2.207  -2.024   1.189  1.00  0.00     0.192 A 
HETATM   10  C14 UNL     1       1.107  -2.936   1.580  1.00  0.00     0.227 A 
HETATM   11  O2  UNL     1       1.420  -4.022   2.014  1.00  0.00    -0.284 OA
HETATM   12  O3  UNL     1       3.469  -2.436   1.334  1.00  0.00    -0.185 OA
HETATM   13  O4  UNL     1      -1.276  -4.422   2.236  1.00  0.00    -0.190 OA
HETATM   14  O5  UNL     1      -4.102  -0.856   0.836  1.00  0.00    -0.190 OA
ENDROOT
BRANCH   8  15
HETATM   15  C15 UNL     1       3.043   0.117   0.305  1.00  0.00     0.025 A 
HETATM   16  C16 UNL     1       3.035   0.742  -0.957  1.00  0.00     0.002 A 
HETATM   17  C17 UNL     1       4.088   1.599  -1.322  1.00  0.00     0.000 A 
HETATM   18  C18 UNL     1       5.148   1.832  -0.430  1.00  0.00     0.000 A 
HETATM   19  C19 UNL     1       5.156   1.209   0.828  1.00  0.00     0.000 A 
HETATM   20  C20 UNL     1       4.105   0.351   1.197  1.00  0.00     0.002 A 
ENDBRANCH   8  15
BRANCH   6  21
HETATM   21  C7  UNL     1      -1.902   0.783   0.123  1.00  0.00     0.056 C 
BRANCH  21  22
HETATM   22  C8  UNL     1      -2.356   0.760  -1.313  1.00  0.00    -0.030 C 
HETATM   23  C9  UNL     1      -2.770   1.908  -1.873  1.00  0.00    -0.048 C 
HETATM   24  C10 UNL     1      -3.252   1.877  -3.301  1.00  0.00     0.026 C 
HETATM   25  C11 UNL     1      -2.731   3.166  -1.049  1.00  0.00     0.026 C 
ENDBRANCH  21  22
ENDBRANCH   6  21
TORSDOF 3
