REMARK  6 active torsions:
REMARK  status: ('A' for Active; 'I' for Inactive)
REMARK    1  A    between atoms: C1_1  and  C12_15 
REMARK    2  A    between atoms: C4_4  and  C7_8 
REMARK    3  A    between atoms: C7_8  and  C8_9 
REMARK    4  A    between atoms: C8_9  and  C9_11 
REMARK    5  A    between atoms: C12_15  and  C13_16 
REMARK    6  A    between atoms: C13_16  and  C14_17 
ROOT
HETATM    1  C1  UNL     1      -2.022   0.904   0.014  1.00  0.00    -0.018 A 
HETATM    2  C2  UNL     1      -1.322   2.110  -0.162  1.00  0.00     0.023 A 
HETATM    3  C3  UNL     1      -0.203   2.403   0.637  1.00  0.00     0.129 A 
HETATM    4  C4  UNL     1       0.217   1.481   1.615  1.00  0.00     0.031 A 
HETATM    5  C5  UNL     1      -0.483   0.270   1.793  1.00  0.00     0.129 A 
HETATM    6  C6  UNL     1      -1.600  -0.013   0.990  1.00  0.00     0.023 A 
HETATM    7  O1  UNL     1      -0.096  -0.597   2.707  1.00  0.00    -0.190 OA
HETATM    8  O3  UNL     1       0.445   3.537   0.463  1.00  0.00    -0.190 OA
ENDROOT
BRANCH   1   9
HETATM    9  C12 UNL     1      -3.205   0.600  -0.832  1.00  0.00     0.031 C 
BRANCH   9  10
HETATM   10  C13 UNL     1      -2.795   0.192  -2.248  1.00  0.00     0.031 C 
BRANCH  10  11
HETATM   11  C14 UNL     1      -2.006  -1.068  -2.248  1.00  0.00    -0.022 A 
HETATM   12  C15 UNL     1      -2.662  -2.310  -2.248  1.00  0.00    -0.004 A 
HETATM   13  C16 UNL     1      -1.916  -3.502  -2.248  1.00  0.00    -0.000 A 
HETATM   14  C17 UNL     1      -0.512  -3.451  -2.248  1.00  0.00    -0.000 A 
HETATM   15  C18 UNL     1       0.146  -2.209  -2.248  1.00  0.00    -0.000 A 
HETATM   16  C19 UNL     1      -0.600  -1.017  -2.248  1.00  0.00    -0.004 A 
ENDBRANCH  10  11
ENDBRANCH   9  10
ENDBRANCH   1   9
BRANCH   4  17
HETATM   17  C7  UNL     1       1.402   1.785   2.463  1.00  0.00     0.068 C 
BRANCH  17  18
HETATM   18  C8  UNL     1       2.709   1.608   1.690  1.00  0.00     0.175 C 
HETATM   19  O2  UNL     1       3.773   1.996   2.525  1.00  0.00    -0.219 OA
BRANCH  18  20
HETATM   20  C9  UNL     1       2.920   0.186   1.238  1.00  0.00    -0.014 C 
HETATM   21  C10 UNL     1       3.117  -0.195  -0.203  1.00  0.00     0.029 C 
HETATM   22  C11 UNL     1       2.930  -0.785   2.166  1.00  0.00    -0.007 C 
ENDBRANCH  18  20
ENDBRANCH  17  18
ENDBRANCH   4  17
TORSDOF 6
