REMARK  1 active torsions:
REMARK  status: ('A' for Active; 'I' for Inactive)
REMARK    1  A    between atoms: C8_8  and  C10_10 
ROOT
HETATM    1  C1  UNL     1      -1.328  -1.250  -0.459  1.00  0.00     0.129 C 
HETATM    2  C2  UNL     1      -0.772  -0.158   0.459  1.00  0.00     0.031 C 
HETATM    3  C3  UNL     1       0.766  -0.307   0.635  1.00  0.00     0.031 C 
HETATM    4  C4  UNL     1       0.943  -1.781   0.172  1.00  0.00     0.132 C 
HETATM    5  C5  UNL     1      -0.467  -2.410   0.031  1.00  0.00     0.061 C 
HETATM    6  C6  UNL     1       1.748  -1.705  -1.148  1.00  0.00     0.064 C 
HETATM    7  C7  UNL     1       1.793  -0.224  -1.547  1.00  0.00     0.155 C 
HETATM    8  C8  UNL     1       1.787   0.506  -0.201  1.00  0.00     0.031 C 
HETATM    9  C9  UNL     1       1.377   1.967  -0.363  1.00  0.00     0.003 C 
HETATM   10  O1  UNL     1       2.939   0.063  -2.328  1.00  0.00    -0.223 OA
HETATM   11  O2  UNL     1       1.680  -2.549   1.111  1.00  0.00    -0.226 OA
HETATM   12  C12 UNL     1       1.039  -0.014   2.125  1.00  0.00     0.003 C 
HETATM   13  C13 UNL     1      -1.551   1.072   0.012  1.00  0.00     0.003 C 
HETATM   14  C14 UNL     1      -2.975   0.484  -0.168  1.00  0.00     0.002 C 
HETATM   15  C15 UNL     1      -2.820  -1.060  -0.178  1.00  0.00     0.031 C 
HETATM   16  C16 UNL     1      -3.871   0.893   1.000  1.00  0.00     0.000 C 
HETATM   17  C17 UNL     1      -3.557   0.967  -1.494  1.00  0.00     0.000 C 
HETATM   18  O3  UNL     1      -1.123  -1.051  -1.848  1.00  0.00    -0.226 OA
ENDROOT
BRANCH   8  19
HETATM   19  C10 UNL     1       3.184   0.420   0.438  1.00  0.00     0.003 C 
HETATM   20  C11 UNL     1       3.406   1.633   1.342  1.00  0.00     0.000 C 
ENDBRANCH   8  19
TORSDOF 1
