REMARK  7 active torsions:
REMARK  status: ('A' for Active; 'I' for Inactive)
REMARK    1  A    between atoms: S1_1  and  C1_2 
REMARK    2  A    between atoms: S1_1  and  C11_19 
REMARK    3  A    between atoms: C1_2  and  C2_3 
REMARK    4  A    between atoms: C2_3  and  C3_4 
REMARK    5  A    between atoms: N2_13  and  O1_14 
REMARK    6  A    between atoms: O1_14  and  S2_15 
REMARK    7  A    between atoms: C12_21  and  C16_28 
ROOT
HETATM    1  C1  UNL     1       1.434   0.508  -0.867  1.00  0.00     0.119 C 
HETATM    2  N2  UNL     1       2.623   0.035  -0.814  1.00  0.00    -0.110 NA
ENDROOT
BRANCH   1   3
HETATM    3  S1  UNL     1       0.502   0.865   0.494  1.00  0.00    -0.065 SA
BRANCH   3   4
HETATM    4  C11 UNL     1       0.350  -0.697   1.273  1.00  0.00     0.201 C 
HETATM    5  O5  UNL     1      -0.377  -1.568   0.414  1.00  0.00    -0.340 OA
HETATM    6  C12 UNL     1      -0.519  -2.900   0.889  1.00  0.00     0.182 C 
HETATM    7  C13 UNL     1      -1.299  -2.893   2.225  1.00  0.00     0.215 C 
HETATM    8  C14 UNL     1      -0.629  -1.963   3.258  1.00  0.00     0.218 C 
HETATM    9  O8  UNL     1      -1.351  -4.215   2.729  1.00  0.00    -0.218 OA
HETATM   10  C15 UNL     1      -0.385  -0.574   2.625  1.00  0.00     0.223 C 
HETATM   11  O7  UNL     1      -1.461  -1.830   4.400  1.00  0.00    -0.218 OA
HETATM   12  O6  UNL     1       0.401   0.223   3.492  1.00  0.00    -0.217 OA
BRANCH   6  13
HETATM   13  C16 UNL     1      -1.232  -3.689  -0.215  1.00  0.00     0.214 C 
HETATM   14  O9  UNL     1      -0.367  -3.777  -1.324  1.00  0.00    -0.218 OA
ENDBRANCH   6  13
ENDBRANCH   3   4
ENDBRANCH   1   3
BRANCH   1  15
HETATM   15  C2  UNL     1       0.818   0.766  -2.217  1.00  0.00     0.083 C 
BRANCH  15  16
HETATM   16  C3  UNL     1       0.389   2.215  -2.309  1.00  0.00     0.005 A 
HETATM   17  C4  UNL     1       1.233   3.340  -2.373  1.00  0.00     0.095 A 
HETATM   18  N1  UNL     1       0.422   4.500  -2.447  1.00  0.00    -0.244 NA
HETATM   19  C5  UNL     1      -0.896   4.074  -2.428  1.00  0.00     0.081 A 
HETATM   20  C6  UNL     1      -0.871   2.705  -2.344  1.00  0.00     0.016 A 
HETATM   21  C10 UNL     1      -2.115   4.793  -2.479  1.00  0.00     0.019 A 
HETATM   22  C7  UNL     1      -2.070   1.951  -2.305  1.00  0.00     0.001 A 
HETATM   23  C8  UNL     1      -3.309   2.643  -2.352  1.00  0.00     0.000 A 
HETATM   24  C9  UNL     1      -3.330   4.063  -2.439  1.00  0.00     0.002 A 
ENDBRANCH  15  16
ENDBRANCH   1  15
BRANCH   2  25
HETATM   25  O1  UNL     1       3.238  -0.221   0.455  1.00  0.00    -0.106 OA
BRANCH  25  26
HETATM   26  S2  UNL     1       4.662  -0.771   0.660  1.00  0.00     0.275 S 
HETATM   27  O2  UNL     1       4.756  -0.762   2.227  1.00  0.00    -0.571 OA
HETATM   28  O3  UNL     1       4.813  -2.146   0.217  1.00  0.00    -0.571 OA
HETATM   29  O4  UNL     1       5.697   0.111   0.150  1.00  0.00    -0.571 OA
ENDBRANCH  25  26
ENDBRANCH   2  25
TORSDOF 7
