REMARK  5 active torsions:
REMARK  status: ('A' for Active; 'I' for Inactive)
REMARK    1  A    between atoms: C2_2  and  O5_32 
REMARK    2  A    between atoms: O5_32  and  C28_33 
REMARK    3  A    between atoms: C32_38  and  O7_39 
REMARK    4  A    between atoms: O7_39  and  C33_40 
REMARK    5  A    between atoms: C34_42  and  C38_49 
ROOT
HETATM    1  C1  UNL     1      -2.613   0.861   1.232  1.00  0.00     0.063 C 
HETATM    2  C2  UNL     1      -3.100   0.098   0.002  1.00  0.00     0.123 C 
HETATM    3  C3  UNL     1      -2.098  -1.002  -0.361  1.00  0.00     0.060 C 
HETATM    4  C4  UNL     1      -0.664  -0.465  -0.615  1.00  0.00     0.131 C 
HETATM    5  C5  UNL     1      -0.121   0.471   0.541  1.00  0.00     0.054 C 
HETATM    6  C6  UNL     1      -1.244   1.492   0.943  1.00  0.00     0.157 C 
HETATM    7  O1  UNL     1      -0.871   2.254   2.076  1.00  0.00    -0.223 OA
HETATM    8  C7  UNL     1       1.129   1.303   0.055  1.00  0.00     0.005 C 
HETATM    9  C8  UNL     1       1.852   0.686  -1.168  1.00  0.00     0.000 C 
HETATM   10  C9  UNL     1       0.895   0.641  -2.377  1.00  0.00     0.003 C 
HETATM   11  C10 UNL     1      -0.551   0.250  -1.984  1.00  0.00     0.031 C 
HETATM   12  C11 UNL     1       3.229   1.342  -1.412  1.00  0.00     0.003 C 
HETATM   13  C12 UNL     1       3.367   2.777  -0.895  1.00  0.00     0.003 C 
HETATM   14  C13 UNL     1       3.217   2.723   0.643  1.00  0.00     0.000 C 
HETATM   15  C14 UNL     1       2.158   1.701   1.139  1.00  0.00     0.000 C 
HETATM   16  C15 UNL     1       4.693   3.299  -1.520  1.00  0.00     0.032 C 
HETATM   17  C16 UNL     1       5.047   2.273  -2.600  1.00  0.00     0.118 C 
HETATM   18  C17 UNL     1       3.783   1.437  -2.834  1.00  0.00     0.030 C 
HETATM   19  O2  UNL     1       6.057   1.445  -2.059  1.00  0.00    -0.337 OA
HETATM   20  C18 UNL     1       6.758   2.059  -0.994  1.00  0.00     0.187 C 
HETATM   21  C19 UNL     1       6.002   3.381  -0.709  1.00  0.00     0.054 C 
HETATM   22  C20 UNL     1       6.742   4.652  -1.152  1.00  0.00     0.005 C 
HETATM   23  O3  UNL     1       8.125   2.305  -1.342  1.00  0.00    -0.335 OA
HETATM   24  C21 UNL     1       8.916   1.156  -1.635  1.00  0.00     0.145 C 
HETATM   25  C22 UNL     1       8.959   0.207  -0.424  1.00  0.00     0.030 C 
HETATM   26  C23 UNL     1       7.535  -0.147   0.023  1.00  0.00     0.007 C 
HETATM   27  C24 UNL     1       6.705   1.129   0.240  1.00  0.00     0.056 C 
HETATM   28  C25 UNL     1       9.779   0.799   0.729  1.00  0.00     0.003 C 
HETATM   29  C26 UNL     1       2.270   3.650  -1.525  1.00  0.00     0.000 C 
HETATM   30  C27 UNL     1       0.240  -0.389   1.773  1.00  0.00     0.005 C 
HETATM   31  O4  UNL     1       0.113  -1.652  -0.711  1.00  0.00    -0.226 OA
ENDROOT
BRANCH   2  32
HETATM   32  O5  UNL     1      -4.357  -0.486   0.279  1.00  0.00    -0.331 OA
BRANCH  32  33
HETATM   33  C28 UNL     1      -4.955  -1.090  -0.852  1.00  0.00     0.267 C 
HETATM   34  O6  UNL     1      -4.938  -0.191  -1.961  1.00  0.00    -0.326 OA
HETATM   35  C29 UNL     1      -6.016   0.730  -2.008  1.00  0.00     0.181 C 
HETATM   36  C30 UNL     1      -7.344  -0.023  -2.281  1.00  0.00     0.214 C 
HETATM   37  C31 UNL     1      -7.336  -1.477  -1.721  1.00  0.00     0.217 C 
HETATM   38  O14 UNL     1      -8.389   0.768  -1.734  1.00  0.00    -0.218 OA
HETATM   39  C32 UNL     1      -6.399  -1.565  -0.498  1.00  0.00     0.207 C 
HETATM   40  O13 UNL     1      -8.641  -1.953  -1.420  1.00  0.00    -0.218 OA
BRANCH  39  41
HETATM   41  O7  UNL     1      -6.334  -2.893  -0.008  1.00  0.00    -0.324 OA
BRANCH  41  42
HETATM   42  C33 UNL     1      -5.893  -2.973   1.332  1.00  0.00     0.270 C 
HETATM   43  O8  UNL     1      -4.754  -3.824   1.383  1.00  0.00    -0.326 OA
HETATM   44  C34 UNL     1      -4.162  -3.965   2.668  1.00  0.00     0.184 C 
HETATM   45  C35 UNL     1      -5.188  -4.592   3.637  1.00  0.00     0.215 C 
HETATM   46  C36 UNL     1      -6.496  -3.774   3.678  1.00  0.00     0.220 C 
HETATM   47  O11 UNL     1      -4.615  -4.647   4.932  1.00  0.00    -0.218 OA
HETATM   48  C37 UNL     1      -7.014  -3.539   2.240  1.00  0.00     0.241 C 
HETATM   49  O10 UNL     1      -7.475  -4.467   4.436  1.00  0.00    -0.218 OA
HETATM   50  O9  UNL     1      -8.102  -2.629   2.274  1.00  0.00    -0.215 OA
BRANCH  44  51
HETATM   51  C38 UNL     1      -2.908  -4.828   2.488  1.00  0.00     0.214 C 
HETATM   52  O12 UNL     1      -1.969  -4.092   1.738  1.00  0.00    -0.218 OA
ENDBRANCH  44  51
ENDBRANCH  41  42
ENDBRANCH  39  41
ENDBRANCH  32  33
ENDBRANCH   2  32
TORSDOF 5
