REMARK  13 active torsions:
REMARK  status: ('A' for Active; 'I' for Inactive)
REMARK    1  A    between atoms: C2_2  and  O8_42 
REMARK    2  A    between atoms: C18_20  and  C21_23 
REMARK    3  A    between atoms: C21_23  and  C22_24 
REMARK    4  A    between atoms: C22_24  and  C23_25 
REMARK    5  A    between atoms: C23_25  and  C24_26 
REMARK    6  A    between atoms: C24_26  and  O3_27 
REMARK    7  A    between atoms: O3_27  and  C25_28 
REMARK    8  A    between atoms: C27_30  and  C31_37 
REMARK    9  A    between atoms: O8_42  and  C35_43 
REMARK   10  A    between atoms: C36_45  and  C46_63 
REMARK   11  A    between atoms: C37_46  and  O12_51 
REMARK   12  A    between atoms: O12_51  and  C40_52 
REMARK   13  A    between atoms: C41_54  and  C45_61 
ROOT
HETATM    1  C1  UNL     1       3.133  -3.863   1.906  1.00  0.00     0.030 C 
HETATM    2  C2  UNL     1       3.609  -2.830   0.873  1.00  0.00     0.118 C 
HETATM    3  C3  UNL     1       2.881  -2.996  -0.469  1.00  0.00     0.030 C 
HETATM    4  C4  UNL     1       1.354  -2.939  -0.277  1.00  0.00     0.002 C 
HETATM    5  C5  UNL     1       0.850  -4.016   0.725  1.00  0.00     0.001 C 
HETATM    6  C6  UNL     1       1.604  -3.838   2.064  1.00  0.00     0.003 C 
HETATM    7  C7  UNL     1      -0.686  -3.850   0.916  1.00  0.00     0.007 C 
HETATM    8  C8  UNL     1      -1.430  -3.932  -0.443  1.00  0.00     0.001 C 
HETATM    9  C9  UNL     1      -0.898  -2.887  -1.440  1.00  0.00     0.000 C 
HETATM   10  C10 UNL     1       0.615  -3.008  -1.625  1.00  0.00     0.000 C 
HETATM   11  C11 UNL     1      -2.924  -3.686  -0.191  1.00  0.00     0.009 C 
HETATM   12  C12 UNL     1      -3.525  -4.750   0.732  1.00  0.00     0.057 C 
HETATM   13  C13 UNL     1      -2.793  -4.791   2.055  1.00  0.00     0.150 C 
HETATM   14  C14 UNL     1      -1.283  -4.822   1.967  1.00  0.00     0.065 C 
HETATM   15  O1  UNL     1      -3.365  -4.805   3.119  1.00  0.00    -0.296 OA
HETATM   16  C15 UNL     1      -5.020  -4.365   0.699  1.00  0.00     0.054 A 
HETATM   17  C16 UNL     1      -5.238  -3.885  -0.752  1.00  0.00     0.125 A 
HETATM   18  C17 UNL     1      -3.855  -3.760  -1.399  1.00  0.00     0.031 C 
HETATM   19  O2  UNL     1      -5.850  -2.590  -0.686  1.00  0.00    -0.338 OA
HETATM   20  C18 UNL     1      -5.906  -2.201   0.584  1.00  0.00     0.064 A 
HETATM   21  C19 UNL     1      -5.467  -3.133   1.436  1.00  0.00    -0.023 A 
HETATM   22  C20 UNL     1      -5.434  -2.982   2.936  1.00  0.00     0.028 C 
HETATM   23  C33 UNL     1      -3.430  -6.154   0.123  1.00  0.00     0.008 C 
HETATM   24  C34 UNL     1       1.150  -5.420   0.174  1.00  0.00     0.000 C 
ENDROOT
BRANCH   2  25
HETATM   25  O8  UNL     1       5.000  -2.975   0.672  1.00  0.00    -0.332 OA
BRANCH  25  26
HETATM   26  C35 UNL     1       5.606  -1.824   0.115  1.00  0.00     0.270 C 
HETATM   27  O9  UNL     1       5.693  -0.830   1.125  1.00  0.00    -0.326 OA
HETATM   28  C36 UNL     1       6.238   0.412   0.703  1.00  0.00     0.181 C 
HETATM   29  C37 UNL     1       7.690   0.195   0.217  1.00  0.00     0.181 C 
HETATM   30  C38 UNL     1       7.756  -0.885  -0.885  1.00  0.00     0.217 C 
HETATM   31  C39 UNL     1       7.022  -2.162  -0.420  1.00  0.00     0.241 C 
HETATM   32  O11 UNL     1       9.112  -1.187  -1.178  1.00  0.00    -0.218 OA
HETATM   33  O10 UNL     1       6.910  -3.063  -1.508  1.00  0.00    -0.215 OA
BRANCH  28  34
HETATM   34  C46 UNL     1       6.145   1.365   1.898  1.00  0.00     0.214 C 
HETATM   35  O18 UNL     1       4.783   1.518   2.236  1.00  0.00    -0.218 OA
ENDBRANCH  28  34
BRANCH  29  36
HETATM   36  O12 UNL     1       8.190   1.424  -0.281  1.00  0.00    -0.326 OA
BRANCH  36  37
HETATM   37  C40 UNL     1       9.082   2.065   0.609  1.00  0.00     0.270 C 
HETATM   38  O13 UNL     1      10.307   1.344   0.611  1.00  0.00    -0.326 OA
HETATM   39  C41 UNL     1      11.295   1.842   1.504  1.00  0.00     0.184 C 
HETATM   40  C42 UNL     1      11.672   3.283   1.096  1.00  0.00     0.215 C 
HETATM   41  C43 UNL     1      10.424   4.193   1.031  1.00  0.00     0.220 C 
HETATM   42  O16 UNL     1      12.592   3.797   2.043  1.00  0.00    -0.218 OA
HETATM   43  C44 UNL     1       9.332   3.529   0.164  1.00  0.00     0.241 C 
HETATM   44  O15 UNL     1      10.776   5.453   0.482  1.00  0.00    -0.218 OA
HETATM   45  O14 UNL     1       8.125   4.268   0.281  1.00  0.00    -0.215 OA
BRANCH  39  46
HETATM   46  C45 UNL     1      12.479   0.873   1.436  1.00  0.00     0.214 C 
HETATM   47  O17 UNL     1      12.071  -0.363   1.975  1.00  0.00    -0.218 OA
ENDBRANCH  39  46
ENDBRANCH  36  37
ENDBRANCH  29  36
ENDBRANCH  25  26
ENDBRANCH   2  25
BRANCH  20  48
HETATM   48  C21 UNL     1      -6.416  -0.855   1.033  1.00  0.00     0.050 C 
BRANCH  48  49
HETATM   49  C22 UNL     1      -6.406   0.178  -0.094  1.00  0.00     0.009 C 
BRANCH  49  50
HETATM   50  C23 UNL     1      -7.057   1.500   0.310  1.00  0.00     0.030 C 
HETATM   51  C32 UNL     1      -6.301   2.211   1.434  1.00  0.00     0.003 C 
BRANCH  50  52
HETATM   52  C24 UNL     1      -7.332   2.412  -0.885  1.00  0.00     0.142 C 
BRANCH  52  53
HETATM   53  O3  UNL     1      -8.248   3.404  -0.481  1.00  0.00    -0.354 OA
BRANCH  53  54
HETATM   54  C25 UNL     1      -8.740   4.182  -1.557  1.00  0.00     0.148 C 
HETATM   55  C26 UNL     1      -7.586   5.045  -2.094  1.00  0.00     0.038 C 
HETATM   56  C27 UNL     1      -8.041   5.971  -3.231  1.00  0.00     0.069 C 
HETATM   57  C28 UNL     1      -9.227   6.854  -2.775  1.00  0.00     0.188 C 
HETATM   58  C29 UNL     1     -10.401   6.014  -2.213  1.00  0.00     0.215 C 
HETATM   59  O6  UNL     1      -9.674   7.617  -3.883  1.00  0.00    -0.221 OA
HETATM   60  C30 UNL     1      -9.934   5.051  -1.092  1.00  0.00     0.212 C 
HETATM   61  O5  UNL     1     -11.395   6.887  -1.695  1.00  0.00    -0.218 OA
HETATM   62  O4  UNL     1     -11.010   4.207  -0.713  1.00  0.00    -0.218 OA
BRANCH  56  63
HETATM   63  C31 UNL     1      -6.859   6.811  -3.740  1.00  0.00     0.185 C 
HETATM   64  O7  UNL     1      -5.906   5.936  -4.295  1.00  0.00    -0.221 OA
ENDBRANCH  56  63
ENDBRANCH  53  54
ENDBRANCH  52  53
ENDBRANCH  50  52
ENDBRANCH  49  50
ENDBRANCH  48  49
ENDBRANCH  20  48
TORSDOF 13
