REMARK  5 active torsions:
REMARK  status: ('A' for Active; 'I' for Inactive)
REMARK    1  A    between atoms: C2_2  and  O4_12 
REMARK    2  A    between atoms: C5_5  and  C7_7 
REMARK    3  A    between atoms: C7_7  and  O1_8 
REMARK    4  A    between atoms: O4_12  and  C9_13 
REMARK    5  A    between atoms: C10_15  and  C14_22 
ROOT
HETATM    1  C1  UNL     1       1.639  -1.135  -1.230  1.00  0.00     0.155 A 
HETATM    2  C2  UNL     1       1.488  -0.015  -0.389  1.00  0.00     0.147 A 
HETATM    3  C3  UNL     1       1.810  -0.115   0.979  1.00  0.00     0.155 A 
HETATM    4  C4  UNL     1       2.281  -1.332   1.500  1.00  0.00     0.035 A 
HETATM    5  C5  UNL     1       2.433  -2.449   0.662  1.00  0.00     0.067 A 
HETATM    6  C6  UNL     1       2.111  -2.349  -0.703  1.00  0.00     0.035 A 
HETATM    7  O3  UNL     1       1.672   0.930   1.770  1.00  0.00    -0.188 OA
HETATM    8  O10 UNL     1       1.340  -1.045  -2.510  1.00  0.00    -0.188 OA
ENDROOT
BRANCH   2   9
HETATM    9  O4  UNL     1       1.047   1.125  -0.881  1.00  0.00    -0.299 OA
BRANCH   9  10
HETATM   10  C9  UNL     1      -0.215   1.602  -0.432  1.00  0.00     0.274 C 
HETATM   11  O5  UNL     1      -1.229   0.719  -0.898  1.00  0.00    -0.326 OA
HETATM   12  C10 UNL     1      -2.547   1.049  -0.478  1.00  0.00     0.184 C 
HETATM   13  C11 UNL     1      -2.928   2.444  -1.025  1.00  0.00     0.215 C 
HETATM   14  C12 UNL     1      -1.889   3.512  -0.617  1.00  0.00     0.220 C 
HETATM   15  O8  UNL     1      -4.203   2.797  -0.519  1.00  0.00    -0.218 OA
HETATM   16  C13 UNL     1      -0.471   3.022  -0.978  1.00  0.00     0.241 C 
HETATM   17  O7  UNL     1      -2.162   4.731  -1.289  1.00  0.00    -0.218 OA
HETATM   18  O6  UNL     1       0.498   3.897  -0.430  1.00  0.00    -0.215 OA
BRANCH  12  19
HETATM   19  C14 UNL     1      -3.463  -0.066  -0.994  1.00  0.00     0.214 C 
HETATM   20  O9  UNL     1      -3.139  -1.256  -0.311  1.00  0.00    -0.218 OA
ENDBRANCH  12  19
ENDBRANCH   9  10
ENDBRANCH   2   9
BRANCH   5  21
HETATM   21  C7  UNL     1       2.933  -3.742   1.219  1.00  0.00     0.296 C 
HETATM   22  O2  UNL     1       3.068  -4.713   0.514  1.00  0.00    -0.259 OA
BRANCH  21  23
HETATM   23  O1  UNL     1       3.209  -3.728   2.522  1.00  0.00    -0.296 OA
HETATM   24  C8  UNL     1       3.674  -4.986   2.988  1.00  0.00     0.185 C 
ENDBRANCH  21  23
ENDBRANCH   5  21
TORSDOF 5
