REMARK  5 active torsions:
REMARK  status: ('A' for Active; 'I' for Inactive)
REMARK    1  A    between atoms: C1_1  and  C2_2 
REMARK    2  A    between atoms: C1_1  and  O5_21 
REMARK    3  A    between atoms: C9_10  and  O2_11 
REMARK    4  A    between atoms: O5_21  and  C17_22 
REMARK    5  A    between atoms: C18_24  and  C22_31 
ROOT
HETATM    1  C2  UNL     1       1.310  -1.422  -0.531  1.00  0.00     0.150 A 
HETATM    2  C3  UNL     1       0.461  -2.348  -1.455  1.00  0.00     0.063 A 
HETATM    3  C4  UNL     1      -0.930  -2.146  -0.906  1.00  0.00     0.025 A 
HETATM    4  C5  UNL     1      -0.859  -1.223   0.146  1.00  0.00     0.094 A 
HETATM    5  O1  UNL     1       0.383  -0.791   0.367  1.00  0.00    -0.331 OA
HETATM    6  C6  UNL     1      -2.059  -0.875   0.816  1.00  0.00     0.049 A 
HETATM    7  C7  UNL     1      -3.297  -1.437   0.449  1.00  0.00     0.106 A 
HETATM    8  C8  UNL     1      -3.346  -2.369  -0.613  1.00  0.00     0.084 A 
HETATM    9  C9  UNL     1      -2.160  -2.734  -1.309  1.00  0.00     0.097 A 
HETATM   10  C11 UNL     1      -4.672  -2.949  -0.981  1.00  0.00     0.201 A 
HETATM   11  C12 UNL     1      -5.815  -2.478  -0.170  1.00  0.00     0.062 A 
HETATM   12  C13 UNL     1      -5.639  -1.582   0.824  1.00  0.00     0.081 A 
HETATM   13  O3  UNL     1      -4.420  -1.084   1.115  1.00  0.00    -0.311 OA
HETATM   14  C14 UNL     1      -6.844  -1.142   1.615  1.00  0.00     0.058 C 
HETATM   15  O4  UNL     1      -4.914  -3.750  -1.854  1.00  0.00    -0.286 OA
ENDROOT
BRANCH   1  16
HETATM   16  C1  UNL     1       2.064  -0.357  -1.318  1.00  0.00     0.121 C 
HETATM   17  C15 UNL     1       2.797  -1.016  -2.488  1.00  0.00     0.032 C 
HETATM   18  C16 UNL     1       1.090   0.731  -1.770  1.00  0.00     0.032 C 
BRANCH  16  19
HETATM   19  O5  UNL     1       3.025   0.235  -0.475  1.00  0.00    -0.331 OA
BRANCH  19  20
HETATM   20  C17 UNL     1       2.461   1.098   0.494  1.00  0.00     0.270 C 
HETATM   21  O6  UNL     1       2.711   2.442   0.101  1.00  0.00    -0.326 OA
HETATM   22  C18 UNL     1       2.158   3.432   0.959  1.00  0.00     0.184 C 
HETATM   23  C19 UNL     1       2.773   3.291   2.367  1.00  0.00     0.215 C 
HETATM   24  C20 UNL     1       2.588   1.863   2.924  1.00  0.00     0.220 C 
HETATM   25  O9  UNL     1       2.150   4.229   3.230  1.00  0.00    -0.218 OA
HETATM   26  C21 UNL     1       3.084   0.830   1.889  1.00  0.00     0.241 C 
HETATM   27  O8  UNL     1       3.312   1.721   4.135  1.00  0.00    -0.218 OA
HETATM   28  O7  UNL     1       2.734  -0.476   2.320  1.00  0.00    -0.215 OA
BRANCH  22  29
HETATM   29  C22 UNL     1       2.451   4.791   0.314  1.00  0.00     0.214 C 
HETATM   30  O10 UNL     1       1.719   4.877  -0.887  1.00  0.00    -0.218 OA
ENDBRANCH  22  29
ENDBRANCH  19  20
ENDBRANCH  16  19
ENDBRANCH   1  16
BRANCH   9  31
HETATM   31  O2  UNL     1      -2.313  -3.623  -2.301  1.00  0.00    -0.328 OA
HETATM   32  C10 UNL     1      -1.358  -3.621  -3.352  1.00  0.00     0.181 C 
ENDBRANCH   9  31
TORSDOF 5
