REMARK  8 active torsions:
REMARK  status: ('A' for Active; 'I' for Inactive)
REMARK    1  A    between atoms: C1_1  and  C2_2 
REMARK    2  A    between atoms: C2_2  and  C3_3 
REMARK    3  A    between atoms: C3_3  and  N1_4 
REMARK    4  A    between atoms: C3_3  and  C9_14 
REMARK       I    between atoms: N1_4  and  C4_5 
REMARK    5  A    between atoms: C4_5  and  C5_6 
REMARK    6  A    between atoms: C5_6  and  C6_7 
REMARK    7  A    between atoms: C6_7  and  C7_8 
REMARK    8  A    between atoms: C7_8  and  C8_9 
ROOT
HETATM    1  N1  UNL     1      -0.496  -0.547   0.335  1.00  0.00    -0.229 NA
HETATM    2  C4  UNL     1       0.846  -0.286   0.402  1.00  0.00     0.252 C 
HETATM    3  O3  UNL     1       1.517  -0.574   1.363  1.00  0.00    -0.271 OA
ENDROOT
BRANCH   1   4
HETATM    4  C3  UNL     1      -1.254  -1.154   1.439  1.00  0.00     0.193 C 
BRANCH   4   5
HETATM    5  C2  UNL     1      -2.236  -2.192   0.867  1.00  0.00     0.040 C 
BRANCH   5   6
HETATM    6  C1  UNL     1      -3.077  -2.923   1.903  1.00  0.00     0.025 A 
HETATM    7  C10 UNL     1      -4.487  -2.449   1.903  1.00  0.00    -0.044 A 
HETATM    8  C11 UNL     1      -4.339  -3.796   1.293  1.00  0.00     0.026 A 
HETATM    9  C12 UNL     1      -5.329  -1.475   2.224  1.00  0.00    -0.009 C 
ENDBRANCH   5   6
ENDBRANCH   4   5
BRANCH   4  10
HETATM   10  C9  UNL     1      -1.969  -0.080   2.243  1.00  0.00     0.209 C 
HETATM   11  O4  UNL     1      -2.184   1.024   1.505  1.00  0.00    -0.646 OA
HETATM   12  O5  UNL     1      -2.351  -0.165   3.386  1.00  0.00    -0.646 OA
ENDBRANCH   4  10
ENDBRANCH   1   4
BRANCH   2  13
HETATM   13  C5  UNL     1       1.406   0.388  -0.841  1.00  0.00     0.092 C 
BRANCH  13  14
HETATM   14  C6  UNL     1       2.853   0.884  -0.692  1.00  0.00     0.060 C 
BRANCH  14  15
HETATM   15  C7  UNL     1       3.435   1.455  -1.997  1.00  0.00     0.388 C 
HETATM   16  N2  UNL     1       2.603   2.556  -2.510  1.00  0.00     0.628 N 
BRANCH  15  17
HETATM   17  C8  UNL     1       4.864   1.944  -1.841  1.00  0.00     0.224 C 
HETATM   18  O1  UNL     1       5.303   2.531  -2.970  1.00  0.00    -0.646 OA
HETATM   19  O2  UNL     1       5.573   1.848  -0.868  1.00  0.00    -0.646 OA
ENDBRANCH  15  17
ENDBRANCH  14  15
ENDBRANCH  13  14
ENDBRANCH   2  13
TORSDOF 8
