REMARK  7 active torsions:
REMARK  status: ('A' for Active; 'I' for Inactive)
REMARK    1  A    between atoms: C1_2  and  C2_3 
REMARK    2  A    between atoms: C2_3  and  C3_4 
REMARK    3  A    between atoms: C3_4  and  C4_5 
REMARK    4  A    between atoms: C4_5  and  C5_6 
REMARK       I    between atoms: C5_6  and  N1_7 
REMARK    5  A    between atoms: N1_7  and  C6_8 
REMARK    6  A    between atoms: C6_8  and  C7_9 
REMARK    7  A    between atoms: C6_8  and  C8_12 
ROOT
HETATM    1  C5  UNL     1       0.285   0.551  -0.023  1.00  0.00     0.252 C 
HETATM    2  N1  UNL     1      -0.404   1.729  -0.023  1.00  0.00    -0.226 NA
HETATM    3  O5  UNL     1       1.494   0.551  -0.023  1.00  0.00    -0.271 OA
ENDROOT
BRANCH   1   4
HETATM    4  C4  UNL     1      -0.490  -0.740  -0.023  1.00  0.00     0.092 C 
BRANCH   4   5
HETATM    5  C3  UNL     1       0.418  -1.965   0.088  1.00  0.00     0.060 C 
BRANCH   5   6
HETATM    6  C2  UNL     1      -0.365  -3.277   0.152  1.00  0.00     0.388 C 
HETATM    7  N2  UNL     1      -0.918  -3.606  -1.150  1.00  0.00     0.628 N 
BRANCH   6   8
HETATM    8  C1  UNL     1       0.469  -4.420   0.666  1.00  0.00     0.224 C 
HETATM    9  O1  UNL     1      -0.121  -5.184   1.582  1.00  0.00    -0.646 OA
HETATM   10  O6  UNL     1       1.590  -4.604   0.258  1.00  0.00    -0.646 OA
ENDBRANCH   6   8
ENDBRANCH   5   6
ENDBRANCH   4   5
ENDBRANCH   1   4
BRANCH   2  11
HETATM   11  C6  UNL     1       0.336   3.000  -0.023  1.00  0.00     0.226 C 
BRANCH  11  12
HETATM   12  C7  UNL     1       0.889   3.318  -1.387  1.00  0.00     0.211 C 
HETATM   13  O2  UNL     1       2.146   2.934  -1.592  1.00  0.00    -0.646 OA
HETATM   14  O3  UNL     1       0.215   3.883  -2.215  1.00  0.00    -0.646 OA
ENDBRANCH  11  12
BRANCH  11  15
HETATM   15  C8  UNL     1      -0.522   4.133   0.539  1.00  0.00     0.218 C 
HETATM   16  O4  UNL     1      -0.760   3.871   1.902  1.00  0.00    -0.218 OA
ENDBRANCH  11  15
ENDBRANCH   2  11
TORSDOF 7
