REMARK  8 active torsions:
REMARK  status: ('A' for Active; 'I' for Inactive)
REMARK    1  A    between atoms: C1_2  and  C2_3 
REMARK    2  A    between atoms: C2_3  and  N1_4 
REMARK    3  A    between atoms: C2_3  and  C8_14 
REMARK       I    between atoms: N1_4  and  C3_5 
REMARK    4  A    between atoms: C3_5  and  C4_6 
REMARK    5  A    between atoms: C4_6  and  C5_7 
REMARK    6  A    between atoms: C5_7  and  C6_8 
REMARK    7  A    between atoms: C6_8  and  C7_9 
REMARK    8  A    between atoms: C8_14  and  C9_15 
ROOT
HETATM    1  C2  UNL     1       0.305  -1.729   1.677  1.00  0.00     0.197 C 
ENDROOT
BRANCH   1   2
HETATM    2  C1  UNL     1      -0.146  -3.164   1.687  1.00  0.00     0.209 C 
HETATM    3  O1  UNL     1       0.436  -3.947   0.783  1.00  0.00    -0.646 OA
HETATM    4  O6  UNL     1      -0.980  -3.549   2.472  1.00  0.00    -0.646 OA
ENDBRANCH   1   2
BRANCH   1   5
HETATM    5  N1  UNL     1      -0.537  -0.904   0.797  1.00  0.00    -0.229 NA
HETATM    6  C3  UNL     1      -0.340  -0.949  -0.553  1.00  0.00     0.252 C 
HETATM    7  O4  UNL     1       0.518  -1.662  -1.022  1.00  0.00    -0.271 OA
BRANCH   6   8
HETATM    8  C4  UNL     1      -1.209  -0.098  -1.440  1.00  0.00     0.092 C 
BRANCH   8   9
HETATM    9  C5  UNL     1      -0.891  -0.285  -2.922  1.00  0.00     0.060 C 
BRANCH   9  10
HETATM   10  C6  UNL     1      -1.746   0.603  -3.827  1.00  0.00     0.388 C 
HETATM   11  N2  UNL     1      -3.147   0.228  -3.731  1.00  0.00     0.628 N 
BRANCH  10  12
HETATM   12  C7  UNL     1      -1.295   0.564  -5.262  1.00  0.00     0.224 C 
HETATM   13  O2  UNL     1      -1.410   1.713  -5.924  1.00  0.00    -0.646 OA
HETATM   14  O3  UNL     1      -0.863  -0.453  -5.752  1.00  0.00    -0.646 OA
ENDBRANCH  10  12
ENDBRANCH   9  10
ENDBRANCH   8   9
ENDBRANCH   6   8
ENDBRANCH   1   5
BRANCH   1  15
HETATM   15  C8  UNL     1       0.377  -1.131   3.084  1.00  0.00     0.062 C 
BRANCH  15  16
HETATM   16  C9  UNL     1       1.074   0.182   3.084  1.00  0.00    -0.019 A 
HETATM   17  C10 UNL     1       0.328   1.375   3.084  1.00  0.00    -0.002 A 
HETATM   18  C11 UNL     1       0.986   2.615   3.084  1.00  0.00     0.027 A 
HETATM   19  C12 UNL     1       2.393   2.672   3.084  1.00  0.00     0.131 A 
HETATM   20  C13 UNL     1       3.135   1.477   3.084  1.00  0.00     0.027 A 
HETATM   21  O5  UNL     1       3.010   3.836   3.084  1.00  0.00    -0.190 OA
HETATM   22  C14 UNL     1       2.479   0.234   3.084  1.00  0.00    -0.002 A 
ENDBRANCH  15  16
ENDBRANCH   1  15
TORSDOF 8
