REMARK  7 active torsions:
REMARK  status: ('A' for Active; 'I' for Inactive)
REMARK    1  A    between atoms: C1_2  and  C2_3 
REMARK    2  A    between atoms: C2_3  and  N1_4 
REMARK    3  A    between atoms: C2_3  and  C8_14 
REMARK       I    between atoms: N1_4  and  C3_5 
REMARK    4  A    between atoms: C3_5  and  C4_6 
REMARK    5  A    between atoms: C4_6  and  C5_7 
REMARK    6  A    between atoms: C5_7  and  C6_8 
REMARK    7  A    between atoms: C6_8  and  C7_9 
ROOT
HETATM    1  N1  UNL     1      -0.520  -0.443   0.148  1.00  0.00    -0.229 NA
HETATM    2  C3  UNL     1       0.845  -0.443   0.148  1.00  0.00     0.252 C 
HETATM    3  O4  UNL     1       1.455  -1.486   0.148  1.00  0.00    -0.271 OA
ENDROOT
BRANCH   2   4
HETATM    4  C4  UNL     1       1.568   0.877   0.148  1.00  0.00     0.092 C 
BRANCH   4   5
HETATM    5  C5  UNL     1       1.408   1.631  -1.172  1.00  0.00     0.060 C 
BRANCH   5   6
HETATM    6  C6  UNL     1       2.273   2.889  -1.244  1.00  0.00     0.388 C 
HETATM    7  N2  UNL     1       1.865   3.846  -0.231  1.00  0.00     0.628 N 
BRANCH   6   8
HETATM    8  C7  UNL     1       2.244   3.530  -2.606  1.00  0.00     0.224 C 
HETATM    9  O2  UNL     1       3.410   4.002  -3.033  1.00  0.00    -0.646 OA
HETATM   10  O3  UNL     1       1.217   3.596  -3.238  1.00  0.00    -0.646 OA
ENDBRANCH   6   8
ENDBRANCH   5   6
ENDBRANCH   4   5
ENDBRANCH   2   4
BRANCH   1  11
HETATM   11  C2  UNL     1      -1.242  -1.722   0.148  1.00  0.00     0.193 C 
BRANCH  11  12
HETATM   12  C1  UNL     1      -2.604  -1.592  -0.481  1.00  0.00     0.209 C 
HETATM   13  O1  UNL     1      -3.076  -2.703  -1.041  1.00  0.00    -0.646 OA
HETATM   14  O5  UNL     1      -3.199  -0.541  -0.463  1.00  0.00    -0.646 OA
ENDBRANCH  11  12
BRANCH  11  15
HETATM   15  C8  UNL     1      -1.305  -2.316   1.557  1.00  0.00     0.033 C 
HETATM   16  C9  UNL     1      -2.149  -1.474   2.514  1.00  0.00     0.003 C 
HETATM   17  C10 UNL     1      -1.707  -3.793   1.557  1.00  0.00     0.003 C 
ENDBRANCH  11  15
ENDBRANCH   1  11
TORSDOF 7
