REMARK  0 active torsions:
REMARK  status: ('A' for Active; 'I' for Inactive)
ROOT
HETATM    1  C1  UNL     1       4.387  -1.772   3.092  1.00  0.00     0.065 C 
HETATM    2  C2  UNL     1       5.309  -2.236   1.990  1.00  0.00     0.153 C 
HETATM    3  C3  UNL     1       5.295  -1.527   0.643  1.00  0.00     0.066 C 
HETATM    4  C4  UNL     1       3.922  -0.979   0.260  1.00  0.00    -0.043 C 
HETATM    5  C5  UNL     1       2.826  -0.883   1.313  1.00  0.00     0.019 C 
HETATM    6  C6  UNL     1       3.471  -0.619   2.684  1.00  0.00     0.012 C 
HETATM    7  C7  UNL     1       1.705   0.135   0.955  1.00  0.00     0.004 C 
HETATM    8  C8  UNL     1       1.219  -0.170  -0.490  1.00  0.00     0.005 C 
HETATM    9  C9  UNL     1       2.385  -0.002  -1.486  1.00  0.00     0.025 C 
HETATM   10  C10 UNL     1       3.701  -0.572  -1.012  1.00  0.00    -0.034 C 
HETATM   11  C11 UNL     1      -0.066   0.619  -0.906  1.00  0.00     0.000 C 
HETATM   12  C12 UNL     1      -1.230   0.326   0.094  1.00  0.00     0.000 C 
HETATM   13  C13 UNL     1      -0.742   0.748   1.504  1.00  0.00     0.000 C 
HETATM   14  C14 UNL     1       0.523  -0.002   1.943  1.00  0.00     0.000 C 
HETATM   15  C15 UNL     1      -2.539   1.092  -0.316  1.00  0.00     0.000 C 
HETATM   16  C16 UNL     1      -2.957   0.891  -1.807  1.00  0.00     0.000 C 
HETATM   17  C17 UNL     1      -1.756   1.018  -2.766  1.00  0.00     0.000 C 
HETATM   18  C18 UNL     1      -0.518   0.228  -2.328  1.00  0.00     0.000 C 
HETATM   19  C19 UNL     1      -3.656  -0.475  -2.027  1.00  0.00     0.000 C 
HETATM   20  C20 UNL     1      -4.566  -0.957  -0.879  1.00  0.00     0.000 C 
HETATM   21  C21 UNL     1      -4.980   0.135   0.119  1.00  0.00     0.000 C 
HETATM   22  C22 UNL     1      -3.729   0.861   0.672  1.00  0.00     0.000 C 
HETATM   23  C23 UNL     1      -5.738  -0.518   1.281  1.00  0.00     0.000 C 
HETATM   24  C24 UNL     1      -5.961   1.119  -0.531  1.00  0.00     0.000 C 
HETATM   25  C25 UNL     1      -3.922   2.016  -2.213  1.00  0.00     0.000 C 
HETATM   26  C26 UNL     1      -1.531  -1.182   0.129  1.00  0.00     0.000 C 
HETATM   27  C27 UNL     1       0.254   2.127  -0.924  1.00  0.00     0.000 C 
HETATM   28  C28 UNL     1       2.266   1.564   1.053  1.00  0.00     0.000 C 
HETATM   29  C29 UNL     1       5.776  -2.520  -0.430  1.00  0.00     0.011 C 
HETATM   30  C30 UNL     1       6.279  -0.357   0.723  1.00  0.00     0.011 C 
HETATM   31  O1  UNL     1       6.047  -3.174   2.193  1.00  0.00    -0.296 OA
ENDROOT
TORSDOF 0
