REMARK  3 active torsions:
REMARK  status: ('A' for Active; 'I' for Inactive)
REMARK    1  A    between atoms: C3_3  and  O5_15 
REMARK    2  A    between atoms: O5_15  and  C10_16 
REMARK    3  A    between atoms: C11_18  and  C15_25 
ROOT
HETATM    1  C1  UNL     1       5.450  -0.782   0.417  1.00  0.00     0.042 C 
HETATM    2  C2  UNL     1       4.701  -1.723   0.002  1.00  0.00     0.088 C 
HETATM    3  C3  UNL     1       3.910  -3.002   0.398  1.00  0.00     0.126 C 
HETATM    4  C4  UNL     1       3.873  -3.518  -1.062  1.00  0.00     0.063 C 
HETATM    5  C5  UNL     1       3.738  -2.300  -2.000  1.00  0.00     0.155 C 
HETATM    6  C6  UNL     1       5.258  -1.289  -1.576  1.00  0.00     0.036 C 
HETATM    7  O1  UNL     1       2.389  -1.523  -1.798  1.00  0.00    -0.221 OA
HETATM    8  O2  UNL     1       2.266  -0.700  -0.704  1.00  0.00    -0.193 OA
HETATM    9  C7  UNL     1       3.516  -0.205  -0.672  1.00  0.00     0.268 C 
HETATM   10  C8  UNL     1       3.955   0.976   0.086  1.00  0.00     0.167 C 
HETATM   11  C9  UNL     1       5.493   0.712  -0.100  1.00  0.00     0.172 C 
HETATM   12  O3  UNL     1       6.210   1.618   0.753  1.00  0.00    -0.222 OA
HETATM   13 CL1  UNL     1       3.336   2.533  -0.499  1.00  0.00    -0.107 Cl
HETATM   14  O4  UNL     1       3.640   0.607  -2.053  1.00  0.00    -0.191 OA
ENDROOT
BRANCH   3  15
HETATM   15  O5  UNL     1       2.595  -2.854   0.965  1.00  0.00    -0.331 OA
BRANCH  15  16
HETATM   16  C10 UNL     1       1.879  -4.205   1.145  1.00  0.00     0.270 C 
HETATM   17  O6  UNL     1       2.592  -5.374   0.570  1.00  0.00    -0.326 OA
HETATM   18  C11 UNL     1       1.862  -6.651   0.713  1.00  0.00     0.184 C 
HETATM   19  C12 UNL     1       0.474  -6.535  -0.011  1.00  0.00     0.215 C 
HETATM   20  C13 UNL     1      -0.285  -5.370   0.611  1.00  0.00     0.220 C 
HETATM   21  O9  UNL     1      -0.355  -7.710   0.153  1.00  0.00    -0.218 OA
HETATM   22  C14 UNL     1       0.523  -4.080   0.441  1.00  0.00     0.241 C 
HETATM   23  O8  UNL     1      -1.544  -5.231  -0.048  1.00  0.00    -0.218 OA
HETATM   24  O7  UNL     1      -0.192  -2.994   1.004  1.00  0.00    -0.215 OA
BRANCH  18  25
HETATM   25  C15 UNL     1       2.786  -7.787   0.118  1.00  0.00     0.214 C 
HETATM   26  O10 UNL     1       2.241  -9.123   0.183  1.00  0.00    -0.218 OA
ENDBRANCH  18  25
ENDBRANCH  15  16
ENDBRANCH   3  15
TORSDOF 3
