REMARK  2 active torsions:
REMARK  status: ('A' for Active; 'I' for Inactive)
REMARK    1  A    between atoms: C1_2  and  C2_3 
REMARK    2  A    between atoms: C2_3  and  C3_4 
ROOT
HETATM    1  C2  UNL     1       0.293  -0.316  -0.392  1.00  0.00     0.271 C 
HETATM    2  O4  UNL     1       0.734  -1.652  -0.467  1.00  0.00    -0.209 OA
ENDROOT
BRANCH   1   3
HETATM    3  C1  UNL     1      -1.236  -0.316  -0.392  1.00  0.00     0.226 C 
HETATM    4  O1  UNL     1      -1.678   1.024  -0.392  1.00  0.00    -0.217 OA
ENDBRANCH   1   3
BRANCH   1   5
HETATM    5  C3  UNL     1       0.867   0.336   0.836  1.00  0.00     0.220 C 
HETATM    6  O2  UNL     1       1.844   1.209   0.610  1.00  0.00    -0.645 OA
HETATM    7  O3  UNL     1       0.449   0.063   1.938  1.00  0.00    -0.645 OA
ENDBRANCH   1   5
TORSDOF 2
