REMARK  7 active torsions:
REMARK  status: ('A' for Active; 'I' for Inactive)
REMARK    1  A    between atoms: C7_10  and  O5_13 
REMARK    2  A    between atoms: O5_13  and  C9_14 
REMARK    3  A    between atoms: C10_16  and  C27_40 
REMARK    4  A    between atoms: C13_19  and  O7_20 
REMARK    5  A    between atoms: O7_20  and  C14_21 
REMARK    6  A    between atoms: C14_21  and  C15_22 
REMARK    7  A    between atoms: C20_28  and  C21_29 
ROOT
HETATM    1  C9  UNL     1      -1.477   0.006  -1.590  1.00  0.00     0.269 C 
HETATM    2  O6  UNL     1      -2.512   0.690  -2.299  1.00  0.00    -0.326 OA
HETATM    3  C10 UNL     1      -3.828   0.174  -2.123  1.00  0.00     0.184 C 
HETATM    4  C11 UNL     1      -4.281   0.356  -0.645  1.00  0.00     0.215 C 
HETATM    5  C12 UNL     1      -3.109   0.408   0.379  1.00  0.00     0.217 C 
HETATM    6  C13 UNL     1      -1.932  -0.422  -0.162  1.00  0.00     0.214 C 
HETATM    7  O12 UNL     1      -2.652   1.731   0.617  1.00  0.00    -0.218 OA
HETATM    8  O13 UNL     1      -5.129   1.488  -0.539  1.00  0.00    -0.218 OA
ENDROOT
BRANCH   6   9
HETATM    9  O7  UNL     1      -0.846  -0.408   0.764  1.00  0.00    -0.293 OA
BRANCH   9  10
HETATM   10  C14 UNL     1      -0.041  -1.457   0.617  1.00  0.00     0.298 C 
HETATM   11  O11 UNL     1      -0.176  -2.293  -0.246  1.00  0.00    -0.259 OA
BRANCH  10  12
HETATM   12  C15 UNL     1       1.076  -1.547   1.609  1.00  0.00     0.089 A 
HETATM   13  C16 UNL     1       2.274  -2.197   1.246  1.00  0.00     0.138 A 
HETATM   14  O8  UNL     1       2.414  -2.725   0.045  1.00  0.00    -0.190 OA
HETATM   15  C17 UNL     1       3.330  -2.289   2.168  1.00  0.00     0.055 A 
HETATM   16  C18 UNL     1       3.203  -1.736   3.453  1.00  0.00     0.133 A 
HETATM   17  C19 UNL     1       2.010  -1.088   3.816  1.00  0.00     0.028 A 
HETATM   18  O10 UNL     1       4.197  -1.826   4.313  1.00  0.00    -0.190 OA
HETATM   19  C20 UNL     1       0.945  -0.990   2.902  1.00  0.00     0.009 A 
BRANCH  19  20
HETATM   20  C21 UNL     1      -0.279  -0.310   3.311  1.00  0.00     0.002 A 
HETATM   21  C22 UNL     1      -1.480  -1.033   3.436  1.00  0.00     0.027 A 
HETATM   22  C23 UNL     1      -2.662  -0.381   3.830  1.00  0.00     0.131 A 
HETATM   23  C24 UNL     1      -2.641   0.998   4.098  1.00  0.00     0.027 A 
HETATM   24  O9  UNL     1      -3.787  -1.059   3.945  1.00  0.00    -0.190 OA
HETATM   25  C25 UNL     1      -1.443   1.723   3.975  1.00  0.00     0.002 A 
HETATM   26  C26 UNL     1      -0.264   1.070   3.582  1.00  0.00     0.000 A 
ENDBRANCH  19  20
ENDBRANCH  10  12
ENDBRANCH   9  10
ENDBRANCH   6   9
BRANCH   1  27
HETATM   27  O5  UNL     1      -0.357   0.861  -1.535  1.00  0.00    -0.302 OA
BRANCH  27  28
HETATM   28  C7  UNL     1       0.297   1.006  -2.785  1.00  0.00     0.274 C 
HETATM   29  O3  UNL     1       0.746  -0.285  -3.221  1.00  0.00    -0.302 OA
HETATM   30  C6  UNL     1       1.986  -0.703  -2.899  1.00  0.00     0.120 C 
HETATM   31  C4  UNL     1       2.924   0.047  -2.277  1.00  0.00     0.068 C 
HETATM   32  C3  UNL     1       2.572   1.440  -1.785  1.00  0.00     0.068 C 
HETATM   33  C5  UNL     1       4.315  -0.424  -2.078  1.00  0.00     0.294 C 
HETATM   34  C2  UNL     1       3.822   2.334  -1.633  1.00  0.00     0.040 C 
HETATM   35  C8  UNL     1       1.473   2.008  -2.703  1.00  0.00     0.213 C 
HETATM   36  C1  UNL     1       5.008   1.805  -2.443  1.00  0.00     0.153 C 
HETATM   37  O1  UNL     1       5.320   0.467  -2.035  1.00  0.00    -0.299 OA
HETATM   38  O4  UNL     1       1.016   3.262  -2.225  1.00  0.00    -0.218 OA
HETATM   39  O2  UNL     1       4.520  -1.611  -1.959  1.00  0.00    -0.259 OA
ENDBRANCH  27  28
ENDBRANCH   1  27
BRANCH   3  40
HETATM   40  C27 UNL     1      -3.854  -1.291  -2.584  1.00  0.00     0.214 C 
HETATM   41  O14 UNL     1      -3.570  -1.326  -3.963  1.00  0.00    -0.218 OA
ENDBRANCH   3  40
TORSDOF 7
