REMARK  2 active torsions:
REMARK  status: ('A' for Active; 'I' for Inactive)
REMARK    1  A    between atoms: C1_2  and  C2_3 
REMARK    2  A    between atoms: C2_3  and  C3_4 
ROOT
HETATM    1  C2  UNL     1       0.295   0.447  -0.094  1.00  0.00     0.218 C 
HETATM    2  O3  UNL     1       0.623   1.019  -1.340  1.00  0.00    -0.218 OA
ENDROOT
BRANCH   1   3
HETATM    3  C1  UNL     1       0.773  -1.004  -0.094  1.00  0.00     0.218 C 
HETATM    4  O1  UNL     1       2.184  -1.004  -0.094  1.00  0.00    -0.218 OA
ENDBRANCH   1   3
BRANCH   1   5
HETATM    5  C3  UNL     1      -1.217   0.570   0.108  1.00  0.00     0.218 C 
HETATM    6  O2  UNL     1      -1.522   0.174   1.424  1.00  0.00    -0.218 OA
ENDBRANCH   1   5
TORSDOF 2
