REMARK  20 active torsions:
REMARK  status: ('A' for Active; 'I' for Inactive)
REMARK    1  A    between atoms: C1_1  and  C9_12 
REMARK    2  A    between atoms: C3_3  and  O3_10 
REMARK    3  A    between atoms: C5_5  and  O1_7 
REMARK    4  A    between atoms: C10_13  and  C11_14 
REMARK    5  A    between atoms: C11_14  and  O4_15 
REMARK    6  A    between atoms: O4_15  and  C12_16 
REMARK    7  A    between atoms: C12_16  and  C13_17 
REMARK    8  A    between atoms: C13_17  and  O5_18 
REMARK    9  A    between atoms: C13_17  and  C25_34 
REMARK   10  A    between atoms: O5_18  and  C14_19 
REMARK   11  A    between atoms: C14_19  and  C15_20 
REMARK   12  A    between atoms: C16_21  and  C17_22 
REMARK   13  A    between atoms: C19_24  and  O8_31 
REMARK   14  A    between atoms: C21_26  and  O6_28 
REMARK   15  A    between atoms: C25_34  and  O10_35 
REMARK   16  A    between atoms: O10_35  and  C26_36 
REMARK   17  A    between atoms: C26_36  and  C27_37 
REMARK   18  A    between atoms: C28_38  and  C29_39 
REMARK   19  A    between atoms: C31_41  and  O13_48 
REMARK   20  A    between atoms: C33_43  and  O11_45 
ROOT
HETATM    1  C13 UNL     1       0.361  -2.363  -0.191  1.00  0.00     0.185 C 
ENDROOT
BRANCH   1   2
HETATM    2  C12 UNL     1       1.236  -1.893   0.973  1.00  0.00     0.185 C 
BRANCH   2   3
HETATM    3  O4  UNL     1       2.295  -1.088   0.473  1.00  0.00    -0.296 OA
BRANCH   3   4
HETATM    4  C11 UNL     1       3.092  -0.643   1.439  1.00  0.00     0.296 C 
HETATM    5  O15 UNL     1       2.930  -0.891   2.613  1.00  0.00    -0.259 OA
BRANCH   4   6
HETATM    6  C10 UNL     1       4.219   0.191   1.004  1.00  0.00     0.068 C 
HETATM    7  C9  UNL     1       4.430   0.430  -0.301  1.00  0.00     0.006 C 
BRANCH   7   8
HETATM    8  C1  UNL     1       5.588   1.285  -0.693  1.00  0.00     0.004 A 
HETATM    9  C2  UNL     1       6.045   2.297   0.170  1.00  0.00     0.026 A 
HETATM   10  C3  UNL     1       7.135   3.102  -0.199  1.00  0.00     0.121 A 
HETATM   11  C4  UNL     1       7.774   2.897  -1.437  1.00  0.00     0.175 A 
HETATM   12  C5  UNL     1       7.319   1.885  -2.303  1.00  0.00     0.121 A 
HETATM   13  O2  UNL     1       8.797   3.650  -1.785  1.00  0.00    -0.186 OA
HETATM   14  C6  UNL     1       6.227   1.080  -1.930  1.00  0.00     0.026 A 
BRANCH  10  15
HETATM   15  O3  UNL     1       7.559   4.049   0.615  1.00  0.00    -0.326 OA
HETATM   16  C8  UNL     1       8.768   3.826   1.326  1.00  0.00     0.181 C 
ENDBRANCH  10  15
BRANCH  12  17
HETATM   17  O1  UNL     1       7.912   1.688  -3.463  1.00  0.00    -0.326 OA
HETATM   18  C7  UNL     1       7.434   0.635  -4.287  1.00  0.00     0.181 C 
ENDBRANCH  12  17
ENDBRANCH   7   8
ENDBRANCH   4   6
ENDBRANCH   3   4
ENDBRANCH   2   3
ENDBRANCH   1   2
BRANCH   1  19
HETATM   19  O5  UNL     1      -0.543  -1.330  -0.551  1.00  0.00    -0.296 OA
BRANCH  19  20
HETATM   20  C14 UNL     1       0.063  -0.316  -1.164  1.00  0.00     0.296 C 
HETATM   21  O9  UNL     1       1.152  -0.397  -1.680  1.00  0.00    -0.259 OA
BRANCH  20  22
HETATM   22  C15 UNL     1      -0.680   0.949  -1.189  1.00  0.00     0.068 C 
HETATM   23  C16 UNL     1      -0.158   2.037  -1.777  1.00  0.00     0.006 C 
BRANCH  23  24
HETATM   24  C17 UNL     1      -0.951   3.303  -1.777  1.00  0.00     0.004 A 
HETATM   25  C18 UNL     1      -0.295   4.547  -1.777  1.00  0.00     0.026 A 
HETATM   26  C19 UNL     1      -1.039   5.738  -1.777  1.00  0.00     0.121 A 
HETATM   27  C20 UNL     1      -2.445   5.688  -1.777  1.00  0.00     0.175 A 
HETATM   28  C21 UNL     1      -3.103   4.443  -1.777  1.00  0.00     0.121 A 
HETATM   29  O7  UNL     1      -3.146   6.805  -1.777  1.00  0.00    -0.186 OA
HETATM   30  C22 UNL     1      -2.355   3.254  -1.777  1.00  0.00     0.026 A 
BRANCH  26  31
HETATM   31  O8  UNL     1      -0.418   6.900  -1.777  1.00  0.00    -0.326 OA
HETATM   32  C24 UNL     1      -0.973   7.953  -2.551  1.00  0.00     0.181 C 
ENDBRANCH  26  31
BRANCH  28  33
HETATM   33  O6  UNL     1      -4.422   4.391  -1.777  1.00  0.00    -0.326 OA
HETATM   34  C23 UNL     1      -5.037   3.111  -1.777  1.00  0.00     0.181 C 
ENDBRANCH  28  33
ENDBRANCH  23  24
ENDBRANCH  20  22
ENDBRANCH  19  20
ENDBRANCH   1  19
BRANCH   1  35
HETATM   35  C25 UNL     1      -0.420  -3.635   0.137  1.00  0.00     0.185 C 
BRANCH  35  36
HETATM   36  O10 UNL     1      -1.207  -4.008  -0.984  1.00  0.00    -0.296 OA
BRANCH  36  37
HETATM   37  C26 UNL     1      -1.789  -5.193  -0.824  1.00  0.00     0.296 C 
HETATM   38  O14 UNL     1      -1.603  -6.139  -1.553  1.00  0.00    -0.259 OA
BRANCH  37  39
HETATM   39  C27 UNL     1      -2.697  -5.307   0.324  1.00  0.00     0.068 C 
HETATM   40  C28 UNL     1      -3.603  -4.348   0.576  1.00  0.00     0.006 C 
BRANCH  40  41
HETATM   41  C29 UNL     1      -4.506  -4.508   1.756  1.00  0.00     0.004 A 
HETATM   42  C30 UNL     1      -4.137  -5.356   2.816  1.00  0.00     0.026 A 
HETATM   43  C31 UNL     1      -4.986  -5.506   3.926  1.00  0.00     0.121 A 
HETATM   44  C32 UNL     1      -6.207  -4.809   3.977  1.00  0.00     0.175 A 
HETATM   45  C33 UNL     1      -6.578  -3.961   2.916  1.00  0.00     0.121 A 
HETATM   46  O12 UNL     1      -7.004  -4.951   5.018  1.00  0.00    -0.186 OA
HETATM   47  C34 UNL     1      -5.727  -3.813   1.809  1.00  0.00     0.026 A 
BRANCH  43  48
HETATM   48  O13 UNL     1      -4.635  -6.301   4.918  1.00  0.00    -0.326 OA
HETATM   49  C36 UNL     1      -3.406  -7.004   4.805  1.00  0.00     0.181 C 
ENDBRANCH  43  48
BRANCH  45  50
HETATM   50  O11 UNL     1      -7.721  -3.307   2.959  1.00  0.00    -0.326 OA
HETATM   51  C35 UNL     1      -7.992  -2.371   1.926  1.00  0.00     0.181 C 
ENDBRANCH  45  50
ENDBRANCH  40  41
ENDBRANCH  37  39
ENDBRANCH  36  37
ENDBRANCH  35  36
ENDBRANCH   1  35
TORSDOF 20
