REMARK WARNING: 32 MAX_TORS EXCEEDED!!!
REMARK  40 active torsions:
REMARK  status: ('A' for Active; 'I' for Inactive)
REMARK    1  A    between atoms: C1_1  and  C2_2 
REMARK    2  A    between atoms: C1_1  and  C28_33 
REMARK    3  A    between atoms: C2_2  and  O1_3 
REMARK    4  A    between atoms: O1_3  and  C3_4 
REMARK    5  A    between atoms: C3_4  and  C4_5 
REMARK    6  A    between atoms: C4_5  and  C5_7 
REMARK    7  A    between atoms: C5_7  and  O3_8 
REMARK    8  A    between atoms: O3_8  and  C6_9 
REMARK    9  A    between atoms: C6_9  and  C7_10 
REMARK   10  A    between atoms: C7_10  and  C8_11 
REMARK   11  A    between atoms: C8_11  and  C9_12 
REMARK   12  A    between atoms: C9_12  and  C10_13 
REMARK   13  A    between atoms: C10_13  and  C11_14 
REMARK   14  A    between atoms: C11_14  and  C12_15 
REMARK   15  A    between atoms: C12_15  and  C13_16 
REMARK   16  A    between atoms: C13_16  and  C14_17 
REMARK   17  A    between atoms: C14_17  and  C15_18 
REMARK   18  A    between atoms: C15_18  and  C16_19 
REMARK   19  A    between atoms: C16_19  and  C17_20 
REMARK   20  A    between atoms: C17_20  and  C18_21 
REMARK   21  A    between atoms: C19_22  and  C20_23 
REMARK   22  A    between atoms: C20_23  and  C21_24 
REMARK   23  A    between atoms: C22_25  and  C23_26 
REMARK   24  A    between atoms: C23_26  and  C24_27 
REMARK   25  A    between atoms: C25_28  and  C26_29 
REMARK   26  A    between atoms: C28_33  and  C29_34 
REMARK   27  A    between atoms: C29_34  and  C30_35 
REMARK   28  A    between atoms: C30_35  and  C31_36 
REMARK   29  A    between atoms: C31_36  and  C32_37 
REMARK   30  A    between atoms: C32_37  and  C33_38 
REMARK   31  A    between atoms: C33_38  and  C34_39 
REMARK   32  A    between atoms: C34_39  and  C35_40 
REMARK   33  A    between atoms: C35_40  and  C36_41 
REMARK   34  A    between atoms: C36_41  and  C37_42 
REMARK   35  A    between atoms: C37_42  and  C38_43 
REMARK   36  A    between atoms: C39_44  and  C40_45 
REMARK   37  A    between atoms: C40_45  and  C41_46 
REMARK   38  A    between atoms: C42_47  and  C43_48 
REMARK   39  A    between atoms: C43_48  and  C44_49 
REMARK   40  A    between atoms: C45_50  and  C46_51 
ROOT
HETATM    1  C4  UNL     1      -0.361   0.633  -0.764  1.00  0.00     0.212 C 
HETATM    2  O2  UNL     1      -0.316   1.891  -0.129  1.00  0.00    -0.218 OA
ENDROOT
BRANCH   1   3
HETATM    3  C3  UNL     1       0.742   0.590  -1.822  1.00  0.00     0.187 C 
BRANCH   3   4
HETATM    4  O1  UNL     1       2.004   0.463  -1.184  1.00  0.00    -0.299 OA
BRANCH   4   5
HETATM    5  C2  UNL     1       3.008   0.420  -2.053  1.00  0.00     0.272 C 
HETATM    6  O5  UNL     1       2.865   0.480  -3.252  1.00  0.00    -0.264 OA
BRANCH   5   7
HETATM    7  C1  UNL     1       4.379   0.285  -1.443  1.00  0.00     0.096 C 
BRANCH   7   8
HETATM    8  C28 UNL     1       5.471   0.885  -2.328  1.00  0.00     0.010 C 
BRANCH   8   9
HETATM    9  C29 UNL     1       6.858   0.812  -1.686  1.00  0.00     0.001 C 
BRANCH   9  10
HETATM   10  C30 UNL     1       7.951   1.406  -2.572  1.00  0.00     0.000 C 
BRANCH  10  11
HETATM   11  C31 UNL     1       9.336   1.332  -1.930  1.00  0.00     0.000 C 
BRANCH  11  12
HETATM   12  C32 UNL     1      10.432   1.926  -2.817  1.00  0.00     0.000 C 
BRANCH  12  13
HETATM   13  C33 UNL     1      11.817   1.852  -2.174  1.00  0.00     0.000 C 
BRANCH  13  14
HETATM   14  C34 UNL     1      12.912   2.445  -3.061  1.00  0.00     0.000 C 
BRANCH  14  15
HETATM   15  C35 UNL     1      14.297   2.371  -2.418  1.00  0.00     0.000 C 
BRANCH  15  16
HETATM   16  C36 UNL     1      15.391   2.967  -3.305  1.00  0.00     0.005 C 
BRANCH  16  17
HETATM   17  C37 UNL     1      16.776   2.893  -2.662  1.00  0.00     0.026 C 
BRANCH  17  18
HETATM   18  C38 UNL     1      17.854   3.453  -3.553  1.00  0.00    -0.030 C 
HETATM   19  C39 UNL     1      18.760   4.287  -3.016  1.00  0.00    -0.026 C 
BRANCH  19  20
HETATM   20  C40 UNL     1      19.836   4.846  -3.906  1.00  0.00     0.051 C 
BRANCH  20  21
HETATM   21  C41 UNL     1      20.364   6.141  -3.348  1.00  0.00    -0.026 C 
HETATM   22  C42 UNL     1      21.596   6.535  -3.701  1.00  0.00    -0.026 C 
BRANCH  22  23
HETATM   23  C43 UNL     1      22.123   7.830  -3.141  1.00  0.00     0.051 C 
BRANCH  23  24
HETATM   24  C44 UNL     1      23.629   7.830  -3.141  1.00  0.00    -0.026 C 
HETATM   25  C45 UNL     1      24.270   9.010  -3.141  1.00  0.00    -0.030 C 
BRANCH  25  26
HETATM   26  C46 UNL     1      25.776   9.010  -3.141  1.00  0.00     0.026 C 
HETATM   27  C47 UNL     1      26.358   9.834  -4.289  1.00  0.00     0.005 C 
ENDBRANCH  25  26
ENDBRANCH  23  24
ENDBRANCH  22  23
ENDBRANCH  20  21
ENDBRANCH  19  20
ENDBRANCH  17  18
ENDBRANCH  16  17
ENDBRANCH  15  16
ENDBRANCH  14  15
ENDBRANCH  13  14
ENDBRANCH  12  13
ENDBRANCH  11  12
ENDBRANCH  10  11
ENDBRANCH   9  10
ENDBRANCH   8   9
ENDBRANCH   7   8
ENDBRANCH   5   7
ENDBRANCH   4   5
ENDBRANCH   3   4
ENDBRANCH   1   3
BRANCH   1  28
HETATM   28  C5  UNL     1      -1.758   0.449  -1.359  1.00  0.00     0.187 C 
BRANCH  28  29
HETATM   29  O3  UNL     1      -2.732   0.580  -0.334  1.00  0.00    -0.299 OA
BRANCH  29  30
HETATM   30  C6  UNL     1      -3.973   0.430  -0.791  1.00  0.00     0.272 C 
HETATM   31  O4  UNL     1      -4.240   0.207  -1.949  1.00  0.00    -0.264 OA
BRANCH  30  32
HETATM   32  C7  UNL     1      -5.057   0.557   0.244  1.00  0.00     0.096 C 
BRANCH  32  33
HETATM   33  C8  UNL     1      -6.311  -0.236  -0.123  1.00  0.00     0.010 C 
BRANCH  33  34
HETATM   34  C9  UNL     1      -7.391  -0.166   0.957  1.00  0.00     0.001 C 
BRANCH  34  35
HETATM   35  C10 UNL     1      -8.649  -0.955   0.586  1.00  0.00     0.000 C 
BRANCH  35  36
HETATM   36  C11 UNL     1      -9.729  -0.881   1.666  1.00  0.00     0.000 C 
BRANCH  36  37
HETATM   37  C12 UNL     1     -10.988  -1.666   1.297  1.00  0.00     0.000 C 
BRANCH  37  38
HETATM   38  C13 UNL     1     -12.069  -1.588   2.375  1.00  0.00     0.000 C 
BRANCH  38  39
HETATM   39  C14 UNL     1     -13.332  -2.369   2.010  1.00  0.00     0.000 C 
BRANCH  39  40
HETATM   40  C15 UNL     1     -14.412  -2.281   3.086  1.00  0.00     0.000 C 
BRANCH  40  41
HETATM   41  C16 UNL     1     -15.676  -3.063   2.721  1.00  0.00     0.005 C 
BRANCH  41  42
HETATM   42  C17 UNL     1     -16.754  -2.979   3.801  1.00  0.00     0.026 C 
BRANCH  42  43
HETATM   43  C18 UNL     1     -18.014  -3.707   3.412  1.00  0.00    -0.030 C 
HETATM   44  C19 UNL     1     -18.498  -4.641   4.248  1.00  0.00    -0.026 C 
BRANCH  44  45
HETATM   45  C20 UNL     1     -19.756  -5.369   3.859  1.00  0.00     0.051 C 
BRANCH  45  46
HETATM   46  C21 UNL     1     -19.834  -6.697   4.562  1.00  0.00    -0.026 C 
HETATM   47  C22 UNL     1     -21.041  -7.256   4.742  1.00  0.00    -0.026 C 
BRANCH  47  48
HETATM   48  C23 UNL     1     -21.121  -8.586   5.445  1.00  0.00     0.051 C 
BRANCH  48  49
HETATM   49  C24 UNL     1     -22.483  -8.779   6.055  1.00  0.00    -0.026 C 
HETATM   50  C25 UNL     1     -22.910 -10.033   6.279  1.00  0.00    -0.030 C 
BRANCH  50  51
HETATM   51  C26 UNL     1     -24.274 -10.229   6.889  1.00  0.00     0.026 C 
HETATM   52  C27 UNL     1     -25.084 -11.309   6.172  1.00  0.00     0.005 C 
ENDBRANCH  50  51
ENDBRANCH  48  49
ENDBRANCH  47  48
ENDBRANCH  45  46
ENDBRANCH  44  45
ENDBRANCH  42  43
ENDBRANCH  41  42
ENDBRANCH  40  41
ENDBRANCH  39  40
ENDBRANCH  38  39
ENDBRANCH  37  38
ENDBRANCH  36  37
ENDBRANCH  35  36
ENDBRANCH  34  35
ENDBRANCH  33  34
ENDBRANCH  32  33
ENDBRANCH  30  32
ENDBRANCH  29  30
ENDBRANCH  28  29
ENDBRANCH   1  28
TORSDOF 40
