REMARK  1 active torsions:
REMARK  status: ('A' for Active; 'I' for Inactive)
REMARK    1  A    between atoms: C1_2  and  C2_3 
ROOT
HETATM    1  C2  UNL     1       0.932  -0.362  -0.227  1.00  0.00     0.227 C 
HETATM    2  O1  UNL     1       1.498  -0.219   0.968  1.00  0.00    -0.646 OA
HETATM    3  O2  UNL     1       1.555  -0.485  -1.256  1.00  0.00    -0.646 OA
ENDROOT
BRANCH   1   4
HETATM    4  C1  UNL     1      -0.572  -0.362  -0.227  1.00  0.00     0.434 C 
HETATM    5  N1  UNL     1      -1.074   1.002  -0.227  1.00  0.00     0.631 N 
ENDBRANCH   1   4
TORSDOF 1
