REMARK  3 active torsions:
REMARK  status: ('A' for Active; 'I' for Inactive)
REMARK    1  A    between atoms: C13_15  and  C17_20 
REMARK    2  A    between atoms: C14_16  and  O3_18 
REMARK    3  A    between atoms: C17_20  and  C18_21 
ROOT
HETATM    1  C1  UNL     1      -6.137   1.760   0.654  1.00  0.00     0.133 A 
HETATM    2  C2  UNL     1      -5.746   3.109   0.891  1.00  0.00     0.028 A 
HETATM    3  C3  UNL     1      -4.377   3.488   0.816  1.00  0.00     0.004 A 
HETATM    4  C4  UNL     1      -3.426   2.490   0.504  1.00  0.00     0.030 A 
HETATM    5  C5  UNL     1      -3.816   1.182   0.277  1.00  0.00     0.102 A 
HETATM    6  C6  UNL     1      -5.164   0.771   0.344  1.00  0.00     0.052 A 
HETATM    7  O1  UNL     1      -2.725   0.359  -0.014  1.00  0.00    -0.307 OA
HETATM    8  C7  UNL     1      -1.687   1.313   0.066  1.00  0.00     0.109 A 
HETATM    9  C8  UNL     1      -2.080   2.609   0.377  1.00  0.00     0.088 A 
HETATM   10  C9  UNL     1      -1.109   3.719   0.498  1.00  0.00     0.302 A 
HETATM   11  O2  UNL     1       0.195   3.414   0.285  1.00  0.00    -0.273 OA
HETATM   12  C10 UNL     1       0.652   2.170  -0.025  1.00  0.00     0.109 A 
HETATM   13  C11 UNL     1      -0.236   1.051  -0.154  1.00  0.00     0.071 A 
HETATM   14  C12 UNL     1       0.266  -0.236  -0.477  1.00  0.00     0.133 A 
HETATM   15  C13 UNL     1       1.658  -0.412  -0.676  1.00  0.00     0.030 A 
HETATM   16  C14 UNL     1       2.539   0.691  -0.551  1.00  0.00     0.094 A 
HETATM   17  C15 UNL     1       2.037   1.975  -0.229  1.00  0.00     0.049 A 
HETATM   18  O4  UNL     1      -0.562  -1.285  -0.598  1.00  0.00    -0.190 OA
HETATM   19  O5  UNL     1      -1.488   4.834   0.773  1.00  0.00    -0.259 OA
HETATM   20  O6  UNL     1      -7.430   1.418   0.727  1.00  0.00    -0.190 OA
ENDROOT
BRANCH  15  21
HETATM   21  C17 UNL     1       2.190  -1.744  -1.012  1.00  0.00     0.056 C 
BRANCH  21  22
HETATM   22  C18 UNL     1       2.500  -2.557   0.217  1.00  0.00    -0.030 C 
HETATM   23  C19 UNL     1       2.746  -3.869   0.072  1.00  0.00    -0.048 C 
HETATM   24  C20 UNL     1       2.772  -4.609  -1.238  1.00  0.00     0.026 C 
HETATM   25  C21 UNL     1       3.018  -4.690   1.305  1.00  0.00     0.026 C 
ENDBRANCH  21  22
ENDBRANCH  15  21
BRANCH  16  26
HETATM   26  O3  UNL     1       3.858   0.529  -0.738  1.00  0.00    -0.328 OA
HETATM   27  C16 UNL     1       4.688   1.680  -0.674  1.00  0.00     0.181 C 
ENDBRANCH  16  26
TORSDOF 3
