REMARK  3 active torsions:
REMARK  status: ('A' for Active; 'I' for Inactive)
REMARK    1  A    between atoms: C2_2  and  O4_34 
REMARK    2  A    between atoms: C21_22  and  C23_24 
REMARK    3  A    between atoms: O4_34  and  C31_35 
ROOT
HETATM    1  C1  UNL     1      -4.777   0.211   1.301  1.00  0.00     0.030 C 
HETATM    2  C2  UNL     1      -5.295   0.572  -0.094  1.00  0.00     0.124 C 
HETATM    3  C3  UNL     1      -4.471  -0.096  -1.211  1.00  0.00     0.026 C 
HETATM    4  C4  UNL     1      -2.965   0.236  -1.014  1.00  0.00     0.003 C 
HETATM    5  C5  UNL     1      -2.397  -0.150   0.387  1.00  0.00     0.007 C 
HETATM    6  C6  UNL     1      -3.287   0.545   1.455  1.00  0.00     0.003 C 
HETATM    7  C7  UNL     1      -0.895   0.297   0.490  1.00  0.00     0.062 C 
HETATM    8  C8  UNL     1       0.012  -0.191  -0.695  1.00  0.00     0.010 C 
HETATM    9  C9  UNL     1      -0.650   0.190  -2.039  1.00  0.00     0.001 C 
HETATM   10  C10 UNL     1      -2.090  -0.318  -2.150  1.00  0.00     0.000 C 
HETATM   11  C11 UNL     1       1.449   0.436  -0.561  1.00  0.00     0.016 C 
HETATM   12  C12 UNL     1       2.045   0.055   0.791  1.00  0.00    -0.042 C 
HETATM   13  C13 UNL     1       1.252  -0.139   1.865  1.00  0.00     0.029 C 
HETATM   14  C14 UNL     1      -0.217  -0.049   1.809  1.00  0.00     0.172 C 
HETATM   15  O1  UNL     1      -0.836  -0.267   2.822  1.00  0.00    -0.291 OA
HETATM   16  C15 UNL     1       3.553  -0.127   0.918  1.00  0.00     0.019 C 
HETATM   17  C16 UNL     1       4.141  -1.123  -0.137  1.00  0.00     0.004 C 
HETATM   18  C17 UNL     1       3.219  -1.273  -1.371  1.00  0.00     0.001 C 
HETATM   19  C18 UNL     1       2.436   0.008  -1.689  1.00  0.00     0.004 C 
HETATM   20  C19 UNL     1       5.545  -0.656  -0.598  1.00  0.00     0.001 C 
HETATM   21  C20 UNL     1       6.391  -0.142   0.574  1.00  0.00     0.010 C 
HETATM   22  C21 UNL     1       5.783   1.127   1.225  1.00  0.00     0.079 C 
HETATM   23  C22 UNL     1       4.268   1.240   0.924  1.00  0.00     0.014 C 
HETATM   24  C24 UNL     1       6.492   2.383   0.697  1.00  0.00     0.011 C 
HETATM   25  C25 UNL     1       4.291  -2.510   0.510  1.00  0.00     0.000 C 
HETATM   26  C26 UNL     1       1.346   1.971  -0.588  1.00  0.00     0.004 C 
HETATM   27  C27 UNL     1       0.123  -1.726  -0.652  1.00  0.00     0.001 C 
HETATM   28  C28 UNL     1      -2.479  -1.670   0.611  1.00  0.00     0.000 C 
HETATM   29  C29 UNL     1      -4.961   0.449  -2.561  1.00  0.00     0.002 C 
HETATM   30  C30 UNL     1      -4.707  -1.613  -1.211  1.00  0.00     0.002 C 
ENDROOT
BRANCH   2  31
HETATM   31  O4  UNL     1      -6.662   0.192  -0.201  1.00  0.00    -0.304 OA
BRANCH  31  32
HETATM   32  C31 UNL     1      -7.467   0.990   0.490  1.00  0.00     0.272 C 
HETATM   33  C32 UNL     1      -8.908   0.557   0.545  1.00  0.00     0.106 C 
HETATM   34  O5  UNL     1      -7.100   2.000   1.047  1.00  0.00    -0.264 OA
ENDBRANCH  31  32
ENDBRANCH   2  31
BRANCH  22  35
HETATM   35  C23 UNL     1       6.008   1.082   2.717  1.00  0.00     0.184 C 
HETATM   36  O2  UNL     1       7.281   1.018   3.096  1.00  0.00    -0.647 OA
HETATM   37  O3  UNL     1       5.076   1.108   3.486  1.00  0.00    -0.647 OA
ENDBRANCH  22  35
TORSDOF 3
