REMARK  5 active torsions:
REMARK  status: ('A' for Active; 'I' for Inactive)
REMARK    1  A    between atoms: C1_1  and  O4_20 
REMARK    2  A    between atoms: C4_4  and  C7_7 
REMARK    3  A    between atoms: C7_7  and  C8_8 
REMARK    4  A    between atoms: C9_9  and  C10_10 
REMARK    5  A    between atoms: C11_11  and  O1_12 
ROOT
HETATM    1  C8  UNL     1      -0.746  -2.848   1.518  1.00  0.00     0.042 C 
HETATM    2  C9  UNL     1      -0.168  -3.082   0.328  1.00  0.00     0.005 C 
ENDROOT
BRANCH   1   3
HETATM    3  C7  UNL     1      -1.537  -1.631   1.738  1.00  0.00     0.196 C 
HETATM    4  O3  UNL     1      -2.730  -1.701   1.916  1.00  0.00    -0.287 OA
BRANCH   3   5
HETATM    5  C4  UNL     1      -0.838  -0.312   1.738  1.00  0.00     0.039 A 
HETATM    6  C3  UNL     1      -1.584   0.881   1.738  1.00  0.00     0.005 A 
HETATM    7  C2  UNL     1      -0.924   2.121   1.738  1.00  0.00     0.024 A 
HETATM    8  C1  UNL     1       0.481   2.178   1.738  1.00  0.00     0.094 A 
HETATM    9  C6  UNL     1       1.225   0.982   1.738  1.00  0.00     0.024 A 
HETATM   10  C5  UNL     1       0.567  -0.260   1.738  1.00  0.00     0.005 A 
BRANCH   8  11
HETATM   11  O4  UNL     1       1.098   3.342   1.738  1.00  0.00    -0.328 OA
HETATM   12  C17 UNL     1       0.303   4.518   1.680  1.00  0.00     0.181 C 
ENDBRANCH   8  11
ENDBRANCH   3   5
ENDBRANCH   1   3
BRANCH   2  13
HETATM   13  C10 UNL     1      -0.348  -2.080  -0.766  1.00  0.00     0.022 A 
HETATM   14  C11 UNL     1       0.772  -1.557  -1.445  1.00  0.00     0.096 A 
HETATM   15  C13 UNL     1       0.584  -0.613  -2.471  1.00  0.00     0.052 A 
HETATM   16  C14 UNL     1      -0.709  -0.191  -2.824  1.00  0.00     0.133 A 
HETATM   17  C15 UNL     1      -1.822  -0.717  -2.144  1.00  0.00     0.028 A 
HETATM   18  O2  UNL     1      -0.877   0.691  -3.787  1.00  0.00    -0.190 OA
HETATM   19  C16 UNL     1      -1.642  -1.658  -1.119  1.00  0.00     0.004 A 
BRANCH  14  20
HETATM   20  O1  UNL     1       1.992  -1.941  -1.125  1.00  0.00    -0.328 OA
HETATM   21  C12 UNL     1       3.078  -1.377  -1.846  1.00  0.00     0.181 C 
ENDBRANCH  14  20
ENDBRANCH   2  13
TORSDOF 5
