REMARK  2 active torsions:
REMARK  status: ('A' for Active; 'I' for Inactive)
REMARK    1  A    between atoms: C3_3  and  C29_32 
REMARK    2  A    between atoms: C21_22  and  C24_25 
ROOT
HETATM    1  C1  UNL     1      -4.824  -0.813  -1.643  1.00  0.00     0.033 C 
HETATM    2  C2  UNL     1      -5.520   0.000  -0.537  1.00  0.00     0.154 C 
HETATM    3  C3  UNL     1      -4.930  -0.260   0.873  1.00  0.00     0.059 C 
HETATM    4  C4  UNL     1      -3.389  -0.057   0.805  1.00  0.00     0.005 C 
HETATM    5  C5  UNL     1      -2.666  -0.936  -0.260  1.00  0.00     0.001 C 
HETATM    6  C6  UNL     1      -3.301  -0.600  -1.633  1.00  0.00     0.003 C 
HETATM    7  C7  UNL     1      -1.100  -0.746  -0.201  1.00  0.00     0.005 C 
HETATM    8  C8  UNL     1      -0.578   0.408   0.701  1.00  0.00     0.004 C 
HETATM    9  C9  UNL     1      -1.262   0.412   2.104  1.00  0.00     0.000 C 
HETATM   10  C10 UNL     1      -2.674  -0.186   2.154  1.00  0.00     0.000 C 
HETATM   11  C11 UNL     1       0.982   0.275   0.867  1.00  0.00     0.022 C 
HETATM   12  C12 UNL     1       1.711  -0.041  -0.441  1.00  0.00    -0.049 C 
HETATM   13  C13 UNL     1       1.059  -0.443  -1.553  1.00  0.00    -0.035 C 
HETATM   14  C14 UNL     1      -0.436  -0.660  -1.594  1.00  0.00     0.025 C 
HETATM   15  C15 UNL     1       3.228   0.096  -0.402  1.00  0.00     0.025 C 
HETATM   16  C16 UNL     1       3.652   1.514   0.051  1.00  0.00     0.055 C 
HETATM   17  C17 UNL     1       3.072   1.688   1.439  1.00  0.00     0.150 C 
HETATM   18  C18 UNL     1       1.566   1.555   1.541  1.00  0.00     0.068 C 
HETATM   19  O1  UNL     1       3.752   1.912   2.414  1.00  0.00    -0.296 OA
HETATM   20  C19 UNL     1       5.197   1.688  -0.008  1.00  0.00     0.008 C 
HETATM   21  C20 UNL     1       5.955   0.355  -0.104  1.00  0.00     0.011 C 
HETATM   22  C21 UNL     1       5.551  -0.453  -1.363  1.00  0.00     0.079 C 
HETATM   23  C22 UNL     1       4.025  -0.342  -1.650  1.00  0.00     0.015 C 
HETATM   24  C23 UNL     1       6.340   0.041  -2.582  1.00  0.00     0.011 C 
HETATM   25  C25 UNL     1       3.018   2.582  -0.857  1.00  0.00     0.008 C 
HETATM   26  C26 UNL     1       1.330  -0.934   1.758  1.00  0.00     0.004 C 
HETATM   27  C27 UNL     1      -0.920   1.732  -0.010  1.00  0.00     0.000 C 
HETATM   28  C28 UNL     1      -2.932  -2.430   0.002  1.00  0.00     0.000 C 
HETATM   29  C30 UNL     1      -5.283  -1.664   1.389  1.00  0.00     0.005 C 
HETATM   30  O5  UNL     1      -6.908  -0.281  -0.563  1.00  0.00    -0.223 OA
ENDROOT
BRANCH  22  31
HETATM   31  C24 UNL     1       5.936  -1.898  -1.147  1.00  0.00     0.184 C 
HETATM   32  O2  UNL     1       5.100  -2.598  -0.385  1.00  0.00    -0.647 OA
HETATM   33  O3  UNL     1       6.939  -2.356  -1.641  1.00  0.00    -0.647 OA
ENDBRANCH  22  31
BRANCH   3  34
HETATM   34  C29 UNL     1      -5.537   0.756   1.854  1.00  0.00     0.185 C 
HETATM   35  O4  UNL     1      -5.119   2.045   1.469  1.00  0.00    -0.221 OA
ENDBRANCH   3  34
TORSDOF 2
