REMARK  2 active torsions:
REMARK  status: ('A' for Active; 'I' for Inactive)
REMARK    1  A    between atoms: C3_3  and  C30_33 
REMARK    2  A    between atoms: C22_22  and  C24_24 
ROOT
HETATM    1  C1  UNL     1      -5.154   0.250  -0.674  1.00  0.00     0.033 C 
HETATM    2  C2  UNL     1      -5.773  -0.521   0.510  1.00  0.00     0.154 C 
HETATM    3  C3  UNL     1      -4.879  -0.482   1.797  1.00  0.00     0.059 C 
HETATM    4  C4  UNL     1      -3.410  -0.119   1.432  1.00  0.00     0.005 C 
HETATM    5  C5  UNL     1      -2.908  -0.810   0.139  1.00  0.00     0.001 C 
HETATM    6  C6  UNL     1      -3.709  -0.174  -1.035  1.00  0.00     0.003 C 
HETATM    7  C7  UNL     1      -1.344  -0.711  -0.010  1.00  0.00     0.005 C 
HETATM    8  C8  UNL     1      -0.666   0.459   0.750  1.00  0.00     0.004 C 
HETATM    9  C9  UNL     1      -1.121   0.520   2.248  1.00  0.00     0.000 C 
HETATM   10  C10 UNL     1      -2.396  -0.273   2.566  1.00  0.00     0.000 C 
HETATM   11  C11 UNL     1       0.900   0.303   0.674  1.00  0.00     0.019 C 
HETATM   12  C12 UNL     1       1.430  -0.121  -0.697  1.00  0.00    -0.049 C 
HETATM   13  C13 UNL     1       0.608  -0.584  -1.666  1.00  0.00    -0.035 C 
HETATM   14  C14 UNL     1      -0.879  -0.746  -1.480  1.00  0.00     0.025 C 
HETATM   15  C15 UNL     1       2.945  -0.033  -0.910  1.00  0.00     0.022 C 
HETATM   16  C16 UNL     1       3.514   1.356  -0.523  1.00  0.00     0.021 C 
HETATM   17  C17 UNL     1       3.065   1.674   0.893  1.00  0.00    -0.044 C 
HETATM   18  C18 UNL     1       1.578   1.615   1.156  1.00  0.00     0.026 C 
HETATM   19  C19 UNL     1       3.920   1.992   1.883  1.00  0.00    -0.009 C 
HETATM   20  C20 UNL     1       5.057   1.356  -0.660  1.00  0.00     0.037 C 
HETATM   21  C21 UNL     1       5.526   0.916  -2.061  1.00  0.00     0.162 C 
HETATM   22  C22 UNL     1       4.988  -0.486  -2.434  1.00  0.00     0.107 C 
HETATM   23  C23 UNL     1       3.449  -0.484  -2.305  1.00  0.00     0.017 C 
HETATM   24  C25 UNL     1       5.580  -1.576  -1.527  1.00  0.00     0.013 C 
HETATM   25  O3  UNL     1       6.942   0.938  -2.092  1.00  0.00    -0.223 OA
HETATM   26  C26 UNL     1       2.934   2.438  -1.449  1.00  0.00     0.004 C 
HETATM   27  C27 UNL     1       1.369  -0.851   1.580  1.00  0.00     0.004 C 
HETATM   28  C28 UNL     1      -1.117   1.758   0.053  1.00  0.00     0.000 C 
HETATM   29  C29 UNL     1      -3.223  -2.316   0.180  1.00  0.00     0.000 C 
HETATM   30  C31 UNL     1      -4.936  -1.799   2.596  1.00  0.00     0.005 C 
HETATM   31  O5  UNL     1      -6.055  -1.840   0.076  1.00  0.00    -0.223 OA
ENDROOT
BRANCH  22  32
HETATM   32  C24 UNL     1       5.356  -0.838  -3.857  1.00  0.00     0.187 C 
HETATM   33  O1  UNL     1       5.303  -2.133  -4.152  1.00  0.00    -0.647 OA
HETATM   34  O2  UNL     1       5.672   0.022  -4.647  1.00  0.00    -0.647 OA
ENDBRANCH  22  32
BRANCH   3  35
HETATM   35  C30 UNL     1      -5.418   0.611   2.729  1.00  0.00     0.185 C 
HETATM   36  O4  UNL     1      -6.731   0.260   3.109  1.00  0.00    -0.221 OA
ENDBRANCH   3  35
TORSDOF 2
