REMARK  1 active torsions:
REMARK  status: ('A' for Active; 'I' for Inactive)
REMARK    1  A    between atoms: C11_12  and  C12_13 
ROOT
HETATM    1  C1  UNL     1      -2.733   1.080   0.602  1.00  0.00     0.195 C 
HETATM    2  C2  UNL     1      -2.701  -0.424   0.871  1.00  0.00     0.064 C 
HETATM    3  C3  UNL     1      -1.330  -1.109   0.516  1.00  0.00     0.012 C 
HETATM    4  C4  UNL     1      -0.063  -0.365   1.047  1.00  0.00     0.025 C 
HETATM    5  C5  UNL     1      -0.215   1.102   0.732  1.00  0.00     0.008 A 
HETATM    6  C6  UNL     1      -1.410   1.715   0.561  1.00  0.00     0.131 A 
HETATM    7  O1  UNL     1      -1.233   3.070   0.297  1.00  0.00    -0.302 OA
HETATM    8  C7  UNL     1       0.172   3.250   0.297  1.00  0.00     0.125 A 
HETATM    9  C8  UNL     1       0.764   2.006   0.557  1.00  0.00     0.057 A 
HETATM   10  C9  UNL     1       2.187   1.608   0.639  1.00  0.00     0.175 C 
HETATM   11  C10 UNL     1       2.471   0.137   0.930  1.00  0.00     0.070 C 
HETATM   12  C11 UNL     1       1.320  -0.838   0.512  1.00  0.00     0.012 C 
HETATM   13  O2  UNL     1       3.076   2.412   0.475  1.00  0.00    -0.291 OA
HETATM   14  C15 UNL     1      -3.860  -1.129   0.154  1.00  0.00     0.008 C 
HETATM   15  O3  UNL     1      -3.750   1.711   0.432  1.00  0.00    -0.289 OA
ENDROOT
BRANCH  12  16
HETATM   16  C12 UNL     1       1.314  -1.025  -1.012  1.00  0.00     0.001 C 
HETATM   17  C13 UNL     1       1.017   0.272  -1.766  1.00  0.00     0.000 C 
HETATM   18  C14 UNL     1       2.570  -1.730  -1.525  1.00  0.00     0.000 C 
ENDBRANCH  12  16
TORSDOF 1
