REMARK  0 active torsions:
REMARK  status: ('A' for Active; 'I' for Inactive)
ROOT
HETATM    1  C1  UNL     1       0.863  -0.977   0.377  1.00  0.00     0.039 C 
HETATM    2  C2  UNL     1      -0.406  -0.631  -0.442  1.00  0.00     0.128 C 
HETATM    3  C3  UNL     1      -1.277   0.461   0.224  1.00  0.00     0.068 C 
HETATM    4  C4  UNL     1      -0.975   1.918  -0.178  1.00  0.00     0.159 C 
HETATM    5  C5  UNL     1       0.523   2.234  -0.309  1.00  0.00     0.055 C 
HETATM    6  C6  UNL     1       1.389   1.559   0.734  1.00  0.00    -0.042 C 
HETATM    7  C7  UNL     1       1.916   0.158   0.471  1.00  0.00     0.029 C 
HETATM    8  C8  UNL     1       2.756   0.016  -0.803  1.00  0.00     0.069 C 
HETATM    9  C9  UNL     1       2.729  -1.455  -1.076  1.00  0.00     0.151 C 
HETATM   10  C10 UNL     1       1.727  -2.129  -0.190  1.00  0.00     0.060 C 
HETATM   11  C11 UNL     1       0.986  -3.260  -0.901  1.00  0.00     0.008 C 
HETATM   12  O1  UNL     1       3.420  -2.014  -1.899  1.00  0.00    -0.296 OA
HETATM   13  C12 UNL     1       1.688   2.199   1.879  1.00  0.00    -0.009 C 
HETATM   14  O2  UNL     1      -1.553   2.785   0.779  1.00  0.00    -0.223 OA
HETATM   15  C13 UNL     1      -2.688   0.035  -0.205  1.00  0.00     0.091 C 
HETATM   16  C14 UNL     1      -2.502  -1.426  -0.475  1.00  0.00     0.271 C 
HETATM   17  O3  UNL     1      -1.230  -1.791  -0.537  1.00  0.00    -0.304 OA
HETATM   18  O4  UNL     1      -3.436  -2.180  -0.610  1.00  0.00    -0.264 OA
HETATM   19  C15 UNL     1      -3.725   0.328   0.875  1.00  0.00     0.011 C 
ENDROOT
TORSDOF 0
