REMARK  4 active torsions:
REMARK  status: ('A' for Active; 'I' for Inactive)
REMARK    1  A    between atoms: C9_9  and  O3_17 
REMARK    2  A    between atoms: C10_10  and  O2_15 
REMARK    3  A    between atoms: C11_11  and  O1_13 
REMARK    4  A    between atoms: C16_19  and  O6_26 
ROOT
HETATM    1  C1  UNL     1       1.014   0.566   0.748  1.00  0.00    -0.016 A 
HETATM    2  C2  UNL     1       1.373  -0.479   1.742  1.00  0.00     0.057 C 
HETATM    3  C3  UNL     1       2.170  -1.627   1.074  1.00  0.00     0.135 C 
HETATM    4  C4  UNL     1       1.596  -2.053  -0.313  1.00  0.00     0.050 C 
HETATM    5  C5  UNL     1       0.182  -2.682  -0.262  1.00  0.00    -0.024 C 
HETATM    6  C6  UNL     1      -1.039  -1.934   0.205  1.00  0.00    -0.000 A 
HETATM    7  C7  UNL     1      -1.232  -0.512   0.318  1.00  0.00     0.026 A 
HETATM    8  C8  UNL     1      -0.201   0.504   0.002  1.00  0.00     0.022 A 
HETATM    9  C9  UNL     1      -0.430   1.449  -1.021  1.00  0.00     0.118 A 
HETATM   10  C10 UNL     1       0.484   2.496  -1.236  1.00  0.00     0.138 A 
HETATM   11  C11 UNL     1       1.652   2.588  -0.461  1.00  0.00     0.118 A 
HETATM   12  C12 UNL     1       1.916   1.621   0.521  1.00  0.00     0.022 A 
HETATM   13  C16 UNL     1      -2.500  -0.002   0.758  1.00  0.00     0.118 A 
HETATM   14  C17 UNL     1      -3.568  -0.891   1.031  1.00  0.00     0.141 A 
HETATM   15  C18 UNL     1      -3.393  -2.264   0.936  1.00  0.00     0.121 A 
HETATM   16  C19 UNL     1      -2.135  -2.768   0.541  1.00  0.00     0.026 A 
HETATM   17  O4  UNL     1      -4.537  -2.875   1.258  1.00  0.00    -0.299 OA
HETATM   18  C20 UNL     1      -5.533  -1.879   1.576  1.00  0.00     0.304 A 
HETATM   19  O5  UNL     1      -4.824  -0.635   1.402  1.00  0.00    -0.298 OA
HETATM   20  C22 UNL     1       2.533  -3.053  -1.014  1.00  0.00     0.007 C 
HETATM   21  C23 UNL     1       2.309  -2.818   2.025  1.00  0.00     0.034 C 
HETATM   22  O7  UNL     1       3.496  -1.164   0.875  1.00  0.00    -0.225 OA
ENDROOT
BRANCH   9  23
HETATM   23  O3  UNL     1      -1.508   1.367  -1.777  1.00  0.00    -0.326 OA
HETATM   24  C15 UNL     1      -1.365   1.602  -3.172  1.00  0.00     0.181 C 
ENDBRANCH   9  23
BRANCH  11  25
HETATM   25  O1  UNL     1       2.506   3.576  -0.658  1.00  0.00    -0.326 OA
HETATM   26  C13 UNL     1       3.592   3.709   0.244  1.00  0.00     0.181 C 
ENDBRANCH  11  25
BRANCH  13  27
HETATM   27  O6  UNL     1      -2.598   1.330   0.889  1.00  0.00    -0.326 OA
HETATM   28  C21 UNL     1      -3.828   1.865   1.355  1.00  0.00     0.181 C 
ENDBRANCH  13  27
BRANCH  10  29
HETATM   29  O2  UNL     1       0.244   3.398  -2.168  1.00  0.00    -0.324 OA
HETATM   30  C14 UNL     1       1.318   3.793  -3.006  1.00  0.00     0.182 C 
ENDBRANCH  10  29
TORSDOF 4
