REMARK  5 active torsions:
REMARK  status: ('A' for Active; 'I' for Inactive)
REMARK    1  A    between atoms: C9_9  and  O3_17 
REMARK    2  A    between atoms: C10_10  and  O2_15 
REMARK    3  A    between atoms: C11_11  and  O1_13 
REMARK    4  A    between atoms: C17_20  and  O5_25 
REMARK    5  A    between atoms: C18_21  and  O4_23 
ROOT
HETATM    1  C1  UNL     1       1.016  -1.049  -0.506  1.00  0.00    -0.016 A 
HETATM    2  C2  UNL     1       0.072  -1.649  -1.496  1.00  0.00     0.057 C 
HETATM    3  C3  UNL     1      -1.020  -2.574  -0.881  1.00  0.00     0.131 C 
HETATM    4  C4  UNL     1      -2.270  -1.818  -0.346  1.00  0.00     0.033 C 
HETATM    5  C5  UNL     1      -1.937  -0.662   0.627  1.00  0.00     0.029 C 
HETATM    6  C6  UNL     1      -1.652   0.627  -0.070  1.00  0.00    -0.018 A 
HETATM    7  C7  UNL     1      -0.324   1.084  -0.344  1.00  0.00     0.025 A 
HETATM    8  C8  UNL     1       0.840   0.262   0.045  1.00  0.00     0.022 A 
HETATM    9  C9  UNL     1       1.793   0.764   0.959  1.00  0.00     0.118 A 
HETATM   10  C10 UNL     1       2.902  -0.018   1.326  1.00  0.00     0.138 A 
HETATM   11  C11 UNL     1       3.066  -1.307   0.795  1.00  0.00     0.118 A 
HETATM   12  C12 UNL     1       2.129  -1.815  -0.115  1.00  0.00     0.022 A 
HETATM   13  C16 UNL     1      -0.137   2.328  -0.982  1.00  0.00     0.155 A 
HETATM   14  C17 UNL     1      -1.248   3.103  -1.361  1.00  0.00     0.141 A 
HETATM   15  C18 UNL     1      -2.551   2.644  -1.107  1.00  0.00     0.118 A 
HETATM   16  C19 UNL     1      -2.746   1.412  -0.467  1.00  0.00     0.022 A 
HETATM   17  O6  UNL     1       1.078   2.773  -1.240  1.00  0.00    -0.188 OA
HETATM   18  C22 UNL     1      -3.264  -2.787   0.318  1.00  0.00     0.003 C 
HETATM   19  O7  UNL     1      -1.475  -3.410  -1.932  1.00  0.00    -0.226 OA
HETATM   20  C23 UNL     1      -0.449  -3.543   0.168  1.00  0.00     0.033 C 
ENDROOT
BRANCH   9  21
HETATM   21  O3  UNL     1       1.650   1.967   1.480  1.00  0.00    -0.326 OA
HETATM   22  C15 UNL     1       0.637   2.154   2.457  1.00  0.00     0.181 C 
ENDBRANCH   9  21
BRANCH  11  23
HETATM   23  O1  UNL     1       4.102  -2.041   1.147  1.00  0.00    -0.326 OA
HETATM   24  C13 UNL     1       4.215  -3.344   0.592  1.00  0.00     0.181 C 
ENDBRANCH  11  23
BRANCH  10  25
HETATM   25  O2  UNL     1       3.791   0.459   2.176  1.00  0.00    -0.324 OA
HETATM   26  C14 UNL     1       5.166   0.303   1.859  1.00  0.00     0.182 C 
ENDBRANCH  10  25
BRANCH  15  27
HETATM   27  O4  UNL     1      -3.590   3.367  -1.469  1.00  0.00    -0.326 OA
HETATM   28  C20 UNL     1      -4.871   2.756  -1.439  1.00  0.00     0.181 C 
ENDBRANCH  15  27
BRANCH  14  29
HETATM   29  O5  UNL     1      -1.066   4.266  -1.957  1.00  0.00    -0.324 OA
HETATM   30  C21 UNL     1      -0.262   5.234  -1.299  1.00  0.00     0.182 C 
ENDBRANCH  14  29
TORSDOF 5
