REMARK  6 active torsions:
REMARK  status: ('A' for Active; 'I' for Inactive)
REMARK    1  A    between atoms: C15_15  and  C18_18 
REMARK    2  A    between atoms: C18_18  and  C20_20 
REMARK    3  A    between atoms: C20_20  and  C21_21 
REMARK    4  A    between atoms: C21_21  and  C22_22 
REMARK    5  A    between atoms: C22_22  and  C23_23 
REMARK    6  A    between atoms: C23_23  and  C25_25 
ROOT
HETATM    1  C1  UNL     1      -4.199  -1.189   1.031  1.00  0.00     0.033 C 
HETATM    2  C2  UNL     1      -4.813   0.207   0.768  1.00  0.00     0.152 C 
HETATM    3  C3  UNL     1      -5.465   0.357  -0.631  1.00  0.00     0.028 C 
HETATM    4  C4  UNL     1      -4.404   0.033  -1.727  1.00  0.00     0.002 C 
HETATM    5  C5  UNL     1      -3.594  -1.266  -1.418  1.00  0.00     0.000 A 
HETATM    6  C6  UNL     1      -4.113  -2.074  -0.221  1.00  0.00     0.003 C 
HETATM    7  C7  UNL     1      -2.111  -1.424  -1.814  1.00  0.00     0.000 A 
HETATM    8  C8  UNL     1      -1.355  -0.168  -2.289  1.00  0.00     0.000 C 
HETATM    9  C9  UNL     1      -2.279   0.902  -2.898  1.00  0.00     0.000 C 
HETATM   10  C10 UNL     1      -3.496   1.242  -2.035  1.00  0.00     0.000 C 
HETATM   11  C11 UNL     1      -0.502   0.336  -1.098  1.00  0.00     0.000 C 
HETATM   12  C12 UNL     1       0.521  -0.742  -0.682  1.00  0.00     0.000 C 
HETATM   13  C13 UNL     1      -0.242  -1.949  -0.121  1.00  0.00     0.000 C 
HETATM   14  C14 UNL     1      -1.174  -2.498  -1.217  1.00  0.00     0.000 C 
HETATM   15  C15 UNL     1       1.385   0.025   0.332  1.00  0.00     0.000 C 
HETATM   16  C16 UNL     1       1.543   1.404  -0.328  1.00  0.00     0.000 C 
HETATM   17  C17 UNL     1       0.430   1.518  -1.381  1.00  0.00     0.000 C 
HETATM   18  C27 UNL     1       1.436  -1.166  -1.846  1.00  0.00     0.000 C 
HETATM   19  C28 UNL     1      -1.361   0.746   0.109  1.00  0.00     0.000 C 
HETATM   20  C29 UNL     1      -3.205  -2.029  -2.672  1.00  0.00     0.000 A 
HETATM   21  C30 UNL     1      -6.010   1.783  -0.813  1.00  0.00     0.003 C 
HETATM   22  C31 UNL     1      -6.674  -0.582  -0.775  1.00  0.00     0.003 C 
HETATM   23  O3  UNL     1      -5.744   0.510   1.793  1.00  0.00    -0.224 OA
ENDROOT
BRANCH  15  24
HETATM   24  C18 UNL     1       2.727  -0.627   0.662  1.00  0.00     0.000 C 
HETATM   25  C19 UNL     1       2.482  -2.004   1.279  1.00  0.00     0.000 C 
BRANCH  24  26
HETATM   26  C20 UNL     1       3.531   0.297   1.576  1.00  0.00     0.004 C 
BRANCH  26  27
HETATM   27  C21 UNL     1       4.990  -0.141   1.721  1.00  0.00     0.022 C 
BRANCH  27  28
HETATM   28  C22 UNL     1       5.852   0.928   2.340  1.00  0.00    -0.035 C 
HETATM   29  C26 UNL     1       5.270   1.836   3.139  1.00  0.00    -0.009 C 
BRANCH  28  30
HETATM   30  C23 UNL     1       7.334   1.023   2.104  1.00  0.00     0.106 C 
HETATM   31  C24 UNL     1       7.697   2.131   1.115  1.00  0.00     0.016 C 
BRANCH  30  32
HETATM   32  C25 UNL     1       8.068   1.154   3.412  1.00  0.00     0.189 C 
HETATM   33  O1  UNL     1       8.246   0.018   4.078  1.00  0.00    -0.647 OA
HETATM   34  O2  UNL     1       8.457   2.233   3.801  1.00  0.00    -0.647 OA
ENDBRANCH  30  32
ENDBRANCH  28  30
ENDBRANCH  27  28
ENDBRANCH  26  27
ENDBRANCH  24  26
ENDBRANCH  15  24
TORSDOF 6
