REMARK  3 active torsions:
REMARK  status: ('A' for Active; 'I' for Inactive)
REMARK    1  A    between atoms: C14_17  and  O6_25 
REMARK    2  A    between atoms: C15_18  and  O5_23 
REMARK    3  A    between atoms: C16_19  and  O4_21 
ROOT
HETATM    1  C1  UNL     1      -1.950   0.736   0.450  1.00  0.00    -0.000 A 
HETATM    2  C2  UNL     1      -1.375   2.068   0.055  1.00  0.00    -0.026 C 
HETATM    3  C3  UNL     1       0.143   2.318  -0.076  1.00  0.00     0.022 C 
HETATM    4  C4  UNL     1       0.949   2.169   1.242  1.00  0.00     0.008 C 
HETATM    5  C5  UNL     1       0.951   0.740   1.816  1.00  0.00     0.027 C 
HETATM    6  C6  UNL     1       1.170  -0.240   0.723  1.00  0.00    -0.018 A 
HETATM    7  C7  UNL     1       0.078  -0.807  -0.001  1.00  0.00     0.022 A 
HETATM    8  C8  UNL     1      -1.324  -0.560   0.421  1.00  0.00     0.029 A 
HETATM    9  C9  UNL     1      -2.073  -1.719   0.815  1.00  0.00     0.155 A 
HETATM   10  C10 UNL     1      -3.436  -1.595   1.181  1.00  0.00     0.144 A 
HETATM   11  C11 UNL     1      -4.050  -0.349   1.221  1.00  0.00     0.121 A 
HETATM   12  C12 UNL     1      -3.302   0.795   0.872  1.00  0.00     0.026 A 
HETATM   13  O1  UNL     1      -5.319  -0.497   1.608  1.00  0.00    -0.299 OA
HETATM   14  C13 UNL     1      -5.583  -1.898   1.838  1.00  0.00     0.304 A 
HETATM   15  O2  UNL     1      -4.321  -2.529   1.533  1.00  0.00    -0.297 OA
HETATM   16  O3  UNL     1      -1.416  -2.889   0.815  1.00  0.00    -0.188 OA
HETATM   17  C14 UNL     1       0.351  -1.638  -1.109  1.00  0.00     0.118 A 
HETATM   18  C15 UNL     1       1.678  -1.973  -1.435  1.00  0.00     0.138 A 
HETATM   19  C16 UNL     1       2.745  -1.453  -0.685  1.00  0.00     0.118 A 
HETATM   20  C17 UNL     1       2.490  -0.582   0.384  1.00  0.00     0.022 A 
HETATM   21  C21 UNL     1       0.516   3.186   2.305  1.00  0.00     0.001 C 
HETATM   22  C22 UNL     1       0.379   3.719  -0.659  1.00  0.00     0.005 C 
ENDROOT
BRANCH  17  23
HETATM   23  O6  UNL     1      -0.637  -2.115  -1.843  1.00  0.00    -0.326 OA
HETATM   24  C20 UNL     1      -1.448  -1.189  -2.551  1.00  0.00     0.181 C 
ENDBRANCH  17  23
BRANCH  18  25
HETATM   25  O5  UNL     1       1.922  -2.782  -2.446  1.00  0.00    -0.324 OA
HETATM   26  C19 UNL     1       2.988  -2.450  -3.323  1.00  0.00     0.182 C 
ENDBRANCH  18  25
BRANCH  19  27
HETATM   27  O4  UNL     1       3.987  -1.778  -0.987  1.00  0.00    -0.326 OA
HETATM   28  C18 UNL     1       5.034  -1.164  -0.250  1.00  0.00     0.181 C 
ENDBRANCH  19  27
TORSDOF 3
