REMARK  4 active torsions:
REMARK  status: ('A' for Active; 'I' for Inactive)
REMARK    1  A    between atoms: C9_9  and  O3_16 
REMARK    2  A    between atoms: C10_10  and  O2_14 
REMARK    3  A    between atoms: C15_18  and  O6_25 
REMARK    4  A    between atoms: C16_19  and  O5_23 
ROOT
HETATM    1  C1  UNL     1       1.309  -1.168  -0.168  1.00  0.00    -0.016 A 
HETATM    2  C2  UNL     1       0.637  -2.178   0.711  1.00  0.00     0.057 C 
HETATM    3  C3  UNL     1      -0.264  -3.230  -0.006  1.00  0.00     0.131 C 
HETATM    4  C4  UNL     1      -1.699  -2.730  -0.326  1.00  0.00     0.033 C 
HETATM    5  C5  UNL     1      -1.766  -1.361  -1.049  1.00  0.00     0.029 C 
HETATM    6  C6  UNL     1      -1.731  -0.178  -0.137  1.00  0.00    -0.018 A 
HETATM    7  C7  UNL     1      -0.529   0.537   0.166  1.00  0.00     0.022 A 
HETATM    8  C8  UNL     1       0.758   0.127  -0.434  1.00  0.00     0.022 A 
HETATM    9  C9  UNL     1       1.463   1.020  -1.268  1.00  0.00     0.118 A 
HETATM   10  C10 UNL     1       2.695   0.645  -1.830  1.00  0.00     0.141 A 
HETATM   11  C11 UNL     1       3.232  -0.625  -1.568  1.00  0.00     0.155 A 
HETATM   12  C12 UNL     1       2.541  -1.521  -0.742  1.00  0.00     0.025 A 
HETATM   13  O1  UNL     1       4.389  -0.977  -2.096  1.00  0.00    -0.188 OA
HETATM   14  C15 UNL     1      -0.584   1.647   1.035  1.00  0.00     0.118 A 
HETATM   15  C16 UNL     1      -1.809   2.049   1.596  1.00  0.00     0.141 A 
HETATM   16  C17 UNL     1      -2.988   1.348   1.297  1.00  0.00     0.155 A 
HETATM   17  C18 UNL     1      -2.944   0.242   0.434  1.00  0.00     0.025 A 
HETATM   18  O4  UNL     1      -4.137   1.723   1.824  1.00  0.00    -0.188 OA
HETATM   19  C21 UNL     1      -2.610  -2.789   0.912  1.00  0.00     0.003 C 
HETATM   20  O7  UNL     1       0.336  -3.656  -1.221  1.00  0.00    -0.226 OA
HETATM   21  C22 UNL     1      -0.328  -4.512   0.836  1.00  0.00     0.033 C 
ENDROOT
BRANCH   9  22
HETATM   22  O3  UNL     1       0.971   2.215  -1.535  1.00  0.00    -0.326 OA
HETATM   23  C14 UNL     1      -0.125   2.299  -2.436  1.00  0.00     0.181 C 
ENDBRANCH   9  22
BRANCH  14  24
HETATM   24  O6  UNL     1       0.512   2.316   1.336  1.00  0.00    -0.326 OA
HETATM   25  C20 UNL     1       1.467   1.690   2.180  1.00  0.00     0.181 C 
ENDBRANCH  14  24
BRANCH  10  26
HETATM   26  O2  UNL     1       3.348   1.486  -2.607  1.00  0.00    -0.324 OA
HETATM   27  C13 UNL     1       3.490   2.828  -2.164  1.00  0.00     0.182 C 
ENDBRANCH  10  26
BRANCH  15  28
HETATM   28  O5  UNL     1      -1.854   3.088   2.406  1.00  0.00    -0.324 OA
HETATM   29  C19 UNL     1      -1.361   4.330   1.924  1.00  0.00     0.182 C 
ENDBRANCH  15  28
TORSDOF 4
