REMARK  9 active torsions:
REMARK  status: ('A' for Active; 'I' for Inactive)
REMARK    1  A    between atoms: C2_2  and  O7_27 
REMARK    2  A    between atoms: C8_8  and  C18_24 
REMARK    3  A    between atoms: N1_9  and  C9_10 
REMARK    4  A    between atoms: C9_10  and  C10_11 
REMARK    5  A    between atoms: C10_11  and  C11_12 
REMARK    6  A    between atoms: C13_14  and  C17_21 
REMARK    7  A    between atoms: C14_16  and  C16_18 
REMARK    8  A    between atoms: O7_27  and  C19_28 
REMARK    9  A    between atoms: C20_30  and  C24_37 
ROOT
HETATM    1  C1  UNL     1      -1.136   3.469   0.090  1.00  0.00     0.153 A 
HETATM    2  C2  UNL     1      -1.142   2.133   0.301  1.00  0.00     0.123 A 
HETATM    3  C3  UNL     1       0.034   1.481   0.182  1.00  0.00     0.043 A 
HETATM    4  C4  UNL     1       1.192   2.113  -0.072  1.00  0.00     0.059 A 
HETATM    5  C5  UNL     1       1.161   3.441  -0.252  1.00  0.00    -0.002 A 
HETATM    6  C6  UNL     1       0.011   4.116  -0.172  1.00  0.00     0.027 A 
HETATM    7  C7  UNL     1       2.519   4.038  -0.458  1.00  0.00     0.062 A 
HETATM    8  C8  UNL     1       3.407   2.794  -0.435  1.00  0.00     0.178 A 
HETATM    9  N1  UNL     1       2.426   1.673  -0.170  1.00  0.00    -0.319 N 
HETATM   10  O13 UNL     1      -2.277   4.202   0.200  1.00  0.00    -0.188 OA
ENDROOT
BRANCH   9  11
HETATM   11  C9  UNL     1       2.751   0.406  -0.084  1.00  0.00     0.076 C 
BRANCH  11  12
HETATM   12  C10 UNL     1       3.981  -0.133  -0.160  1.00  0.00     0.015 C 
BRANCH  12  13
HETATM   13  C11 UNL     1       4.342  -1.431  -0.064  1.00  0.00    -0.017 C 
HETATM   14  C12 UNL     1       5.827  -1.731  -0.067  1.00  0.00     0.062 C 
HETATM   15  C13 UNL     1       6.122  -3.181  -0.446  1.00  0.00     0.194 C 
HETATM   16  N2  UNL     1       5.056  -4.112  -0.050  1.00  0.00    -0.255 NA
HETATM   17  C14 UNL     1       3.858  -3.746   0.158  1.00  0.00     0.141 C 
HETATM   18  C15 UNL     1       3.484  -2.455   0.109  1.00  0.00     0.021 C 
BRANCH  15  19
HETATM   19  C17 UNL     1       7.462  -3.663   0.093  1.00  0.00     0.209 C 
HETATM   20  O3  UNL     1       8.496  -3.740  -0.526  1.00  0.00    -0.646 OA
HETATM   21  O4  UNL     1       7.391  -3.989   1.397  1.00  0.00    -0.646 OA
ENDBRANCH  15  19
BRANCH  17  22
HETATM   22  C16 UNL     1       2.933  -4.718   0.408  1.00  0.00     0.229 C 
HETATM   23  O1  UNL     1       1.621  -4.474   0.627  1.00  0.00    -0.643 OA
HETATM   24  O2  UNL     1       3.258  -5.885   0.434  1.00  0.00    -0.643 OA
ENDBRANCH  17  22
ENDBRANCH  12  13
ENDBRANCH  11  12
ENDBRANCH   9  11
BRANCH   8  25
HETATM   25  C18 UNL     1       4.256   2.810   0.794  1.00  0.00     0.207 C 
HETATM   26  O5  UNL     1       5.491   2.889   0.670  1.00  0.00    -0.646 OA
HETATM   27  O6  UNL     1       3.567   2.674   1.823  1.00  0.00    -0.646 OA
ENDBRANCH   8  25
BRANCH   2  28
HETATM   28  O7  UNL     1      -2.350   1.540   0.596  1.00  0.00    -0.301 OA
BRANCH  28  29
HETATM   29  C19 UNL     1      -2.591   0.176   0.342  1.00  0.00     0.274 C 
HETATM   30  O8  UNL     1      -2.886   0.010  -1.028  1.00  0.00    -0.326 OA
HETATM   31  C20 UNL     1      -4.144   0.460  -1.458  1.00  0.00     0.184 C 
HETATM   32  C21 UNL     1      -5.284  -0.074  -0.600  1.00  0.00     0.215 C 
HETATM   33  C22 UNL     1      -5.060   0.112   0.888  1.00  0.00     0.220 C 
HETATM   34  O11 UNL     1      -5.441  -1.456  -0.852  1.00  0.00    -0.218 OA
HETATM   35  C23 UNL     1      -3.672  -0.371   1.251  1.00  0.00     0.241 C 
HETATM   36  O10 UNL     1      -5.205   1.465   1.248  1.00  0.00    -0.218 OA
HETATM   37  O9  UNL     1      -3.653  -1.779   1.167  1.00  0.00    -0.215 OA
BRANCH  31  38
HETATM   38  C24 UNL     1      -4.176   1.964  -1.703  1.00  0.00     0.214 C 
HETATM   39  O12 UNL     1      -5.269   2.292  -2.538  1.00  0.00    -0.218 OA
ENDBRANCH  31  38
ENDBRANCH  28  29
ENDBRANCH   2  28
TORSDOF 9
