REMARK  13 active torsions:
REMARK  status: ('A' for Active; 'I' for Inactive)
REMARK    1  A    between atoms: C2_2  and  O6_27 
REMARK    2  A    between atoms: C8_8  and  C19_24 
REMARK    3  A    between atoms: N1_9  and  C9_10 
REMARK    4  A    between atoms: C9_10  and  C10_11 
REMARK    5  A    between atoms: C10_11  and  C11_12 
REMARK    6  A    between atoms: C13_14  and  C17_21 
REMARK    7  A    between atoms: C14_16  and  C16_18 
REMARK    8  A    between atoms: O6_27  and  C20_28 
REMARK    9  A    between atoms: C21_30  and  C25_37 
REMARK   10  A    between atoms: C25_37  and  O11_38 
REMARK   11  A    between atoms: O11_38  and  C26_39 
REMARK   12  A    between atoms: C26_39  and  C27_40 
REMARK   13  A    between atoms: C28_41  and  C29_42 
ROOT
HETATM    1  C1  UNL     1      -0.645   4.721  -1.667  1.00  0.00     0.153 A 
HETATM    2  C2  UNL     1      -0.654   3.371  -1.609  1.00  0.00     0.123 A 
HETATM    3  C3  UNL     1       0.531   2.735  -1.481  1.00  0.00     0.043 A 
HETATM    4  C4  UNL     1       1.696   3.401  -1.394  1.00  0.00     0.059 A 
HETATM    5  C5  UNL     1       1.661   4.741  -1.437  1.00  0.00    -0.002 A 
HETATM    6  C6  UNL     1       0.508   5.401  -1.563  1.00  0.00     0.027 A 
HETATM    7  C7  UNL     1       3.009   5.375  -1.278  1.00  0.00     0.062 A 
HETATM    8  C8  UNL     1       3.916   4.146  -1.208  1.00  0.00     0.178 A 
HETATM    9  N1  UNL     1       2.938   2.992  -1.281  1.00  0.00    -0.319 N 
HETATM   10  O14 UNL     1      -1.804   5.420  -1.787  1.00  0.00    -0.188 OA
ENDROOT
BRANCH   2  11
HETATM   11  O6  UNL     1      -1.881   2.765  -1.728  1.00  0.00    -0.301 OA
BRANCH  11  12
HETATM   12  C20 UNL     1      -2.021   1.407  -2.092  1.00  0.00     0.274 C 
HETATM   13  O7  UNL     1      -2.525   0.795  -0.923  1.00  0.00    -0.326 OA
HETATM   14  C21 UNL     1      -2.819  -0.563  -1.092  1.00  0.00     0.181 C 
HETATM   15  C22 UNL     1      -3.876  -0.745  -2.177  1.00  0.00     0.215 C 
HETATM   16  C23 UNL     1      -3.482  -0.074  -3.481  1.00  0.00     0.220 C 
HETATM   17  O10 UNL     1      -5.106  -0.207  -1.746  1.00  0.00    -0.218 OA
HETATM   18  C24 UNL     1      -3.031   1.349  -3.216  1.00  0.00     0.241 C 
HETATM   19  O9  UNL     1      -2.422  -0.792  -4.069  1.00  0.00    -0.218 OA
HETATM   20  O8  UNL     1      -4.133   2.146  -2.847  1.00  0.00    -0.215 OA
BRANCH  14  21
HETATM   21  C25 UNL     1      -3.301  -1.128   0.244  1.00  0.00     0.184 C 
BRANCH  21  22
HETATM   22  O11 UNL     1      -2.244  -1.181   1.169  1.00  0.00    -0.296 OA
BRANCH  22  23
HETATM   23  C26 UNL     1      -2.546  -1.613   2.439  1.00  0.00     0.296 C 
HETATM   24  O13 UNL     1      -3.697  -1.875   2.698  1.00  0.00    -0.259 OA
BRANCH  23  25
HETATM   25  C27 UNL     1      -1.557  -1.716   3.370  1.00  0.00     0.068 C 
HETATM   26  C28 UNL     1      -1.528  -2.111   4.660  1.00  0.00     0.005 C 
BRANCH  26  27
HETATM   27  C29 UNL     1      -2.390  -2.616   5.572  1.00  0.00     0.000 A 
HETATM   28  C30 UNL     1      -1.945  -2.761   6.841  1.00  0.00     0.002 A 
HETATM   29  C31 UNL     1      -2.713  -3.240   7.833  1.00  0.00     0.027 A 
HETATM   30  C32 UNL     1      -3.981  -3.619   7.612  1.00  0.00     0.131 A 
HETATM   31  C33 UNL     1      -4.429  -3.511   6.353  1.00  0.00     0.027 A 
HETATM   32  O12 UNL     1      -4.773  -4.105   8.605  1.00  0.00    -0.190 OA
HETATM   33  C34 UNL     1      -3.654  -3.030   5.367  1.00  0.00     0.002 A 
ENDBRANCH  26  27
ENDBRANCH  23  25
ENDBRANCH  22  23
ENDBRANCH  21  22
ENDBRANCH  14  21
ENDBRANCH  11  12
ENDBRANCH   2  11
BRANCH   9  34
HETATM   34  C9  UNL     1       3.290   1.730  -1.334  1.00  0.00     0.076 C 
BRANCH  34  35
HETATM   35  C10 UNL     1       4.543   1.239  -1.325  1.00  0.00     0.015 C 
BRANCH  35  36
HETATM   36  C11 UNL     1       4.960  -0.041  -1.433  1.00  0.00    -0.017 C 
HETATM   37  C12 UNL     1       6.458  -0.278  -1.410  1.00  0.00     0.058 C 
HETATM   38  C13 UNL     1       6.802  -1.725  -1.054  1.00  0.00     0.165 C 
HETATM   39  N2  UNL     1       5.810  -2.668  -1.592  1.00  0.00    -0.259 NA
HETATM   40  C14 UNL     1       4.598  -2.352  -1.804  1.00  0.00     0.140 C 
HETATM   41  C15 UNL     1       4.151  -1.090  -1.671  1.00  0.00     0.021 C 
BRANCH  38  42
HETATM   42  C17 UNL     1       6.955  -2.017   0.439  1.00  0.00     0.173 C 
HETATM   43  C18 UNL     1       7.100  -3.472   0.849  1.00  0.00     0.074 C 
HETATM   44  O3  UNL     1       6.991  -1.140   1.273  1.00  0.00    -0.294 OA
ENDBRANCH  38  42
BRANCH  40  45
HETATM   45  C16 UNL     1       3.739  -3.349  -2.161  1.00  0.00     0.229 C 
HETATM   46  O1  UNL     1       2.425  -3.158  -2.413  1.00  0.00    -0.643 OA
HETATM   47  O2  UNL     1       4.136  -4.489  -2.274  1.00  0.00    -0.643 OA
ENDBRANCH  40  45
ENDBRANCH  35  36
ENDBRANCH  34  35
ENDBRANCH   9  34
BRANCH   8  48
HETATM   48  C19 UNL     1       4.482   4.006   0.169  1.00  0.00     0.207 C 
HETATM   49  O4  UNL     1       5.714   3.906   0.311  1.00  0.00    -0.646 OA
HETATM   50  O5  UNL     1       3.575   3.939   1.020  1.00  0.00    -0.646 OA
ENDBRANCH   8  48
TORSDOF 13
