REMARK  3 active torsions:
REMARK  status: ('A' for Active; 'I' for Inactive)
REMARK    1  A    between atoms: C7_7  and  C9_10 
REMARK    2  A    between atoms: C9_10  and  C10_11 
REMARK    3  A    between atoms: C10_11  and  N2_12 
ROOT
HETATM    1  N2  UNL     1       0.328   1.135  -0.984  1.00  0.00    -0.249 N 
HETATM    2  C11 UNL     1       0.469  -0.244  -1.055  1.00  0.00     0.334 A 
HETATM    3  N3  UNL     1       1.721  -0.846  -0.974  1.00  0.00    -0.279 N 
HETATM    4  C12 UNL     1       2.865  -0.111  -0.826  1.00  0.00     0.069 A 
HETATM    5  C13 UNL     1       2.768   1.311  -0.748  1.00  0.00     0.072 A 
HETATM    6  C14 UNL     1       1.426   1.969  -0.832  1.00  0.00     0.266 A 
HETATM    7  O1  UNL     1       1.225   3.162  -0.779  1.00  0.00    -0.267 OA
HETATM    8  C15 UNL     1       3.934   2.102  -0.594  1.00  0.00     0.006 A 
HETATM    9  C16 UNL     1       5.201   1.485  -0.515  1.00  0.00     0.000 A 
HETATM   10  C17 UNL     1       5.311   0.080  -0.592  1.00  0.00     0.002 A 
HETATM   11  C18 UNL     1       4.152  -0.715  -0.746  1.00  0.00     0.018 A 
HETATM   12  C19 UNL     1       1.779  -2.324  -1.057  1.00  0.00     0.135 C 
HETATM   13  O2  UNL     1      -0.520  -0.935  -1.185  1.00  0.00    -0.246 OA
ENDROOT
BRANCH   1  14
HETATM   14  C10 UNL     1      -1.025   1.725  -1.074  1.00  0.00     0.118 C 
BRANCH  14  15
HETATM   15  C9  UNL     1      -1.586   2.026   0.317  1.00  0.00     0.053 C 
BRANCH  15  16
HETATM   16  C7  UNL     1      -1.836   0.750   1.096  1.00  0.00     0.000 A 
HETATM   17  C5  UNL     1      -2.857  -0.127   0.945  1.00  0.00     0.015 A 
HETATM   18  C4  UNL     1      -2.775  -1.180   1.820  1.00  0.00     0.081 A 
HETATM   19  C6  UNL     1      -3.920  -0.027   0.014  1.00  0.00     0.001 A 
HETATM   20  C3  UNL     1      -3.742  -2.211   1.834  1.00  0.00     0.019 A 
HETATM   21  N1  UNL     1      -1.635  -0.976   2.584  1.00  0.00    -0.244 NA
HETATM   22  C2  UNL     1      -4.818  -2.139   0.910  1.00  0.00     0.002 A 
HETATM   23  C1  UNL     1      -4.906  -1.049   0.002  1.00  0.00     0.000 A 
HETATM   24  C8  UNL     1      -1.043   0.229   2.135  1.00  0.00     0.095 A 
ENDBRANCH  15  16
ENDBRANCH  14  15
ENDBRANCH   1  14
TORSDOF 3
