REMARK  1 active torsions:
REMARK  status: ('A' for Active; 'I' for Inactive)
REMARK    1  A    between atoms: C9_10  and  C10_12 
ROOT
HETATM    1  C1  UNL     1      -4.103  -2.061   0.973  1.00  0.00     0.057 A 
HETATM    2  C2  UNL     1      -4.264  -0.758   0.443  1.00  0.00     0.160 A 
HETATM    3  C3  UNL     1      -3.125   0.014   0.106  1.00  0.00     0.179 A 
HETATM    4  C4  UNL     1      -1.828  -0.516   0.295  1.00  0.00     0.133 A 
HETATM    5  C5  UNL     1      -1.670  -1.822   0.826  1.00  0.00     0.091 A 
HETATM    6  C6  UNL     1      -2.810  -2.600   1.166  1.00  0.00     0.138 A 
HETATM    7  O1  UNL     1      -2.678  -3.836   1.668  1.00  0.00    -0.190 OA
HETATM    8  C7  UNL     1      -0.291  -2.352   1.012  1.00  0.00     0.227 A 
HETATM    9  C8  UNL     1       0.811  -1.438   0.621  1.00  0.00     0.192 A 
HETATM   10  C9  UNL     1       0.527  -0.207   0.125  1.00  0.00     0.129 A 
HETATM   11  O2  UNL     1      -0.744   0.221  -0.025  1.00  0.00    -0.303 OA
HETATM   12  O5  UNL     1       2.070  -1.850   0.766  1.00  0.00    -0.185 OA
HETATM   13  O6  UNL     1       0.022  -3.438   1.445  1.00  0.00    -0.284 OA
HETATM   14  O7  UNL     1      -3.277   1.248  -0.396  1.00  0.00    -0.186 OA
HETATM   15  O8  UNL     1      -5.494  -0.258   0.262  1.00  0.00    -0.188 OA
ENDROOT
BRANCH  10  16
HETATM   16  C10 UNL     1       1.647   0.703  -0.264  1.00  0.00     0.027 A 
HETATM   17  C11 UNL     1       2.709   0.937   0.627  1.00  0.00     0.004 A 
HETATM   18  C12 UNL     1       3.760   1.795   0.258  1.00  0.00     0.030 A 
HETATM   19  C13 UNL     1       3.754   2.420  -1.002  1.00  0.00     0.156 A 
HETATM   20  C14 UNL     1       2.692   2.185  -1.895  1.00  0.00     0.156 A 
HETATM   21  O4  UNL     1       4.744   3.221  -1.340  1.00  0.00    -0.188 OA
HETATM   22  C15 UNL     1       1.641   1.328  -1.523  1.00  0.00     0.032 A 
HETATM   23  O3  UNL     1       2.680   2.768  -3.078  1.00  0.00    -0.188 OA
ENDBRANCH  10  16
TORSDOF 1
