REMARK  5 active torsions:
REMARK  status: ('A' for Active; 'I' for Inactive)
REMARK    1  A    between atoms: C3_3  and  C28_34 
REMARK    2  A    between atoms: C6_6  and  C7_7 
REMARK    3  A    between atoms: C9_10  and  C13_14 
REMARK    4  A    between atoms: C19_21  and  C26_30 
REMARK    5  A    between atoms: C22_24  and  C23_25 
ROOT
HETATM    1  C1  UNL     1       4.586   2.227  -2.498  1.00  0.00     0.159 A 
HETATM    2  C2  UNL     1       5.254   2.473  -1.281  1.00  0.00     0.152 A 
HETATM    3  C3  UNL     1       4.649   2.129  -0.051  1.00  0.00     0.005 A 
HETATM    4  C4  UNL     1       3.356   1.527  -0.037  1.00  0.00    -0.000 A 
HETATM    5  C5  UNL     1       2.666   1.270  -1.272  1.00  0.00     0.030 A 
HETATM    6  C6  UNL     1       3.301   1.629  -2.504  1.00  0.00     0.072 A 
HETATM    7  C8  UNL     1       1.371   0.660  -1.227  1.00  0.00     0.131 A 
HETATM    8  C9  UNL     1       0.785   0.324   0.021  1.00  0.00     0.023 A 
HETATM    9  C10 UNL     1       1.471   0.586   1.234  1.00  0.00    -0.020 A 
HETATM   10  C11 UNL     1       2.748   1.184   1.199  1.00  0.00    -0.004 A 
HETATM   11  C12 UNL     1       0.879   0.246   2.543  1.00  0.00     0.031 C 
HETATM   12  O6  UNL     1       0.682   0.393  -2.350  1.00  0.00    -0.190 OA
HETATM   13  O7  UNL     1       6.471   3.037  -1.299  1.00  0.00    -0.188 OA
HETATM   14  O8  UNL     1       5.180   2.563  -3.654  1.00  0.00    -0.188 OA
ENDROOT
BRANCH   8  15
HETATM   15  C13 UNL     1      -0.537  -0.295   0.055  1.00  0.00     0.023 A 
HETATM   16  C14 UNL     1      -0.652  -1.707   0.098  1.00  0.00    -0.020 A 
HETATM   17  C15 UNL     1      -1.932  -2.303   0.129  1.00  0.00    -0.004 A 
HETATM   18  C27 UNL     1       0.539  -2.576   0.107  1.00  0.00     0.031 C 
HETATM   19  C16 UNL     1      -3.105  -1.504   0.119  1.00  0.00    -0.000 A 
HETATM   20  C17 UNL     1      -2.998  -0.070   0.072  1.00  0.00     0.030 A 
HETATM   21  C22 UNL     1      -4.387  -2.127   0.152  1.00  0.00     0.005 A 
HETATM   22  C18 UNL     1      -1.695   0.525   0.043  1.00  0.00     0.131 A 
HETATM   23  C19 UNL     1      -4.197   0.711   0.059  1.00  0.00     0.072 A 
HETATM   24  O2  UNL     1      -1.535   1.858   0.004  1.00  0.00    -0.190 OA
HETATM   25  C20 UNL     1      -5.463   0.076   0.094  1.00  0.00     0.159 A 
HETATM   26  C21 UNL     1      -5.557  -1.332   0.141  1.00  0.00     0.152 A 
HETATM   27  O4  UNL     1      -6.588   0.809   0.080  1.00  0.00    -0.188 OA
HETATM   28  O3  UNL     1      -6.766  -1.912   0.174  1.00  0.00    -0.188 OA
BRANCH  23  29
HETATM   29  C26 UNL     1      -4.160   2.193   0.010  1.00  0.00     0.236 C 
HETATM   30  O5  UNL     1      -4.822   2.945  -0.668  1.00  0.00    -0.283 OA
ENDBRANCH  23  29
BRANCH  21  31
HETATM   31  C23 UNL     1      -4.535  -3.596   0.203  1.00  0.00     0.024 C 
HETATM   32  C24 UNL     1      -5.705  -4.014   1.094  1.00  0.00     0.005 C 
HETATM   33  C25 UNL     1      -4.615  -4.201  -1.199  1.00  0.00     0.005 C 
ENDBRANCH  21  31
ENDBRANCH   8  15
BRANCH   6  34
HETATM   34  C7  UNL     1       2.645   1.395  -3.815  1.00  0.00     0.236 C 
HETATM   35  O1  UNL     1       1.520   1.672  -4.158  1.00  0.00    -0.283 OA
ENDBRANCH   6  34
BRANCH   3  36
HETATM   36  C28 UNL     1       5.387   2.408   1.199  1.00  0.00     0.024 C 
HETATM   37  C29 UNL     1       4.580   3.301   2.143  1.00  0.00     0.005 C 
HETATM   38  C30 UNL     1       5.863   1.119   1.871  1.00  0.00     0.005 C 
ENDBRANCH   3  36
TORSDOF 5
