REMARK  5 active torsions:
REMARK  status: ('A' for Active; 'I' for Inactive)
REMARK    1  A    between atoms: C1_1  and  C16_19 
REMARK    2  A    between atoms: C2_2  and  O3_17 
REMARK    3  A    between atoms: C8_8  and  C10_12 
REMARK    4  A    between atoms: C10_12  and  C13_15 
REMARK    5  A    between atoms: C16_19  and  C17_20 
ROOT
HETATM    1  C1  UNL     1      -0.472  -1.528  -1.123  1.00  0.00     0.005 A 
HETATM    2  C2  UNL     1      -0.269  -0.865  -2.361  1.00  0.00     0.092 A 
HETATM    3  C3  UNL     1       0.377   0.395  -2.393  1.00  0.00     0.049 A 
HETATM    4  C4  UNL     1       0.821   0.997  -1.193  1.00  0.00     0.105 A 
HETATM    5  C5  UNL     1       0.616   0.328   0.042  1.00  0.00     0.023 A 
HETATM    6  C6  UNL     1      -0.028  -0.931   0.081  1.00  0.00    -0.000 A 
HETATM    7  C7  UNL     1       1.091   0.978   1.289  1.00  0.00     0.003 A 
HETATM    8  C8  UNL     1       1.700   2.179   1.209  1.00  0.00     0.044 A 
HETATM    9  C9  UNL     1       1.881   2.827  -0.114  1.00  0.00     0.296 A 
HETATM   10  O1  UNL     1       1.436   2.201  -1.223  1.00  0.00    -0.273 OA
HETATM   11  O2  UNL     1       2.426   3.905  -0.164  1.00  0.00    -0.259 OA
ENDROOT
BRANCH   1  12
HETATM   12  C16 UNL     1      -1.143  -2.838  -1.083  1.00  0.00     0.054 C 
BRANCH  12  13
HETATM   13  C17 UNL     1      -2.589  -2.721  -0.682  1.00  0.00    -0.030 C 
HETATM   14  C18 UNL     1      -3.380  -3.799  -0.815  1.00  0.00    -0.048 C 
HETATM   15  C19 UNL     1      -2.940  -5.139  -1.339  1.00  0.00     0.026 C 
HETATM   16  C20 UNL     1      -4.826  -3.682  -0.413  1.00  0.00     0.026 C 
ENDBRANCH  12  13
ENDBRANCH   1  12
BRANCH   2  17
HETATM   17  O3  UNL     1      -0.686  -1.424  -3.506  1.00  0.00    -0.328 OA
HETATM   18  C15 UNL     1      -0.517  -0.686  -4.708  1.00  0.00     0.181 C 
ENDBRANCH   2  17
BRANCH   8  19
HETATM   19  C10 UNL     1       2.192   2.854   2.464  1.00  0.00     0.043 C 
HETATM   20  C11 UNL     1       1.643   2.198   3.732  1.00  0.00     0.009 C 
HETATM   21  C12 UNL     1       1.533   4.215   2.691  1.00  0.00     0.009 C 
BRANCH  19  22
HETATM   22  C13 UNL     1       3.695   2.936   2.464  1.00  0.00    -0.022 C 
HETATM   23  C14 UNL     1       4.270   4.150   2.464  1.00  0.00    -0.005 C 
ENDBRANCH  19  22
ENDBRANCH   8  19
TORSDOF 5
