REMARK  7 active torsions:
REMARK  status: ('A' for Active; 'I' for Inactive)
REMARK    1  A    between atoms: C2_2  and  O7_22 
REMARK    2  A    between atoms: C9_10  and  C10_12 
REMARK    3  A    between atoms: O7_22  and  C16_23 
REMARK    4  A    between atoms: C17_24  and  O11_31 
REMARK    5  A    between atoms: C18_25  and  C20_28 
REMARK    6  A    between atoms: O11_31  and  C21_32 
REMARK    7  A    between atoms: C22_34  and  C26_41 
ROOT
HETATM    1  C1  UNL     1       0.658  -2.660   0.756  1.00  0.00     0.054 A 
HETATM    2  C2  UNL     1       0.500  -1.352   0.238  1.00  0.00     0.126 A 
HETATM    3  C3  UNL     1       1.639  -0.570  -0.074  1.00  0.00     0.176 A 
HETATM    4  C4  UNL     1       2.936  -1.096   0.129  1.00  0.00     0.132 A 
HETATM    5  C5  UNL     1       3.092  -2.410   0.649  1.00  0.00     0.089 A 
HETATM    6  C6  UNL     1       1.951  -3.193   0.963  1.00  0.00     0.138 A 
HETATM    7  O1  UNL     1       2.080  -4.436   1.453  1.00  0.00    -0.190 OA
HETATM    8  C7  UNL     1       4.471  -2.936   0.850  1.00  0.00     0.202 A 
HETATM    9  C8  UNL     1       5.561  -2.008   0.481  1.00  0.00     0.067 A 
HETATM   10  C9  UNL     1       5.291  -0.773  -0.004  1.00  0.00     0.103 A 
HETATM   11  O2  UNL     1       4.022  -0.348  -0.168  1.00  0.00    -0.305 OA
HETATM   12  O5  UNL     1       4.789  -4.022   1.275  1.00  0.00    -0.286 OA
HETATM   13  O6  UNL     1       1.486   0.668  -0.564  1.00  0.00    -0.186 OA
ENDROOT
BRANCH   2  14
HETATM   14  O7  UNL     1      -0.731  -0.855   0.047  1.00  0.00    -0.301 OA
BRANCH  14  15
HETATM   15  C16 UNL     1      -1.826  -1.758   0.078  1.00  0.00     0.271 C 
HETATM   16  C17 UNL     1      -3.137  -1.062  -0.273  1.00  0.00     0.207 C 
HETATM   17  C18 UNL     1      -4.012  -2.242  -0.781  1.00  0.00     0.214 C 
HETATM   18  C19 UNL     1      -2.982  -3.338  -1.127  1.00  0.00     0.180 C 
HETATM   19  O10 UNL     1      -4.908  -2.740   0.199  1.00  0.00    -0.218 OA
HETATM   20  O8  UNL     1      -1.731  -2.719  -0.941  1.00  0.00    -0.326 OA
BRANCH  16  21
HETATM   21  O11 UNL     1      -3.658  -0.363   0.844  1.00  0.00    -0.324 OA
BRANCH  21  22
HETATM   22  C21 UNL     1      -2.867   0.750   1.227  1.00  0.00     0.270 C 
HETATM   23  O12 UNL     1      -2.723   1.668   0.145  1.00  0.00    -0.326 OA
HETATM   24  C22 UNL     1      -3.920   2.320  -0.287  1.00  0.00     0.184 C 
HETATM   25  C23 UNL     1      -4.557   3.121   0.877  1.00  0.00     0.215 C 
HETATM   26  C24 UNL     1      -4.770   2.215   2.113  1.00  0.00     0.220 C 
HETATM   27  O15 UNL     1      -3.727   4.229   1.199  1.00  0.00    -0.218 OA
HETATM   28  C25 UNL     1      -3.457   1.481   2.465  1.00  0.00     0.241 C 
HETATM   29  O14 UNL     1      -5.250   2.967   3.217  1.00  0.00    -0.218 OA
HETATM   30  O13 UNL     1      -3.656   0.564   3.529  1.00  0.00    -0.215 OA
BRANCH  24  31
HETATM   31  C26 UNL     1      -3.565   3.184  -1.504  1.00  0.00     0.214 C 
HETATM   32  O16 UNL     1      -3.301   2.326  -2.590  1.00  0.00    -0.218 OA
ENDBRANCH  24  31
ENDBRANCH  21  22
ENDBRANCH  16  21
BRANCH  17  33
HETATM   33  C20 UNL     1      -4.842  -1.832  -1.996  1.00  0.00     0.218 C 
HETATM   34  O9  UNL     1      -5.746  -0.828  -1.592  1.00  0.00    -0.218 OA
ENDBRANCH  17  33
ENDBRANCH  14  15
ENDBRANCH   2  14
BRANCH  10  35
HETATM   35  C10 UNL     1       6.428   0.125  -0.359  1.00  0.00     0.025 A 
HETATM   36  C11 UNL     1       7.678  -0.037   0.262  1.00  0.00     0.004 A 
HETATM   37  C12 UNL     1       8.746   0.811  -0.076  1.00  0.00     0.030 A 
HETATM   38  C13 UNL     1       8.570   1.822  -1.035  1.00  0.00     0.156 A 
HETATM   39  C14 UNL     1       7.320   1.988  -1.658  1.00  0.00     0.156 A 
HETATM   40  O4  UNL     1       9.578   2.613  -1.346  1.00  0.00    -0.188 OA
HETATM   41  C15 UNL     1       6.252   1.139  -1.320  1.00  0.00     0.032 A 
HETATM   42  O3  UNL     1       7.147   2.936  -2.559  1.00  0.00    -0.188 OA
ENDBRANCH  10  35
TORSDOF 7
