REMARK  23 active torsions:
REMARK  status: ('A' for Active; 'I' for Inactive)
REMARK    1  A    between atoms: C5_5  and  C7_7 
REMARK    2  A    between atoms: C7_7  and  C8_8 
REMARK    3  A    between atoms: C8_8  and  C9_9 
REMARK    4  A    between atoms: C9_9  and  C10_10 
REMARK    5  A    between atoms: C10_10  and  C11_11 
REMARK    6  A    between atoms: C11_11  and  C12_12 
REMARK    7  A    between atoms: C12_12  and  C13_13 
REMARK    8  A    between atoms: C13_13  and  C14_14 
REMARK    9  A    between atoms: C14_14  and  C15_15 
REMARK   10  A    between atoms: C15_15  and  C16_16 
REMARK   11  A    between atoms: C16_16  and  C17_17 
REMARK   12  A    between atoms: C17_17  and  C18_18 
REMARK   13  A    between atoms: C18_18  and  C19_19 
REMARK   14  A    between atoms: C19_19  and  C20_20 
REMARK   15  A    between atoms: C20_20  and  C21_21 
REMARK   16  A    between atoms: C21_21  and  C22_22 
REMARK   17  A    between atoms: C22_22  and  C23_23 
REMARK   18  A    between atoms: C23_23  and  C24_24 
REMARK   19  A    between atoms: C24_24  and  C25_25 
REMARK   20  A    between atoms: C25_25  and  C26_26 
REMARK   21  A    between atoms: C26_26  and  C27_27 
REMARK   22  A    between atoms: C27_27  and  C28_28 
REMARK   23  A    between atoms: C28_28  and  C29_29 
ROOT
HETATM    1  C14 UNL     1      -2.907  -1.544   0.000  1.00  0.00     0.000 C 
ENDROOT
BRANCH   1   2
HETATM    2  C13 UNL     1      -4.417  -1.303   0.000  1.00  0.00     0.000 C 
BRANCH   2   3
HETATM    3  C12 UNL     1      -5.222  -2.603   0.000  1.00  0.00     0.000 C 
BRANCH   3   4
HETATM    4  C11 UNL     1      -6.732  -2.362   0.000  1.00  0.00     0.000 C 
BRANCH   4   5
HETATM    5  C10 UNL     1      -7.537  -3.662   0.000  1.00  0.00     0.000 C 
BRANCH   5   6
HETATM    6  C9  UNL     1      -9.047  -3.421   0.000  1.00  0.00     0.000 C 
BRANCH   6   7
HETATM    7  C8  UNL     1      -9.851  -4.721   0.000  1.00  0.00     0.005 C 
BRANCH   7   8
HETATM    8  C7  UNL     1     -11.361  -4.480   0.000  1.00  0.00     0.026 C 
BRANCH   8   9
HETATM    9  C5  UNL     1     -12.119  -5.758   0.000  1.00  0.00    -0.018 A 
HETATM   10  C4  UNL     1     -13.525  -5.743   0.000  1.00  0.00     0.023 A 
HETATM   11  C3  UNL     1     -14.245  -6.951   0.000  1.00  0.00     0.133 A 
HETATM   12  C2  UNL     1     -13.552  -8.174   0.000  1.00  0.00     0.055 A 
HETATM   13  O1  UNL     1     -15.562  -6.936   0.000  1.00  0.00    -0.190 OA
HETATM   14  C1  UNL     1     -12.146  -8.195   0.000  1.00  0.00     0.133 A 
HETATM   15  C6  UNL     1     -11.431  -6.984   0.000  1.00  0.00     0.023 A 
HETATM   16  O2  UNL     1     -11.501  -9.344   0.000  1.00  0.00    -0.190 OA
ENDBRANCH   8   9
ENDBRANCH   7   8
ENDBRANCH   6   7
ENDBRANCH   5   6
ENDBRANCH   4   5
ENDBRANCH   3   4
ENDBRANCH   2   3
ENDBRANCH   1   2
BRANCH   1  17
HETATM   17  C15 UNL     1      -2.102  -0.244   0.000  1.00  0.00     0.000 C 
BRANCH  17  18
HETATM   18  C16 UNL     1      -0.592  -0.484   0.000  1.00  0.00     0.000 C 
BRANCH  18  19
HETATM   19  C17 UNL     1       0.213   0.816   0.000  1.00  0.00     0.000 C 
BRANCH  19  20
HETATM   20  C18 UNL     1       1.723   0.575   0.000  1.00  0.00     0.000 C 
BRANCH  20  21
HETATM   21  C19 UNL     1       2.528   1.875   0.000  1.00  0.00     0.000 C 
BRANCH  21  22
HETATM   22  C20 UNL     1       4.037   1.634   0.000  1.00  0.00     0.000 C 
BRANCH  22  23
HETATM   23  C21 UNL     1       4.842   2.934   0.000  1.00  0.00     0.000 C 
BRANCH  23  24
HETATM   24  C22 UNL     1       6.352   2.693   0.000  1.00  0.00     0.000 C 
BRANCH  24  25
HETATM   25  C23 UNL     1       7.157   3.993   0.000  1.00  0.00     0.000 C 
BRANCH  25  26
HETATM   26  C24 UNL     1       8.667   3.752   0.000  1.00  0.00     0.000 C 
BRANCH  26  27
HETATM   27  C25 UNL     1       9.472   5.052   0.000  1.00  0.00     0.000 C 
BRANCH  27  28
HETATM   28  C26 UNL     1      10.982   4.811   0.000  1.00  0.00     0.000 C 
BRANCH  28  29
HETATM   29  C27 UNL     1      11.787   6.111   0.000  1.00  0.00     0.000 C 
BRANCH  29  30
HETATM   30  C28 UNL     1      13.297   5.870   0.000  1.00  0.00     0.000 C 
BRANCH  30  31
HETATM   31  C29 UNL     1      14.102   7.170   0.000  1.00  0.00     0.000 C 
HETATM   32  C30 UNL     1      15.612   6.929   0.000  1.00  0.00     0.000 C 
ENDBRANCH  30  31
ENDBRANCH  29  30
ENDBRANCH  28  29
ENDBRANCH  27  28
ENDBRANCH  26  27
ENDBRANCH  25  26
ENDBRANCH  24  25
ENDBRANCH  23  24
ENDBRANCH  22  23
ENDBRANCH  21  22
ENDBRANCH  20  21
ENDBRANCH  19  20
ENDBRANCH  18  19
ENDBRANCH  17  18
ENDBRANCH   1  17
TORSDOF 23
