REMARK  0 active torsions:
REMARK  status: ('A' for Active; 'I' for Inactive)
ROOT
HETATM    1  C1  UNL     1      -1.131   0.988  -0.703  1.00  0.00     0.029 C 
HETATM    2  C2  UNL     1      -1.049  -0.492  -0.252  1.00  0.00     0.039 C 
HETATM    3  C3  UNL     1       0.086  -0.781   0.752  1.00  0.00     0.132 C 
HETATM    4  C4  UNL     1       1.484  -0.693   0.094  1.00  0.00     0.086 C 
HETATM    5  C5  UNL     1       2.172   0.676   0.272  1.00  0.00     0.163 C 
HETATM    6  C6  UNL     1       1.223   1.873   0.053  1.00  0.00     0.055 C 
HETATM    7  C7  UNL     1       0.189   1.664  -1.037  1.00  0.00    -0.042 C 
HETATM    8  C8  UNL     1       0.443   2.084  -2.289  1.00  0.00    -0.009 C 
HETATM    9  O1  UNL     1       3.248   0.772  -0.644  1.00  0.00    -0.223 OA
HETATM   10  C9  UNL     1       2.162  -1.855   0.756  1.00  0.00     0.045 C 
HETATM   11  C10 UNL     1       1.150  -2.666   1.410  1.00  0.00     0.292 C 
HETATM   12  O2  UNL     1      -0.053  -2.107   1.287  1.00  0.00    -0.301 OA
HETATM   13  O3  UNL     1       1.387  -3.709   1.977  1.00  0.00    -0.260 OA
HETATM   14  C11 UNL     1       3.486  -2.098   0.740  1.00  0.00     0.001 C 
HETATM   15  C12 UNL     1      -2.439  -0.740   0.365  1.00  0.00     0.060 C 
HETATM   16  C13 UNL     1      -2.859   0.596   0.901  1.00  0.00     0.151 C 
HETATM   17  C14 UNL     1      -1.953   1.674   0.397  1.00  0.00     0.069 C 
HETATM   18  O4  UNL     1      -3.801   0.776   1.637  1.00  0.00    -0.296 OA
HETATM   19  C15 UNL     1      -3.418  -1.224  -0.699  1.00  0.00     0.008 C 
ENDROOT
TORSDOF 0
