REMARK  1 active torsions:
REMARK  status: ('A' for Active; 'I' for Inactive)
REMARK    1  A    between atoms: C5_5  and  O2_8 
ROOT
HETATM    1  C1  UNL     1      -1.691  -1.405   0.026  1.00  0.00     0.029 A 
HETATM    2  C2  UNL     1      -2.386  -0.184   0.026  1.00  0.00     0.002 A 
HETATM    3  C3  UNL     1      -1.675   1.028   0.026  1.00  0.00     0.002 A 
HETATM    4  C4  UNL     1      -0.270   1.017   0.026  1.00  0.00     0.026 A 
HETATM    5  C5  UNL     1       0.428  -0.204   0.026  1.00  0.00     0.119 A 
HETATM    6  C6  UNL     1      -0.285  -1.419   0.026  1.00  0.00     0.153 A 
HETATM    7  O1  UNL     1       0.360  -2.568   0.026  1.00  0.00    -0.188 OA
ENDROOT
BRANCH   5   8
HETATM    8  O2  UNL     1       1.746  -0.206   0.026  1.00  0.00    -0.326 OA
HETATM    9  C7  UNL     1       2.413   1.043  -0.087  1.00  0.00     0.181 C 
ENDBRANCH   5   8
TORSDOF 1
