REMARK  2 active torsions:
REMARK  status: ('A' for Active; 'I' for Inactive)
REMARK    1  A    between atoms: C4_4  and  C9_10 
REMARK    2  A    between atoms: C7_7  and  C8_8 
ROOT
HETATM    1  C1  UNL     1      -0.842  -1.297  -0.228  1.00  0.00    -0.050 C 
HETATM    2  C2  UNL     1      -0.959   0.055  -0.889  1.00  0.00     0.018 C 
HETATM    3  C3  UNL     1      -0.070   1.158  -0.289  1.00  0.00     0.008 C 
HETATM    4  C4  UNL     1       1.424   1.055  -0.639  1.00  0.00     0.019 C 
HETATM    5  C5  UNL     1       2.113  -0.180  -0.031  1.00  0.00     0.008 C 
HETATM    6  C6  UNL     1       1.627  -1.512  -0.615  1.00  0.00     0.024 C 
HETATM    7  C7  UNL     1       0.303  -1.994  -0.068  1.00  0.00    -0.019 C 
HETATM    8  C12 UNL     1      -2.459   0.399  -0.750  1.00  0.00     0.004 C 
HETATM    9  C13 UNL     1      -3.152  -0.969  -0.644  1.00  0.00     0.005 C 
HETATM   10  C14 UNL     1      -2.191  -1.789   0.209  1.00  0.00     0.021 C 
HETATM   11  C15 UNL     1      -2.811   1.184   0.516  1.00  0.00     0.000 C 
ENDROOT
BRANCH   4  12
HETATM   12  C9  UNL     1       2.141   2.309  -0.191  1.00  0.00    -0.044 C 
HETATM   13  C10 UNL     1       2.301   2.690   1.256  1.00  0.00     0.026 C 
HETATM   14  C11 UNL     1       2.658   3.117  -1.129  1.00  0.00    -0.009 C 
ENDBRANCH   4  12
BRANCH   7  15
HETATM   15  C8  UNL     1       0.295  -3.314   0.662  1.00  0.00     0.204 C 
HETATM   16  O1  UNL     1       0.188  -3.084   2.049  1.00  0.00    -0.216 OA
ENDBRANCH   7  15
TORSDOF 2
