REMARK  2 active torsions:
REMARK  status: ('A' for Active; 'I' for Inactive)
REMARK    1  A    between atoms: C4_4  and  C9_11 
REMARK    2  A    between atoms: C7_7  and  C8_8 
ROOT
HETATM    1  C1  UNL     1      -0.853  -1.354  -0.144  1.00  0.00    -0.043 C 
HETATM    2  C2  UNL     1      -0.969  -0.002  -0.807  1.00  0.00     0.018 C 
HETATM    3  C3  UNL     1      -0.086   1.107  -0.209  1.00  0.00     0.008 C 
HETATM    4  C4  UNL     1       1.408   1.008  -0.559  1.00  0.00     0.019 C 
HETATM    5  C5  UNL     1       2.096  -0.229   0.047  1.00  0.00     0.009 C 
HETATM    6  C6  UNL     1       1.602  -1.559  -0.539  1.00  0.00     0.032 C 
HETATM    7  C7  UNL     1       0.287  -2.057   0.022  1.00  0.00     0.034 C 
HETATM    8  C12 UNL     1      -2.467   0.348  -0.674  1.00  0.00     0.004 C 
HETATM    9  C13 UNL     1      -3.164  -1.018  -0.570  1.00  0.00     0.005 C 
HETATM   10  C14 UNL     1      -2.209  -1.838   0.289  1.00  0.00     0.022 C 
HETATM   11  C15 UNL     1      -2.822   1.133   0.592  1.00  0.00     0.000 C 
ENDROOT
BRANCH   4  12
HETATM   12  C9  UNL     1       2.125   2.258  -0.111  1.00  0.00    -0.044 C 
HETATM   13  C10 UNL     1       2.283   2.637   1.338  1.00  0.00     0.026 C 
HETATM   14  C11 UNL     1       2.643   3.070  -1.047  1.00  0.00    -0.009 C 
ENDBRANCH   4  12
BRANCH   7  15
HETATM   15  C8  UNL     1       0.289  -3.340   0.744  1.00  0.00     0.206 C 
HETATM   16  O1  UNL     1      -0.240  -3.432   1.828  1.00  0.00    -0.644 OA
HETATM   17  O2  UNL     1       0.897  -4.350   0.129  1.00  0.00    -0.644 OA
ENDBRANCH   7  15
TORSDOF 2
