REMARK  1 active torsions:
REMARK  status: ('A' for Active; 'I' for Inactive)
REMARK    1  A    between atoms: C4_4  and  C13_15 
ROOT
HETATM    1  C1  UNL     1      -0.713  -1.377   0.199  1.00  0.00     0.037 C 
HETATM    2  C2  UNL     1      -1.097   0.080   0.307  1.00  0.00     0.003 C 
HETATM    3  C3  UNL     1       0.002   0.961  -0.293  1.00  0.00     0.004 C 
HETATM    4  C4  UNL     1       1.295   0.928   0.570  1.00  0.00     0.018 C 
HETATM    5  C5  UNL     1       2.246  -0.283   0.354  1.00  0.00     0.004 C 
HETATM    6  C6  UNL     1       1.696  -1.703   0.631  1.00  0.00     0.010 C 
HETATM    7  C7  UNL     1       0.567  -1.984  -0.353  1.00  0.00     0.089 C 
HETATM    8  C8  UNL     1       0.024  -3.379  -0.578  1.00  0.00     0.271 C 
HETATM    9  O1  UNL     1      -1.299  -3.357  -0.818  1.00  0.00    -0.304 OA
HETATM   10  C9  UNL     1      -1.578  -1.965  -0.891  1.00  0.00     0.125 C 
HETATM   11  C10 UNL     1      -2.931  -1.439  -0.459  1.00  0.00     0.030 C 
HETATM   12  C11 UNL     1      -2.504   0.045  -0.346  1.00  0.00     0.003 C 
HETATM   13  C12 UNL     1      -3.537   0.828   0.459  1.00  0.00     0.000 C 
HETATM   14  O2  UNL     1       0.713  -4.371  -0.527  1.00  0.00    -0.264 OA
ENDROOT
BRANCH   4  15
HETATM   15  C13 UNL     1       2.084   2.195   0.330  1.00  0.00    -0.044 C 
HETATM   16  C14 UNL     1       2.574   2.610  -1.031  1.00  0.00     0.026 C 
HETATM   17  C15 UNL     1       2.362   2.986   1.381  1.00  0.00    -0.009 C 
ENDBRANCH   4  15
TORSDOF 1
