REMARK  1 active torsions:
REMARK  status: ('A' for Active; 'I' for Inactive)
REMARK    1  A    between atoms: C4_4  and  C9_9 
ROOT
HETATM    1  C1  UNL     1      -0.889  -1.139   0.676  1.00  0.00    -0.052 C 
HETATM    2  C2  UNL     1      -1.125   0.113   0.260  1.00  0.00    -0.052 C 
HETATM    3  C3  UNL     1      -0.149   1.277   0.229  1.00  0.00     0.025 C 
HETATM    4  C4  UNL     1       1.365   0.959   0.264  1.00  0.00     0.022 C 
HETATM    5  C5  UNL     1       1.730  -0.293  -0.561  1.00  0.00     0.004 C 
HETATM    6  C6  UNL     1       1.560  -1.621   0.203  1.00  0.00     0.004 C 
HETATM    7  C7  UNL     1       0.418  -1.654   1.236  1.00  0.00     0.018 C 
HETATM    8  C8  UNL     1       0.273  -3.059   1.834  1.00  0.00     0.004 C 
HETATM    9  C12 UNL     1      -2.547   0.260  -0.215  1.00  0.00     0.018 C 
HETATM   10  C13 UNL     1      -3.039  -1.188  -0.389  1.00  0.00     0.008 C 
HETATM   11  C14 UNL     1      -2.112  -2.000   0.523  1.00  0.00     0.022 C 
HETATM   12  C15 UNL     1      -2.703   1.035  -1.520  1.00  0.00     0.004 C 
ENDROOT
BRANCH   4  13
HETATM   13  C9  UNL     1       2.150   2.160  -0.207  1.00  0.00    -0.044 C 
HETATM   14  C10 UNL     1       2.037   2.717  -1.602  1.00  0.00     0.026 C 
HETATM   15  C11 UNL     1       2.986   2.758   0.656  1.00  0.00    -0.009 C 
ENDBRANCH   4  13
TORSDOF 1
