REMARK  1 active torsions:
REMARK  status: ('A' for Active; 'I' for Inactive)
REMARK    1  A    between atoms: C4_4  and  C9_9 
ROOT
HETATM    1  C1  UNL     1      -0.611  -1.025  -1.184  1.00  0.00    -0.052 C 
HETATM    2  C2  UNL     1      -0.869  -0.842   0.289  1.00  0.00     0.018 C 
HETATM    3  C3  UNL     1      -0.215   0.441   0.830  1.00  0.00     0.008 C 
HETATM    4  C4  UNL     1       1.303   0.299   1.086  1.00  0.00     0.019 C 
HETATM    5  C5  UNL     1       2.150   0.037  -0.176  1.00  0.00     0.008 C 
HETATM    6  C6  UNL     1       1.850  -1.297  -0.879  1.00  0.00     0.022 C 
HETATM    7  C7  UNL     1       0.600  -1.248  -1.729  1.00  0.00    -0.052 C 
HETATM    8  C8  UNL     1       0.752  -1.451  -3.215  1.00  0.00     0.026 C 
HETATM    9  C12 UNL     1      -2.410  -0.857   0.357  1.00  0.00     0.004 C 
HETATM   10  C13 UNL     1      -2.856  -0.270  -0.986  1.00  0.00     0.004 C 
HETATM   11  C14 UNL     1      -1.885  -0.912  -1.973  1.00  0.00     0.021 C 
HETATM   12  C15 UNL     1      -3.049  -0.115   1.525  1.00  0.00     0.000 C 
ENDROOT
BRANCH   4  13
HETATM   13  C9  UNL     1       1.816   1.527   1.797  1.00  0.00    -0.044 C 
HETATM   14  C10 UNL     1       1.715   2.912   1.219  1.00  0.00     0.026 C 
HETATM   15  C11 UNL     1       2.393   1.377   3.002  1.00  0.00    -0.009 C 
ENDBRANCH   4  13
TORSDOF 1
