REMARK  4 active torsions:
REMARK  status: ('A' for Active; 'I' for Inactive)
REMARK    1  A    between atoms: C1_1  and  C16_21 
REMARK    2  A    between atoms: C7_8  and  C10_13 
REMARK    3  A    between atoms: C8_9  and  C9_11 
REMARK    4  A    between atoms: C17_22  and  C18_23 
ROOT
HETATM    1  C1  UNL     1      -2.875  -0.180   0.027  1.00  0.00    -0.002 C 
HETATM    2  C2  UNL     1      -2.451   0.428  -1.100  1.00  0.00     0.006 C 
HETATM    3  C3  UNL     1      -1.647  -0.311  -2.156  1.00  0.00     0.169 C 
HETATM    4  C4  UNL     1      -1.053  -1.691  -1.715  1.00  0.00     0.169 C 
HETATM    5  C5  UNL     1      -1.736  -2.309  -0.514  1.00  0.00     0.006 C 
HETATM    6  C6  UNL     1      -2.561  -1.596   0.277  1.00  0.00    -0.002 C 
HETATM    7  O1  UNL     1       0.350  -1.623  -1.463  1.00  0.00    -0.345 OA
HETATM    8  C7  UNL     1       0.771  -0.418  -0.844  1.00  0.00     0.168 C 
HETATM    9  C8  UNL     1       0.459   0.799  -1.772  1.00  0.00     0.180 C 
HETATM   10  O2  UNL     1      -0.619   0.533  -2.670  1.00  0.00    -0.346 OA
ENDROOT
BRANCH   8  11
HETATM   11  C10 UNL     1       2.219  -0.523  -0.518  1.00  0.00     0.009 A 
HETATM   12  C11 UNL     1       3.160  -0.697  -1.547  1.00  0.00     0.028 A 
HETATM   13  C12 UNL     1       4.531  -0.797  -1.244  1.00  0.00     0.156 A 
HETATM   14  C13 UNL     1       4.959  -0.721   0.096  1.00  0.00     0.156 A 
HETATM   15  O5  UNL     1       5.408  -0.961  -2.213  1.00  0.00    -0.188 OA
HETATM   16  C14 UNL     1       4.016  -0.545   1.123  1.00  0.00     0.029 A 
HETATM   17  O4  UNL     1       6.240  -0.813   0.389  1.00  0.00    -0.188 OA
HETATM   18  C15 UNL     1       2.648  -0.445   0.818  1.00  0.00     0.000 A 
ENDBRANCH   8  11
BRANCH   9  19
HETATM   19  C9  UNL     1       0.129   2.068  -0.977  1.00  0.00     0.215 C 
HETATM   20  O3  UNL     1       1.330   2.584  -0.447  1.00  0.00    -0.218 OA
ENDBRANCH   9  19
BRANCH   1  21
HETATM   21  C16 UNL     1      -3.658   0.578   1.014  1.00  0.00    -0.002 C 
HETATM   22  C17 UNL     1      -3.408   0.453   2.328  1.00  0.00     0.009 C 
BRANCH  22  23
HETATM   23  C18 UNL     1      -4.240   1.250   3.297  1.00  0.00     0.209 C 
HETATM   24  O6  UNL     1      -4.131   0.688   4.584  1.00  0.00    -0.215 OA
ENDBRANCH  22  23
ENDBRANCH   1  21
TORSDOF 4
