REMARK  1 active torsions:
REMARK  status: ('A' for Active; 'I' for Inactive)
REMARK    1  A    between atoms: C6_6  and  C8_8 
ROOT
HETATM    1  C1  UNL     1      -1.238  -0.076   0.240  1.00  0.00    -0.052 C 
HETATM    2  C2  UNL     1      -1.002  -1.330   0.658  1.00  0.00    -0.052 C 
HETATM    3  C3  UNL     1       0.306  -1.842   1.219  1.00  0.00     0.018 C 
HETATM    4  C4  UNL     1       1.447  -1.813   0.184  1.00  0.00     0.004 C 
HETATM    5  C5  UNL     1       1.615  -0.484  -0.582  1.00  0.00     0.003 C 
HETATM    6  C6  UNL     1       1.252   0.766   0.244  1.00  0.00     0.032 C 
HETATM    7  C7  UNL     1      -0.260   1.084   0.211  1.00  0.00     0.024 C 
HETATM    8  C11 UNL     1       0.160  -3.244   1.818  1.00  0.00     0.004 C 
HETATM    9  C12 UNL     1      -2.225  -2.191   0.504  1.00  0.00     0.022 C 
HETATM   10  C13 UNL     1      -3.151  -1.377  -0.408  1.00  0.00     0.008 C 
HETATM   11  C14 UNL     1      -2.660   0.070  -0.234  1.00  0.00     0.018 C 
HETATM   12  C15 UNL     1      -2.815   0.846  -1.539  1.00  0.00     0.004 C 
ENDROOT
BRANCH   6  13
HETATM   13  C8  UNL     1       2.055   1.984  -0.230  1.00  0.00     0.127 C 
HETATM   14  C9  UNL     1       2.025   2.154  -1.748  1.00  0.00     0.033 C 
HETATM   15  C10 UNL     1       1.676   3.266   0.514  1.00  0.00     0.033 C 
HETATM   16  O1  UNL     1       3.363   1.623   0.148  1.00  0.00    -0.226 OA
ENDBRANCH   6  13
TORSDOF 1
