REMARK  0 active torsions:
REMARK  status: ('A' for Active; 'I' for Inactive)
ROOT
HETATM    1  C1  UNL     1       2.701   1.144  -0.682  1.00  0.00     0.025 C 
HETATM    2  C2  UNL     1       2.756   0.027   0.369  1.00  0.00     0.005 C 
HETATM    3  C3  UNL     1       1.436  -0.750   0.404  1.00  0.00     0.004 C 
HETATM    4  C4  UNL     1       0.260   0.199   0.752  1.00  0.00     0.015 C 
HETATM    5  C5  UNL     1       0.315   1.519   0.000  1.00  0.00    -0.049 C 
HETATM    6  C6  UNL     1       1.424   1.951  -0.637  1.00  0.00    -0.034 C 
HETATM    7  C7  UNL     1      -0.957   2.342   0.004  1.00  0.00     0.022 C 
HETATM    8  C8  UNL     1      -2.129   1.586  -0.635  1.00  0.00     0.004 C 
HETATM    9  C9  UNL     1      -2.254   0.152  -0.103  1.00  0.00     0.001 A 
HETATM   10  C10 UNL     1      -1.068  -0.553   0.537  1.00  0.00     0.003 A 
HETATM   11  C11 UNL     1      -1.560  -0.987  -0.838  1.00  0.00     0.000 A 
HETATM   12  C12 UNL     1      -2.301  -2.315  -0.916  1.00  0.00     0.000 C 
HETATM   13  C13 UNL     1      -0.738  -0.658  -2.080  1.00  0.00     0.000 C 
HETATM   14  C14 UNL     1       0.268   0.543   2.250  1.00  0.00     0.004 C 
HETATM   15  C15 UNL     1       1.524  -1.951   1.356  1.00  0.00     0.000 C 
ENDROOT
TORSDOF 0
