REMARK  4 active torsions:
REMARK  status: ('A' for Active; 'I' for Inactive)
REMARK    1  A    between atoms: C1_2  and  C6_8 
REMARK    2  A    between atoms: C6_8  and  N2_9 
REMARK    3  A    between atoms: N6_18  and  C12_19 
REMARK    4  A    between atoms: C15_22  and  C16_24 
ROOT
HETATM    1  N2  UNL     1      -1.438   2.182  -0.615  1.00  0.00    -0.245 NA
HETATM    2  C7  UNL     1      -1.479   0.848  -0.465  1.00  0.00     0.181 A 
HETATM    3  N3  UNL     1      -2.682   0.152  -0.408  1.00  0.00    -0.204 NA
HETATM    4  C8  UNL     1      -2.592  -1.242  -0.248  1.00  0.00     0.202 A 
HETATM    5  N4  UNL     1      -1.377  -1.934  -0.148  1.00  0.00    -0.205 NA
HETATM    6  C9  UNL     1      -0.273  -1.109  -0.221  1.00  0.00     0.169 A 
HETATM    7  C10 UNL     1      -0.189   0.254  -0.373  1.00  0.00     0.153 A 
HETATM    8  N5  UNL     1       1.092   0.668  -0.396  1.00  0.00    -0.219 NA
HETATM    9  C11 UNL     1       1.801  -0.510  -0.250  1.00  0.00     0.182 A 
HETATM   10  N6  UNL     1       0.977  -1.617  -0.142  1.00  0.00    -0.270 N 
ENDROOT
BRANCH   1  11
HETATM   11  C6  UNL     1      -2.688   2.949  -0.724  1.00  0.00     0.173 C 
BRANCH  11  12
HETATM   12  C1  UNL     1      -2.428   4.402  -0.883  1.00  0.00     0.084 A 
HETATM   13  N1  UNL     1      -2.182   5.158   0.229  1.00  0.00    -0.244 NA
HETATM   14  C5  UNL     1      -1.940   6.494   0.098  1.00  0.00     0.126 A 
HETATM   15  C4  UNL     1      -1.936   7.123  -1.164  1.00  0.00     0.150 A 
HETATM   16  C3  UNL     1      -2.188   6.352  -2.312  1.00  0.00     0.030 A 
HETATM   17  O1  UNL     1      -1.699   8.416  -1.265  1.00  0.00    -0.189 OA
HETATM   18  C2  UNL     1      -2.436   4.977  -2.168  1.00  0.00     0.019 A 
ENDBRANCH  11  12
ENDBRANCH   1  11
BRANCH  10  19
HETATM   19  C12 UNL     1       1.395  -3.020   0.022  1.00  0.00     0.241 C 
HETATM   20  C13 UNL     1       2.906  -3.248   0.041  1.00  0.00     0.234 C 
HETATM   21  C14 UNL     1       3.031  -4.567   0.850  1.00  0.00     0.216 C 
HETATM   22  O5  UNL     1       3.439  -3.303  -1.271  1.00  0.00    -0.216 OA
HETATM   23  C15 UNL     1       1.695  -4.656   1.617  1.00  0.00     0.183 C 
HETATM   24  O4  UNL     1       3.178  -5.719   0.035  1.00  0.00    -0.218 OA
HETATM   25  O2  UNL     1       1.033  -3.451   1.311  1.00  0.00    -0.331 OA
BRANCH  23  26
HETATM   26  C16 UNL     1       1.861  -4.744   3.129  1.00  0.00     0.214 C 
HETATM   27  O3  UNL     1       0.590  -4.945   3.701  1.00  0.00    -0.218 OA
ENDBRANCH  23  26
ENDBRANCH  10  19
TORSDOF 4
