REMARK  5 active torsions:
REMARK  status: ('A' for Active; 'I' for Inactive)
REMARK    1  A    between atoms: C6_8  and  C15_19 
REMARK    2  A    between atoms: C8_10  and  C10_13 
REMARK    3  A    between atoms: C10_13  and  C11_14 
REMARK    4  A    between atoms: C15_19  and  C16_20 
REMARK    5  A    between atoms: C22_26  and  C23_28 
ROOT
HETATM    1  C1  UNL     1       0.426   0.049   3.352  1.00  0.00     0.038 A 
HETATM    2  C2  UNL     1       0.143   1.217   2.730  1.00  0.00    -0.017 A 
HETATM    3  C3  UNL     1      -0.055   1.211   1.246  1.00  0.00     0.044 A 
HETATM    4  C4  UNL     1       0.061  -0.027   0.555  1.00  0.00     0.110 A 
HETATM    5  O1  UNL     1       0.344  -1.164   1.232  1.00  0.00    -0.273 OA
HETATM    6  C5  UNL     1       0.531  -1.203   2.564  1.00  0.00     0.296 A 
HETATM    7  O2  UNL     1       0.785  -2.234   3.143  1.00  0.00    -0.259 OA
HETATM    8  C6  UNL     1      -0.121  -0.072  -0.850  1.00  0.00     0.087 A 
HETATM    9  C7  UNL     1      -0.418   1.111  -1.568  1.00  0.00     0.134 A 
HETATM   10  C8  UNL     1      -0.533   2.344  -0.883  1.00  0.00     0.033 A 
HETATM   11  C9  UNL     1      -0.353   2.400   0.521  1.00  0.00     0.131 A 
HETATM   12  O3  UNL     1      -0.469   3.584   1.143  1.00  0.00    -0.190 OA
HETATM   13  O4  UNL     1      -0.590   1.066  -2.900  1.00  0.00    -0.190 OA
HETATM   14  C26 UNL     1       0.035   2.484   3.545  1.00  0.00     0.031 C 
HETATM   15  C27 UNL     1       0.637   0.004   4.846  1.00  0.00     0.036 C 
ENDROOT
BRANCH   8  16
HETATM   16  C15 UNL     1      -0.002  -1.361  -1.566  1.00  0.00     0.199 C 
HETATM   17  O6  UNL     1       0.625  -1.615  -2.568  1.00  0.00    -0.286 OA
BRANCH  16  18
HETATM   18  C16 UNL     1      -0.785  -2.410  -0.893  1.00  0.00     0.033 C 
HETATM   19  C17 UNL     1      -2.131  -2.299  -0.949  1.00  0.00    -0.023 C 
HETATM   20  C18 UNL     1      -3.059  -3.303  -0.307  1.00  0.00     0.026 C 
HETATM   21  C19 UNL     1      -2.404  -4.678  -0.182  1.00  0.00     0.009 C 
HETATM   22  C20 UNL     1      -1.033  -4.582   0.500  1.00  0.00     0.025 C 
HETATM   23  C21 UNL     1      -0.133  -3.553  -0.172  1.00  0.00     0.002 C 
HETATM   24  C25 UNL     1      -1.174  -4.264   1.992  1.00  0.00     0.005 C 
HETATM   25  C22 UNL     1       1.209  -3.740  -0.072  1.00  0.00     0.105 C 
HETATM   26  O5  UNL     1       1.690  -4.785   0.600  1.00  0.00    -0.195 OA
BRANCH  25  27
HETATM   27  C23 UNL     1       2.203  -2.799  -0.703  1.00  0.00     0.054 C 
HETATM   28  C24 UNL     1       3.643  -3.107  -0.287  1.00  0.00     0.007 C 
ENDBRANCH  25  27
ENDBRANCH  16  18
ENDBRANCH   8  16
BRANCH  10  29
HETATM   29  C10 UNL     1      -0.840   3.574  -1.635  1.00  0.00     0.056 C 
BRANCH  29  30
HETATM   30  C11 UNL     1       0.404   4.303  -2.065  1.00  0.00    -0.030 C 
HETATM   31  C12 UNL     1       0.295   5.266  -2.994  1.00  0.00    -0.048 C 
HETATM   32  C13 UNL     1      -0.988   5.701  -3.647  1.00  0.00     0.026 C 
HETATM   33  C14 UNL     1       1.543   5.984  -3.436  1.00  0.00     0.026 C 
ENDBRANCH  29  30
ENDBRANCH  10  29
TORSDOF 5
