REMARK  14 active torsions:
REMARK  status: ('A' for Active; 'I' for Inactive)
REMARK    1  A    between atoms: C2_2  and  O15_57 
REMARK    2  A    between atoms: C15_17  and  C18_20 
REMARK    3  A    between atoms: C18_20  and  C19_21 
REMARK    4  A    between atoms: C18_20  and  O4_28 
REMARK    5  A    between atoms: C19_21  and  C20_22 
REMARK    6  A    between atoms: C20_22  and  C21_23 
REMARK    7  A    between atoms: C22_24  and  C24_26 
REMARK    8  A    between atoms: O4_28  and  C25_29 
REMARK    9  A    between atoms: C26_31  and  C30_38 
REMARK   10  A    between atoms: C30_38  and  O9_39 
REMARK   11  A    between atoms: O9_39  and  C31_40 
REMARK   12  A    between atoms: C32_42  and  C36_49 
REMARK   13  A    between atoms: O15_57  and  C43_58 
REMARK   14  A    between atoms: C44_60  and  C48_67 
ROOT
HETATM    1  C1  UNL     1       5.916   0.567  -0.548  1.00  0.00     0.063 C 
HETATM    2  C2  UNL     1       6.262  -0.910  -0.789  1.00  0.00     0.120 C 
HETATM    3  C3  UNL     1       5.214  -1.867  -0.167  1.00  0.00     0.025 C 
HETATM    4  C4  UNL     1       5.005  -1.529   1.350  1.00  0.00     0.005 C 
HETATM    5  C5  UNL     1       4.748  -0.020   1.683  1.00  0.00     0.029 C 
HETATM    6  C6  UNL     1       5.804   0.869   0.955  1.00  0.00     0.154 C 
HETATM    7  O1  UNL     1       7.091   0.688   1.527  1.00  0.00    -0.223 OA
HETATM    8  C7  UNL     1       3.276   0.358   1.299  1.00  0.00     0.005 C 
HETATM    9  C8  UNL     1       2.210  -0.557   1.980  1.00  0.00     0.000 C 
HETATM   10  C9  UNL     1       2.507  -2.054   1.741  1.00  0.00     0.000 C 
HETATM   11  C10 UNL     1       3.963  -2.433   2.048  1.00  0.00     0.000 C 
HETATM   12  C11 UNL     1       0.773  -0.233   1.477  1.00  0.00     0.002 C 
HETATM   13  C12 UNL     1       0.418   1.268   1.561  1.00  0.00     0.033 C 
HETATM   14  C13 UNL     1       1.525   2.173   0.978  1.00  0.00     0.152 C 
HETATM   15  C14 UNL     1       2.916   1.840   1.538  1.00  0.00     0.033 C 
HETATM   16  O2  UNL     1       1.235   3.525   1.274  1.00  0.00    -0.224 OA
HETATM   17  C15 UNL     1      -0.861   1.407   0.710  1.00  0.00     0.028 C 
HETATM   18  C16 UNL     1      -0.791   0.270  -0.318  1.00  0.00     0.002 C 
HETATM   19  C17 UNL     1       0.490  -0.504  -0.009  1.00  0.00     0.000 C 
HETATM   20  C38 UNL     1      -0.286  -1.037   2.252  1.00  0.00     0.000 C 
HETATM   21  C39 UNL     1       2.147  -0.294   3.497  1.00  0.00     0.000 C 
HETATM   22  C40 UNL     1       4.920   0.196   3.202  1.00  0.00     0.003 C 
HETATM   23  C41 UNL     1       5.733  -3.308  -0.286  1.00  0.00     0.002 C 
HETATM   24  C42 UNL     1       3.910  -1.794  -0.974  1.00  0.00     0.002 C 
ENDROOT
BRANCH  17  25
HETATM   25  C18 UNL     1      -2.110   1.278   1.580  1.00  0.00     0.096 C 
HETATM   26  C37 UNL     1      -3.289   1.957   0.881  1.00  0.00     0.030 C 
BRANCH  25  27
HETATM   27  C19 UNL     1      -1.831   1.859   2.964  1.00  0.00     0.032 C 
BRANCH  27  28
HETATM   28  C20 UNL     1      -3.099   2.335   3.672  1.00  0.00     0.028 C 
BRANCH  28  29
HETATM   29  C21 UNL     1      -2.828   3.438   4.660  1.00  0.00    -0.032 C 
HETATM   30  C22 UNL     1      -3.849   4.222   5.043  1.00  0.00    -0.015 C 
HETATM   31  C23 UNL     1      -5.214   3.957   4.464  1.00  0.00     0.029 C 
BRANCH  30  32
HETATM   32  C24 UNL     1      -3.577   5.325   6.031  1.00  0.00     0.204 C 
HETATM   33  O3  UNL     1      -2.383   5.987   5.678  1.00  0.00    -0.216 OA
ENDBRANCH  30  32
ENDBRANCH  28  29
ENDBRANCH  27  28
ENDBRANCH  25  27
BRANCH  25  34
HETATM   34  O4  UNL     1      -2.405  -0.093   1.729  1.00  0.00    -0.334 OA
BRANCH  34  35
HETATM   35  C25 UNL     1      -3.724  -0.335   2.177  1.00  0.00     0.270 C 
HETATM   36  O5  UNL     1      -4.568  -0.467   1.041  1.00  0.00    -0.326 OA
HETATM   37  C26 UNL     1      -5.945  -0.664   1.334  1.00  0.00     0.180 C 
HETATM   38  C27 UNL     1      -6.114  -1.982   2.124  1.00  0.00     0.215 C 
HETATM   39  C28 UNL     1      -5.234  -1.992   3.394  1.00  0.00     0.220 C 
HETATM   40  O8  UNL     1      -7.478  -2.123   2.485  1.00  0.00    -0.218 OA
HETATM   41  C29 UNL     1      -3.777  -1.629   3.029  1.00  0.00     0.241 C 
HETATM   42  O7  UNL     1      -5.273  -3.277   3.995  1.00  0.00    -0.218 OA
HETATM   43  O6  UNL     1      -3.027  -1.440   4.219  1.00  0.00    -0.215 OA
BRANCH  37  44
HETATM   44  C30 UNL     1      -6.684  -0.673  -0.006  1.00  0.00     0.177 C 
BRANCH  44  45
HETATM   45  O9  UNL     1      -6.706   0.645  -0.507  1.00  0.00    -0.326 OA
BRANCH  45  46
HETATM   46  C31 UNL     1      -7.386   0.761  -1.741  1.00  0.00     0.270 C 
HETATM   47  O10 UNL     1      -8.782   0.661  -1.492  1.00  0.00    -0.326 OA
HETATM   48  C32 UNL     1      -9.604   0.711  -2.651  1.00  0.00     0.184 C 
HETATM   49  C33 UNL     1      -9.410   2.074  -3.357  1.00  0.00     0.215 C 
HETATM   50  C34 UNL     1      -7.921   2.331  -3.679  1.00  0.00     0.220 C 
HETATM   51  O13 UNL     1     -10.169   2.074  -4.555  1.00  0.00    -0.218 OA
HETATM   52  C35 UNL     1      -7.063   2.122  -2.410  1.00  0.00     0.241 C 
HETATM   53  O12 UNL     1      -7.757   3.657  -4.157  1.00  0.00    -0.218 OA
HETATM   54  O11 UNL     1      -5.691   2.159  -2.762  1.00  0.00    -0.215 OA
BRANCH  48  55
HETATM   55  C36 UNL     1     -11.044   0.483  -2.182  1.00  0.00     0.214 C 
HETATM   56  O14 UNL     1     -11.171  -0.867  -1.793  1.00  0.00    -0.218 OA
ENDBRANCH  48  55
ENDBRANCH  45  46
ENDBRANCH  44  45
ENDBRANCH  37  44
ENDBRANCH  34  35
ENDBRANCH  25  34
ENDBRANCH  17  25
BRANCH   2  57
HETATM   57  O15 UNL     1       6.389  -1.126  -2.186  1.00  0.00    -0.332 OA
BRANCH  57  58
HETATM   58  C43 UNL     1       7.504  -1.926  -2.524  1.00  0.00     0.270 C 
HETATM   59  O16 UNL     1       7.096  -2.874  -3.503  1.00  0.00    -0.326 OA
HETATM   60  C44 UNL     1       8.103  -3.789  -3.912  1.00  0.00     0.184 C 
HETATM   61  C45 UNL     1       9.268  -3.010  -4.560  1.00  0.00     0.215 C 
HETATM   62  C46 UNL     1       9.815  -1.920  -3.610  1.00  0.00     0.220 C 
HETATM   63  O19 UNL     1      10.300  -3.925  -4.884  1.00  0.00    -0.218 OA
HETATM   64  C47 UNL     1       8.650  -1.048  -3.086  1.00  0.00     0.241 C 
HETATM   65  O18 UNL     1      10.754  -1.111  -4.297  1.00  0.00    -0.218 OA
HETATM   66  O17 UNL     1       9.131  -0.191  -2.064  1.00  0.00    -0.215 OA
BRANCH  60  67
HETATM   67  C48 UNL     1       7.436  -4.777  -4.874  1.00  0.00     0.214 C 
HETATM   68  O20 UNL     1       6.572  -5.603  -4.129  1.00  0.00    -0.218 OA
ENDBRANCH  60  67
ENDBRANCH  57  58
ENDBRANCH   2  57
TORSDOF 14
