REMARK  10 active torsions:
REMARK  status: ('A' for Active; 'I' for Inactive)
REMARK    1  A    between atoms: C2_2  and  O7_45 
REMARK    2  A    between atoms: C3_3  and  C37_42 
REMARK    3  A    between atoms: C16_16  and  C31_34 
REMARK    4  A    between atoms: C20_21  and  O2_26 
REMARK    5  A    between atoms: O2_26  and  C25_27 
REMARK    6  A    between atoms: C25_27  and  C27_29 
REMARK    7  A    between atoms: C31_34  and  O4_35 
REMARK    8  A    between atoms: O4_35  and  C32_36 
REMARK    9  A    between atoms: O7_45  and  C39_46 
REMARK   10  A    between atoms: C40_48  and  C44_55 
ROOT
HETATM    1  C1  UNL     1       4.938   0.506  -0.897  1.00  0.00     0.030 C 
HETATM    2  C2  UNL     1       5.479   0.838   0.502  1.00  0.00     0.120 C 
HETATM    3  C3  UNL     1       4.830  -0.027   1.611  1.00  0.00     0.056 C 
HETATM    4  C4  UNL     1       3.283   0.103   1.520  1.00  0.00     0.005 C 
HETATM    5  C5  UNL     1       2.693  -0.221   0.117  1.00  0.00     0.001 C 
HETATM    6  C6  UNL     1       3.410   0.650  -0.943  1.00  0.00     0.003 C 
HETATM    7  C7  UNL     1       1.158   0.084   0.115  1.00  0.00     0.005 C 
HETATM    8  C8  UNL     1       0.357  -0.621   1.250  1.00  0.00     0.004 C 
HETATM    9  C9  UNL     1       1.049  -0.379   2.617  1.00  0.00     0.000 C 
HETATM   10  C10 UNL     1       2.547  -0.695   2.611  1.00  0.00     0.000 C 
HETATM   11  C11 UNL     1      -1.115  -0.072   1.264  1.00  0.00     0.017 C 
HETATM   12  C12 UNL     1      -1.756  -0.090  -0.121  1.00  0.00    -0.049 C 
HETATM   13  C13 UNL     1      -1.010  -0.147  -1.246  1.00  0.00    -0.035 C 
HETATM   14  C14 UNL     1       0.500  -0.207  -1.250  1.00  0.00     0.025 C 
HETATM   15  C15 UNL     1      -3.274  -0.022  -0.272  1.00  0.00     0.025 C 
HETATM   16  C16 UNL     1      -4.121  -0.688   0.857  1.00  0.00     0.090 C 
HETATM   17  C17 UNL     1      -3.457  -0.447   2.242  1.00  0.00     0.158 C 
HETATM   18  C18 UNL     1      -1.982  -0.873   2.264  1.00  0.00     0.037 C 
HETATM   19  O1  UNL     1      -4.145  -1.160   3.256  1.00  0.00    -0.223 OA
HETATM   20  C19 UNL     1      -5.611  -0.180   0.811  1.00  0.00     0.184 C 
HETATM   21  C20 UNL     1      -6.041   0.305  -0.590  1.00  0.00     0.152 C 
HETATM   22  C21 UNL     1      -5.170   1.479  -1.129  1.00  0.00     0.028 C 
HETATM   23  C22 UNL     1      -3.734   1.422  -0.545  1.00  0.00     0.007 C 
HETATM   24  C23 UNL     1      -5.106   1.432  -2.662  1.00  0.00     0.003 C 
HETATM   25  C24 UNL     1      -5.805   2.820  -0.746  1.00  0.00     0.003 C 
HETATM   26  O3  UNL     1      -5.858   0.887   1.713  1.00  0.00    -0.221 OA
HETATM   27  C34 UNL     1      -1.125   1.408   1.680  1.00  0.00     0.004 C 
HETATM   28  C35 UNL     1       0.340  -2.139   0.988  1.00  0.00     0.000 C 
HETATM   29  C36 UNL     1       2.936  -1.697  -0.238  1.00  0.00     0.000 C 
HETATM   30  C38 UNL     1       5.262  -1.498   1.484  1.00  0.00     0.005 C 
ENDROOT
BRANCH   2  31
HETATM   31  O7  UNL     1       6.887   0.684   0.496  1.00  0.00    -0.331 OA
BRANCH  31  32
HETATM   32  C39 UNL     1       7.543   1.586  -0.371  1.00  0.00     0.270 C 
HETATM   33  O8  UNL     1       7.816   0.918  -1.596  1.00  0.00    -0.318 OA
HETATM   34  C40 UNL     1       8.434   1.717  -2.598  1.00  0.00     0.237 C 
HETATM   35  C41 UNL     1       9.805   2.215  -2.080  1.00  0.00     0.223 C 
HETATM   36  C42 UNL     1       9.664   2.953  -0.731  1.00  0.00     0.221 C 
HETATM   37  O11 UNL     1      10.371   3.088  -3.043  1.00  0.00    -0.217 OA
HETATM   38  C43 UNL     1       8.867   2.082   0.264  1.00  0.00     0.241 C 
HETATM   39  O10 UNL     1      10.951   3.236  -0.201  1.00  0.00    -0.218 OA
HETATM   40  O9  UNL     1       8.576   2.842   1.428  1.00  0.00    -0.215 OA
BRANCH  34  41
HETATM   41  C44 UNL     1       8.545   0.883  -3.850  1.00  0.00     0.217 C 
HETATM   42  O12 UNL     1       9.492   0.154  -4.031  1.00  0.00    -0.646 OA
HETATM   43  O13 UNL     1       7.539   1.018  -4.709  1.00  0.00    -0.646 OA
ENDBRANCH  34  41
ENDBRANCH  31  32
ENDBRANCH   2  31
BRANCH   3  44
HETATM   44  C37 UNL     1       5.307   0.480   2.980  1.00  0.00     0.184 C 
HETATM   45  O6  UNL     1       6.699   0.277   3.066  1.00  0.00    -0.221 OA
ENDBRANCH   3  44
BRANCH  16  46
HETATM   46  C31 UNL     1      -4.135  -2.201   0.568  1.00  0.00     0.157 C 
BRANCH  46  47
HETATM   47  O4  UNL     1      -4.934  -2.861   1.539  1.00  0.00    -0.302 OA
BRANCH  47  48
HETATM   48  C32 UNL     1      -5.121  -4.147   1.252  1.00  0.00     0.272 C 
HETATM   49  C33 UNL     1      -3.881  -4.902   0.857  1.00  0.00     0.106 C 
HETATM   50  O5  UNL     1      -6.197  -4.695   1.293  1.00  0.00    -0.264 OA
ENDBRANCH  47  48
ENDBRANCH  46  47
ENDBRANCH  16  46
BRANCH  21  51
HETATM   51  O2  UNL     1      -5.969  -0.809  -1.475  1.00  0.00    -0.331 OA
BRANCH  51  52
HETATM   52  C25 UNL     1      -7.154  -1.377  -1.672  1.00  0.00     0.093 C 
HETATM   53  C26 UNL     1      -7.358  -2.660  -1.334  1.00  0.00     0.026 C 
BRANCH  52  54
HETATM   54  C27 UNL     1      -8.235  -0.580  -2.266  1.00  0.00     0.016 C 
HETATM   55  C28 UNL     1      -9.375  -0.363  -1.592  1.00  0.00    -0.042 C 
HETATM   56  C29 UNL     1      -9.510  -0.938  -0.207  1.00  0.00     0.026 C 
HETATM   57  C30 UNL     1     -10.461   0.441  -2.256  1.00  0.00     0.026 C 
ENDBRANCH  52  54
ENDBRANCH  51  52
ENDBRANCH  21  51
TORSDOF 10
