REMARK  15 active torsions:
REMARK  status: ('A' for Active; 'I' for Inactive)
REMARK    1  A    between atoms: C2_2  and  O12_54 
REMARK    2  A    between atoms: C15_16  and  C18_19 
REMARK    3  A    between atoms: C18_19  and  C19_20 
REMARK    4  A    between atoms: C18_19  and  O2_28 
REMARK    5  A    between atoms: C19_20  and  C20_21 
REMARK    6  A    between atoms: C20_21  and  C21_22 
REMARK    7  A    between atoms: C22_23  and  C23_24 
REMARK    8  A    between atoms: O2_28  and  C27_29 
REMARK    9  A    between atoms: C28_31  and  C32_38 
REMARK   10  A    between atoms: C32_38  and  O7_39 
REMARK   11  A    between atoms: O7_39  and  C33_40 
REMARK   12  A    between atoms: O12_54  and  C43_55 
REMARK   13  A    between atoms: C47_60  and  O14_61 
REMARK   14  A    between atoms: O14_61  and  C48_62 
REMARK   15  A    between atoms: C49_64  and  C53_71 
ROOT
HETATM    1  C1  UNL     1       5.051   0.734  -1.496  1.00  0.00     0.030 C 
HETATM    2  C2  UNL     1       5.537   0.207  -0.139  1.00  0.00     0.118 C 
HETATM    3  C3  UNL     1       4.836  -1.113   0.262  1.00  0.00     0.025 C 
HETATM    4  C4  UNL     1       3.293  -0.900   0.234  1.00  0.00     0.002 C 
HETATM    5  C5  UNL     1       2.733  -0.326  -1.104  1.00  0.00     0.000 C 
HETATM    6  C6  UNL     1       3.531   0.945  -1.486  1.00  0.00     0.003 C 
HETATM    7  C7  UNL     1       1.180  -0.049  -1.010  1.00  0.00     0.003 C 
HETATM    8  C8  UNL     1       0.488  -0.666   0.236  1.00  0.00     0.000 C 
HETATM    9  C9  UNL     1       1.000  -2.104   0.424  1.00  0.00     0.000 C 
HETATM   10  C10 UNL     1       2.514  -2.156   0.705  1.00  0.00     0.000 C 
HETATM   11  C11 UNL     1      -1.062  -0.619   0.104  1.00  0.00     0.002 C 
HETATM   12  C12 UNL     1      -1.592   0.797  -0.217  1.00  0.00     0.033 C 
HETATM   13  C13 UNL     1      -0.809   1.484  -1.359  1.00  0.00     0.152 C 
HETATM   14  C14 UNL     1       0.719   1.412  -1.184  1.00  0.00     0.033 C 
HETATM   15  O1  UNL     1      -1.187   2.846  -1.439  1.00  0.00    -0.224 OA
HETATM   16  C15 UNL     1      -3.053   0.568  -0.652  1.00  0.00     0.028 C 
HETATM   17  C16 UNL     1      -3.113  -0.879  -1.160  1.00  0.00     0.002 C 
HETATM   18  C17 UNL     1      -1.689  -1.424  -1.043  1.00  0.00     0.000 C 
HETATM   19  C38 UNL     1      -1.744  -1.133   1.383  1.00  0.00     0.000 C 
HETATM   20  C39 UNL     1       0.762   0.162   1.510  1.00  0.00     0.000 C 
HETATM   21  C40 UNL     1       2.965  -1.367  -2.213  1.00  0.00     0.000 C 
HETATM   22  C41 UNL     1       5.268  -1.502   1.684  1.00  0.00     0.002 C 
HETATM   23  C42 UNL     1       5.250  -2.256  -0.680  1.00  0.00     0.002 C 
ENDROOT
BRANCH  16  24
HETATM   24  C18 UNL     1      -4.008   0.766   0.523  1.00  0.00     0.096 C 
HETATM   25  C26 UNL     1      -5.402   1.107  -0.004  1.00  0.00     0.030 C 
BRANCH  24  26
HETATM   26  C19 UNL     1      -3.451   1.840   1.459  1.00  0.00     0.032 C 
BRANCH  26  27
HETATM   27  C20 UNL     1      -4.545   2.557   2.252  1.00  0.00     0.028 C 
BRANCH  27  28
HETATM   28  C21 UNL     1      -4.082   3.881   2.799  1.00  0.00    -0.035 C 
HETATM   29  C22 UNL     1      -4.951   4.619   3.510  1.00  0.00    -0.048 C 
HETATM   30  C25 UNL     1      -6.342   4.084   3.723  1.00  0.00     0.026 C 
BRANCH  29  31
HETATM   31  C23 UNL     1      -4.488   5.941   4.057  1.00  0.00     0.022 C 
HETATM   32  C24 UNL     1      -3.061   6.283   3.631  1.00  0.00     0.005 C 
ENDBRANCH  29  31
ENDBRANCH  27  28
ENDBRANCH  26  27
ENDBRANCH  24  26
BRANCH  24  33
HETATM   33  O2  UNL     1      -4.082  -0.447   1.240  1.00  0.00    -0.334 OA
BRANCH  33  34
HETATM   34  C27 UNL     1      -5.219  -0.531   2.078  1.00  0.00     0.270 C 
HETATM   35  O3  UNL     1      -6.273  -1.139   1.344  1.00  0.00    -0.326 OA
HETATM   36  C28 UNL     1      -7.506  -1.248   2.041  1.00  0.00     0.180 C 
HETATM   37  C29 UNL     1      -7.311  -2.139   3.289  1.00  0.00     0.215 C 
HETATM   38  C30 UNL     1      -6.172  -1.606   4.186  1.00  0.00     0.220 C 
HETATM   39  O6  UNL     1      -8.525  -2.168   4.020  1.00  0.00    -0.218 OA
HETATM   40  C31 UNL     1      -4.900  -1.371   3.340  1.00  0.00     0.241 C 
HETATM   41  O5  UNL     1      -5.898  -2.537   5.221  1.00  0.00    -0.218 OA
HETATM   42  O4  UNL     1      -3.934  -0.691   4.125  1.00  0.00    -0.215 OA
BRANCH  36  43
HETATM   43  C32 UNL     1      -8.523  -1.824   1.051  1.00  0.00     0.177 C 
BRANCH  43  44
HETATM   44  O7  UNL     1      -8.691  -0.897   0.002  1.00  0.00    -0.326 OA
BRANCH  44  45
HETATM   45  C33 UNL     1      -9.568  -1.352  -1.010  1.00  0.00     0.270 C 
HETATM   46  O8  UNL     1     -10.887  -1.391  -0.480  1.00  0.00    -0.326 OA
HETATM   47  C34 UNL     1     -11.875  -1.877  -1.379  1.00  0.00     0.181 C 
HETATM   48  C35 UNL     1     -11.959  -0.951  -2.607  1.00  0.00     0.215 C 
HETATM   49  C36 UNL     1     -10.582  -0.801  -3.289  1.00  0.00     0.220 C 
HETATM   50  O11 UNL     1     -12.899  -1.498  -3.514  1.00  0.00    -0.218 OA
HETATM   51  C37 UNL     1      -9.520  -0.406  -2.238  1.00  0.00     0.241 C 
HETATM   52  O10 UNL     1     -10.652   0.191  -4.301  1.00  0.00    -0.218 OA
HETATM   53  O9  UNL     1      -8.231  -0.463  -2.828  1.00  0.00    -0.215 OA
ENDBRANCH  44  45
ENDBRANCH  43  44
ENDBRANCH  36  43
ENDBRANCH  33  34
ENDBRANCH  24  33
ENDBRANCH  16  24
BRANCH   2  54
HETATM   54  O12 UNL     1       6.944   0.041  -0.189  1.00  0.00    -0.332 OA
BRANCH  54  55
HETATM   55  C43 UNL     1       7.653   1.260  -0.098  1.00  0.00     0.267 C 
HETATM   56  O13 UNL     1       7.510   1.766   1.225  1.00  0.00    -0.326 OA
HETATM   57  C44 UNL     1       8.139   3.020   1.455  1.00  0.00     0.181 C 
HETATM   58  C45 UNL     1       9.658   2.887   1.232  1.00  0.00     0.214 C 
HETATM   59  C46 UNL     1       9.971   2.330  -0.174  1.00  0.00     0.217 C 
HETATM   60  O21 UNL     1      10.244   4.164   1.398  1.00  0.00    -0.218 OA
HETATM   61  C47 UNL     1       9.155   1.041  -0.418  1.00  0.00     0.207 C 
HETATM   62  O20 UNL     1      11.358   2.051  -0.281  1.00  0.00    -0.218 OA
BRANCH  61  63
HETATM   63  O14 UNL     1       9.293   0.646  -1.775  1.00  0.00    -0.324 OA
BRANCH  63  64
HETATM   64  C48 UNL     1       9.227  -0.754  -1.959  1.00  0.00     0.270 C 
HETATM   65  O15 UNL     1       8.469  -1.016  -3.133  1.00  0.00    -0.326 OA
HETATM   66  C49 UNL     1       8.272  -2.393  -3.424  1.00  0.00     0.184 C 
HETATM   67  C50 UNL     1       9.641  -3.068  -3.662  1.00  0.00     0.215 C 
HETATM   68  C51 UNL     1      10.588  -2.852  -2.461  1.00  0.00     0.220 C 
HETATM   69  O18 UNL     1       9.432  -4.455  -3.865  1.00  0.00    -0.218 OA
HETATM   70  C52 UNL     1      10.651  -1.350  -2.104  1.00  0.00     0.241 C 
HETATM   71  O17 UNL     1      11.887  -3.322  -2.783  1.00  0.00    -0.218 OA
HETATM   72  O16 UNL     1      11.354  -1.188  -0.881  1.00  0.00    -0.215 OA
BRANCH  66  73
HETATM   73  C53 UNL     1       7.354  -2.455  -4.650  1.00  0.00     0.214 C 
HETATM   74  O19 UNL     1       6.270  -1.580  -4.436  1.00  0.00    -0.218 OA
ENDBRANCH  66  73
ENDBRANCH  63  64
ENDBRANCH  61  63
ENDBRANCH  54  55
ENDBRANCH   2  54
TORSDOF 15
