REMARK  2 active torsions:
REMARK  status: ('A' for Active; 'I' for Inactive)
REMARK    1  A    between atoms: C2_2  and  C3_3 
REMARK    2  A    between atoms: C3_3  and  C4_5 
ROOT
HETATM    1  C3  UNL     1       0.533   0.459   0.049  1.00  0.00     0.387 C 
HETATM    2  N1  UNL     1       1.978   0.551  -0.070  1.00  0.00     0.628 N 
ENDROOT
BRANCH   1   3
HETATM    3  C2  UNL     1      -0.057  -0.287  -1.149  1.00  0.00     0.051 C 
HETATM    4  C1  UNL     1      -1.586  -0.287  -1.149  1.00  0.00     0.003 C 
ENDBRANCH   1   3
BRANCH   1   5
HETATM    5  C4  UNL     1       0.160  -0.178   1.361  1.00  0.00     0.224 C 
HETATM    6  O1  UNL     1      -0.297   0.662   2.287  1.00  0.00    -0.646 OA
HETATM    7  O2  UNL     1       0.279  -1.367   1.533  1.00  0.00    -0.646 OA
ENDBRANCH   1   5
TORSDOF 2
