REMARK  15 active torsions:
REMARK  status: ('A' for Active; 'I' for Inactive)
REMARK    1  A    between atoms: C2_2  and  O12_52 
REMARK    2  A    between atoms: C15_16  and  C18_19 
REMARK    3  A    between atoms: C18_19  and  C19_20 
REMARK    4  A    between atoms: C18_19  and  O2_27 
REMARK    5  A    between atoms: C19_20  and  C20_21 
REMARK    6  A    between atoms: C20_21  and  C21_22 
REMARK    7  A    between atoms: O2_27  and  C26_28 
REMARK    8  A    between atoms: C27_30  and  C31_37 
REMARK    9  A    between atoms: C31_37  and  O7_38 
REMARK   10  A    between atoms: O7_38  and  C32_39 
REMARK   11  A    between atoms: O12_52  and  C41_53 
REMARK   12  A    between atoms: C42_55  and  C52_73 
REMARK   13  A    between atoms: C45_58  and  O14_59 
REMARK   14  A    between atoms: O14_59  and  C46_60 
REMARK   15  A    between atoms: C47_62  and  C51_69 
ROOT
HETATM    1  C1  UNL     1      -5.436   1.375  -0.111  1.00  0.00     0.179 C 
HETATM    2  C2  UNL     1      -5.641   0.029  -0.850  1.00  0.00     0.148 C 
HETATM    3  C3  UNL     1      -4.736  -0.068  -2.105  1.00  0.00     0.028 C 
HETATM    4  C4  UNL     1      -3.242   0.188  -1.742  1.00  0.00     0.002 C 
HETATM    5  C5  UNL     1      -3.047   1.514  -0.965  1.00  0.00     0.003 C 
HETATM    6  C6  UNL     1      -3.965   1.596   0.272  1.00  0.00     0.035 C 
HETATM    7  C7  UNL     1      -1.559   1.803  -0.633  1.00  0.00     0.003 C 
HETATM    8  C8  UNL     1      -0.682   1.799  -1.914  1.00  0.00     0.000 C 
HETATM    9  C9  UNL     1      -0.859   0.453  -2.656  1.00  0.00     0.000 C 
HETATM   10  C10 UNL     1      -2.328   0.148  -2.984  1.00  0.00     0.000 C 
HETATM   11  C11 UNL     1       0.787   2.170  -1.514  1.00  0.00     0.002 C 
HETATM   12  C12 UNL     1       1.416   1.391  -0.340  1.00  0.00     0.033 C 
HETATM   13  C13 UNL     1       0.447   1.293   0.850  1.00  0.00     0.152 C 
HETATM   14  C14 UNL     1      -0.969   0.857   0.440  1.00  0.00     0.033 C 
HETATM   15  O1  UNL     1       0.951   0.400   1.824  1.00  0.00    -0.224 OA
HETATM   16  C15 UNL     1       1.947   0.078  -0.937  1.00  0.00     0.028 C 
HETATM   17  C16 UNL     1       2.272   0.424  -2.395  1.00  0.00     0.002 C 
HETATM   18  C17 UNL     1       1.830   1.873  -2.600  1.00  0.00     0.000 C 
HETATM   19  C37 UNL     1       0.910   3.652  -1.129  1.00  0.00     0.000 C 
HETATM   20  C38 UNL     1      -1.127   2.922  -2.873  1.00  0.00     0.000 C 
HETATM   21  C39 UNL     1      -4.891  -1.447  -2.768  1.00  0.00     0.003 C 
HETATM   22  C40 UNL     1      -5.215   0.975  -3.127  1.00  0.00     0.003 C 
HETATM   23  O23 UNL     1      -6.248   1.451   1.047  1.00  0.00    -0.221 OA
ENDROOT
BRANCH  16  24
HETATM   24  C18 UNL     1       3.190  -0.418  -0.203  1.00  0.00     0.096 C 
HETATM   25  C25 UNL     1       4.195  -0.967  -1.215  1.00  0.00     0.030 C 
BRANCH  24  26
HETATM   26  C19 UNL     1       2.783  -1.453   0.846  1.00  0.00     0.032 C 
BRANCH  26  27
HETATM   27  C20 UNL     1       3.248  -2.865   0.492  1.00  0.00     0.028 C 
BRANCH  27  28
HETATM   28  C21 UNL     1       4.619  -3.170   1.037  1.00  0.00    -0.035 C 
HETATM   29  C22 UNL     1       5.424  -3.979   0.328  1.00  0.00    -0.048 C 
HETATM   30  C23 UNL     1       6.820  -4.225   0.834  1.00  0.00     0.026 C 
HETATM   31  C24 UNL     1       4.891  -4.596  -0.937  1.00  0.00     0.026 C 
ENDBRANCH  27  28
ENDBRANCH  26  27
ENDBRANCH  24  26
BRANCH  24  32
HETATM   32  O2  UNL     1       3.775   0.678   0.465  1.00  0.00    -0.334 OA
BRANCH  32  33
HETATM   33  C26 UNL     1       5.000   0.357   1.096  1.00  0.00     0.270 C 
HETATM   34  O3  UNL     1       6.117   0.668   0.258  1.00  0.00    -0.326 OA
HETATM   35  C27 UNL     1       6.688   1.963   0.418  1.00  0.00     0.180 C 
HETATM   36  C28 UNL     1       7.311   2.084   1.842  1.00  0.00     0.215 C 
HETATM   37  C29 UNL     1       6.586   1.242   2.930  1.00  0.00     0.220 C 
HETATM   38  O6  UNL     1       7.328   3.441   2.242  1.00  0.00    -0.218 OA
HETATM   39  C30 UNL     1       5.123   0.953   2.539  1.00  0.00     0.241 C 
HETATM   40  O5  UNL     1       7.254  -0.002   3.065  1.00  0.00    -0.218 OA
HETATM   41  O4  UNL     1       4.399   2.164   2.693  1.00  0.00    -0.215 OA
BRANCH  35  42
HETATM   42  C31 UNL     1       5.643   3.025   0.037  1.00  0.00     0.177 C 
BRANCH  42  43
HETATM   43  O7  UNL     1       5.451   2.975  -1.359  1.00  0.00    -0.326 OA
BRANCH  43  44
HETATM   44  C32 UNL     1       5.225   4.244  -1.937  1.00  0.00     0.270 C 
HETATM   45  O8  UNL     1       3.994   4.756  -1.445  1.00  0.00    -0.326 OA
HETATM   46  C33 UNL     1       3.668   6.059  -1.906  1.00  0.00     0.181 C 
HETATM   47  C34 UNL     1       3.510   6.045  -3.439  1.00  0.00     0.215 C 
HETATM   48  C35 UNL     1       4.768   5.479  -4.133  1.00  0.00     0.220 C 
HETATM   49  O11 UNL     1       3.270   7.369  -3.877  1.00  0.00    -0.218 OA
HETATM   50  C36 UNL     1       5.174   4.135  -3.484  1.00  0.00     0.241 C 
HETATM   51  O10 UNL     1       4.502   5.281  -5.512  1.00  0.00    -0.218 OA
HETATM   52  O9  UNL     1       6.449   3.750  -3.969  1.00  0.00    -0.215 OA
ENDBRANCH  43  44
ENDBRANCH  42  43
ENDBRANCH  35  42
ENDBRANCH  32  33
ENDBRANCH  24  32
ENDBRANCH  16  24
BRANCH   2  53
HETATM   53  O12 UNL     1      -5.361  -1.057   0.023  1.00  0.00    -0.329 OA
BRANCH  53  54
HETATM   54  C41 UNL     1      -6.514  -1.557   0.676  1.00  0.00     0.267 C 
HETATM   55  O13 UNL     1      -7.297  -2.346  -0.223  1.00  0.00    -0.326 OA
HETATM   56  C42 UNL     1      -6.979  -3.731  -0.258  1.00  0.00     0.184 C 
HETATM   57  C43 UNL     1      -7.359  -4.385   1.100  1.00  0.00     0.215 C 
HETATM   58  C44 UNL     1      -7.248  -3.391   2.293  1.00  0.00     0.217 C 
HETATM   59  O21 UNL     1      -6.531  -5.527   1.268  1.00  0.00    -0.218 OA
HETATM   60  C45 UNL     1      -6.188  -2.303   2.016  1.00  0.00     0.207 C 
HETATM   61  O20 UNL     1      -7.043  -4.025   3.547  1.00  0.00    -0.218 OA
BRANCH  56  62
HETATM   62  C52 UNL     1      -7.740  -4.344  -1.436  1.00  0.00     0.214 C 
HETATM   63  O22 UNL     1      -7.104  -3.947  -2.629  1.00  0.00    -0.218 OA
ENDBRANCH  56  62
BRANCH  60  64
HETATM   64  O14 UNL     1      -4.898  -2.904   1.998  1.00  0.00    -0.324 OA
BRANCH  64  65
HETATM   65  C46 UNL     1      -3.893  -2.080   2.553  1.00  0.00     0.270 C 
HETATM   66  O15 UNL     1      -4.057  -1.969   3.969  1.00  0.00    -0.326 OA
HETATM   67  C47 UNL     1      -3.379  -2.951   4.740  1.00  0.00     0.184 C 
HETATM   68  C48 UNL     1      -1.844  -2.740   4.617  1.00  0.00     0.215 C 
HETATM   69  C49 UNL     1      -1.436  -2.129   3.242  1.00  0.00     0.220 C 
HETATM   70  O18 UNL     1      -1.221  -3.992   4.858  1.00  0.00    -0.218 OA
HETATM   71  C50 UNL     1      -2.443  -2.514   2.139  1.00  0.00     0.241 C 
HETATM   72  O17 UNL     1      -0.098  -2.420   2.865  1.00  0.00    -0.218 OA
HETATM   73  O16 UNL     1      -2.352  -3.912   1.893  1.00  0.00    -0.215 OA
BRANCH  67  74
HETATM   74  C51 UNL     1      -3.871  -2.814   6.184  1.00  0.00     0.214 C 
HETATM   75  O19 UNL     1      -5.211  -3.246   6.236  1.00  0.00    -0.218 OA
ENDBRANCH  67  74
ENDBRANCH  64  65
ENDBRANCH  60  64
ENDBRANCH  53  54
ENDBRANCH   2  53
TORSDOF 15
