REMARK  11 active torsions:
REMARK  status: ('A' for Active; 'I' for Inactive)
REMARK    1  A    between atoms: C2_2  and  O9_45 
REMARK    2  A    between atoms: C5_5  and  C34_41 
REMARK    3  A    between atoms: C15_16  and  C18_19 
REMARK    4  A    between atoms: C18_19  and  C19_20 
REMARK    5  A    between atoms: C18_19  and  O2_27 
REMARK    6  A    between atoms: C19_20  and  C20_21 
REMARK    7  A    between atoms: C20_21  and  C21_22 
REMARK    8  A    between atoms: O2_27  and  C26_28 
REMARK    9  A    between atoms: C27_30  and  C31_37 
REMARK   10  A    between atoms: O9_45  and  C37_46 
REMARK   11  A    between atoms: C38_48  and  C42_55 
ROOT
HETATM    1  C1  UNL     1       3.973  -0.315  -0.871  1.00  0.00     0.030 C 
HETATM    2  C2  UNL     1       5.029  -0.639   0.211  1.00  0.00     0.118 C 
HETATM    3  C3  UNL     1       4.531  -0.438   1.680  1.00  0.00     0.025 C 
HETATM    4  C4  UNL     1       2.977  -0.508   1.756  1.00  0.00     0.005 C 
HETATM    5  C5  UNL     1       2.285   0.613   0.904  1.00  0.00     0.031 C 
HETATM    6  C6  UNL     1       3.012   0.811  -0.465  1.00  0.00     0.005 C 
HETATM    7  C7  UNL     1       0.742   0.369   0.791  1.00  0.00     0.005 C 
HETATM    8  C8  UNL     1       0.340  -1.066   0.387  1.00  0.00     0.000 C 
HETATM    9  C9  UNL     1       0.953  -2.061   1.389  1.00  0.00     0.000 C 
HETATM   10  C10 UNL     1       2.475  -1.943   1.453  1.00  0.00     0.000 C 
HETATM   11  C11 UNL     1      -1.207  -1.258   0.385  1.00  0.00     0.002 C 
HETATM   12  C12 UNL     1      -1.982  -0.148  -0.365  1.00  0.00     0.033 C 
HETATM   13  C13 UNL     1      -1.527   1.266   0.064  1.00  0.00     0.152 C 
HETATM   14  C14 UNL     1      -0.004   1.414  -0.064  1.00  0.00     0.033 C 
HETATM   15  O1  UNL     1      -2.129   2.244  -0.762  1.00  0.00    -0.224 OA
HETATM   16  C15 UNL     1      -3.439  -0.471   0.027  1.00  0.00     0.028 C 
HETATM   17  C16 UNL     1      -3.356  -0.848   1.508  1.00  0.00     0.002 C 
HETATM   18  C17 UNL     1      -1.893  -1.211   1.764  1.00  0.00     0.000 C 
HETATM   19  C32 UNL     1      -1.584  -2.627  -0.209  1.00  0.00     0.000 C 
HETATM   20  C33 UNL     1       0.803  -1.371  -1.049  1.00  0.00     0.000 C 
HETATM   21  C35 UNL     1       5.016   0.934   2.172  1.00  0.00     0.002 C 
HETATM   22  C36 UNL     1       5.149  -1.451   2.660  1.00  0.00     0.002 C 
ENDROOT
BRANCH  16  23
HETATM   23  C18 UNL     1      -4.475   0.623  -0.217  1.00  0.00     0.096 C 
HETATM   24  C25 UNL     1      -5.875   0.062   0.031  1.00  0.00     0.030 C 
BRANCH  23  25
HETATM   25  C19 UNL     1      -4.303   1.178  -1.631  1.00  0.00     0.032 C 
BRANCH  25  26
HETATM   26  C20 UNL     1      -5.457   0.797  -2.559  1.00  0.00     0.028 C 
BRANCH  26  27
HETATM   27  C21 UNL     1      -5.213   1.219  -3.982  1.00  0.00    -0.035 C 
HETATM   28  C22 UNL     1      -5.899   0.603  -4.961  1.00  0.00    -0.048 C 
HETATM   29  C23 UNL     1      -5.600   0.973  -6.389  1.00  0.00     0.026 C 
HETATM   30  C24 UNL     1      -6.930  -0.424  -4.578  1.00  0.00     0.026 C 
ENDBRANCH  26  27
ENDBRANCH  25  26
ENDBRANCH  23  25
BRANCH  23  31
HETATM   31  O2  UNL     1      -4.238   1.668   0.699  1.00  0.00    -0.334 OA
BRANCH  31  32
HETATM   32  C26 UNL     1      -5.190   2.709   0.613  1.00  0.00     0.270 C 
HETATM   33  O3  UNL     1      -4.590   3.996   0.764  1.00  0.00    -0.326 OA
HETATM   34  C27 UNL     1      -3.910   4.242   2.000  1.00  0.00     0.184 C 
HETATM   35  C28 UNL     1      -4.606   3.539   3.199  1.00  0.00     0.215 C 
HETATM   36  C29 UNL     1      -6.117   3.326   2.977  1.00  0.00     0.220 C 
HETATM   37  O6  UNL     1      -4.359   4.260   4.397  1.00  0.00    -0.218 OA
HETATM   38  C30 UNL     1      -6.320   2.502   1.672  1.00  0.00     0.241 C 
HETATM   39  O5  UNL     1      -6.756   4.600   2.914  1.00  0.00    -0.218 OA
HETATM   40  O4  UNL     1      -7.582   2.756   1.070  1.00  0.00    -0.215 OA
BRANCH  34  41
HETATM   41  C31 UNL     1      -2.443   3.820   1.848  1.00  0.00     0.214 C 
HETATM   42  O7  UNL     1      -1.646   4.729   2.574  1.00  0.00    -0.218 OA
ENDBRANCH  34  41
ENDBRANCH  31  32
ENDBRANCH  23  31
ENDBRANCH  16  23
BRANCH   5  43
HETATM   43  C34 UNL     1       2.418   1.943   1.676  1.00  0.00     0.182 C 
HETATM   44  O8  UNL     1       2.068   1.709   3.022  1.00  0.00    -0.221 OA
ENDBRANCH   5  43
BRANCH   2  45
HETATM   45  O9  UNL     1       5.484  -1.961  -0.023  1.00  0.00    -0.332 OA
BRANCH  45  46
HETATM   46  C37 UNL     1       6.875  -2.115   0.184  1.00  0.00     0.270 C 
HETATM   47  O10 UNL     1       7.629  -1.834  -0.996  1.00  0.00    -0.326 OA
HETATM   48  C38 UNL     1       7.375  -2.660  -2.137  1.00  0.00     0.184 C 
HETATM   49  C39 UNL     1       7.100  -4.149  -1.764  1.00  0.00     0.215 C 
HETATM   50  C40 UNL     1       7.717  -4.502  -0.394  1.00  0.00     0.220 C 
HETATM   51  O13 UNL     1       5.703  -4.416  -1.752  1.00  0.00    -0.218 OA
HETATM   52  C41 UNL     1       7.199  -3.547   0.713  1.00  0.00     0.241 C 
HETATM   53  O12 UNL     1       7.473  -5.856  -0.047  1.00  0.00    -0.218 OA
HETATM   54  O11 UNL     1       8.192  -3.447   1.721  1.00  0.00    -0.215 OA
BRANCH  48  55
HETATM   55  C42 UNL     1       6.303  -1.986  -3.006  1.00  0.00     0.214 C 
HETATM   56  O14 UNL     1       6.764  -0.701  -3.361  1.00  0.00    -0.218 OA
ENDBRANCH  48  55
ENDBRANCH  45  46
ENDBRANCH   2  45
TORSDOF 11
