REMARK  16 active torsions:
REMARK  status: ('A' for Active; 'I' for Inactive)
REMARK    1  A    between atoms: C2_2  and  O13_55 
REMARK    2  A    between atoms: C15_16  and  C18_19 
REMARK    3  A    between atoms: C18_19  and  C19_20 
REMARK    4  A    between atoms: C18_19  and  O3_28 
REMARK    5  A    between atoms: C19_20  and  C20_21 
REMARK    6  A    between atoms: C20_21  and  C21_22 
REMARK    7  A    between atoms: C22_23  and  C23_24 
REMARK    8  A    between atoms: O3_28  and  C26_29 
REMARK    9  A    between atoms: C27_31  and  C31_38 
REMARK   10  A    between atoms: C31_38  and  O8_39 
REMARK   11  A    between atoms: O8_39  and  C32_40 
REMARK   12  A    between atoms: O13_55  and  C43_56 
REMARK   13  A    between atoms: C44_58  and  C54_76 
REMARK   14  A    between atoms: C47_61  and  O15_62 
REMARK   15  A    between atoms: O15_62  and  C48_63 
REMARK   16  A    between atoms: C49_65  and  C53_72 
ROOT
HETATM    1  C1  UNL     1       3.420   1.416  -1.463  1.00  0.00     0.030 C 
HETATM    2  C2  UNL     1       4.434   0.994  -0.373  1.00  0.00     0.118 C 
HETATM    3  C3  UNL     1       3.980   1.299   1.088  1.00  0.00     0.025 C 
HETATM    4  C4  UNL     1       2.430   1.215   1.182  1.00  0.00     0.002 C 
HETATM    5  C5  UNL     1       1.728   2.326   0.328  1.00  0.00     0.000 C 
HETATM    6  C6  UNL     1       2.471   2.541  -1.031  1.00  0.00     0.003 C 
HETATM    7  C7  UNL     1       0.187   2.066   0.201  1.00  0.00     0.003 C 
HETATM    8  C8  UNL     1      -0.209   0.623  -0.188  1.00  0.00     0.000 C 
HETATM    9  C9  UNL     1       0.418  -0.355   0.822  1.00  0.00     0.000 C 
HETATM   10  C10 UNL     1       1.937  -0.225   0.877  1.00  0.00     0.000 C 
HETATM   11  C11 UNL     1      -1.756   0.422  -0.184  1.00  0.00     0.002 C 
HETATM   12  C12 UNL     1      -2.531   1.525  -0.939  1.00  0.00     0.033 C 
HETATM   13  C13 UNL     1      -2.076   2.947  -0.539  1.00  0.00     0.152 C 
HETATM   14  C14 UNL     1      -0.557   3.092  -0.678  1.00  0.00     0.033 C 
HETATM   15  O1  UNL     1      -2.697   3.900  -1.383  1.00  0.00    -0.224 OA
HETATM   16  C15 UNL     1      -3.998   1.314  -0.520  1.00  0.00     0.028 C 
HETATM   17  C16 UNL     1      -3.926   0.744   0.902  1.00  0.00     0.002 C 
HETATM   18  C17 UNL     1      -2.445   0.492   1.189  1.00  0.00     0.000 C 
HETATM   19  C38 UNL     1      -2.135  -0.951  -0.758  1.00  0.00     0.000 C 
HETATM   20  C39 UNL     1       0.252   0.305  -1.621  1.00  0.00     0.000 C 
HETATM   21  C40 UNL     1       1.836   3.656   1.104  1.00  0.00     0.000 C 
HETATM   22  C41 UNL     1       4.455   2.686   1.563  1.00  0.00     0.002 C 
HETATM   23  C42 UNL     1       4.625   0.281   2.039  1.00  0.00     0.002 C 
ENDROOT
BRANCH  16  24
HETATM   24  C18 UNL     1      -4.705   0.342  -1.463  1.00  0.00     0.096 C 
HETATM   25  C25 UNL     1      -4.137   0.500  -2.875  1.00  0.00     0.030 C 
BRANCH  24  26
HETATM   26  C19 UNL     1      -6.213   0.578  -1.404  1.00  0.00     0.032 C 
BRANCH  26  27
HETATM   27  C20 UNL     1      -6.805   0.953  -2.764  1.00  0.00     0.028 C 
BRANCH  27  28
HETATM   28  C21 UNL     1      -8.274   1.279  -2.682  1.00  0.00    -0.032 C 
HETATM   29  C22 UNL     1      -8.633   2.557  -2.469  1.00  0.00    -0.015 C 
HETATM   30  C24 UNL     1      -7.553   3.594  -2.326  1.00  0.00     0.029 C 
BRANCH  29  31
HETATM   31  C23 UNL     1     -10.051   3.051  -2.361  1.00  0.00     0.204 C 
HETATM   32  O2  UNL     1     -10.879   2.010  -1.897  1.00  0.00    -0.216 OA
ENDBRANCH  29  31
ENDBRANCH  27  28
ENDBRANCH  26  27
ENDBRANCH  24  26
BRANCH  24  33
HETATM   33  O3  UNL     1      -4.447  -0.975  -1.029  1.00  0.00    -0.334 OA
BRANCH  33  34
HETATM   34  C26 UNL     1      -5.225  -1.945  -1.701  1.00  0.00     0.270 C 
HETATM   35  O4  UNL     1      -6.188  -2.529  -0.826  1.00  0.00    -0.326 OA
HETATM   36  C27 UNL     1      -5.672  -3.227   0.312  1.00  0.00     0.180 C 
HETATM   37  C28 UNL     1      -4.344  -3.973   0.000  1.00  0.00     0.215 C 
HETATM   38  C29 UNL     1      -4.233  -4.346  -1.492  1.00  0.00     0.220 C 
HETATM   39  O7  UNL     1      -4.272  -5.131   0.816  1.00  0.00    -0.218 OA
HETATM   40  C30 UNL     1      -4.375  -3.072  -2.381  1.00  0.00     0.241 C 
HETATM   41  O6  UNL     1      -3.043  -5.076  -1.760  1.00  0.00    -0.218 OA
HETATM   42  O5  UNL     1      -3.123  -2.561  -2.822  1.00  0.00    -0.215 OA
BRANCH  36  43
HETATM   43  C31 UNL     1      -5.533  -2.236   1.477  1.00  0.00     0.177 C 
BRANCH  43  44
HETATM   44  O8  UNL     1      -6.100  -2.824   2.625  1.00  0.00    -0.326 OA
BRANCH  44  45
HETATM   45  C32 UNL     1      -6.151  -1.945   3.732  1.00  0.00     0.270 C 
HETATM   46  O9  UNL     1      -5.238  -2.342   4.752  1.00  0.00    -0.329 OA
HETATM   47  C33 UNL     1      -5.453  -3.627   5.340  1.00  0.00     0.151 C 
HETATM   48  C34 UNL     1      -6.967  -3.969   5.520  1.00  0.00     0.212 C 
HETATM   49  C37 UNL     1      -4.629  -4.668   4.564  1.00  0.00     0.035 C 
HETATM   50  C35 UNL     1      -7.867  -2.717   5.549  1.00  0.00     0.220 C 
HETATM   51  O12 UNL     1      -7.428  -4.811   4.477  1.00  0.00    -0.218 OA
HETATM   52  C36 UNL     1      -7.578  -1.771   4.350  1.00  0.00     0.241 C 
HETATM   53  O11 UNL     1      -7.600  -2.025   6.756  1.00  0.00    -0.218 OA
HETATM   54  O10 UNL     1      -8.594  -1.928   3.371  1.00  0.00    -0.215 OA
ENDBRANCH  44  45
ENDBRANCH  43  44
ENDBRANCH  36  43
ENDBRANCH  33  34
ENDBRANCH  24  33
ENDBRANCH  16  24
BRANCH   2  55
HETATM   55  O13 UNL     1       5.695   1.580  -0.647  1.00  0.00    -0.332 OA
BRANCH  55  56
HETATM   56  C43 UNL     1       6.229   1.193  -1.898  1.00  0.00     0.267 C 
HETATM   57  O14 UNL     1       6.031   2.215  -2.883  1.00  0.00    -0.326 OA
HETATM   58  C44 UNL     1       7.057   3.201  -2.988  1.00  0.00     0.184 C 
HETATM   59  C45 UNL     1       8.399   2.545  -3.430  1.00  0.00     0.215 C 
HETATM   60  C46 UNL     1       8.537   1.045  -3.031  1.00  0.00     0.217 C 
HETATM   61  O22 UNL     1       8.613   2.754  -4.818  1.00  0.00    -0.218 OA
HETATM   62  C47 UNL     1       7.729   0.801  -1.742  1.00  0.00     0.207 C 
HETATM   63  O21 UNL     1       8.061   0.178  -4.057  1.00  0.00    -0.218 OA
BRANCH  58  64
HETATM   64  C54 UNL     1       7.172   3.965  -1.662  1.00  0.00     0.214 C 
HETATM   65  O23 UNL     1       5.930   4.570  -1.391  1.00  0.00    -0.218 OA
ENDBRANCH  58  64
BRANCH  62  66
HETATM   66  O15 UNL     1       7.842  -0.551  -1.322  1.00  0.00    -0.324 OA
BRANCH  66  67
HETATM   67  C48 UNL     1       7.875  -0.697   0.084  1.00  0.00     0.270 C 
HETATM   68  O16 UNL     1       9.086  -0.182   0.641  1.00  0.00    -0.326 OA
HETATM   69  C49 UNL     1      10.279  -0.883   0.291  1.00  0.00     0.184 C 
HETATM   70  C50 UNL     1      10.203  -2.365   0.742  1.00  0.00     0.215 C 
HETATM   71  C51 UNL     1       8.914  -3.064   0.250  1.00  0.00     0.220 C 
HETATM   72  O19 UNL     1      10.264  -2.451   2.156  1.00  0.00    -0.218 OA
HETATM   73  C52 UNL     1       7.660  -2.186   0.475  1.00  0.00     0.241 C 
HETATM   74  O18 UNL     1       9.049  -3.324  -1.135  1.00  0.00    -0.218 OA
HETATM   75  O17 UNL     1       7.293  -2.248   1.842  1.00  0.00    -0.215 OA
BRANCH  69  76
HETATM   76  C53 UNL     1      11.455  -0.121   0.914  1.00  0.00     0.214 C 
HETATM   77  O20 UNL     1      11.613   1.092   0.217  1.00  0.00    -0.218 OA
ENDBRANCH  69  76
ENDBRANCH  66  67
ENDBRANCH  62  66
ENDBRANCH  55  56
ENDBRANCH   2  55
TORSDOF 16
