REMARK  11 active torsions:
REMARK  status: ('A' for Active; 'I' for Inactive)
REMARK    1  A    between atoms: C2_2  and  O4_34 
REMARK    2  A    between atoms: C5_5  and  C28_30 
REMARK    3  A    between atoms: C15_16  and  C18_19 
REMARK    4  A    between atoms: C18_19  and  C19_20 
REMARK    5  A    between atoms: C19_20  and  C20_21 
REMARK    6  A    between atoms: C20_21  and  C21_22 
REMARK    7  A    between atoms: O4_34  and  C31_35 
REMARK    8  A    between atoms: C32_37  and  C42_55 
REMARK    9  A    between atoms: C35_40  and  O6_41 
REMARK   10  A    between atoms: O6_41  and  C36_42 
REMARK   11  A    between atoms: C37_44  and  C41_51 
ROOT
HETATM    1  C1  UNL     1       1.818   0.580   0.088  1.00  0.00     0.030 C 
HETATM    2  C2  UNL     1       2.877   0.246   1.164  1.00  0.00     0.118 C 
HETATM    3  C3  UNL     1       2.389   0.443   2.637  1.00  0.00     0.026 C 
HETATM    4  C4  UNL     1       0.834   0.377   2.721  1.00  0.00     0.009 C 
HETATM    5  C5  UNL     1       0.137   1.498   1.871  1.00  0.00     0.059 C 
HETATM    6  C6  UNL     1       0.865   1.707   0.502  1.00  0.00     0.010 C 
HETATM    7  C7  UNL     1      -1.412   1.258   1.760  1.00  0.00     0.009 C 
HETATM    8  C8  UNL     1      -1.812  -0.180   1.355  1.00  0.00     0.001 C 
HETATM    9  C9  UNL     1      -1.195  -1.172   2.357  1.00  0.00     0.000 C 
HETATM   10  C10 UNL     1       0.328  -1.057   2.416  1.00  0.00     0.001 C 
HETATM   11  C11 UNL     1      -3.359  -0.375   1.348  1.00  0.00     0.003 C 
HETATM   12  C12 UNL     1      -4.135   0.732   0.596  1.00  0.00     0.033 C 
HETATM   13  C13 UNL     1      -3.680   2.148   1.018  1.00  0.00     0.152 C 
HETATM   14  C14 UNL     1      -2.158   2.295   0.891  1.00  0.00     0.033 C 
HETATM   15  O1  UNL     1      -4.277   3.117   0.178  1.00  0.00    -0.224 OA
HETATM   16  C15 UNL     1      -5.592   0.416   0.984  1.00  0.00     0.031 C 
HETATM   17  C16 UNL     1      -5.512   0.039   2.463  1.00  0.00     0.003 C 
HETATM   18  C17 UNL     1      -4.051  -0.332   2.723  1.00  0.00     0.000 C 
HETATM   19  C26 UNL     1      -3.734  -1.744   0.752  1.00  0.00     0.000 C 
HETATM   20  C27 UNL     1      -1.350  -0.486  -0.080  1.00  0.00     0.000 C 
HETATM   21  C29 UNL     1       2.887   1.809   3.131  1.00  0.00     0.002 C 
HETATM   22  C30 UNL     1       3.010  -0.574   3.611  1.00  0.00     0.002 C 
ENDROOT
BRANCH   2  23
HETATM   23  O4  UNL     1       3.322  -1.078   0.928  1.00  0.00    -0.332 OA
BRANCH  23  24
HETATM   24  C31 UNL     1       4.639  -1.139   0.410  1.00  0.00     0.267 C 
HETATM   25  O5  UNL     1       5.484  -0.381   1.275  1.00  0.00    -0.326 OA
HETATM   26  C32 UNL     1       6.740  -0.014   0.721  1.00  0.00     0.184 C 
HETATM   27  C33 UNL     1       6.522   1.016  -0.432  1.00  0.00     0.215 C 
HETATM   28  C34 UNL     1       5.137   0.861  -1.117  1.00  0.00     0.217 C 
HETATM   29  O13 UNL     1       6.639   2.346   0.045  1.00  0.00    -0.218 OA
HETATM   30  C35 UNL     1       4.649  -0.604  -1.055  1.00  0.00     0.207 C 
HETATM   31  O12 UNL     1       5.178   1.342  -2.449  1.00  0.00    -0.218 OA
BRANCH  26  32
HETATM   32  C42 UNL     1       7.637   0.469   1.869  1.00  0.00     0.214 C 
HETATM   33  O14 UNL     1       7.949  -0.641   2.680  1.00  0.00    -0.218 OA
ENDBRANCH  26  32
BRANCH  30  34
HETATM   34  O6  UNL     1       5.506  -1.430  -1.830  1.00  0.00    -0.324 OA
BRANCH  34  35
HETATM   35  C36 UNL     1       4.943  -2.693  -2.127  1.00  0.00     0.270 C 
HETATM   36  O7  UNL     1       5.984  -3.666  -2.047  1.00  0.00    -0.326 OA
HETATM   37  C37 UNL     1       5.695  -4.908  -2.672  1.00  0.00     0.184 C 
HETATM   38  C38 UNL     1       5.649  -4.707  -4.215  1.00  0.00     0.215 C 
HETATM   39  C39 UNL     1       5.190  -3.274  -4.613  1.00  0.00     0.220 C 
HETATM   40  O10 UNL     1       4.807  -5.715  -4.750  1.00  0.00    -0.218 OA
HETATM   41  C40 UNL     1       4.275  -2.647  -3.537  1.00  0.00     0.241 C 
HETATM   42  O9  UNL     1       4.609  -3.201  -5.908  1.00  0.00    -0.218 OA
HETATM   43  O8  UNL     1       3.047  -3.354  -3.481  1.00  0.00    -0.215 OA
BRANCH  37  44
HETATM   44  C41 UNL     1       6.779  -5.901  -2.244  1.00  0.00     0.214 C 
HETATM   45  O11 UNL     1       6.604  -6.182  -0.875  1.00  0.00    -0.218 OA
ENDBRANCH  37  44
ENDBRANCH  34  35
ENDBRANCH  30  34
ENDBRANCH  23  24
ENDBRANCH   2  23
BRANCH   5  46
HETATM   46  C28 UNL     1       0.262   2.807   2.633  1.00  0.00     0.206 C 
HETATM   47  O3  UNL     1       0.500   3.842   2.057  1.00  0.00    -0.288 OA
ENDBRANCH   5  46
BRANCH  16  48
HETATM   48  C18 UNL     1      -6.629   1.510   0.738  1.00  0.00     0.127 C 
HETATM   49  C25 UNL     1      -8.010   1.006   1.160  1.00  0.00     0.033 C 
HETATM   50  O2  UNL     1      -6.293   2.623   1.535  1.00  0.00    -0.226 OA
BRANCH  48  51
HETATM   51  C19 UNL     1      -6.580   1.939  -0.729  1.00  0.00     0.035 C 
BRANCH  51  52
HETATM   52  C20 UNL     1      -7.147   3.342  -0.951  1.00  0.00     0.028 C 
BRANCH  52  53
HETATM   53  C21 UNL     1      -8.619   3.324  -1.258  1.00  0.00    -0.035 C 
HETATM   54  C22 UNL     1      -9.006   3.125  -2.529  1.00  0.00    -0.048 C 
HETATM   55  C23 UNL     1     -10.479   3.164  -2.846  1.00  0.00     0.026 C 
HETATM   56  C24 UNL     1      -7.949   2.877  -3.572  1.00  0.00     0.026 C 
ENDBRANCH  52  53
ENDBRANCH  51  52
ENDBRANCH  48  51
ENDBRANCH  16  48
TORSDOF 11
