REMARK  13 active torsions:
REMARK  status: ('A' for Active; 'I' for Inactive)
REMARK    1  A    between atoms: C2_2  and  O8_43 
REMARK    2  A    between atoms: C5_5  and  C33_39 
REMARK    3  A    between atoms: C15_15  and  C18_18 
REMARK    4  A    between atoms: C18_18  and  C19_19 
REMARK    5  A    between atoms: C18_18  and  O1_25 
REMARK    6  A    between atoms: C19_19  and  C20_20 
REMARK    7  A    between atoms: C20_20  and  C21_21 
REMARK    8  A    between atoms: O1_25  and  C25_26 
REMARK    9  A    between atoms: C26_28  and  C30_35 
REMARK   10  A    between atoms: O8_43  and  C36_44 
REMARK   11  A    between atoms: C40_49  and  O10_50 
REMARK   12  A    between atoms: O10_50  and  C41_51 
REMARK   13  A    between atoms: C42_53  and  C46_60 
ROOT
HETATM    1  C1  UNL     1       2.849  -0.064   0.910  1.00  0.00     0.030 C 
HETATM    2  C2  UNL     1       2.843  -1.280  -0.030  1.00  0.00     0.118 C 
HETATM    3  C3  UNL     1       3.785  -1.101  -1.252  1.00  0.00     0.026 C 
HETATM    4  C4  UNL     1       5.135  -0.487  -0.808  1.00  0.00     0.009 C 
HETATM    5  C5  UNL     1       5.083   0.801   0.043  1.00  0.00     0.059 C 
HETATM    6  C6  UNL     1       4.252   0.450   1.296  1.00  0.00     0.010 C 
HETATM    7  C7  UNL     1       6.530   1.345   0.285  1.00  0.00     0.007 C 
HETATM    8  C8  UNL     1       7.742   0.377   0.086  1.00  0.00     0.000 C 
HETATM    9  C9  UNL     1       7.597  -0.516  -1.178  1.00  0.00     0.000 C 
HETATM   10  C10 UNL     1       6.237  -0.379  -1.874  1.00  0.00     0.001 C 
HETATM   11  C11 UNL     1       9.014   1.286  -0.072  1.00  0.00     0.000 C 
HETATM   12  C12 UNL     1       9.232   2.083   1.235  1.00  0.00     0.002 C 
HETATM   13  C13 UNL     1       8.052   3.012   1.551  1.00  0.00     0.000 C 
HETATM   14  C14 UNL     1       6.704   2.256   1.521  1.00  0.00     0.000 C 
HETATM   15  C15 UNL     1      10.636   2.694   1.075  1.00  0.00     0.027 C 
HETATM   16  C16 UNL     1      11.412   1.631   0.257  1.00  0.00     0.002 C 
HETATM   17  C17 UNL     1      10.378   0.568  -0.169  1.00  0.00     0.000 C 
HETATM   18  C31 UNL     1       8.946   2.228  -1.316  1.00  0.00     0.000 C 
HETATM   19  C32 UNL     1       7.826  -0.590   1.301  1.00  0.00     0.000 C 
HETATM   20  C34 UNL     1       4.091  -2.513  -1.809  1.00  0.00     0.002 C 
HETATM   21  C35 UNL     1       3.117  -0.292  -2.386  1.00  0.00     0.002 C 
ENDROOT
BRANCH   2  22
HETATM   22  O8  UNL     1       1.523  -1.479  -0.476  1.00  0.00    -0.332 OA
BRANCH  22  23
HETATM   23  C36 UNL     1       0.972  -2.774  -0.345  1.00  0.00     0.267 C 
HETATM   24  O9  UNL     1       0.297  -2.810   0.897  1.00  0.00    -0.326 OA
HETATM   25  C37 UNL     1      -0.785  -1.912   1.007  1.00  0.00     0.181 C 
HETATM   26  C38 UNL     1      -1.781  -2.018  -0.137  1.00  0.00     0.214 C 
HETATM   27  C39 UNL     1      -1.086  -2.015  -1.482  1.00  0.00     0.217 C 
HETATM   28  O17 UNL     1      -2.530  -3.205  -0.032  1.00  0.00    -0.218 OA
HETATM   29  C40 UNL     1       0.006  -3.073  -1.483  1.00  0.00     0.207 C 
HETATM   30  O16 UNL     1      -2.027  -2.312  -2.487  1.00  0.00    -0.218 OA
BRANCH  29  31
HETATM   31  O10 UNL     1       0.635  -3.047  -2.739  1.00  0.00    -0.324 OA
BRANCH  31  32
HETATM   32  C41 UNL     1       0.923  -4.314  -3.308  1.00  0.00     0.270 C 
HETATM   33  O11 UNL     1       2.245  -4.176  -3.788  1.00  0.00    -0.326 OA
HETATM   34  C42 UNL     1       2.724  -5.318  -4.447  1.00  0.00     0.184 C 
HETATM   35  C43 UNL     1       1.872  -5.564  -5.683  1.00  0.00     0.215 C 
HETATM   36  C44 UNL     1       0.434  -5.771  -5.258  1.00  0.00     0.220 C 
HETATM   37  O14 UNL     1       2.293  -6.716  -6.371  1.00  0.00    -0.218 OA
HETATM   38  C45 UNL     1      -0.026  -4.571  -4.459  1.00  0.00     0.241 C 
HETATM   39  O13 UNL     1      -0.368  -5.915  -6.402  1.00  0.00    -0.218 OA
HETATM   40  O12 UNL     1      -1.318  -4.832  -3.971  1.00  0.00    -0.215 OA
BRANCH  34  41
HETATM   41  C46 UNL     1       4.191  -5.102  -4.792  1.00  0.00     0.214 C 
HETATM   42  O15 UNL     1       4.970  -5.122  -3.611  1.00  0.00    -0.218 OA
ENDBRANCH  34  41
ENDBRANCH  31  32
ENDBRANCH  29  31
ENDBRANCH  22  23
ENDBRANCH   2  22
BRANCH   5  43
HETATM   43  C33 UNL     1       4.365   1.935  -0.704  1.00  0.00     0.206 C 
HETATM   44  O7  UNL     1       3.621   2.724  -0.169  1.00  0.00    -0.288 OA
ENDBRANCH   5  43
BRANCH  15  45
HETATM   45  C18 UNL     1      11.347   3.089   2.380  1.00  0.00     0.118 C 
BRANCH  45  46
HETATM   46  C19 UNL     1      12.673   3.829   2.131  1.00  0.00     0.034 C 
BRANCH  46  47
HETATM   47  C20 UNL     1      12.579   4.998   1.133  1.00  0.00     0.028 C 
BRANCH  47  48
HETATM   48  C21 UNL     1      13.849   5.808   1.034  1.00  0.00    -0.035 C 
HETATM   49  C22 UNL     1      14.095   6.746   0.101  1.00  0.00    -0.048 C 
HETATM   50  C23 UNL     1      15.402   7.502   0.068  1.00  0.00     0.026 C 
HETATM   51  C24 UNL     1      13.117   7.131  -0.984  1.00  0.00     0.026 C 
ENDBRANCH  47  48
ENDBRANCH  46  47
ENDBRANCH  45  46
BRANCH  45  52
HETATM   52  O1  UNL     1      11.521   1.906   3.115  1.00  0.00    -0.332 OA
BRANCH  52  53
HETATM   53  C25 UNL     1      12.052   2.034   4.413  1.00  0.00     0.270 C 
HETATM   54  O2  UNL     1      13.454   1.975   4.271  1.00  0.00    -0.326 OA
HETATM   55  C26 UNL     1      14.126   2.051   5.500  1.00  0.00     0.184 C 
HETATM   56  C27 UNL     1      13.743   0.854   6.362  1.00  0.00     0.215 C 
HETATM   57  C28 UNL     1      12.241   0.817   6.556  1.00  0.00     0.220 C 
HETATM   58  O5  UNL     1      14.341   0.930   7.633  1.00  0.00    -0.218 OA
HETATM   59  C29 UNL     1      11.585   0.825   5.195  1.00  0.00     0.241 C 
HETATM   60  O4  UNL     1      11.886  -0.354   7.245  1.00  0.00    -0.218 OA
HETATM   61  O3  UNL     1      10.189   0.874   5.348  1.00  0.00    -0.215 OA
BRANCH  55  62
HETATM   62  C30 UNL     1      15.622   2.097   5.224  1.00  0.00     0.214 C 
HETATM   63  O6  UNL     1      15.938   3.274   4.507  1.00  0.00    -0.218 OA
ENDBRANCH  55  62
ENDBRANCH  52  53
ENDBRANCH  45  52
ENDBRANCH  15  45
TORSDOF 13
