REMARK  1 active torsions:
REMARK  status: ('A' for Active; 'I' for Inactive)
REMARK    1  A    between atoms: C13_16  and  O3_19 
ROOT
HETATM    1  C1  UNL     1      -0.575  -0.339  -0.180  1.00  0.00     0.119 A 
HETATM    2  C2  UNL     1      -0.532  -1.726  -0.205  1.00  0.00     0.119 A 
HETATM    3  C3  UNL     1       0.677  -2.404  -0.301  1.00  0.00     0.026 A 
HETATM    4  C4  UNL     1       1.856  -1.647  -0.373  1.00  0.00     0.039 A 
HETATM    5  C5  UNL     1       1.820  -0.239  -0.305  1.00  0.00    -0.012 A 
HETATM    6  C6  UNL     1       0.586   0.426  -0.236  1.00  0.00     0.022 A 
HETATM    7  C7  UNL     1       3.133   0.505  -0.487  1.00  0.00     0.097 C 
HETATM    8  C8  UNL     1       4.250  -0.357   0.126  1.00  0.00     0.238 C 
HETATM    9  N1  UNL     1       4.294  -1.486  -0.791  1.00  0.00     0.171 N 
HETATM   10  C9  UNL     1       3.178  -2.377  -0.499  1.00  0.00     0.390 C 
HETATM   11  O1  UNL     1       3.122  -3.429  -1.457  1.00  0.00    -0.182 OA
HETATM   12  C10 UNL     1       4.226  -0.892  -2.122  1.00  0.00     0.287 C 
HETATM   13  C11 UNL     1       3.476   0.436  -1.980  1.00  0.00     0.195 C 
HETATM   14  O2  UNL     1       2.307   0.463  -2.762  1.00  0.00    -0.221 OA
HETATM   15  C12 UNL     1       5.575   0.419   0.217  1.00  0.00     0.098 C 
HETATM   16  C13 UNL     1       5.408   1.620   1.141  1.00  0.00     0.240 C 
HETATM   17  C14 UNL     1       4.205   2.429   0.720  1.00  0.00     0.028 C 
HETATM   18  C15 UNL     1       3.181   1.927   0.013  1.00  0.00    -0.018 C 
HETATM   19  O4  UNL     1       6.588   2.407   1.046  1.00  0.00    -0.191 OA
HETATM   20  O5  UNL     1      -1.821  -2.222  -0.144  1.00  0.00    -0.300 OA
HETATM   21  C17 UNL     1      -2.713  -1.102  -0.094  1.00  0.00     0.304 A 
HETATM   22  O6  UNL     1      -1.892   0.072  -0.115  1.00  0.00    -0.300 OA
ENDROOT
BRANCH  16  23
HETATM   23  O3  UNL     1       5.328   1.145   2.473  1.00  0.00    -0.327 OA
HETATM   24  C16 UNL     1       5.164   2.155   3.446  1.00  0.00     0.177 C 
ENDBRANCH  16  23
TORSDOF 1
