REMARK  1 active torsions:
REMARK  status: ('A' for Active; 'I' for Inactive)
REMARK    1  A    between atoms: C1_1  and  C3_3 
ROOT
HETATM    1  C1  UNL     1       0.051  -0.170   0.139  1.00  0.00     0.346 C 
HETATM    2  C2  UNL     1       0.592   0.570   1.361  1.00  0.00     0.050 C 
HETATM    3  N1  UNL     1       0.539  -1.539   0.115  1.00  0.00     0.625 N 
HETATM    4  C4  UNL     1       0.690   0.646  -0.986  1.00  0.00     0.050 C 
ENDROOT
BRANCH   1   5
HETATM    5  C3  UNL     1      -1.453  -0.154   0.076  1.00  0.00     0.221 C 
HETATM    6  O1  UNL     1      -2.115   0.055   1.065  1.00  0.00    -0.646 OA
HETATM    7  O2  UNL     1      -1.970  -0.385  -1.127  1.00  0.00    -0.646 OA
ENDBRANCH   1   5
TORSDOF 1
