REMARK  0 active torsions:
REMARK  status: ('A' for Active; 'I' for Inactive)
ROOT
HETATM    1  C1  UNL     1      -0.268   1.778   0.007  1.00  0.00     0.015 C 
HETATM    2  C2  UNL     1       0.330   0.632  -0.776  1.00  0.00     0.085 C 
HETATM    3  C3  UNL     1       1.033  -0.360   0.300  1.00  0.00     0.033 C 
HETATM    4  C4  UNL     1       2.250   0.284   0.855  1.00  0.00    -0.030 C 
HETATM    5  C5  UNL     1       2.120   1.682   1.199  1.00  0.00    -0.023 C 
HETATM    6  C6  UNL     1       0.928   2.502   0.682  1.00  0.00     0.027 C 
HETATM    7  C7  UNL     1       3.003   2.271   2.051  1.00  0.00     0.037 C 
HETATM    8  C8  UNL     1       4.205   1.618   2.617  1.00  0.00     0.195 C 
HETATM    9  C9  UNL     1       5.120   0.773   1.766  1.00  0.00     0.037 C 
HETATM   10  C10 UNL     1       4.539  -0.455   1.524  1.00  0.00    -0.023 C 
HETATM   11  C11 UNL     1       3.240  -0.661   0.966  1.00  0.00    -0.030 C 
HETATM   12  C12 UNL     1       2.847  -1.991   0.298  1.00  0.00     0.029 C 
HETATM   13  C13 UNL     1       1.406  -1.859  -0.302  1.00  0.00     0.039 C 
HETATM   14  C14 UNL     1       1.117  -1.974  -1.963  1.00  0.00     0.155 C 
HETATM   15  O1  UNL     1       0.157  -1.194  -2.829  1.00  0.00    -0.302 OA
HETATM   16  C15 UNL     1      -0.043   0.349  -2.378  1.00  0.00     0.271 C 
HETATM   17  O2  UNL     1      -0.338   1.215  -3.173  1.00  0.00    -0.264 OA
HETATM   18  C16 UNL     1       1.516  -0.606  -1.785  1.00  0.00     0.180 C 
HETATM   19  C17 UNL     1      -0.279  -0.650  -1.021  1.00  0.00     0.042 C 
HETATM   20  C18 UNL     1      -1.822  -0.633  -1.486  1.00  0.00     0.003 C 
HETATM   21  O3  UNL     1       1.986  -0.010  -3.035  1.00  0.00    -0.221 OA
HETATM   22  C19 UNL     1       5.380  -1.663   1.870  1.00  0.00     0.031 C 
HETATM   23  O4  UNL     1       4.632   1.987   3.709  1.00  0.00    -0.287 OA
ENDROOT
TORSDOF 0
