REMARK  1 active torsions:
REMARK  status: ('A' for Active; 'I' for Inactive)
REMARK    1  A    between atoms: C9_10  and  C10_11 
ROOT
HETATM    1  C1  UNL     1       0.249   0.519   0.623  1.00  0.00     0.049 C 
HETATM    2  C2  UNL     1       0.134  -0.545  -0.486  1.00  0.00     0.046 C 
HETATM    3  C3  UNL     1       1.277  -1.549  -0.520  1.00  0.00     0.130 C 
HETATM    4  C4  UNL     1       2.644  -1.045  -0.044  1.00  0.00     0.058 C 
HETATM    5  C5  UNL     1       2.758   0.467   0.022  1.00  0.00    -0.005 C 
HETATM    6  C6  UNL     1       1.537   1.252   0.259  1.00  0.00    -0.017 C 
HETATM    7  C7  UNL     1       1.621   2.598   0.153  1.00  0.00     0.064 C 
HETATM    8  C8  UNL     1       2.934   3.213  -0.129  1.00  0.00     0.300 C 
HETATM    9  O1  UNL     1       4.075   2.479  -0.144  1.00  0.00    -0.278 OA
HETATM   10  C9  UNL     1       3.941   1.119  -0.129  1.00  0.00     0.076 C 
HETATM   11  O2  UNL     1       2.979   4.429  -0.305  1.00  0.00    -0.259 OA
HETATM   12  O3  UNL     1       0.826  -2.654   0.206  1.00  0.00    -0.304 OA
HETATM   13  C13 UNL     1      -0.531  -2.654   0.304  1.00  0.00     0.273 C 
HETATM   14  C14 UNL     1      -1.113  -1.432  -0.396  1.00  0.00     0.111 C 
HETATM   15  C15 UNL     1      -2.300  -0.794   0.349  1.00  0.00     0.190 C 
HETATM   16  C16 UNL     1      -2.260   0.709   0.600  1.00  0.00     0.173 A 
HETATM   17  C17 UNL     1      -1.029   1.363   0.702  1.00  0.00     0.149 A 
HETATM   18  O4  UNL     1      -1.768   1.470  -0.643  1.00  0.00    -0.351 OA
HETATM   19  O5  UNL     1      -2.529  -1.454   1.584  1.00  0.00    -0.220 OA
HETATM   20  C18 UNL     1      -1.566  -1.894  -1.799  1.00  0.00     0.013 C 
HETATM   21  O6  UNL     1      -1.194  -3.502   0.860  1.00  0.00    -0.264 OA
HETATM   22  C19 UNL     1       0.480  -0.015   2.058  1.00  0.00     0.007 C 
ENDROOT
BRANCH  10  23
HETATM   23  C10 UNL     1       5.274   0.393  -0.276  1.00  0.00     0.045 C 
HETATM   24  C11 UNL     1       5.714   0.400  -1.748  1.00  0.00     0.007 C 
HETATM   25  C12 UNL     1       6.355   1.020   0.623  1.00  0.00     0.007 C 
ENDBRANCH  10  23
TORSDOF 1
