REMARK  1 active torsions:
REMARK  status: ('A' for Active; 'I' for Inactive)
REMARK    1  A    between atoms: C21_21  and  C22_22 
ROOT
HETATM    1  C1  UNL     1      -2.449   0.275  -1.378  1.00  0.00     0.033 C 
HETATM    2  C2  UNL     1      -2.681  -0.809  -2.423  1.00  0.00     0.152 C 
HETATM    3  C3  UNL     1      -1.464  -1.747  -2.575  1.00  0.00     0.029 C 
HETATM    4  C4  UNL     1      -1.091  -2.332  -1.168  1.00  0.00     0.006 C 
HETATM    5  C5  UNL     1      -0.987  -1.326   0.015  1.00  0.00     0.015 C 
HETATM    6  C6  UNL     1      -2.225  -0.394  -0.021  1.00  0.00     0.006 C 
HETATM    7  C7  UNL     1       0.382  -0.633   0.040  1.00  0.00    -0.049 C 
HETATM    8  C8  UNL     1       1.622  -1.517  -0.051  1.00  0.00     0.018 C 
HETATM    9  C9  UNL     1       1.475  -2.632  -1.104  1.00  0.00     0.004 C 
HETATM   10  C10 UNL     1       0.100  -3.310  -1.128  1.00  0.00     0.001 C 
HETATM   11  C11 UNL     1       2.947  -0.689  -0.163  1.00  0.00     0.004 C 
HETATM   12  C12 UNL     1       2.984   0.422   0.942  1.00  0.00     0.004 C 
HETATM   13  C13 UNL     1       1.808   1.381   0.634  1.00  0.00     0.025 C 
HETATM   14  C14 UNL     1       0.510   0.670   0.351  1.00  0.00    -0.035 C 
HETATM   15  C15 UNL     1       4.323   1.248   0.898  1.00  0.00     0.000 C 
HETATM   16  C16 UNL     1       5.626   0.420   0.750  1.00  0.00     0.000 C 
HETATM   17  C17 UNL     1       5.505  -0.878  -0.068  1.00  0.00     0.000 C 
HETATM   18  C18 UNL     1       4.169  -1.615   0.045  1.00  0.00     0.000 C 
HETATM   19  C19 UNL     1       6.030   0.180   2.213  1.00  0.00     0.000 C 
HETATM   20  C20 UNL     1       5.708   1.508   2.914  1.00  0.00     0.000 C 
HETATM   21  C21 UNL     1       4.569   2.184   2.116  1.00  0.00     0.000 C 
HETATM   22  C25 UNL     1       6.750   1.242   0.064  1.00  0.00     0.000 C 
HETATM   23  C26 UNL     1       2.687  -0.183   2.348  1.00  0.00     0.000 C 
HETATM   24  C27 UNL     1       3.045  -0.079  -1.587  1.00  0.00     0.000 C 
HETATM   25  C28 UNL     1      -1.109  -2.046   1.389  1.00  0.00     0.004 C 
HETATM   26  C29 UNL     1      -1.885  -2.892  -3.534  1.00  0.00     0.003 C 
HETATM   27  C30 UNL     1      -0.313  -0.993  -3.270  1.00  0.00     0.003 C 
HETATM   28  O1  UNL     1      -3.036  -0.195  -3.641  1.00  0.00    -0.224 OA
ENDROOT
BRANCH  21  29
HETATM   29  C22 UNL     1       4.838   3.681   1.809  1.00  0.00     0.000 C 
HETATM   30  C23 UNL     1       3.687   4.354   1.036  1.00  0.00     0.000 C 
HETATM   31  C24 UNL     1       5.069   4.489   3.104  1.00  0.00     0.000 C 
ENDBRANCH  21  29
TORSDOF 1
