REMARK  29 active torsions:
REMARK  status: ('A' for Active; 'I' for Inactive)
REMARK    1  A    between atoms: C21_21  and  C22_22 
REMARK    2  A    between atoms: C31_31  and  O1_32 
REMARK    3  A    between atoms: O1_32  and  C32_33 
REMARK    4  A    between atoms: C32_33  and  C33_35 
REMARK    5  A    between atoms: C33_35  and  C34_36 
REMARK    6  A    between atoms: C34_36  and  C35_37 
REMARK    7  A    between atoms: C35_37  and  C36_38 
REMARK    8  A    between atoms: C36_38  and  C37_39 
REMARK    9  A    between atoms: C37_39  and  C38_40 
REMARK   10  A    between atoms: C38_40  and  C39_41 
REMARK   11  A    between atoms: C39_41  and  C40_42 
REMARK   12  A    between atoms: C40_42  and  C41_43 
REMARK   13  A    between atoms: C41_43  and  C42_44 
REMARK   14  A    between atoms: C42_44  and  C43_45 
REMARK   15  A    between atoms: C43_45  and  C44_46 
REMARK   16  A    between atoms: C44_46  and  C45_47 
REMARK   17  A    between atoms: C45_47  and  C46_48 
REMARK   18  A    between atoms: C46_48  and  C47_49 
REMARK   19  A    between atoms: C47_49  and  C48_50 
REMARK   20  A    between atoms: C48_50  and  C49_51 
REMARK   21  A    between atoms: C49_51  and  C50_52 
REMARK   22  A    between atoms: C50_52  and  C51_53 
REMARK   23  A    between atoms: C51_53  and  C52_54 
REMARK   24  A    between atoms: C52_54  and  C53_55 
REMARK   25  A    between atoms: C53_55  and  C54_56 
REMARK   26  A    between atoms: C54_56  and  C55_57 
REMARK   27  A    between atoms: C55_57  and  C56_58 
REMARK   28  A    between atoms: C56_58  and  C57_59 
REMARK   29  A    between atoms: C57_59  and  C58_60 
ROOT
HETATM    1  C1  UNL     1      -2.473  -3.228   3.045  1.00  0.00     0.024 C 
HETATM    2  C2  UNL     1      -2.117  -3.583   1.623  1.00  0.00    -0.020 C 
HETATM    3  C3  UNL     1      -1.026  -4.648   1.500  1.00  0.00     0.017 C 
HETATM    4  C4  UNL     1      -0.199  -4.780   2.832  1.00  0.00     0.007 C 
HETATM    5  C5  UNL     1      -0.025  -3.531   3.758  1.00  0.00     0.015 C 
HETATM    6  C6  UNL     1      -1.210  -2.548   3.572  1.00  0.00     0.008 C 
HETATM    7  C7  UNL     1       1.333  -2.819   3.637  1.00  0.00    -0.049 C 
HETATM    8  C8  UNL     1       2.592  -3.659   3.479  1.00  0.00     0.018 C 
HETATM    9  C9  UNL     1       2.340  -4.736   2.411  1.00  0.00     0.004 C 
HETATM   10  C10 UNL     1       1.109  -5.592   2.734  1.00  0.00     0.001 C 
HETATM   11  C11 UNL     1       3.907  -2.829   3.280  1.00  0.00     0.004 C 
HETATM   12  C12 UNL     1       3.953  -1.591   4.239  1.00  0.00     0.004 C 
HETATM   13  C13 UNL     1       2.722  -0.719   3.910  1.00  0.00     0.025 C 
HETATM   14  C14 UNL     1       1.442  -1.501   3.885  1.00  0.00    -0.035 C 
HETATM   15  C15 UNL     1       5.244  -0.731   4.003  1.00  0.00     0.000 C 
HETATM   16  C16 UNL     1       6.573  -1.524   3.897  1.00  0.00     0.000 C 
HETATM   17  C17 UNL     1       6.468  -2.965   3.357  1.00  0.00     0.000 C 
HETATM   18  C18 UNL     1       5.145  -3.697   3.604  1.00  0.00     0.000 C 
HETATM   19  C19 UNL     1       7.117  -1.463   5.334  1.00  0.00     0.000 C 
HETATM   20  C20 UNL     1       6.770  -0.046   5.809  1.00  0.00     0.000 C 
HETATM   21  C21 UNL     1       5.502   0.396   5.043  1.00  0.00     0.000 C 
HETATM   22  C25 UNL     1       7.583  -0.792   2.973  1.00  0.00     0.000 C 
HETATM   23  C26 UNL     1       3.772  -2.022   5.724  1.00  0.00     0.000 C 
HETATM   24  C27 UNL     1       3.994  -2.408   1.791  1.00  0.00     0.000 C 
HETATM   25  C28 UNL     1      -0.082  -3.997   5.242  1.00  0.00     0.004 C 
HETATM   26  C29 UNL     1      -1.773  -5.973   1.200  1.00  0.00     0.004 C 
HETATM   27  C30 UNL     1      -0.122  -4.369   0.283  1.00  0.00     0.004 C 
HETATM   28  C31 UNL     1      -2.695  -2.960   0.577  1.00  0.00     0.117 C 
ENDROOT
BRANCH  28  29
HETATM   29  O1  UNL     1      -3.646  -1.992   0.732  1.00  0.00    -0.275 OA
BRANCH  29  30
HETATM   30  C32 UNL     1      -3.473  -0.841   0.018  1.00  0.00     0.276 C 
HETATM   31  O2  UNL     1      -2.906  -0.769  -1.050  1.00  0.00    -0.264 OA
BRANCH  30  32
HETATM   32  C33 UNL     1      -4.089   0.332   0.766  1.00  0.00     0.096 C 
BRANCH  32  33
HETATM   33  C34 UNL     1      -3.933   1.703   0.085  1.00  0.00     0.010 C 
BRANCH  33  34
HETATM   34  C35 UNL     1      -4.809   1.877  -1.167  1.00  0.00     0.001 C 
BRANCH  34  35
HETATM   35  C36 UNL     1      -4.658   3.269  -1.811  1.00  0.00     0.000 C 
BRANCH  35  36
HETATM   36  C37 UNL     1      -3.275   3.503  -2.449  1.00  0.00     0.000 C 
BRANCH  36  37
HETATM   37  C38 UNL     1      -3.304   3.809  -3.957  1.00  0.00     0.000 C 
BRANCH  37  38
HETATM   38  C39 UNL     1      -4.041   2.771  -4.831  1.00  0.00     0.000 C 
BRANCH  38  39
HETATM   39  C40 UNL     1      -3.216   2.175  -5.990  1.00  0.00     0.000 C 
BRANCH  39  40
HETATM   40  C41 UNL     1      -2.659   0.763  -5.718  1.00  0.00     0.000 C 
BRANCH  40  41
HETATM   41  C42 UNL     1      -1.810   0.623  -4.446  1.00  0.00     0.000 C 
BRANCH  41  42
HETATM   42  C43 UNL     1      -0.465   1.363  -4.508  1.00  0.00     0.000 C 
BRANCH  42  43
HETATM   43  C44 UNL     1       0.189   1.488  -3.119  1.00  0.00     0.000 C 
BRANCH  43  44
HETATM   44  C45 UNL     1       1.688   1.149  -3.096  1.00  0.00     0.000 C 
BRANCH  44  45
HETATM   45  C46 UNL     1       2.005  -0.338  -3.329  1.00  0.00     0.000 C 
BRANCH  45  46
HETATM   46  C47 UNL     1       1.329  -1.330  -2.366  1.00  0.00     0.000 C 
BRANCH  46  47
HETATM   47  C48 UNL     1       1.802  -1.251  -0.901  1.00  0.00     0.000 C 
BRANCH  47  48
HETATM   48  C49 UNL     1       0.759  -0.765   0.128  1.00  0.00     0.000 C 
BRANCH  48  49
HETATM   49  C50 UNL     1       0.870   0.726   0.470  1.00  0.00     0.000 C 
BRANCH  49  50
HETATM   50  C51 UNL     1      -0.139   1.180   1.533  1.00  0.00     0.000 C 
BRANCH  50  51
HETATM   51  C52 UNL     1       0.029   2.641   1.990  1.00  0.00     0.000 C 
BRANCH  51  52
HETATM   52  C53 UNL     1      -0.136   3.695   0.878  1.00  0.00     0.000 C 
BRANCH  52  53
HETATM   53  C54 UNL     1       1.187   4.075   0.193  1.00  0.00     0.000 C 
BRANCH  53  54
HETATM   54  C55 UNL     1       0.991   5.014  -1.010  1.00  0.00     0.000 C 
BRANCH  54  55
HETATM   55  C56 UNL     1       2.183   4.985  -1.984  1.00  0.00     0.000 C 
BRANCH  55  56
HETATM   56  C57 UNL     1       3.507   5.457  -1.361  1.00  0.00     0.000 C 
BRANCH  56  57
HETATM   57  C58 UNL     1       4.715   5.260  -2.293  1.00  0.00     0.000 C 
HETATM   58  C59 UNL     1       5.145   3.791  -2.418  1.00  0.00     0.000 C 
ENDBRANCH  56  57
ENDBRANCH  55  56
ENDBRANCH  54  55
ENDBRANCH  53  54
ENDBRANCH  52  53
ENDBRANCH  51  52
ENDBRANCH  50  51
ENDBRANCH  49  50
ENDBRANCH  48  49
ENDBRANCH  47  48
ENDBRANCH  46  47
ENDBRANCH  45  46
ENDBRANCH  44  45
ENDBRANCH  43  44
ENDBRANCH  42  43
ENDBRANCH  41  42
ENDBRANCH  40  41
ENDBRANCH  39  40
ENDBRANCH  38  39
ENDBRANCH  37  38
ENDBRANCH  36  37
ENDBRANCH  35  36
ENDBRANCH  34  35
ENDBRANCH  33  34
ENDBRANCH  32  33
ENDBRANCH  30  32
ENDBRANCH  29  30
ENDBRANCH  28  29
BRANCH  21  59
HETATM   59  C22 UNL     1       5.604   1.843   4.491  1.00  0.00     0.000 C 
HETATM   60  C23 UNL     1       4.352   2.308   3.721  1.00  0.00     0.000 C 
HETATM   61  C24 UNL     1       5.857   2.857   5.628  1.00  0.00     0.000 C 
ENDBRANCH  21  59
TORSDOF 29
