REMARK  13 active torsions:
REMARK  status: ('A' for Active; 'I' for Inactive)
REMARK    1  A    between atoms: C2_2  and  O18_61 
REMARK    2  A    between atoms: C4_4  and  O16_58 
REMARK    3  A    between atoms: C6_6  and  C7_7 
REMARK    4  A    between atoms: C8_8  and  C9_9 
REMARK    5  A    between atoms: C9_9  and  O2_11 
REMARK    6  A    between atoms: O2_11  and  C10_12 
REMARK    7  A    between atoms: C10_12  and  C11_13 
REMARK    8  A    between atoms: C15_17  and  O4_19 
REMARK    9  A    between atoms: O4_19  and  C16_20 
REMARK   10  A    between atoms: C17_21  and  O9_30 
REMARK   11  A    between atoms: C18_23  and  C21_28 
REMARK   12  A    between atoms: O9_30  and  C22_31 
REMARK   13  A    between atoms: C36_45  and  C39_49 
ROOT
HETATM    1  C16 UNL     1       2.957  -1.750   0.957  1.00  0.00     0.207 C 
HETATM    2  C17 UNL     1       4.330  -2.161   1.451  1.00  0.00     0.267 C 
HETATM    3  O5  UNL     1       4.322  -3.413   2.103  1.00  0.00    -0.326 OA
HETATM    4  C18 UNL     1       3.778  -4.498   1.396  1.00  0.00     0.184 C 
HETATM    5  C19 UNL     1       2.446  -4.199   0.718  1.00  0.00     0.215 C 
HETATM    6  C20 UNL     1       2.390  -2.836   0.053  1.00  0.00     0.217 C 
HETATM    7  O6  UNL     1       3.106  -2.860  -1.162  1.00  0.00    -0.218 OA
HETATM    8  O7  UNL     1       1.396  -4.291   1.657  1.00  0.00    -0.218 OA
ENDROOT
BRANCH   1   9
HETATM    9  O4  UNL     1       2.143  -1.521   2.076  1.00  0.00    -0.324 OA
BRANCH   9  10
HETATM   10  C15 UNL     1       1.004  -0.740   1.799  1.00  0.00     0.270 C 
HETATM   11  C14 UNL     1      -0.131  -1.183   2.689  1.00  0.00     0.241 C 
HETATM   12  C13 UNL     1      -1.317  -0.286   2.410  1.00  0.00     0.220 C 
HETATM   13  O13 UNL     1      -0.464  -2.517   2.393  1.00  0.00    -0.215 OA
HETATM   14  C12 UNL     1      -0.894   1.152   2.643  1.00  0.00     0.215 C 
HETATM   15  O14 UNL     1      -2.377  -0.613   3.271  1.00  0.00    -0.218 OA
HETATM   16  C11 UNL     1       0.350   1.494   1.827  1.00  0.00     0.181 C 
HETATM   17  O15 UNL     1      -1.964   1.989   2.280  1.00  0.00    -0.218 OA
HETATM   18  O3  UNL     1       1.379   0.584   2.110  1.00  0.00    -0.326 OA
BRANCH  16  19
HETATM   19  C10 UNL     1       0.853   2.918   2.075  1.00  0.00     0.184 C 
BRANCH  19  20
HETATM   20  O2  UNL     1       0.609   3.693   0.928  1.00  0.00    -0.296 OA
BRANCH  20  21
HETATM   21  C9  UNL     1       0.361   5.022   1.066  1.00  0.00     0.296 C 
HETATM   22  O1  UNL     1       0.561   5.586   2.139  1.00  0.00    -0.259 OA
BRANCH  21  23
HETATM   23  C8  UNL     1      -0.230   5.858  -0.015  1.00  0.00     0.068 C 
HETATM   24  C7  UNL     1      -0.542   5.484  -1.276  1.00  0.00     0.006 C 
BRANCH  24  25
HETATM   25  C6  UNL     1      -0.407   4.162  -1.930  1.00  0.00     0.004 C 
HETATM   26  C1  UNL     1      -0.924   2.979  -1.399  1.00  0.00     0.026 C 
HETATM   27  C2  UNL     1      -0.870   1.745  -2.064  1.00  0.00     0.121 C 
HETATM   28  C3  UNL     1      -0.264   1.726  -3.337  1.00  0.00     0.175 C 
HETATM   29  C4  UNL     1       0.261   2.898  -3.909  1.00  0.00     0.121 C 
HETATM   30  O17 UNL     1      -0.197   0.597  -4.093  1.00  0.00    -0.186 OA
HETATM   31  C5  UNL     1       0.108   4.108  -3.228  1.00  0.00     0.026 C 
BRANCH  27  32
HETATM   32  O18 UNL     1      -1.371   0.654  -1.392  1.00  0.00    -0.326 OA
HETATM   33  C44 UNL     1      -0.961  -0.642  -1.758  1.00  0.00     0.181 C 
ENDBRANCH  27  32
BRANCH  29  34
HETATM   34  O16 UNL     1       0.707   2.886  -5.206  1.00  0.00    -0.326 OA
HETATM   35  C43 UNL     1       2.110   2.842  -5.325  1.00  0.00     0.181 C 
ENDBRANCH  29  34
ENDBRANCH  24  25
ENDBRANCH  21  23
ENDBRANCH  20  21
ENDBRANCH  19  20
ENDBRANCH  16  19
ENDBRANCH   9  10
ENDBRANCH   1   9
BRANCH   2  36
HETATM   36  O9  UNL     1       5.224  -2.230   0.366  1.00  0.00    -0.331 OA
BRANCH  36  37
HETATM   37  C22 UNL     1       6.527  -1.783   0.616  1.00  0.00     0.122 C 
HETATM   38  C23 UNL     1       7.419  -2.360  -0.490  1.00  0.00     0.051 C 
HETATM   39  C24 UNL     1       8.812  -1.787  -0.367  1.00  0.00    -0.047 C 
HETATM   40  C25 UNL     1       8.925  -0.273  -0.467  1.00  0.00     0.015 C 
HETATM   41  C31 UNL     1       9.861  -2.581  -0.101  1.00  0.00    -0.035 C 
HETATM   42  C26 UNL     1       8.014   0.300   0.640  1.00  0.00     0.006 C 
HETATM   43  C28 UNL     1      10.406   0.177  -0.319  1.00  0.00     0.006 C 
HETATM   44  C42 UNL     1       8.437   0.183  -1.865  1.00  0.00     0.004 C 
HETATM   45  C27 UNL     1       6.577  -0.250   0.601  1.00  0.00     0.030 C 
HETATM   46  C29 UNL     1      11.201  -0.626   0.728  1.00  0.00     0.035 C 
HETATM   47  C35 UNL     1      10.607   1.671  -0.052  1.00  0.00     0.001 C 
HETATM   48  C30 UNL     1      11.245  -2.081   0.223  1.00  0.00     0.028 C 
HETATM   49  C32 UNL     1      12.529   0.043   1.196  1.00  0.00     0.155 C 
HETATM   50  C33 UNL     1      13.117   1.130   0.253  1.00  0.00     0.035 C 
HETATM   51  C38 UNL     1      13.685  -0.941   1.393  1.00  0.00     0.180 C 
HETATM   52  O12 UNL     1      12.270   0.638   2.446  1.00  0.00    -0.223 OA
HETATM   53  C34 UNL     1      12.050   2.033  -0.412  1.00  0.00     0.003 C 
HETATM   54  C36 UNL     1      13.919   0.252  -0.743  1.00  0.00     0.063 C 
HETATM   55  C41 UNL     1      14.114   2.089   0.955  1.00  0.00     0.003 C 
HETATM   56  C37 UNL     1      14.540  -0.859   0.126  1.00  0.00     0.043 C 
HETATM   57  O10 UNL     1      14.452  -0.559   2.514  1.00  0.00    -0.221 OA
BRANCH  54  58
HETATM   58  C39 UNL     1      14.857   1.001  -1.686  1.00  0.00     0.151 C 
HETATM   59  O11 UNL     1      14.410   1.728  -2.545  1.00  0.00    -0.296 OA
HETATM   60  C40 UNL     1      16.362   0.848  -1.558  1.00  0.00     0.072 C 
ENDBRANCH  54  58
ENDBRANCH  36  37
ENDBRANCH   2  36
BRANCH   4  61
HETATM   61  C21 UNL     1       4.806  -5.157   0.479  1.00  0.00     0.214 C 
HETATM   62  O8  UNL     1       4.408  -6.482   0.184  1.00  0.00    -0.218 OA
ENDBRANCH   4  61
TORSDOF 13
