REMARK  4 active torsions:
REMARK  status: ('A' for Active; 'I' for Inactive)
REMARK    1  A    between atoms: C3_3  and  O3_16 
REMARK    2  A    between atoms: C3_3  and  C14_18 
REMARK    3  A    between atoms: C7_7  and  O2_14 
REMARK    4  A    between atoms: C14_18  and  C15_19 
ROOT
HETATM    1  C1  UNL     1      -0.787   2.395   1.121  1.00  0.00     0.041 C 
HETATM    2  C2  UNL     1      -1.270   1.064   1.683  1.00  0.00     0.183 C 
HETATM    3  C3  UNL     1      -0.817  -0.144   0.845  1.00  0.00     0.159 C 
HETATM    4  C4  UNL     1       0.715  -0.065   0.781  1.00  0.00     0.086 A 
HETATM    5  C5  UNL     1       1.442   1.148   0.913  1.00  0.00     0.016 A 
HETATM    6  C6  UNL     1       0.741   2.462   1.179  1.00  0.00     0.032 C 
HETATM    7  C7  UNL     1       2.840   1.145   0.862  1.00  0.00     0.095 A 
HETATM    8  C8  UNL     1       3.407  -0.093   0.513  1.00  0.00     0.065 A 
HETATM    9  C9  UNL     1       2.648  -1.260   0.385  1.00  0.00     0.184 A 
HETATM   10  N1  UNL     1       1.313  -1.235   0.544  1.00  0.00    -0.224 NA
HETATM   11  O1  UNL     1       3.473  -2.302   0.071  1.00  0.00    -0.287 OA
HETATM   12  C10 UNL     1       4.749  -1.793  -0.009  1.00  0.00     0.125 A 
HETATM   13  C11 UNL     1       4.778  -0.461   0.246  1.00  0.00     0.032 A 
HETATM   14  O4  UNL     1      -2.671   1.108   1.805  1.00  0.00    -0.221 OA
ENDROOT
BRANCH   3  15
HETATM   15  O3  UNL     1      -1.194  -1.306   1.562  1.00  0.00    -0.348 OA
HETATM   16  C13 UNL     1      -2.434  -1.901   1.245  1.00  0.00     0.175 C 
ENDBRANCH   3  15
BRANCH   3  17
HETATM   17  C14 UNL     1      -1.345  -0.096  -0.607  1.00  0.00     0.061 C 
BRANCH  17  18
HETATM   18  C15 UNL     1      -1.053  -1.278  -1.501  1.00  0.00    -0.032 C 
HETATM   19  C16 UNL     1      -1.544  -1.450  -2.742  1.00  0.00    -0.048 C 
HETATM   20  C17 UNL     1      -1.202  -2.674  -3.559  1.00  0.00     0.026 C 
HETATM   21  C18 UNL     1      -2.463  -0.470  -3.432  1.00  0.00     0.026 C 
ENDBRANCH  17  18
ENDBRANCH   3  17
BRANCH   7  22
HETATM   22  O2  UNL     1       3.599   2.285   0.889  1.00  0.00    -0.328 OA
HETATM   23  C12 UNL     1       4.148   2.576   2.154  1.00  0.00     0.181 C 
ENDBRANCH   7  22
TORSDOF 4
