REMARK  0 active torsions:
REMARK  status: ('A' for Active; 'I' for Inactive)
ROOT
HETATM    1  C1  UNL     1      -2.069   1.348   0.022  1.00  0.00     0.133 A 
HETATM    2  C2  UNL     1      -2.184  -0.070  -0.107  1.00  0.00     0.028 A 
HETATM    3  C3  UNL     1      -1.091  -0.909  -0.145  1.00  0.00     0.003 A 
HETATM    4  C4  UNL     1       0.193  -0.317  -0.050  1.00  0.00     0.015 A 
HETATM    5  C5  UNL     1       0.325   1.071   0.082  1.00  0.00     0.083 A 
HETATM    6  C6  UNL     1      -0.813   1.915   0.119  1.00  0.00     0.046 A 
HETATM    7  N1  UNL     1       1.671   1.362   0.167  1.00  0.00    -0.245 NA
HETATM    8  C7  UNL     1       2.395   0.178   0.084  1.00  0.00     0.090 A 
HETATM    9  C8  UNL     1       1.507  -0.863  -0.040  1.00  0.00     0.000 A 
HETATM   10  C9  UNL     1       1.983  -2.276  -0.096  1.00  0.00     0.054 C 
HETATM   11  C10 UNL     1       3.418  -2.254  -0.648  1.00  0.00     0.130 C 
HETATM   12  N2  UNL     1       4.336  -1.214  -0.108  1.00  0.00    -0.273 NA
HETATM   13  C11 UNL     1       3.829  -0.067   0.159  1.00  0.00     0.071 C 
HETATM   14  C12 UNL     1       4.805   1.002   0.573  1.00  0.00     0.053 C 
HETATM   15  O1  UNL     1      -3.177   2.135   0.062  1.00  0.00    -0.190 OA
ENDROOT
TORSDOF 0
