REMARK  1 active torsions:
REMARK  status: ('A' for Active; 'I' for Inactive)
REMARK    1  A    between atoms: C2_2  and  O1_15 
ROOT
HETATM    1  C1  UNL     1       0.393   2.005  -0.093  1.00  0.00     0.024 A 
HETATM    2  C2  UNL     1      -0.231   0.727  -0.003  1.00  0.00     0.096 A 
HETATM    3  C3  UNL     1       0.601  -0.388   0.053  1.00  0.00     0.043 A 
HETATM    4  C4  UNL     1       2.002  -0.218   0.041  1.00  0.00     0.083 A 
HETATM    5  C5  UNL     1       2.581   1.054  -0.040  1.00  0.00     0.019 A 
HETATM    6  C6  UNL     1       1.764   2.197  -0.108  1.00  0.00     0.004 A 
HETATM    7  C7  UNL     1       4.007   0.874  -0.041  1.00  0.00     0.022 A 
HETATM    8  C8  UNL     1       4.255  -0.503   0.040  1.00  0.00     0.095 A 
HETATM    9  N1  UNL     1       3.021  -1.159   0.091  1.00  0.00    -0.244 NA
HETATM   10  C9  UNL     1       5.577  -0.993   0.056  1.00  0.00     0.077 A 
HETATM   11  N2  UNL     1       6.597  -0.146  -0.008  1.00  0.00    -0.247 NA
HETATM   12  C10 UNL     1       6.349   1.189  -0.088  1.00  0.00     0.099 A 
HETATM   13  C11 UNL     1       5.090   1.769  -0.110  1.00  0.00     0.022 A 
HETATM   14  C12 UNL     1       5.916  -2.456   0.135  1.00  0.00     0.054 C 
ENDROOT
BRANCH   2  15
HETATM   15  O1  UNL     1      -1.603   0.675  -0.020  1.00  0.00    -0.328 OA
HETATM   16  C13 UNL     1      -2.226  -0.586  -0.093  1.00  0.00     0.181 C 
ENDBRANCH   2  15
TORSDOF 1
