REMARK  6 active torsions:
REMARK  status: ('A' for Active; 'I' for Inactive)
REMARK    1  A    between atoms: C3_3  and  O2_7 
REMARK    2  A    between atoms: O2_7  and  C6_8 
REMARK    3  A    between atoms: C7_10  and  C11_17 
REMARK    4  A    between atoms: C12_19  and  C15_23 
REMARK    5  A    between atoms: C15_23  and  O9_24 
REMARK    6  A    between atoms: O9_24  and  C16_25 
ROOT
HETATM    1  C1  UNL     1       0.502   3.504   1.354  1.00  0.00     0.059 C 
HETATM    2  C2  UNL     1       0.494   1.973   1.350  1.00  0.00     0.066 C 
HETATM    3  C3  UNL     1       1.182   1.499   0.088  1.00  0.00     0.242 C 
HETATM    4  O1  UNL     1       2.519   1.973   0.030  1.00  0.00    -0.304 OA
HETATM    5  C4  UNL     1       2.815   3.184   0.592  1.00  0.00     0.115 C 
HETATM    6  C5  UNL     1       1.922   3.953   1.234  1.00  0.00     0.003 C 
HETATM    7  C12 UNL     1      -1.004   1.708   1.577  1.00  0.00     0.038 C 
HETATM    8  C13 UNL     1      -1.315   2.703   2.724  1.00  0.00     0.036 C 
HETATM    9  C14 UNL     1      -0.273   3.828   2.624  1.00  0.00     0.156 C 
HETATM   10  O8  UNL     1      -0.884   5.090   2.524  1.00  0.00    -0.223 OA
ENDROOT
BRANCH   3  11
HETATM   11  O2  UNL     1       1.355   0.101   0.154  1.00  0.00    -0.304 OA
BRANCH  11  12
HETATM   12  C6  UNL     1       1.770  -0.475  -1.068  1.00  0.00     0.272 C 
HETATM   13  O3  UNL     1       0.650  -1.195  -1.530  1.00  0.00    -0.326 OA
HETATM   14  C7  UNL     1       0.904  -1.864  -2.738  1.00  0.00     0.184 C 
HETATM   15  C8  UNL     1       2.038  -2.867  -2.537  1.00  0.00     0.215 C 
HETATM   16  C9  UNL     1       3.281  -2.158  -2.037  1.00  0.00     0.220 C 
HETATM   17  O6  UNL     1       2.380  -3.521  -3.734  1.00  0.00    -0.218 OA
HETATM   18  C10 UNL     1       2.926  -1.400  -0.778  1.00  0.00     0.241 C 
HETATM   19  O5  UNL     1       4.282  -3.101  -1.754  1.00  0.00    -0.218 OA
HETATM   20  O4  UNL     1       4.028  -0.627  -0.371  1.00  0.00    -0.215 OA
BRANCH  14  21
HETATM   21  C11 UNL     1      -0.396  -2.512  -3.195  1.00  0.00     0.214 C 
HETATM   22  O7  UNL     1      -0.376  -2.720  -4.593  1.00  0.00    -0.218 OA
ENDBRANCH  14  21
ENDBRANCH  11  12
ENDBRANCH   3  11
BRANCH   7  23
HETATM   23  C15 UNL     1      -1.391   0.266   1.907  1.00  0.00     0.152 C 
BRANCH  23  24
HETATM   24  O9  UNL     1      -1.591  -0.446   0.714  1.00  0.00    -0.302 OA
BRANCH  24  25
HETATM   25  C16 UNL     1      -1.855  -1.785   0.717  1.00  0.00     0.272 C 
HETATM   26  O10 UNL     1      -2.093  -2.405  -0.297  1.00  0.00    -0.264 OA
HETATM   27  C17 UNL     1      -1.833  -2.471   2.072  1.00  0.00     0.106 C 
ENDBRANCH  24  25
ENDBRANCH  23  24
ENDBRANCH   7  23
TORSDOF 6
