REMARK  0 active torsions:
REMARK  status: ('A' for Active; 'I' for Inactive)
ROOT
HETATM    1  C1  UNL     1      -2.385   1.172   0.263  1.00  0.00     0.090 C 
HETATM    2  C2  UNL     1      -1.614  -0.126   0.123  1.00  0.00     0.160 C 
HETATM    3  C3  UNL     1      -0.177   0.034   0.649  1.00  0.00     0.092 C 
HETATM    4  C4  UNL     1      -0.077   1.543   0.780  1.00  0.00    -0.040 C 
HETATM    5  C5  UNL     1      -1.276   2.121   0.602  1.00  0.00    -0.026 C 
HETATM    6  C6  UNL     1       1.161   2.356   1.118  1.00  0.00     0.021 C 
HETATM    7  C7  UNL     1       2.471   1.640   1.536  1.00  0.00     0.034 C 
HETATM    8  C8  UNL     1       2.770   0.271   0.933  1.00  0.00     0.128 C 
HETATM    9  C9  UNL     1       2.166   0.051  -0.434  1.00  0.00     0.070 C 
HETATM   10  C10 UNL     1       0.778  -0.550  -0.405  1.00  0.00     0.131 C 
HETATM   11  O1  UNL     1       0.943  -1.934  -0.281  1.00  0.00    -0.334 OA
HETATM   12  C11 UNL     1       2.251  -2.300  -0.653  1.00  0.00     0.228 C 
HETATM   13  C12 UNL     1       3.040  -1.047  -1.029  1.00  0.00     0.132 C 
HETATM   14  C13 UNL     1       4.344  -0.834  -0.267  1.00  0.00     0.276 C 
HETATM   15  O2  UNL     1       4.134   0.008   0.784  1.00  0.00    -0.304 OA
HETATM   16  O3  UNL     1       5.422  -1.286  -0.585  1.00  0.00    -0.264 OA
HETATM   17  C14 UNL     1       3.270  -0.845  -2.533  1.00  0.00     0.015 C 
HETATM   18  O4  UNL     1       2.726  -2.823   0.571  1.00  0.00    -0.195 OA
HETATM   19  C15 UNL     1       2.210  -3.428  -1.665  1.00  0.00     0.065 C 
HETATM   20  C16 UNL     1       1.416   3.422   0.028  1.00  0.00     0.004 C 
HETATM   21  C17 UNL     1      -0.216  -0.624   2.043  1.00  0.00     0.014 C 
HETATM   22  O5  UNL     1      -2.064  -1.135  -0.367  1.00  0.00    -0.295 OA
ENDROOT
TORSDOF 0
