REMARK  10 active torsions:
REMARK  status: ('A' for Active; 'I' for Inactive)
REMARK    1  A    between atoms: C3_3  and  C53_72 
REMARK    2  A    between atoms: C23_23  and  O1_27 
REMARK    3  A    between atoms: O1_27  and  C27_28 
REMARK    4  A    between atoms: C28_30  and  C44_57 
REMARK    5  A    between atoms: C29_31  and  O5_36 
REMARK    6  A    between atoms: O5_36  and  C32_37 
REMARK    7  A    between atoms: C35_41  and  O8_44 
REMARK    8  A    between atoms: O8_44  and  C37_45 
REMARK    9  A    between atoms: C44_57  and  O14_58 
REMARK   10  A    between atoms: O14_58  and  C45_59 
ROOT
HETATM    1  C27 UNL     1       6.454  -0.361  -0.827  1.00  0.00     0.270 C 
HETATM    2  O2  UNL     1       5.478   0.002   0.129  1.00  0.00    -0.326 OA
HETATM    3  C28 UNL     1       4.932  -1.107   0.811  1.00  0.00     0.177 C 
HETATM    4  C29 UNL     1       5.993  -1.940   1.560  1.00  0.00     0.180 C 
HETATM    5  C30 UNL     1       7.050  -2.366   0.555  1.00  0.00     0.217 C 
HETATM    6  C31 UNL     1       7.548  -1.118  -0.114  1.00  0.00     0.241 C 
HETATM    7  O3  UNL     1       8.546  -1.507  -1.017  1.00  0.00    -0.215 OA
HETATM    8  O4  UNL     1       8.200  -2.929   1.135  1.00  0.00    -0.218 OA
ENDROOT
BRANCH   1   9
HETATM    9  O1  UNL     1       7.088   0.818  -1.279  1.00  0.00    -0.332 OA
BRANCH   9  10
HETATM   10  C23 UNL     1       6.687   1.426  -2.475  1.00  0.00     0.118 C 
HETATM   11  C22 UNL     1       6.978   2.943  -2.362  1.00  0.00     0.030 C 
HETATM   12  C21 UNL     1       8.406   3.410  -2.756  1.00  0.00     0.003 C 
HETATM   13  C20 UNL     1       9.479   2.297  -2.657  1.00  0.00     0.001 C 
HETATM   14  C15 UNL     1      10.897   2.746  -3.173  1.00  0.00     0.005 C 
HETATM   15  C19 UNL     1       8.983   1.182  -3.639  1.00  0.00     0.002 C 
HETATM   16  C50 UNL     1       9.562   1.944  -1.148  1.00  0.00     0.000 C 
HETATM   17  C14 UNL     1      11.460   4.030  -2.527  1.00  0.00     0.025 C 
HETATM   18  C16 UNL     1      11.983   1.625  -3.277  1.00  0.00     0.004 C 
HETATM   19  C13 UNL     1      12.964   4.145  -2.521  1.00  0.00    -0.035 C 
HETATM   20  C12 UNL     1      13.824   3.302  -3.121  1.00  0.00    -0.049 C 
HETATM   21  C2  UNL     1      15.314   3.595  -3.047  1.00  0.00     0.030 C 
HETATM   22  C11 UNL     1      13.285   2.178  -3.993  1.00  0.00     0.017 C 
HETATM   23  C1  UNL     1      15.742   4.683  -4.050  1.00  0.00     0.005 C 
HETATM   24  C3  UNL     1      16.178   2.316  -3.066  1.00  0.00     0.110 C 
HETATM   25  C6  UNL     1      17.238   5.056  -3.972  1.00  0.00     0.000 C 
HETATM   26  C5  UNL     1      18.098   3.779  -4.046  1.00  0.00     0.001 C 
HETATM   27  C7  UNL     1      17.590   5.963  -5.174  1.00  0.00     0.000 C 
HETATM   28  C8  UNL     1      17.547   5.849  -2.683  1.00  0.00     0.000 C 
HETATM   29  C4  UNL     1      17.678   2.689  -3.049  1.00  0.00     0.013 C 
HETATM   30  C9  UNL     1      15.794   1.409  -4.247  1.00  0.00     0.162 C 
HETATM   31  C10 UNL     1      14.312   1.036  -4.238  1.00  0.00     0.037 C 
HETATM   32  O19 UNL     1      16.126   1.960  -5.496  1.00  0.00    -0.223 OA
HETATM   33  C52 UNL     1      13.010   2.834  -5.373  1.00  0.00     0.004 C 
HETATM   34  C17 UNL     1      11.392   0.440  -4.081  1.00  0.00     0.000 C 
HETATM   35  C51 UNL     1      12.368   1.105  -1.863  1.00  0.00     0.000 C 
HETATM   36  C18 UNL     1       9.977   0.005  -3.670  1.00  0.00     0.000 C 
HETATM   37  C24 UNL     1       7.445   0.870  -3.704  1.00  0.00     0.025 C 
HETATM   38  C25 UNL     1       7.135  -0.626  -3.949  1.00  0.00     0.002 C 
HETATM   39  C26 UNL     1       6.814   1.543  -4.965  1.00  0.00     0.002 C 
BRANCH  24  40
HETATM   40  C53 UNL     1      15.934   1.562  -1.745  1.00  0.00     0.187 C 
HETATM   41  O20 UNL     1      16.499   0.340  -1.728  1.00  0.00    -0.647 OA
HETATM   42  O21 UNL     1      15.361   1.972  -0.764  1.00  0.00    -0.647 OA
ENDBRANCH  24  40
ENDBRANCH   9  10
ENDBRANCH   1   9
BRANCH   3  43
HETATM   43  C44 UNL     1       3.836  -0.604   1.757  1.00  0.00     0.177 C 
BRANCH  43  44
HETATM   44  O14 UNL     1       2.605  -0.561   1.074  1.00  0.00    -0.326 OA
BRANCH  44  45
HETATM   45  C45 UNL     1       1.483  -0.558   1.934  1.00  0.00     0.270 C 
HETATM   46  O15 UNL     1       1.350  -1.889   2.393  1.00  0.00    -0.326 OA
HETATM   47  C46 UNL     1       0.238  -2.055   3.240  1.00  0.00     0.181 C 
HETATM   48  C47 UNL     1      -1.045  -1.726   2.498  1.00  0.00     0.215 C 
HETATM   49  C48 UNL     1      -0.978  -0.309   1.969  1.00  0.00     0.220 C 
HETATM   50  O18 UNL     1      -2.153  -1.827   3.359  1.00  0.00    -0.218 OA
HETATM   51  C49 UNL     1       0.268  -0.174   1.120  1.00  0.00     0.241 C 
HETATM   52  O17 UNL     1      -2.117  -0.045   1.190  1.00  0.00    -0.218 OA
HETATM   53  O16 UNL     1       0.388   1.160   0.697  1.00  0.00    -0.215 OA
ENDBRANCH  44  45
ENDBRANCH  43  44
ENDBRANCH   3  43
BRANCH   4  54
HETATM   54  O5  UNL     1       5.354  -3.042   2.153  1.00  0.00    -0.326 OA
BRANCH  54  55
HETATM   55  C32 UNL     1       6.194  -3.899   2.899  1.00  0.00     0.270 C 
HETATM   56  O6  UNL     1       6.342  -5.053   2.100  1.00  0.00    -0.329 OA
HETATM   57  C33 UNL     1       7.127  -6.056   2.692  1.00  0.00     0.151 C 
HETATM   58  C34 UNL     1       6.669  -6.412   4.109  1.00  0.00     0.209 C 
HETATM   59  C43 UNL     1       8.623  -5.753   2.559  1.00  0.00     0.035 C 
HETATM   60  C35 UNL     1       6.414  -5.194   5.001  1.00  0.00     0.186 C 
HETATM   61  O13 UNL     1       5.492  -7.186   4.036  1.00  0.00    -0.218 OA
HETATM   62  C36 UNL     1       5.516  -4.268   4.191  1.00  0.00     0.238 C 
HETATM   63  O7  UNL     1       5.151  -3.109   4.893  1.00  0.00    -0.215 OA
BRANCH  60  64
HETATM   64  O8  UNL     1       7.684  -4.692   5.329  1.00  0.00    -0.326 OA
BRANCH  64  65
HETATM   65  C37 UNL     1       7.747  -3.549   6.154  1.00  0.00     0.270 C 
HETATM   66  O9  UNL     1       8.071  -2.492   5.276  1.00  0.00    -0.329 OA
HETATM   67  C38 UNL     1       8.234  -1.251   5.907  1.00  0.00     0.151 C 
HETATM   68  C39 UNL     1       9.261  -1.301   7.036  1.00  0.00     0.212 C 
HETATM   69  C42 UNL     1       6.890  -0.634   6.300  1.00  0.00     0.035 C 
HETATM   70  C40 UNL     1       9.113  -2.503   7.952  1.00  0.00     0.220 C 
HETATM   71  O12 UNL     1      10.556  -1.343   6.477  1.00  0.00    -0.218 OA
HETATM   72  C41 UNL     1       8.882  -3.752   7.131  1.00  0.00     0.241 C 
HETATM   73  O11 UNL     1       8.017  -2.338   8.817  1.00  0.00    -0.218 OA
HETATM   74  O10 UNL     1       8.549  -4.804   8.001  1.00  0.00    -0.215 OA
ENDBRANCH  64  65
ENDBRANCH  60  64
ENDBRANCH  54  55
ENDBRANCH   4  54
TORSDOF 10
