REMARK  4 active torsions:
REMARK  status: ('A' for Active; 'I' for Inactive)
REMARK    1  A    between atoms: C7_9  and  O3_10 
REMARK    2  A    between atoms: C10_13  and  C12_16 
REMARK    3  A    between atoms: C14_18  and  O6_24 
REMARK    4  A    between atoms: C17_21  and  O5_22 
ROOT
HETATM    1  C1  UNL     1       9.685  -0.163  -2.052  1.00  0.00     0.304 A 
HETATM    2  O1  UNL     1       8.924  -0.762  -0.996  1.00  0.00    -0.298 OA
HETATM    3  C2  UNL     1       7.659  -0.196  -1.009  1.00  0.00     0.141 A 
HETATM    4  C3  UNL     1       7.596   0.716  -2.055  1.00  0.00     0.123 A 
HETATM    5  O2  UNL     1       8.808   0.756  -2.710  1.00  0.00    -0.299 OA
HETATM    6  C4  UNL     1       6.431   1.423  -2.330  1.00  0.00     0.051 A 
HETATM    7  C5  UNL     1       5.314   1.223  -1.508  1.00  0.00     0.107 A 
HETATM    8  C6  UNL     1       5.435   0.351  -0.405  1.00  0.00     0.086 A 
HETATM    9  C7  UNL     1       6.575  -0.453  -0.166  1.00  0.00     0.123 A 
HETATM   10  C9  UNL     1       4.240   0.231   0.477  1.00  0.00     0.201 C 
HETATM   11  C10 UNL     1       2.968   0.662  -0.154  1.00  0.00     0.066 C 
HETATM   12  C11 UNL     1       3.016   1.453  -1.238  1.00  0.00     0.126 C 
HETATM   13  O4  UNL     1       4.176   1.934  -1.764  1.00  0.00    -0.305 OA
HETATM   14  O7  UNL     1       4.253  -0.211   1.620  1.00  0.00    -0.286 OA
ENDROOT
BRANCH  11  15
HETATM   15  C12 UNL     1       1.646   0.281   0.446  1.00  0.00     0.029 A 
HETATM   16  C13 UNL     1       0.957   1.370   1.001  1.00  0.00     0.026 A 
HETATM   17  C14 UNL     1      -0.328   1.295   1.545  1.00  0.00     0.094 A 
HETATM   18  C15 UNL     1      -0.932   0.034   1.459  1.00  0.00     0.026 A 
HETATM   19  C16 UNL     1      -0.262  -1.055   0.906  1.00  0.00     0.026 A 
HETATM   20  C17 UNL     1       1.031  -0.979   0.361  1.00  0.00     0.094 A 
BRANCH  17  21
HETATM   21  O6  UNL     1      -0.941   2.440   1.986  1.00  0.00    -0.328 OA
HETATM   22  C19 UNL     1      -2.350   2.461   2.014  1.00  0.00     0.181 C 
ENDBRANCH  17  21
BRANCH  20  23
HETATM   23  O5  UNL     1       1.536  -2.124  -0.206  1.00  0.00    -0.328 OA
HETATM   24  C18 UNL     1       2.878  -2.477   0.015  1.00  0.00     0.181 C 
ENDBRANCH  20  23
ENDBRANCH  11  15
BRANCH   9  25
HETATM   25  O3  UNL     1       6.669  -1.327   0.882  1.00  0.00    -0.326 OA
HETATM   26  C8  UNL     1       6.766  -2.681   0.501  1.00  0.00     0.181 C 
ENDBRANCH   9  25
TORSDOF 4
