REMARK  2 active torsions:
REMARK  status: ('A' for Active; 'I' for Inactive)
REMARK    1  A    between atoms: C3_3  and  C13_15 
REMARK    2  A    between atoms: C6_6  and  C7_7 
ROOT
HETATM    1  C1  UNL     1       3.331  -0.104   1.675  1.00  0.00     0.159 A 
HETATM    2  C2  UNL     1       3.332   0.587   0.429  1.00  0.00     0.152 A 
HETATM    3  C3  UNL     1       2.251   0.524  -0.430  1.00  0.00     0.005 A 
HETATM    4  C4  UNL     1       1.093  -0.240  -0.023  1.00  0.00    -0.000 A 
HETATM    5  C5  UNL     1       1.038  -0.865   1.245  1.00  0.00     0.030 A 
HETATM    6  C6  UNL     1       2.214  -0.815   2.066  1.00  0.00     0.072 A 
HETATM    7  C8  UNL     1      -0.158  -1.559   1.645  1.00  0.00     0.131 A 
HETATM    8  O2  UNL     1      -0.313  -2.160   2.853  1.00  0.00    -0.190 OA
HETATM    9  C9  UNL     1      -1.206  -1.663   0.759  1.00  0.00     0.023 A 
HETATM   10  C10 UNL     1      -1.162  -1.096  -0.537  1.00  0.00    -0.020 A 
HETATM   11  C11 UNL     1      -0.039  -0.385  -0.889  1.00  0.00    -0.004 A 
HETATM   12  C12 UNL     1      -2.327  -1.274  -1.478  1.00  0.00     0.031 C 
HETATM   13  O3  UNL     1       4.416   1.367   0.171  1.00  0.00    -0.188 OA
HETATM   14  O4  UNL     1       4.451  -0.033   2.448  1.00  0.00    -0.188 OA
ENDROOT
BRANCH   3  15
HETATM   15  C13 UNL     1       2.258   1.254  -1.781  1.00  0.00     0.024 C 
HETATM   16  C14 UNL     1       1.438   2.552  -1.673  1.00  0.00     0.005 C 
HETATM   17  C15 UNL     1       3.606   1.551  -2.468  1.00  0.00     0.005 C 
ENDBRANCH   3  15
BRANCH   6  18
HETATM   18  C7  UNL     1       2.272  -1.461   3.418  1.00  0.00     0.236 C 
HETATM   19  O1  UNL     1       3.236  -2.097   3.803  1.00  0.00    -0.283 OA
ENDBRANCH   6  18
TORSDOF 2
