REMARK  11 active torsions:
REMARK  status: ('A' for Active; 'I' for Inactive)
REMARK    1  A    between atoms: C1_1  and  C2_2 
REMARK    2  A    between atoms: C1_1  and  C16_18 
REMARK    3  A    between atoms: C3_3  and  C4_4 
REMARK    4  A    between atoms: C5_5  and  C6_6 
REMARK    5  A    between atoms: C7_7  and  C8_8 
REMARK    6  A    between atoms: C8_8  and  C9_9 
REMARK    7  A    between atoms: C9_9  and  C10_10 
REMARK    8  A    between atoms: C10_10  and  C11_11 
REMARK    9  A    between atoms: C11_11  and  C12_12 
REMARK   10  A    between atoms: C12_12  and  C13_13 
REMARK   11  A    between atoms: C13_13  and  C14_14 
ROOT
HETATM    1  C6  UNL     1       5.508   1.313  -0.255  1.00  0.00     0.048 C 
HETATM    2  C7  UNL     1       6.372   0.744  -1.108  1.00  0.00     0.015 C 
ENDROOT
BRANCH   2   3
HETATM    3  C8  UNL     1       7.845   0.589  -0.806  1.00  0.00     0.175 C 
HETATM    4  O1  UNL     1       8.602   1.078  -1.900  1.00  0.00    -0.219 OA
BRANCH   3   5
HETATM    5  C9  UNL     1       8.199  -0.877  -0.536  1.00  0.00     0.038 C 
BRANCH   5   6
HETATM    6  C10 UNL     1       9.303  -1.087   0.517  1.00  0.00     0.003 C 
BRANCH   6   7
HETATM    7  C11 UNL     1      10.675  -0.503   0.145  1.00  0.00     0.000 C 
BRANCH   7   8
HETATM    8  C12 UNL     1      11.708  -0.595   1.284  1.00  0.00     0.000 C 
BRANCH   8   9
HETATM    9  C13 UNL     1      12.167  -2.026   1.605  1.00  0.00     0.000 C 
BRANCH   9  10
HETATM   10  C14 UNL     1      13.089  -2.116   2.835  1.00  0.00     0.000 C 
HETATM   11  C15 UNL     1      14.422  -1.375   2.670  1.00  0.00     0.000 C 
ENDBRANCH   9  10
ENDBRANCH   8   9
ENDBRANCH   7   8
ENDBRANCH   6   7
ENDBRANCH   5   6
ENDBRANCH   3   5
ENDBRANCH   2   3
BRANCH   1  12
HETATM   12  C5  UNL     1       4.067   1.423  -0.554  1.00  0.00    -0.051 C 
HETATM   13  C4  UNL     1       2.875   1.520  -0.755  1.00  0.00    -0.009 C 
BRANCH  13  14
HETATM   14  C3  UNL     1       1.444   1.643  -0.957  1.00  0.00    -0.011 C 
HETATM   15  C2  UNL     1       0.246   1.754  -1.104  1.00  0.00    -0.041 C 
BRANCH  15  16
HETATM   16  C1  UNL     1      -1.214   1.912  -1.236  1.00  0.00     0.238 C 
HETATM   17  O2  UNL     1      -1.575   3.290  -1.259  1.00  0.00    -0.204 OA
BRANCH  16  18
HETATM   18  C16 UNL     1      -1.729   1.260  -2.491  1.00  0.00     0.019 C 
HETATM   19  C17 UNL     1      -2.720   0.358  -2.510  1.00  0.00    -0.001 C 
ENDBRANCH  16  18
ENDBRANCH  15  16
ENDBRANCH  13  14
ENDBRANCH   1  12
TORSDOF 11
