REMARK  3 active torsions:
REMARK  status: ('A' for Active; 'I' for Inactive)
REMARK    1  A    between atoms: N2_3  and  C4_6 
REMARK    2  A    between atoms: C4_6  and  C5_7 
REMARK    3  A    between atoms: C5_7  and  C6_9 
ROOT
HETATM    1  C4  UNL     1      -0.770  -0.305   0.928  1.00  0.00     0.178 C 
ENDROOT
BRANCH   1   2
HETATM    2  N2  UNL     1       0.572   0.297   0.928  1.00  0.00    -0.247 N 
HETATM    3  N1  UNL     1       1.719  -0.389   0.928  1.00  0.00    -0.168 NA
HETATM    4  C1  UNL     1       2.779   0.441   0.928  1.00  0.00     0.122 A 
HETATM    5  C3  UNL     1       2.236   1.742   0.928  1.00  0.00     0.043 A 
HETATM    6  C2  UNL     1       0.830   1.621   0.928  1.00  0.00     0.097 A 
ENDBRANCH   1   2
BRANCH   1   7
HETATM    7  C5  UNL     1      -1.068  -0.977  -0.414  1.00  0.00     0.411 C 
HETATM    8  N3  UNL     1      -2.352  -1.656  -0.367  1.00  0.00     0.630 N 
BRANCH   7   9
HETATM    9  C6  UNL     1      -1.037  -0.004  -1.563  1.00  0.00     0.226 C 
HETATM   10  O1  UNL     1      -0.303  -0.383  -2.604  1.00  0.00    -0.646 OA
HETATM   11  O2  UNL     1      -1.647   1.037  -1.512  1.00  0.00    -0.646 OA
ENDBRANCH   7   9
ENDBRANCH   1   7
TORSDOF 3
