REMARK  3 active torsions:
REMARK  status: ('A' for Active; 'I' for Inactive)
REMARK    1  A    between atoms: C1_2  and  C2_3 
REMARK    2  A    between atoms: C4_6  and  C14_17 
REMARK    3  A    between atoms: C14_17  and  C15_18 
ROOT
HETATM    1  C2  UNL     1       3.552  -0.672  -1.261  1.00  0.00     0.067 A 
HETATM    2  C3  UNL     1       3.151   0.557  -0.651  1.00  0.00     0.132 A 
HETATM    3  O2  UNL     1       4.037   1.583  -0.546  1.00  0.00    -0.190 OA
HETATM    4  C4  UNL     1       1.862   0.698  -0.144  1.00  0.00     0.025 A 
HETATM    5  C5  UNL     1       0.997  -0.422  -0.232  1.00  0.00     0.080 A 
HETATM    6  C6  UNL     1       1.396  -1.619  -0.844  1.00  0.00     0.019 A 
HETATM    7  C7  UNL     1       2.689  -1.758  -1.374  1.00  0.00     0.007 A 
HETATM    8  C8  UNL     1       0.287  -2.536  -0.785  1.00  0.00     0.019 A 
HETATM    9  C9  UNL     1      -0.756  -1.871  -0.129  1.00  0.00     0.081 A 
HETATM   10  N1  UNL     1      -0.311  -0.595   0.206  1.00  0.00    -0.246 NA
HETATM   11  C10 UNL     1      -1.999  -2.501   0.088  1.00  0.00     0.019 A 
HETATM   12  C11 UNL     1      -2.150  -3.798  -0.376  1.00  0.00     0.002 A 
HETATM   13  C12 UNL     1      -1.095  -4.470  -1.040  1.00  0.00     0.000 A 
HETATM   14  C13 UNL     1       0.130  -3.856  -1.251  1.00  0.00     0.002 A 
ENDROOT
BRANCH   4  15
HETATM   15  C14 UNL     1       1.411   1.985   0.513  1.00  0.00     0.055 C 
BRANCH  15  16
HETATM   16  C15 UNL     1      -0.063   2.270   0.368  1.00  0.00    -0.030 C 
HETATM   17  C16 UNL     1      -0.866   2.840   1.284  1.00  0.00    -0.048 C 
HETATM   18  C17 UNL     1      -2.333   3.069   1.000  1.00  0.00     0.026 C 
HETATM   19  C18 UNL     1      -0.419   3.320   2.645  1.00  0.00     0.026 C 
ENDBRANCH  15  16
ENDBRANCH   4  15
BRANCH   1  20
HETATM   20  C1  UNL     1       4.927  -0.808  -1.796  1.00  0.00     0.236 C 
HETATM   21  O1  UNL     1       5.344  -1.827  -2.331  1.00  0.00    -0.283 OA
ENDBRANCH   1  20
TORSDOF 3
