REMARK  4 active torsions:
REMARK  status: ('A' for Active; 'I' for Inactive)
REMARK    1  A    between atoms: C2_2  and  C3_3 
REMARK    2  A    between atoms: C3_3  and  C4_4 
REMARK    3  A    between atoms: C4_4  and  C5_5 
REMARK    4  A    between atoms: C6_6  and  C7_7 
ROOT
HETATM    1  C4  UNL     1      -0.265   0.122  -0.000  1.00  0.00     0.026 C 
ENDROOT
BRANCH   1   2
HETATM    2  C3  UNL     1      -1.581  -0.671   0.000  1.00  0.00     0.005 C 
BRANCH   2   3
HETATM    3  C2  UNL     1      -1.339  -2.189  -0.000  1.00  0.00     0.000 C 
HETATM    4  C1  UNL     1      -2.660  -2.971   0.000  1.00  0.00     0.000 C 
ENDBRANCH   2   3
ENDBRANCH   1   2
BRANCH   1   5
HETATM    5  C5  UNL     1      -0.493   1.613   0.000  1.00  0.00    -0.023 C 
HETATM    6  C6  UNL     1       0.516   2.506   0.000  1.00  0.00     0.041 C 
BRANCH   6   7
HETATM    7  C7  UNL     1       0.278   3.968   0.000  1.00  0.00     0.234 C 
HETATM    8  O1  UNL     1       1.192   4.778   0.000  1.00  0.00    -0.283 OA
ENDBRANCH   6   7
ENDBRANCH   1   5
TORSDOF 4
