REMARK  1 active torsions:
REMARK  status: ('A' for Active; 'I' for Inactive)
REMARK    1  A    between atoms: C9_10  and  C10_12 
ROOT
HETATM    1  C1  UNL     1      -1.025   2.966   0.015  1.00  0.00     0.057 A 
HETATM    2  C2  UNL     1      -1.511   1.658  -0.016  1.00  0.00     0.160 A 
HETATM    3  C3  UNL     1      -0.602   0.596  -0.025  1.00  0.00     0.179 A 
HETATM    4  C4  UNL     1       0.779   0.829  -0.004  1.00  0.00     0.133 A 
HETATM    5  C5  UNL     1       1.225   2.156   0.028  1.00  0.00     0.091 A 
HETATM    6  C6  UNL     1       0.342   3.248   0.038  1.00  0.00     0.138 A 
HETATM    7  O1  UNL     1       0.761   4.540   0.069  1.00  0.00    -0.190 OA
HETATM    8  C7  UNL     1       2.687   2.368   0.052  1.00  0.00     0.227 A 
HETATM    9  C8  UNL     1       3.541   1.157   0.037  1.00  0.00     0.192 A 
HETATM   10  C9  UNL     1       2.976  -0.080   0.003  1.00  0.00     0.128 A 
HETATM   11  O2  UNL     1       1.615  -0.248  -0.015  1.00  0.00    -0.303 OA
HETATM   12  O4  UNL     1       4.866   1.457   0.064  1.00  0.00    -0.185 OA
HETATM   13  O5  UNL     1       3.242   3.463   0.086  1.00  0.00    -0.284 OA
HETATM   14  O6  UNL     1      -1.062  -0.682  -0.053  1.00  0.00    -0.186 OA
HETATM   15  O7  UNL     1      -2.844   1.392  -0.038  1.00  0.00    -0.188 OA
ENDROOT
BRANCH  10  16
HETATM   16  C10 UNL     1       3.794  -1.323  -0.013  1.00  0.00     0.025 A 
HETATM   17  C11 UNL     1       5.197  -1.406  -0.021  1.00  0.00     0.004 A 
HETATM   18  C12 UNL     1       5.872  -2.629  -0.034  1.00  0.00     0.028 A 
HETATM   19  C13 UNL     1       5.188  -3.844  -0.043  1.00  0.00     0.131 A 
HETATM   20  C14 UNL     1       3.791  -3.781  -0.040  1.00  0.00     0.028 A 
HETATM   21  O3  UNL     1       5.859  -5.024  -0.056  1.00  0.00    -0.190 OA
HETATM   22  C15 UNL     1       3.117  -2.560  -0.025  1.00  0.00     0.004 A 
ENDBRANCH  10  16
TORSDOF 1
