REMARK  10 active torsions:
REMARK  status: ('A' for Active; 'I' for Inactive)
REMARK    1  A    between atoms: C2_2  and  O16_43 
REMARK    2  A    between atoms: C8_9  and  O4_19 
REMARK    3  A    between atoms: C9_10  and  C10_12 
REMARK    4  A    between atoms: O4_19  and  C16_20 
REMARK    5  A    between atoms: C17_22  and  C27_40 
REMARK    6  A    between atoms: C20_25  and  O6_26 
REMARK    7  A    between atoms: O6_26  and  C21_27 
REMARK    8  A    between atoms: C22_29  and  C26_36 
REMARK    9  A    between atoms: O16_43  and  C28_44 
REMARK   10  A    between atoms: C29_46  and  C33_53 
ROOT
HETATM    1  C1  UNL     1      -0.994   1.357  -0.679  1.00  0.00     0.157 A 
HETATM    2  C2  UNL     1      -0.120   0.376  -1.182  1.00  0.00     0.145 A 
HETATM    3  C3  UNL     1       1.185   0.769  -1.540  1.00  0.00     0.130 A 
HETATM    4  C4  UNL     1       1.571   2.103  -1.357  1.00  0.00     0.091 A 
HETATM    5  C5  UNL     1       0.707   3.097  -0.890  1.00  0.00     0.138 A 
HETATM    6  C6  UNL     1      -0.584   2.685  -0.562  1.00  0.00     0.057 A 
HETATM    7  O1  UNL     1       1.085   4.388  -0.695  1.00  0.00    -0.190 OA
HETATM    8  C7  UNL     1       3.006   2.399  -1.624  1.00  0.00     0.224 C 
HETATM    9  C8  UNL     1       3.915   1.233  -1.369  1.00  0.00     0.158 C 
HETATM   10  C9  UNL     1       3.361   0.016  -1.634  1.00  0.00     0.125 C 
HETATM   11  O2  UNL     1       2.087  -0.066  -2.132  1.00  0.00    -0.303 OA
HETATM   12  O15 UNL     1       3.399   3.529  -1.884  1.00  0.00    -0.284 OA
HETATM   13  O22 UNL     1      -2.254   1.024  -0.288  1.00  0.00    -0.188 OA
ENDROOT
BRANCH   9  14
HETATM   14  O4  UNL     1       5.178   1.359  -0.851  1.00  0.00    -0.298 OA
BRANCH  14  15
HETATM   15  C16 UNL     1       5.754   2.606  -0.511  1.00  0.00     0.271 C 
HETATM   16  O5  UNL     1       6.548   2.839  -1.662  1.00  0.00    -0.326 OA
HETATM   17  C17 UNL     1       7.341   3.991  -1.596  1.00  0.00     0.184 C 
HETATM   18  C18 UNL     1       8.312   3.852  -0.433  1.00  0.00     0.215 C 
HETATM   19  C19 UNL     1       7.525   3.682   0.843  1.00  0.00     0.217 C 
HETATM   20  O13 UNL     1       9.109   5.003  -0.295  1.00  0.00    -0.218 OA
HETATM   21  C20 UNL     1       6.609   2.471   0.748  1.00  0.00     0.207 C 
HETATM   22  O12 UNL     1       8.418   3.524   1.918  1.00  0.00    -0.218 OA
BRANCH  17  23
HETATM   23  C27 UNL     1       8.097   4.140  -2.911  1.00  0.00     0.214 C 
HETATM   24  O14 UNL     1       7.190   4.372  -3.970  1.00  0.00    -0.218 OA
ENDBRANCH  17  23
BRANCH  21  25
HETATM   25  O6  UNL     1       5.887   2.489   1.954  1.00  0.00    -0.324 OA
BRANCH  25  26
HETATM   26  C21 UNL     1       5.055   1.380   2.206  1.00  0.00     0.270 C 
HETATM   27  O7  UNL     1       3.742   1.882   2.102  1.00  0.00    -0.326 OA
HETATM   28  C22 UNL     1       2.754   0.906   2.312  1.00  0.00     0.184 C 
HETATM   29  C23 UNL     1       2.941   0.223   3.663  1.00  0.00     0.215 C 
HETATM   30  C24 UNL     1       4.354  -0.293   3.833  1.00  0.00     0.220 C 
HETATM   31  O10 UNL     1       2.066  -0.871   3.790  1.00  0.00    -0.218 OA
HETATM   32  C25 UNL     1       5.308   0.857   3.598  1.00  0.00     0.241 C 
HETATM   33  O9  UNL     1       4.522  -0.792   5.135  1.00  0.00    -0.218 OA
HETATM   34  O8  UNL     1       6.626   0.376   3.686  1.00  0.00    -0.215 OA
BRANCH  28  35
HETATM   35  C26 UNL     1       1.402   1.605   2.221  1.00  0.00     0.214 C 
HETATM   36  O11 UNL     1       0.406   0.724   1.745  1.00  0.00    -0.218 OA
ENDBRANCH  28  35
ENDBRANCH  25  26
ENDBRANCH  21  25
ENDBRANCH  14  15
ENDBRANCH   9  14
BRANCH  10  37
HETATM   37  C10 UNL     1       4.127  -1.256  -1.525  1.00  0.00     0.025 A 
HETATM   38  C11 UNL     1       5.200  -1.515  -0.661  1.00  0.00     0.004 A 
HETATM   39  C12 UNL     1       5.821  -2.765  -0.606  1.00  0.00     0.028 A 
HETATM   40  C13 UNL     1       5.417  -3.818  -1.429  1.00  0.00     0.131 A 
HETATM   41  C14 UNL     1       4.371  -3.562  -2.320  1.00  0.00     0.028 A 
HETATM   42  O3  UNL     1       6.006  -5.041  -1.368  1.00  0.00    -0.190 OA
HETATM   43  C15 UNL     1       3.748  -2.316  -2.368  1.00  0.00     0.004 A 
ENDBRANCH  10  37
BRANCH   2  44
HETATM   44  O16 UNL     1      -0.618  -0.899  -1.272  1.00  0.00    -0.299 OA
BRANCH  44  45
HETATM   45  C28 UNL     1       0.155  -2.019  -0.895  1.00  0.00     0.274 C 
HETATM   46  O17 UNL     1       0.081  -2.835  -2.048  1.00  0.00    -0.326 OA
HETATM   47  C29 UNL     1       0.679  -4.093  -1.897  1.00  0.00     0.184 C 
HETATM   48  C30 UNL     1       0.017  -4.857  -0.758  1.00  0.00     0.215 C 
HETATM   49  C31 UNL     1       0.134  -4.051   0.516  1.00  0.00     0.220 C 
HETATM   50  O20 UNL     1       0.658  -6.091  -0.545  1.00  0.00    -0.218 OA
HETATM   51  C32 UNL     1      -0.494  -2.693   0.294  1.00  0.00     0.241 C 
HETATM   52  O19 UNL     1      -0.531  -4.718   1.558  1.00  0.00    -0.218 OA
HETATM   53  O18 UNL     1      -0.277  -1.929   1.455  1.00  0.00    -0.215 OA
BRANCH  47  54
HETATM   54  C33 UNL     1       0.557  -4.842  -3.217  1.00  0.00     0.214 C 
HETATM   55  O21 UNL     1       1.309  -4.184  -4.217  1.00  0.00    -0.218 OA
ENDBRANCH  47  54
ENDBRANCH  44  45
ENDBRANCH   2  44
TORSDOF 10
