REMARK  5 active torsions:
REMARK  status: ('A' for Active; 'I' for Inactive)
REMARK    1  A    between atoms: C2_2  and  C7_10 
REMARK    2  A    between atoms: C7_10  and  O5_12 
REMARK    3  A    between atoms: O5_12  and  C8_13 
REMARK    4  A    between atoms: C9_15  and  C10_16 
REMARK    5  A    between atoms: C22_33  and  C23_34 
ROOT
HETATM    1  C8  UNL     1       4.250  -1.366  -0.163  1.00  0.00     0.273 C 
HETATM    2  O6  UNL     1       4.434  -0.550   0.976  1.00  0.00    -0.326 OA
HETATM    3  C9  UNL     1       4.359   0.835   0.770  1.00  0.00     0.181 C 
HETATM    4  C11 UNL     1       5.226   1.349  -0.384  1.00  0.00     0.187 C 
HETATM    5  C12 UNL     1       5.237   0.414  -1.593  1.00  0.00     0.215 C 
HETATM    6  C13 UNL     1       5.304  -1.064  -1.218  1.00  0.00     0.214 C 
HETATM    7  O8  UNL     1       6.505  -1.534  -0.659  1.00  0.00    -0.293 OA
HETATM    8  C14 UNL     1       7.670  -0.829  -0.631  1.00  0.00     0.296 C 
HETATM    9  C15 UNL     1       8.405  -0.724   0.669  1.00  0.00     0.067 A 
HETATM   10  C16 UNL     1       9.242   0.347   1.049  1.00  0.00     0.028 A 
HETATM   11  C17 UNL     1       9.670   1.530   0.171  1.00  0.00     0.005 C 
HETATM   12  C18 UNL     1       8.671   2.677   0.007  1.00  0.00     0.229 C 
HETATM   13  C19 UNL     1       7.353   2.347  -0.702  1.00  0.00     0.304 C 
HETATM   14  O9  UNL     1       6.515   1.626   0.097  1.00  0.00    -0.297 OA
HETATM   15  O10 UNL     1       7.070   2.745  -1.811  1.00  0.00    -0.261 OA
HETATM   16  O11 UNL     1       9.252   3.820  -0.593  1.00  0.00    -0.290 OA
HETATM   17  C20 UNL     1      10.276   3.787  -1.493  1.00  0.00     0.273 C 
HETATM   18  C21 UNL     1      11.146   2.539  -1.528  1.00  0.00     0.111 C 
HETATM   19  C22 UNL     1      10.449   1.238  -1.115  1.00  0.00     0.118 C 
HETATM   20  O14 UNL     1      10.582   4.761  -2.150  1.00  0.00    -0.264 OA
HETATM   21  C24 UNL     1       9.707   0.350   2.387  1.00  0.00     0.158 A 
HETATM   22  C25 UNL     1       9.376  -0.665   3.288  1.00  0.00     0.181 A 
HETATM   23  C26 UNL     1       8.581  -1.740   2.891  1.00  0.00     0.158 A 
HETATM   24  C27 UNL     1       8.099  -1.742   1.589  1.00  0.00     0.035 A 
HETATM   25  O15 UNL     1       8.254  -2.717   3.775  1.00  0.00    -0.188 OA
HETATM   26  O16 UNL     1       9.817  -0.624   4.572  1.00  0.00    -0.186 OA
HETATM   27  O17 UNL     1      10.475   1.358   2.886  1.00  0.00    -0.188 OA
HETATM   28  O18 UNL     1       7.978  -0.134  -1.587  1.00  0.00    -0.259 OA
HETATM   29  O19 UNL     1       4.053   0.649  -2.326  1.00  0.00    -0.218 OA
ENDROOT
BRANCH   1  30
HETATM   30  O5  UNL     1       2.926  -1.193  -0.601  1.00  0.00    -0.280 OA
BRANCH  30  31
HETATM   31  C7  UNL     1       2.169  -2.276  -0.923  1.00  0.00     0.230 C 
HETATM   32  O4  UNL     1       2.709  -3.470  -1.072  1.00  0.00    -0.163 OA
BRANCH  31  33
HETATM   33  C2  UNL     1       0.656  -2.155  -0.978  1.00  0.00     0.053 C 
HETATM   34  C1  UNL     1       0.107  -0.983  -1.386  1.00  0.00     0.034 C 
HETATM   35  C6  UNL     1      -1.376  -0.804  -1.400  1.00  0.00     0.158 C 
HETATM   36  C5  UNL     1      -2.215  -1.987  -0.990  1.00  0.00     0.181 C 
HETATM   37  O1  UNL     1      -1.932   0.433  -1.424  1.00  0.00    -0.188 OA
HETATM   38  C4  UNL     1      -1.528  -3.186  -0.419  1.00  0.00     0.158 C 
HETATM   39  O2  UNL     1      -3.532  -1.788  -0.741  1.00  0.00    -0.186 OA
HETATM   40  C3  UNL     1      -0.174  -3.246  -0.433  1.00  0.00     0.034 C 
HETATM   41  O3  UNL     1      -2.297  -4.161   0.131  1.00  0.00    -0.188 OA
ENDBRANCH  31  33
ENDBRANCH  30  31
ENDBRANCH   1  30
BRANCH   3  42
HETATM   42  C10 UNL     1       2.915   1.329   0.752  1.00  0.00     0.214 C 
HETATM   43  O7  UNL     1       2.886   2.707   1.072  1.00  0.00    -0.218 OA
ENDBRANCH   3  42
BRANCH  19  44
HETATM   44  C23 UNL     1      11.367   0.036  -0.936  1.00  0.00     0.189 C 
HETATM   45  O12 UNL     1      11.098  -1.114  -1.193  1.00  0.00    -0.647 OA
HETATM   46  O13 UNL     1      12.534   0.363  -0.354  1.00  0.00    -0.647 OA
ENDBRANCH  19  44
TORSDOF 5
