REMARK  3 active torsions:
REMARK  status: ('A' for Active; 'I' for Inactive)
REMARK    1  A    between atoms: C2_2  and  O3_12 
REMARK    2  A    between atoms: C5_5  and  C7_7 
REMARK    3  A    between atoms: C8_8  and  C9_9 
ROOT
HETATM    1  C1  UNL     1       3.865   0.740  -0.039  1.00  0.00     0.153 A 
HETATM    2  C2  UNL     1       4.364  -0.545   0.235  1.00  0.00     0.119 A 
HETATM    3  C3  UNL     1       3.420  -1.567   0.425  1.00  0.00     0.026 A 
HETATM    4  C4  UNL     1       2.048  -1.327   0.396  1.00  0.00     0.002 A 
HETATM    5  C5  UNL     1       1.544  -0.043   0.141  1.00  0.00     0.002 A 
HETATM    6  C6  UNL     1       2.485   0.973  -0.073  1.00  0.00     0.029 A 
HETATM    7  O4  UNL     1       4.720   1.773  -0.269  1.00  0.00    -0.188 OA
ENDROOT
BRANCH   5   8
HETATM    8  C7  UNL     1       0.088   0.157   0.097  1.00  0.00     0.006 C 
HETATM    9  C8  UNL     1      -0.544   1.321  -0.195  1.00  0.00     0.070 C 
BRANCH   9  10
HETATM   10  C9  UNL     1      -2.018   1.447  -0.233  1.00  0.00     0.211 C 
HETATM   11  O1  UNL     1      -2.622   2.614  -0.536  1.00  0.00    -0.644 OA
HETATM   12  O2  UNL     1      -2.747   0.491   0.008  1.00  0.00    -0.644 OA
ENDBRANCH   9  10
ENDBRANCH   5   8
BRANCH   2  13
HETATM   13  O3  UNL     1       5.724  -0.735   0.214  1.00  0.00    -0.326 OA
HETATM   14  C10 UNL     1       6.213  -2.052   0.104  1.00  0.00     0.181 C 
ENDBRANCH   2  13
TORSDOF 3
