REMARK  2 active torsions:
REMARK  status: ('A' for Active; 'I' for Inactive)
REMARK    1  A    between atoms: C8_9  and  C9_10 
REMARK    2  A    between atoms: C9_10  and  C10_11 
ROOT
HETATM    1  C1  UNL     1       3.786   0.810  -0.586  1.00  0.00     0.002 A 
HETATM    2  C2  UNL     1       2.770   1.808  -0.548  1.00  0.00     0.000 A 
HETATM    3  C3  UNL     1       1.484   1.512  -0.149  1.00  0.00     0.001 A 
HETATM    4  C4  UNL     1       1.200   0.175   0.230  1.00  0.00     0.016 A 
HETATM    5  C5  UNL     1       2.203  -0.801   0.192  1.00  0.00     0.081 A 
HETATM    6  C6  UNL     1       3.523  -0.493  -0.222  1.00  0.00     0.019 A 
HETATM    7  N1  UNL     1       1.632  -1.986   0.607  1.00  0.00    -0.244 NA
HETATM    8  C7  UNL     1       0.296  -1.773   0.899  1.00  0.00     0.095 A 
HETATM    9  C8  UNL     1      -0.004  -0.451   0.675  1.00  0.00     0.009 A 
ENDROOT
BRANCH   9  10
HETATM   10  C9  UNL     1      -1.342   0.203   0.860  1.00  0.00     0.126 C 
BRANCH  10  11
HETATM   11  C10 UNL     1      -2.169   0.293  -0.408  1.00  0.00     0.190 C 
HETATM   12  O1  UNL     1      -3.263   0.799  -0.502  1.00  0.00    -0.647 OA
HETATM   13  O2  UNL     1      -1.561  -0.265  -1.470  1.00  0.00    -0.647 OA
ENDBRANCH  10  11
ENDBRANCH   9  10
TORSDOF 2
