REMARK  28 active torsions:
REMARK  status: ('A' for Active; 'I' for Inactive)
REMARK    1  A    between atoms: C2_2  and  C4_4 
REMARK    2  A    between atoms: C4_4  and  C5_5 
REMARK    3  A    between atoms: C5_5  and  O2_7 
REMARK    4  A    between atoms: O2_7  and  C6_8 
REMARK    5  A    between atoms: C6_8  and  C7_9 
REMARK    6  A    between atoms: C7_9  and  C8_10 
REMARK    7  A    between atoms: C8_10  and  C9_11 
REMARK    8  A    between atoms: C9_11  and  C10_12 
REMARK    9  A    between atoms: C10_12  and  C11_13 
REMARK   10  A    between atoms: C11_13  and  C12_14 
REMARK   11  A    between atoms: C12_14  and  C13_15 
REMARK   12  A    between atoms: C13_15  and  C14_16 
REMARK   13  A    between atoms: C14_16  and  C15_17 
REMARK   14  A    between atoms: C15_17  and  C16_18 
REMARK   15  A    between atoms: C16_18  and  C17_19 
REMARK   16  A    between atoms: C17_19  and  C18_20 
REMARK   17  A    between atoms: C18_20  and  C19_21 
REMARK   18  A    between atoms: C19_21  and  C20_22 
REMARK   19  A    between atoms: C20_22  and  C21_23 
REMARK   20  A    between atoms: C21_23  and  C22_24 
REMARK   21  A    between atoms: C22_24  and  C23_25 
REMARK   22  A    between atoms: C23_25  and  C24_26 
REMARK   23  A    between atoms: C24_26  and  C25_27 
REMARK   24  A    between atoms: C25_27  and  C26_28 
REMARK   25  A    between atoms: C26_28  and  C27_29 
REMARK   26  A    between atoms: C27_29  and  C28_30 
REMARK   27  A    between atoms: C28_30  and  C29_31 
REMARK   28  A    between atoms: C29_31  and  C30_32 
ROOT
HETATM    1  C15 UNL     1      -2.777  -4.135   2.475  1.00  0.00     0.000 C 
ENDROOT
BRANCH   1   2
HETATM    2  C14 UNL     1      -2.621  -2.611   2.587  1.00  0.00     0.000 C 
BRANCH   2   3
HETATM    3  C13 UNL     1      -1.543  -2.116   3.567  1.00  0.00     0.000 C 
BRANCH   3   4
HETATM    4  C12 UNL     1      -1.140  -0.672   3.218  1.00  0.00     0.000 C 
BRANCH   4   5
HETATM    5  C11 UNL     1      -0.109  -0.018   4.152  1.00  0.00     0.000 C 
BRANCH   5   6
HETATM    6  C10 UNL     1       1.241  -0.744   4.306  1.00  0.00     0.000 C 
BRANCH   6   7
HETATM    7  C9  UNL     1       1.869  -1.301   3.019  1.00  0.00     0.000 C 
BRANCH   7   8
HETATM    8  C8  UNL     1       2.142  -0.276   1.905  1.00  0.00     0.003 C 
BRANCH   8   9
HETATM    9  C7  UNL     1       2.223  -0.997   0.549  1.00  0.00     0.033 C 
BRANCH   9  10
HETATM   10  C6  UNL     1       2.479  -0.073  -0.640  1.00  0.00     0.152 C 
BRANCH  10  11
HETATM   11  O2  UNL     1       1.908  -0.674  -1.772  1.00  0.00    -0.302 OA
BRANCH  11  12
HETATM   12  C5  UNL     1       2.297  -0.257  -3.004  1.00  0.00     0.272 C 
HETATM   13  O1  UNL     1       3.147   0.576  -3.218  1.00  0.00    -0.264 OA
BRANCH  12  14
HETATM   14  C4  UNL     1       1.485  -0.976  -4.071  1.00  0.00     0.096 C 
BRANCH  14  15
HETATM   15  C2  UNL     1       0.287  -0.142  -4.562  1.00  0.00     0.010 C 
HETATM   16  C1  UNL     1      -0.766  -1.035  -5.240  1.00  0.00     0.001 C 
HETATM   17  C3  UNL     1       0.728   0.972  -5.526  1.00  0.00     0.001 C 
ENDBRANCH  14  15
ENDBRANCH  12  14
ENDBRANCH  11  12
ENDBRANCH  10  11
ENDBRANCH   9  10
ENDBRANCH   8   9
ENDBRANCH   7   8
ENDBRANCH   6   7
ENDBRANCH   5   6
ENDBRANCH   4   5
ENDBRANCH   3   4
ENDBRANCH   2   3
ENDBRANCH   1   2
BRANCH   1  18
HETATM   18  C16 UNL     1      -1.662  -4.887   1.722  1.00  0.00     0.000 C 
BRANCH  18  19
HETATM   19  C17 UNL     1      -1.692  -4.824   0.178  1.00  0.00     0.000 C 
BRANCH  19  20
HETATM   20  C18 UNL     1      -1.155  -3.521  -0.441  1.00  0.00     0.000 C 
BRANCH  20  21
HETATM   21  C19 UNL     1      -2.249  -2.583  -0.986  1.00  0.00     0.000 C 
BRANCH  21  22
HETATM   22  C20 UNL     1      -1.727  -1.144  -1.158  1.00  0.00     0.000 C 
BRANCH  22  23
HETATM   23  C21 UNL     1      -2.835  -0.083  -1.052  1.00  0.00     0.000 C 
BRANCH  23  24
HETATM   24  C22 UNL     1      -2.359   1.365  -1.283  1.00  0.00     0.000 C 
BRANCH  24  25
HETATM   25  C23 UNL     1      -1.065   1.718  -0.531  1.00  0.00     0.000 C 
BRANCH  25  26
HETATM   26  C24 UNL     1      -0.785   3.220  -0.368  1.00  0.00     0.000 C 
BRANCH  26  27
HETATM   27  C25 UNL     1      -0.817   4.072  -1.647  1.00  0.00     0.000 C 
BRANCH  27  28
HETATM   28  C26 UNL     1       0.093   3.612  -2.795  1.00  0.00     0.000 C 
BRANCH  28  29
HETATM   29  C27 UNL     1       1.597   3.551  -2.487  1.00  0.00     0.000 C 
BRANCH  29  30
HETATM   30  C28 UNL     1       2.267   4.901  -2.174  1.00  0.00     0.000 C 
BRANCH  30  31
HETATM   31  C29 UNL     1       2.543   5.169  -0.684  1.00  0.00     0.000 C 
BRANCH  31  32
HETATM   32  C30 UNL     1       3.583   4.217  -0.068  1.00  0.00     0.000 C 
HETATM   33  C31 UNL     1       3.934   4.606   1.374  1.00  0.00     0.000 C 
ENDBRANCH  31  32
ENDBRANCH  30  31
ENDBRANCH  29  30
ENDBRANCH  28  29
ENDBRANCH  27  28
ENDBRANCH  26  27
ENDBRANCH  25  26
ENDBRANCH  24  25
ENDBRANCH  23  24
ENDBRANCH  22  23
ENDBRANCH  21  22
ENDBRANCH  20  21
ENDBRANCH  19  20
ENDBRANCH  18  19
ENDBRANCH   1  18
TORSDOF 28
