REMARK  0 active torsions:
REMARK  status: ('A' for Active; 'I' for Inactive)
ROOT
HETATM    1  C1  UNL     1      -2.479   0.973  -0.202  1.00  0.00     0.025 C 
HETATM    2  C2  UNL     1      -2.433  -0.552  -0.386  1.00  0.00     0.005 C 
HETATM    3  C3  UNL     1      -1.305  -1.230   0.425  1.00  0.00     0.003 C 
HETATM    4  C4  UNL     1       0.035  -0.649  -0.071  1.00  0.00     0.015 C 
HETATM    5  C5  UNL     1       0.009   0.866  -0.104  1.00  0.00    -0.049 C 
HETATM    6  C6  UNL     1      -1.110   1.596  -0.185  1.00  0.00    -0.034 C 
HETATM    7  C7  UNL     1       1.429   1.386  -0.066  1.00  0.00     0.015 C 
HETATM    8  C8  UNL     1       2.180   0.028  -0.086  1.00  0.00     0.004 C 
HETATM    9  C9  UNL     1       2.032  -0.687  -1.446  1.00  0.00     0.001 C 
HETATM   10  C10 UNL     1       0.537  -1.068  -1.475  1.00  0.00     0.004 C 
HETATM   11  C11 UNL     1       1.294  -0.893   0.782  1.00  0.00     0.004 C 
HETATM   12  C12 UNL     1       1.699   2.165   1.237  1.00  0.00     0.004 C 
HETATM   13  C13 UNL     1       1.742   2.308  -1.257  1.00  0.00     0.004 C 
HETATM   14  C14 UNL     1      -1.390  -2.758   0.226  1.00  0.00     0.000 C 
HETATM   15  C15 UNL     1      -1.507  -0.953   1.932  1.00  0.00     0.000 C 
ENDROOT
TORSDOF 0
