REMARK  4 active torsions:
REMARK  status: ('A' for Active; 'I' for Inactive)
REMARK    1  A    between atoms: C7_9  and  C16_25 
REMARK    2  A    between atoms: C8_10  and  O4_13 
REMARK    3  A    between atoms: O4_13  and  C10_14 
REMARK    4  A    between atoms: C11_16  and  C15_23 
ROOT
HETATM    1  C1  UNL     1       3.086  -2.531  -1.875  1.00  0.00     0.120 C 
HETATM    2  C2  UNL     1       2.010  -1.619  -2.441  1.00  0.00     0.144 C 
HETATM    3  C3  UNL     1       2.449  -0.137  -2.398  1.00  0.00     0.159 C 
HETATM    4  C4  UNL     1       3.076   0.234  -1.068  1.00  0.00     0.032 C 
HETATM    5  C5  UNL     1       3.774  -0.689  -0.375  1.00  0.00     0.131 C 
HETATM    6  C6  UNL     1       3.883  -2.068  -0.891  1.00  0.00     0.051 C 
HETATM    7  O1  UNL     1       4.363  -0.359   0.770  1.00  0.00    -0.190 OA
HETATM    8  O2  UNL     1       1.359   0.748  -2.695  1.00  0.00    -0.326 OA
HETATM    9  C7  UNL     1       0.178   0.553  -2.078  1.00  0.00     0.119 C 
HETATM   10  C8  UNL     1      -0.178  -0.639  -1.545  1.00  0.00     0.154 C 
HETATM   11  C9  UNL     1       0.715  -1.803  -1.682  1.00  0.00     0.206 C 
HETATM   12  O3  UNL     1       0.406  -2.867  -1.193  1.00  0.00    -0.289 OA
HETATM   13  O11 UNL     1       3.240  -3.770  -2.340  1.00  0.00    -0.194 OA
ENDROOT
BRANCH  10  14
HETATM   14  O4  UNL     1      -1.334  -0.793  -0.896  1.00  0.00    -0.299 OA
BRANCH  14  15
HETATM   15  C10 UNL     1      -1.156  -0.885   0.512  1.00  0.00     0.274 C 
HETATM   16  O5  UNL     1      -0.785   0.383   1.027  1.00  0.00    -0.326 OA
HETATM   17  C11 UNL     1      -0.383   0.389   2.398  1.00  0.00     0.184 C 
HETATM   18  C12 UNL     1      -1.248  -0.578   3.258  1.00  0.00     0.215 C 
HETATM   19  C13 UNL     1      -2.639  -0.814   2.633  1.00  0.00     0.220 C 
HETATM   20  O8  UNL     1      -1.363  -0.043   4.565  1.00  0.00    -0.218 OA
HETATM   21  C14 UNL     1      -2.480  -1.350   1.176  1.00  0.00     0.241 C 
HETATM   22  O7  UNL     1      -3.443  -1.660   3.441  1.00  0.00    -0.218 OA
HETATM   23  O6  UNL     1      -2.502  -2.768   1.111  1.00  0.00    -0.215 OA
BRANCH  17  24
HETATM   24  C15 UNL     1       1.109   0.049   2.457  1.00  0.00     0.214 C 
HETATM   25  O9  UNL     1       1.608   0.461   3.709  1.00  0.00    -0.218 OA
ENDBRANCH  17  24
ENDBRANCH  14  15
ENDBRANCH  10  14
BRANCH   9  26
HETATM   26  C16 UNL     1      -0.779   1.699  -1.996  1.00  0.00     0.025 A 
HETATM   27  C17 UNL     1      -0.305   2.994  -1.723  1.00  0.00     0.004 A 
HETATM   28  C18 UNL     1      -1.207   4.070  -1.645  1.00  0.00     0.028 A 
HETATM   29  C19 UNL     1      -2.582   3.858  -1.842  1.00  0.00     0.131 A 
HETATM   30  C20 UNL     1      -3.053   2.561  -2.115  1.00  0.00     0.028 A 
HETATM   31  O10 UNL     1      -3.426   4.867  -1.770  1.00  0.00    -0.190 OA
HETATM   32  C21 UNL     1      -2.154   1.483  -2.193  1.00  0.00     0.004 A 
ENDBRANCH   9  26
TORSDOF 4
