REMARK  5 active torsions:
REMARK  status: ('A' for Active; 'I' for Inactive)
REMARK    1  A    between atoms: O1_2  and  C2_3 
REMARK    2  A    between atoms: C3_4  and  O2_5 
REMARK    3  A    between atoms: C5_7  and  O8_26 
REMARK    4  A    between atoms: C8_10  and  O3_11 
REMARK    5  A    between atoms: C12_15  and  C13_17 
ROOT
HETATM    1  C2  UNL     1       0.173   2.112  -0.159  1.00  0.00     0.141 C 
HETATM    2  C3  UNL     1      -0.296   0.792  -0.295  1.00  0.00     0.142 C 
HETATM    3  C5  UNL     1       0.591  -0.301  -0.141  1.00  0.00     0.141 C 
HETATM    4  C6  UNL     1       1.959  -0.050   0.117  1.00  0.00     0.129 C 
HETATM    5  C7  UNL     1       2.368   1.278   0.334  1.00  0.00     0.088 C 
HETATM    6  C8  UNL     1       1.476   2.362   0.297  1.00  0.00     0.123 C 
HETATM    7  C10 UNL     1       3.803   1.524   0.639  1.00  0.00     0.202 C 
HETATM    8  C11 UNL     1       4.694   0.356   0.493  1.00  0.00     0.067 C 
HETATM    9  C12 UNL     1       4.191  -0.878   0.258  1.00  0.00     0.103 C 
HETATM   10  O4  UNL     1       2.842  -1.092   0.213  1.00  0.00    -0.305 OA
HETATM   11  O7  UNL     1       4.295   2.602   0.966  1.00  0.00    -0.286 OA
ENDROOT
BRANCH   9  12
HETATM   12  C13 UNL     1       5.114  -2.031   0.127  1.00  0.00     0.025 A 
HETATM   13  C14 UNL     1       6.506  -1.926  -0.024  1.00  0.00     0.004 A 
HETATM   14  C15 UNL     1       7.311  -3.063  -0.127  1.00  0.00     0.030 A 
HETATM   15  C16 UNL     1       6.763  -4.346  -0.097  1.00  0.00     0.156 A 
HETATM   16  C17 UNL     1       5.377  -4.480   0.033  1.00  0.00     0.156 A 
HETATM   17  O6  UNL     1       7.532  -5.461  -0.199  1.00  0.00    -0.188 OA
HETATM   18  C18 UNL     1       4.586  -3.335   0.142  1.00  0.00     0.032 A 
HETATM   19  O5  UNL     1       4.820  -5.718   0.057  1.00  0.00    -0.188 OA
ENDBRANCH   9  12
BRANCH   3  20
HETATM   20  O8  UNL     1       0.048  -1.551  -0.330  1.00  0.00    -0.324 OA
HETATM   21  C19 UNL     1       0.811  -2.728  -0.356  1.00  0.00     0.182 C 
ENDBRANCH   3  20
BRANCH   6  22
HETATM   22  O3  UNL     1       1.894   3.664   0.421  1.00  0.00    -0.326 OA
HETATM   23  C9  UNL     1       1.728   4.195   1.717  1.00  0.00     0.181 C 
ENDBRANCH   6  22
BRANCH   2  24
HETATM   24  O2  UNL     1      -1.649   0.680  -0.551  1.00  0.00    -0.324 OA
HETATM   25  C4  UNL     1      -2.382  -0.445  -0.128  1.00  0.00     0.182 C 
ENDBRANCH   2  24
BRANCH   1  26
HETATM   26  O1  UNL     1      -0.715   3.160  -0.232  1.00  0.00    -0.324 OA
HETATM   27  C1  UNL     1      -0.797   3.747  -1.511  1.00  0.00     0.182 C 
ENDBRANCH   1  26
TORSDOF 5
