REMARK  3 active torsions:
REMARK  status: ('A' for Active; 'I' for Inactive)
REMARK    1  A    between atoms: C2_2  and  C3_3 
REMARK    2  A    between atoms: C3_3  and  C4_4 
REMARK    3  A    between atoms: C4_4  and  C5_5 
ROOT
HETATM    1  C3  UNL     1       0.173  -0.560   0.000  1.00  0.00     0.026 C 
ENDROOT
BRANCH   1   2
HETATM    2  C2  UNL     1      -1.156   0.152   0.000  1.00  0.00    -0.026 C 
HETATM    3  C1  UNL     1      -2.329  -0.498   0.000  1.00  0.00    -0.004 C 
ENDBRANCH   1   2
BRANCH   1   4
HETATM    4  C4  UNL     1       1.364   0.411  -0.000  1.00  0.00     0.004 C 
BRANCH   4   5
HETATM    5  C5  UNL     1       2.712  -0.327   0.000  1.00  0.00     0.000 C 
HETATM    6  C6  UNL     1       3.892   0.653  -0.000  1.00  0.00     0.000 C 
ENDBRANCH   4   5
ENDBRANCH   1   4
TORSDOF 3
