REMARK  3 active torsions:
REMARK  status: ('A' for Active; 'I' for Inactive)
REMARK    1  A    between atoms: C2_2  and  C3_3 
REMARK    2  A    between atoms: C3_3  and  C4_4 
REMARK    3  A    between atoms: C5_5  and  C6_6 
ROOT
HETATM    1  C4  UNL     1       0.388   0.002  -0.088  1.00  0.00    -0.020 C 
HETATM    2  C5  UNL     1      -0.422  -0.236  -1.140  1.00  0.00     0.066 C 
ENDROOT
BRANCH   1   3
HETATM    3  C3  UNL     1       0.056   0.857   1.112  1.00  0.00     0.026 C 
BRANCH   3   4
HETATM    4  C2  UNL     1      -1.429   1.157   1.373  1.00  0.00     0.005 C 
HETATM    5  C1  UNL     1      -2.244  -0.096   1.723  1.00  0.00     0.000 C 
ENDBRANCH   3   4
ENDBRANCH   1   3
BRANCH   2   6
HETATM    6  C6  UNL     1      -0.017  -1.078  -2.291  1.00  0.00     0.211 C 
HETATM    7  O1  UNL     1      -0.857  -1.324  -3.317  1.00  0.00    -0.644 OA
HETATM    8  O2  UNL     1       1.098  -1.583  -2.353  1.00  0.00    -0.644 OA
ENDBRANCH   2   6
TORSDOF 3
