REMARK  6 active torsions:
REMARK  status: ('A' for Active; 'I' for Inactive)
REMARK    1  A    between atoms: C1_1  and  C7_7 
REMARK    2  A    between atoms: C7_7  and  O1_8 
REMARK    3  A    between atoms: O1_8  and  C8_9 
REMARK    4  A    between atoms: C8_9  and  C9_10 
REMARK    5  A    between atoms: C10_11  and  C11_12 
REMARK    6  A    between atoms: C11_12  and  C12_13 
ROOT
HETATM    1  C7  UNL     1       1.618   0.504   1.165  1.00  0.00     0.296 C 
HETATM    2  O2  UNL     1       1.601   1.362   2.043  1.00  0.00    -0.259 OA
ENDROOT
BRANCH   1   3
HETATM    3  C1  UNL     1       0.708  -0.666   1.408  1.00  0.00     0.063 A 
HETATM    4  C2  UNL     1       1.115  -1.984   1.174  1.00  0.00     0.005 A 
HETATM    5  C3  UNL     1       0.240  -3.043   1.423  1.00  0.00     0.000 A 
HETATM    6  C4  UNL     1      -1.046  -2.792   1.909  1.00  0.00     0.000 A 
HETATM    7  C5  UNL     1      -1.456  -1.479   2.146  1.00  0.00     0.000 A 
HETATM    8  C6  UNL     1      -0.580  -0.420   1.903  1.00  0.00     0.005 A 
ENDBRANCH   1   3
BRANCH   1   9
HETATM    9  O1  UNL     1       2.422   0.714   0.079  1.00  0.00    -0.294 OA
BRANCH   9  10
HETATM   10  C8  UNL     1       2.400  -0.150  -1.035  1.00  0.00     0.178 C 
BRANCH  10  11
HETATM   11  C9  UNL     1       1.036  -0.517  -1.567  1.00  0.00     0.002 C 
HETATM   12  C10 UNL     1      -0.024   0.291  -1.725  1.00  0.00    -0.028 C 
BRANCH  12  13
HETATM   13  C11 UNL     1      -0.082   1.762  -1.394  1.00  0.00     0.026 C 
BRANCH  13  14
HETATM   14  C12 UNL     1      -1.447   2.406  -1.685  1.00  0.00     0.005 C 
HETATM   15  C13 UNL     1      -2.557   1.897  -0.753  1.00  0.00     0.000 C 
ENDBRANCH  13  14
ENDBRANCH  12  13
ENDBRANCH  10  11
ENDBRANCH   9  10
ENDBRANCH   1   9
TORSDOF 6
