REMARK  6 active torsions:
REMARK  status: ('A' for Active; 'I' for Inactive)
REMARK    1  A    between atoms: O1_1  and  C1_2 
REMARK    2  A    between atoms: O1_1  and  C7_13 
REMARK    3  A    between atoms: C2_4  and  C6_11 
REMARK    4  A    between atoms: C7_13  and  C8_14 
REMARK    5  A    between atoms: C8_14  and  C9_15 
REMARK    6  A    between atoms: C10_16  and  C11_17 
ROOT
HETATM    1  C1  UNL     1       1.856  -1.040   0.976  1.00  0.00     0.270 C 
HETATM    2  O2  UNL     1       3.174  -1.017   0.470  1.00  0.00    -0.326 OA
HETATM    3  C2  UNL     1       4.068  -1.751   1.268  1.00  0.00     0.184 C 
HETATM    4  C3  UNL     1       3.633  -3.212   1.328  1.00  0.00     0.215 C 
HETATM    5  C4  UNL     1       2.219  -3.313   1.857  1.00  0.00     0.220 C 
HETATM    6  C5  UNL     1       1.330  -2.458   0.986  1.00  0.00     0.241 C 
HETATM    7  O3  UNL     1       0.025  -2.470   1.508  1.00  0.00    -0.215 OA
HETATM    8  O4  UNL     1       1.789  -4.649   1.804  1.00  0.00    -0.218 OA
HETATM    9  O5  UNL     1       4.462  -3.956   2.186  1.00  0.00    -0.218 OA
ENDROOT
BRANCH   1  10
HETATM   10  O1  UNL     1       1.060  -0.307   0.069  1.00  0.00    -0.329 OA
BRANCH  10  11
HETATM   11  C7  UNL     1       1.183   1.087   0.200  1.00  0.00     0.150 C 
BRANCH  11  12
HETATM   12  C8  UNL     1       0.201   1.745  -0.771  1.00  0.00     0.058 C 
BRANCH  12  13
HETATM   13  C9  UNL     1       0.221   3.251  -0.696  1.00  0.00    -0.028 C 
HETATM   14  C10 UNL     1      -0.314   4.071  -1.615  1.00  0.00    -0.031 C 
BRANCH  14  15
HETATM   15  C11 UNL     1      -1.029   3.629  -2.869  1.00  0.00     0.026 C 
HETATM   16  C12 UNL     1      -2.199   4.560  -3.216  1.00  0.00     0.005 C 
ENDBRANCH  14  15
ENDBRANCH  12  13
ENDBRANCH  11  12
ENDBRANCH  10  11
ENDBRANCH   1  10
BRANCH   3  17
HETATM   17  C6  UNL     1       5.468  -1.615   0.685  1.00  0.00     0.214 C 
HETATM   18  O6  UNL     1       5.900  -0.273   0.780  1.00  0.00    -0.218 OA
ENDBRANCH   3  17
TORSDOF 6
