REMARK  4 active torsions:
REMARK  status: ('A' for Active; 'I' for Inactive)
REMARK    1  A    between atoms: C2_2  and  C3_3 
REMARK    2  A    between atoms: C3_3  and  C4_4 
REMARK    3  A    between atoms: C4_4  and  C5_5 
REMARK    4  A    between atoms: C5_5  and  C6_6 
ROOT
HETATM    1  C4  UNL     1      -0.294  -0.039   0.015  1.00  0.00     0.002 C 
ENDROOT
BRANCH   1   2
HETATM    2  C3  UNL     1      -1.598  -0.853   0.010  1.00  0.00     0.000 C 
BRANCH   2   3
HETATM    3  C2  UNL     1      -1.339  -2.368   0.010  1.00  0.00     0.000 C 
HETATM    4  C1  UNL     1      -2.647  -3.170   0.004  1.00  0.00     0.000 C 
ENDBRANCH   2   3
ENDBRANCH   1   2
BRANCH   1   5
HETATM    5  C5  UNL     1      -0.562   1.474  -0.030  1.00  0.00     0.041 C 
BRANCH   5   6
HETATM    6  C6  UNL     1       0.737   2.293  -0.017  1.00  0.00     0.338 C 
HETATM    7  N1  UNL     1       0.446   3.733  -0.104  1.00  0.00     0.618 N 
ENDBRANCH   5   6
ENDBRANCH   1   5
TORSDOF 4
