REMARK  9 active torsions:
REMARK  status: ('A' for Active; 'I' for Inactive)
REMARK    1  A    between atoms: C4_4  and  C7_8 
REMARK    2  A    between atoms: C7_8  and  O3_10 
REMARK    3  A    between atoms: O3_10  and  C8_11 
REMARK    4  A    between atoms: C8_11  and  C9_12 
REMARK    5  A    between atoms: C13_16  and  O5_18 
REMARK    6  A    between atoms: O5_18  and  C14_19 
REMARK    7  A    between atoms: C15_20  and  O6_21 
REMARK    8  A    between atoms: C18_24  and  C21_27 
REMARK    9  A    between atoms: C21_27  and  C22_28 
ROOT
HETATM    1  C9  UNL     1      -0.807   2.557   1.478  1.00  0.00     0.181 C 
HETATM    2  C10 UNL     1      -0.617   3.891   0.723  1.00  0.00     0.215 C 
HETATM    3  C11 UNL     1       0.850   4.387   0.834  1.00  0.00     0.220 C 
HETATM    4  C12 UNL     1       1.844   3.199   0.916  1.00  0.00     0.241 C 
HETATM    5  C13 UNL     1       1.240   1.910   0.312  1.00  0.00     0.274 C 
HETATM    6  O4  UNL     1       0.008   1.522   0.928  1.00  0.00    -0.326 OA
HETATM    7  O8  UNL     1       2.195   2.959   2.268  1.00  0.00    -0.215 OA
HETATM    8  O9  UNL     1       1.150   5.168  -0.307  1.00  0.00    -0.218 OA
HETATM    9  O10 UNL     1      -1.484   4.871   1.262  1.00  0.00    -0.218 OA
ENDROOT
BRANCH   1  10
HETATM   10  C8  UNL     1      -2.248   2.035   1.463  1.00  0.00     0.184 C 
BRANCH  10  11
HETATM   11  O3  UNL     1      -2.318   0.817   2.187  1.00  0.00    -0.296 OA
BRANCH  11  12
HETATM   12  C7  UNL     1      -3.545   0.303   2.199  1.00  0.00     0.296 C 
HETATM   13  O2  UNL     1      -4.492   0.813   1.648  1.00  0.00    -0.259 OA
BRANCH  12  14
HETATM   14  C4  UNL     1      -3.691  -0.978   2.951  1.00  0.00     0.067 A 
HETATM   15  C3  UNL     1      -4.945  -1.609   3.029  1.00  0.00     0.035 A 
HETATM   16  C2  UNL     1      -5.086  -2.816   3.738  1.00  0.00     0.158 A 
HETATM   17  C1  UNL     1      -3.969  -3.393   4.371  1.00  0.00     0.181 A 
HETATM   18  O11 UNL     1      -6.264  -3.404   3.807  1.00  0.00    -0.188 OA
HETATM   19  C6  UNL     1      -2.713  -2.762   4.295  1.00  0.00     0.158 A 
HETATM   20  O12 UNL     1      -4.100  -4.523   5.037  1.00  0.00    -0.186 OA
HETATM   21  C5  UNL     1      -2.578  -1.555   3.586  1.00  0.00     0.035 A 
HETATM   22  O1  UNL     1      -1.666  -3.297   4.887  1.00  0.00    -0.188 OA
ENDBRANCH  12  14
ENDBRANCH  11  12
ENDBRANCH  10  11
ENDBRANCH   1  10
BRANCH   5  23
HETATM   23  O5  UNL     1       1.010   2.115  -1.074  1.00  0.00    -0.302 OA
BRANCH  23  24
HETATM   24  C14 UNL     1       1.533   1.254  -1.924  1.00  0.00     0.119 A 
HETATM   25  C15 UNL     1       1.336  -0.127  -1.744  1.00  0.00     0.116 A 
HETATM   26  C17 UNL     1       1.898  -1.039  -2.656  1.00  0.00     0.022 A 
HETATM   27  C18 UNL     1       2.658  -0.574  -3.744  1.00  0.00    -0.018 A 
HETATM   28  C19 UNL     1       2.855   0.807  -3.922  1.00  0.00    -0.002 A 
HETATM   29  C20 UNL     1       2.293   1.719  -3.012  1.00  0.00     0.026 A 
BRANCH  25  30
HETATM   30  O6  UNL     1       0.623  -0.570  -0.727  1.00  0.00    -0.326 OA
HETATM   31  C16 UNL     1       0.365  -1.965  -0.650  1.00  0.00     0.181 C 
ENDBRANCH  25  30
BRANCH  27  32
HETATM   32  C21 UNL     1       3.250  -1.541  -4.703  1.00  0.00     0.055 C 
HETATM   33  C23 UNL     1       2.172  -2.328  -5.449  1.00  0.00     0.007 C 
BRANCH  32  34
HETATM   34  C22 UNL     1       4.279  -2.447  -4.027  1.00  0.00     0.187 C 
HETATM   35  O7  UNL     1       5.311  -1.635  -3.512  1.00  0.00    -0.220 OA
ENDBRANCH  32  34
ENDBRANCH  27  32
ENDBRANCH  23  24
ENDBRANCH   5  23
TORSDOF 9
