REMARK  10 active torsions:
REMARK  status: ('A' for Active; 'I' for Inactive)
REMARK    1  A    between atoms: C2_3  and  C33_42 
REMARK       I    between atoms: N3_19  and  C16_21 
REMARK    2  A    between atoms: C16_21  and  C17_22 
REMARK    3  A    between atoms: C17_22  and  C18_23 
REMARK    4  A    between atoms: C17_22  and  N4_27 
REMARK    5  A    between atoms: C18_23  and  C20_25 
REMARK       I    between atoms: N4_27  and  C22_28 
REMARK    6  A    between atoms: C22_28  and  C23_30 
REMARK    7  A    between atoms: C23_30  and  C24_31 
REMARK    8  A    between atoms: C23_30  and  N5_38 
REMARK    9  A    between atoms: C24_31  and  C25_32 
REMARK   10  A    between atoms: C33_42  and  C35_44 
ROOT
HETATM    1  C1  UNL     1       0.287   0.654  -2.642  1.00  0.00     0.289 C 
HETATM    2  N1  UNL     1       0.881   1.740  -2.010  1.00  0.00    -0.226 NA
HETATM    3  C2  UNL     1       2.197   2.361  -2.414  1.00  0.00     0.187 C 
HETATM    4  C3  UNL     1       3.504   1.647  -2.045  1.00  0.00     0.278 C 
HETATM    5  O1  UNL     1       4.525   2.283  -1.926  1.00  0.00    -0.268 OA
HETATM    6  N2  UNL     1       3.518   0.289  -1.863  1.00  0.00    -0.209 NA
HETATM    7  C4  UNL     1       4.604  -0.541  -1.594  1.00  0.00     0.102 C 
HETATM    8  C5  UNL     1       4.471  -1.891  -1.447  1.00  0.00     0.021 C 
HETATM    9  C6  UNL     1       3.098  -2.480  -1.582  1.00  0.00     0.002 C 
HETATM   10  C7  UNL     1       2.525  -2.609  -2.861  1.00  0.00     0.002 C 
HETATM   11  C8  UNL     1       1.129  -2.656  -2.973  1.00  0.00     0.024 C 
HETATM   12  C9  UNL     1       0.336  -2.619  -1.808  1.00  0.00     0.094 C 
HETATM   13  C10 UNL     1       0.943  -2.820  -0.555  1.00  0.00     0.024 C 
HETATM   14  C11 UNL     1       2.342  -2.764  -0.435  1.00  0.00     0.002 C 
HETATM   15  O2  UNL     1      -0.963  -2.381  -1.844  1.00  0.00    -0.327 OA
HETATM   16  C12 UNL     1      -1.537  -1.342  -2.666  1.00  0.00     0.166 C 
HETATM   17  C13 UNL     1      -3.012  -1.268  -2.217  1.00  0.00     0.061 C 
HETATM   18  C14 UNL     1      -2.902  -0.576  -0.846  1.00  0.00     0.112 C 
HETATM   19  N3  UNL     1      -1.697   0.227  -0.955  1.00  0.00    -0.295 N 
HETATM   20  C15 UNL     1      -1.111   0.119  -2.289  1.00  0.00     0.125 C 
HETATM   21  C16 UNL     1      -1.199   0.965   0.131  1.00  0.00     0.260 C 
HETATM   22  O4  UNL     1      -1.783   1.955   0.506  1.00  0.00    -0.270 OA
HETATM   23  O5  UNL     1       0.875   0.121  -3.553  1.00  0.00    -0.264 OA
ENDROOT
BRANCH  21  24
HETATM   24  C17 UNL     1       0.061   0.504   0.813  1.00  0.00     0.185 C 
BRANCH  24  25
HETATM   25  C18 UNL     1       0.770   1.635   1.557  1.00  0.00     0.032 C 
HETATM   26  C19 UNL     1       2.188   1.262   1.986  1.00  0.00     0.003 C 
BRANCH  25  27
HETATM   27  C20 UNL     1      -0.066   2.197   2.707  1.00  0.00     0.002 C 
HETATM   28  C21 UNL     1       0.285   3.649   3.037  1.00  0.00     0.000 C 
ENDBRANCH  25  27
ENDBRANCH  24  25
BRANCH  24  29
HETATM   29  N4  UNL     1      -0.191  -0.637   1.703  1.00  0.00    -0.229 NA
HETATM   30  C22 UNL     1      -1.268  -0.605   2.545  1.00  0.00     0.284 C 
HETATM   31  O3  UNL     1      -2.006   0.352   2.555  1.00  0.00    -0.268 OA
BRANCH  30  32
HETATM   32  C23 UNL     1      -1.510  -1.783   3.449  1.00  0.00     0.303 C 
BRANCH  32  33
HETATM   33  C24 UNL     1      -2.758  -2.576   3.055  1.00  0.00     0.070 C 
BRANCH  33  34
HETATM   34  C25 UNL     1      -3.979  -1.729   3.092  1.00  0.00    -0.020 A 
HETATM   35  C26 UNL     1      -4.412  -1.172   4.309  1.00  0.00    -0.004 A 
HETATM   36  C27 UNL     1      -5.567  -0.371   4.344  1.00  0.00    -0.000 A 
HETATM   37  C28 UNL     1      -6.289  -0.127   3.164  1.00  0.00    -0.000 A 
HETATM   38  C29 UNL     1      -5.856  -0.682   1.947  1.00  0.00    -0.000 A 
HETATM   39  C30 UNL     1      -4.701  -1.482   1.912  1.00  0.00    -0.004 A 
ENDBRANCH  33  34
ENDBRANCH  32  33
BRANCH  32  40
HETATM   40  N5  UNL     1      -0.344  -2.648   3.471  1.00  0.00     0.149 N 
HETATM   41  C31 UNL     1       0.758  -2.002   4.164  1.00  0.00     0.286 C 
HETATM   42  C32 UNL     1      -0.664  -3.920   4.100  1.00  0.00     0.286 C 
ENDBRANCH  32  40
ENDBRANCH  30  32
ENDBRANCH  24  29
ENDBRANCH  21  24
BRANCH   3  43
HETATM   43  C33 UNL     1       2.193   2.684  -3.914  1.00  0.00     0.032 C 
HETATM   44  C34 UNL     1       0.936   3.438  -4.350  1.00  0.00     0.003 C 
BRANCH  43  45
HETATM   45  C35 UNL     1       3.481   3.367  -4.373  1.00  0.00     0.002 C 
HETATM   46  C36 UNL     1       3.473   3.699  -5.867  1.00  0.00     0.000 C 
ENDBRANCH  43  45
ENDBRANCH   3  43
TORSDOF 10
