REMARK  2 active torsions:
REMARK  status: ('A' for Active; 'I' for Inactive)
REMARK    1  A    between atoms: C2_2  and  N1_23 
REMARK    2  A    between atoms: C15_15  and  C18_18 
ROOT
HETATM    1  C1  UNL     1      -0.708  -0.378   0.453  1.00  0.00     0.025 C 
HETATM    2  C2  UNL     1      -0.666  -1.914   0.477  1.00  0.00     0.102 C 
HETATM    3  C3  UNL     1       0.105  -2.414  -0.754  1.00  0.00     0.045 C 
HETATM    4  C4  UNL     1       1.486  -1.790  -0.772  1.00  0.00    -0.047 C 
HETATM    5  C5  UNL     1       1.559  -0.266  -0.809  1.00  0.00     0.015 C 
HETATM    6  C6  UNL     1       0.702   0.231   0.379  1.00  0.00     0.006 C 
HETATM    7  C7  UNL     1       3.026   0.275  -0.746  1.00  0.00     0.004 C 
HETATM    8  C8  UNL     1       3.990  -0.655   0.008  1.00  0.00     0.005 C 
HETATM    9  C9  UNL     1       3.973  -2.054  -0.623  1.00  0.00     0.025 C 
HETATM   10  C10 UNL     1       2.571  -2.576  -0.699  1.00  0.00    -0.035 C 
HETATM   11  C11 UNL     1       5.435  -0.125   0.102  1.00  0.00     0.008 C 
HETATM   12  C12 UNL     1       5.578   1.358   0.535  1.00  0.00     0.018 C 
HETATM   13  C13 UNL     1       4.580   2.236  -0.243  1.00  0.00     0.004 C 
HETATM   14  C14 UNL     1       3.145   1.704  -0.180  1.00  0.00     0.001 C 
HETATM   15  C15 UNL     1       6.977   1.669   0.030  1.00  0.00    -0.019 C 
HETATM   16  C16 UNL     1       7.349   0.789  -0.909  1.00  0.00    -0.032 C 
HETATM   17  C17 UNL     1       6.307  -0.262  -1.165  1.00  0.00     0.026 C 
HETATM   18  C20 UNL     1       5.429   1.488   2.060  1.00  0.00     0.004 C 
HETATM   19  C21 UNL     1       0.955   0.233  -2.145  1.00  0.00     0.004 C 
ENDROOT
BRANCH  15  20
HETATM   20  C18 UNL     1       7.823   2.851   0.429  1.00  0.00     0.170 C 
HETATM   21  O1  UNL     1       7.075   3.888   1.034  1.00  0.00    -0.219 OA
HETATM   22  C19 UNL     1       8.945   2.429   1.373  1.00  0.00     0.040 C 
ENDBRANCH  15  20
BRANCH   2  23
HETATM   23  N1  UNL     1      -2.044  -2.416   0.522  1.00  0.00    -0.295 NA
HETATM   24  C22 UNL     1      -2.174  -3.855   0.740  1.00  0.00     0.145 C 
ENDBRANCH   2  23
TORSDOF 2
