REMARK  6 active torsions:
REMARK  status: ('A' for Active; 'I' for Inactive)
REMARK    1  A    between atoms: C2_2  and  O1_3 
REMARK    2  A    between atoms: O1_3  and  C3_4 
REMARK    3  A    between atoms: C4_6  and  C8_13 
REMARK    4  A    between atoms: C8_13  and  O6_14 
REMARK    5  A    between atoms: O6_14  and  C9_15 
REMARK    6  A    between atoms: C10_17  and  C14_24 
ROOT
HETATM    1  C3  UNL     1      -3.104   1.041  -1.580  1.00  0.00     0.274 C 
HETATM    2  O2  UNL     1      -2.631   0.551  -0.332  1.00  0.00    -0.326 OA
HETATM    3  C4  UNL     1      -3.096  -0.748   0.016  1.00  0.00     0.180 C 
HETATM    4  C5  UNL     1      -4.637  -0.727   0.137  1.00  0.00     0.215 C 
HETATM    5  C6  UNL     1      -5.295  -0.184  -1.152  1.00  0.00     0.220 C 
HETATM    6  C7  UNL     1      -4.643   1.158  -1.547  1.00  0.00     0.241 C 
HETATM    7  O3  UNL     1      -5.092   1.555  -2.830  1.00  0.00    -0.215 OA
HETATM    8  O4  UNL     1      -6.686   0.002  -0.943  1.00  0.00    -0.218 OA
HETATM    9  O5  UNL     1      -5.092  -2.043   0.391  1.00  0.00    -0.218 OA
ENDROOT
BRANCH   1  10
HETATM   10  O1  UNL     1      -2.524   2.316  -1.818  1.00  0.00    -0.301 OA
BRANCH  10  11
HETATM   11  C2  UNL     1      -1.188   2.393  -1.918  1.00  0.00     0.124 A 
HETATM   12  C1  UNL     1      -0.551   3.662  -1.930  1.00  0.00     0.176 A 
HETATM   13  C18 UNL     1       0.861   3.748  -2.037  1.00  0.00     0.131 A 
HETATM   14  O18 UNL     1      -1.281   4.781  -1.840  1.00  0.00    -0.186 OA
HETATM   15  C17 UNL     1       1.613   2.547  -2.131  1.00  0.00     0.032 A 
HETATM   16  O12 UNL     1       1.484   4.953  -2.051  1.00  0.00    -0.271 OA
HETATM   17  C16 UNL     1       0.984   1.285  -2.119  1.00  0.00     0.068 A 
HETATM   18  C21 UNL     1       3.072   2.604  -2.242  1.00  0.00     0.032 A 
HETATM   19  C15 UNL     1      -0.424   1.201  -2.012  1.00  0.00     0.032 A 
HETATM   20  C23 UNL     1       1.857   0.078  -2.223  1.00  0.00     0.300 A 
HETATM   21  O13 UNL     1       3.201   0.199  -2.322  1.00  0.00    -0.271 OA
HETATM   22  O14 UNL     1       1.418  -1.049  -2.223  1.00  0.00    -0.259 OA
HETATM   23  C22 UNL     1       3.826   1.402  -2.336  1.00  0.00     0.131 A 
HETATM   24  C24 UNL     1       5.236   1.490  -2.443  1.00  0.00     0.179 A 
HETATM   25  C25 UNL     1       5.875   2.760  -2.457  1.00  0.00     0.158 A 
HETATM   26  O16 UNL     1       5.969   0.371  -2.533  1.00  0.00    -0.186 OA
HETATM   27  C26 UNL     1       5.109   3.951  -2.363  1.00  0.00     0.035 A 
HETATM   28  O15 UNL     1       7.209   2.834  -2.559  1.00  0.00    -0.188 OA
HETATM   29  C20 UNL     1       3.701   3.867  -2.256  1.00  0.00     0.068 A 
HETATM   30  C19 UNL     1       2.830   5.074  -2.152  1.00  0.00     0.300 A 
HETATM   31  O17 UNL     1       3.268   6.201  -2.154  1.00  0.00    -0.259 OA
ENDBRANCH  10  11
ENDBRANCH   1  10
BRANCH   3  32
HETATM   32  C8  UNL     1      -2.399  -1.133   1.324  1.00  0.00     0.177 C 
BRANCH  32  33
HETATM   33  O6  UNL     1      -1.033  -1.344   1.051  1.00  0.00    -0.326 OA
BRANCH  33  34
HETATM   34  C9  UNL     1      -0.287  -1.719   2.193  1.00  0.00     0.270 C 
HETATM   35  O7  UNL     1      -0.602  -3.066   2.512  1.00  0.00    -0.326 OA
HETATM   36  C10 UNL     1       0.037  -3.576   3.674  1.00  0.00     0.184 C 
HETATM   37  C11 UNL     1       1.568  -3.551   3.469  1.00  0.00     0.215 C 
HETATM   38  C12 UNL     1       2.062  -2.135   3.098  1.00  0.00     0.220 C 
HETATM   39  O10 UNL     1       2.193  -3.979   4.666  1.00  0.00    -0.218 OA
HETATM   40  C13 UNL     1       1.232  -1.580   1.918  1.00  0.00     0.241 C 
HETATM   41  O9  UNL     1       3.434  -2.184   2.740  1.00  0.00    -0.218 OA
HETATM   42  O8  UNL     1       1.551  -0.213   1.721  1.00  0.00    -0.215 OA
BRANCH  36  43
HETATM   43  C14 UNL     1      -0.514  -4.988   3.898  1.00  0.00     0.214 C 
HETATM   44  O11 UNL     1      -1.863  -4.879   4.293  1.00  0.00    -0.218 OA
ENDBRANCH  36  43
ENDBRANCH  33  34
ENDBRANCH  32  33
ENDBRANCH   3  32
TORSDOF 6
