REMARK  2 active torsions:
REMARK  status: ('A' for Active; 'I' for Inactive)
REMARK    1  A    between atoms: C2_2  and  O5_26 
REMARK    2  A    between atoms: C3_3  and  O4_24 
ROOT
HETATM    1  C1  UNL     1      -0.976   0.095  -0.312  1.00  0.00     0.026 C 
HETATM    2  C2  UNL     1      -0.949  -1.297  -0.167  1.00  0.00     0.116 C 
HETATM    3  C3  UNL     1       0.321  -1.902  -0.027  1.00  0.00     0.114 C 
HETATM    4  C4  UNL     1       1.488  -1.104  -0.088  1.00  0.00     0.031 C 
HETATM    5  C5  UNL     1       1.427   0.300  -0.096  1.00  0.00    -0.018 C 
HETATM    6  C6  UNL     1       0.171   0.880  -0.281  1.00  0.00    -0.002 C 
HETATM    7  C7  UNL     1       2.682   1.153  -0.073  1.00  0.00     0.088 C 
HETATM    8  C8  UNL     1       3.910   0.276   0.223  1.00  0.00     0.248 C 
HETATM    9  N1  UNL     1       3.920  -0.934  -0.581  1.00  0.00     0.146 N 
HETATM   10  C9  UNL     1       2.839  -1.806  -0.141  1.00  0.00     0.279 C 
HETATM   11  C10 UNL     1       3.880  -0.696  -2.015  1.00  0.00     0.286 C 
HETATM   12  C11 UNL     1       5.222   1.038   0.173  1.00  0.00     0.007 A 
HETATM   13  C12 UNL     1       5.226   2.427   0.410  1.00  0.00    -0.020 A 
HETATM   14  C13 UNL     1       3.943   3.180   0.679  1.00  0.00     0.059 C 
HETATM   15  C14 UNL     1       2.740   2.282   0.964  1.00  0.00     0.163 C 
HETATM   16  O1  UNL     1       1.583   3.078   0.945  1.00  0.00    -0.223 OA
HETATM   17  C15 UNL     1       6.430   3.150   0.409  1.00  0.00     0.022 A 
HETATM   18  C16 UNL     1       7.616   2.458   0.193  1.00  0.00     0.119 A 
HETATM   19  C17 UNL     1       7.617   1.085  -0.015  1.00  0.00     0.119 A 
HETATM   20  C18 UNL     1       6.434   0.355  -0.021  1.00  0.00     0.024 A 
HETATM   21  O2  UNL     1       8.919   0.653  -0.176  1.00  0.00    -0.300 OA
HETATM   22  C19 UNL     1       9.773   1.798  -0.070  1.00  0.00     0.304 A 
HETATM   23  O3  UNL     1       8.916   2.923   0.162  1.00  0.00    -0.300 OA
ENDROOT
BRANCH   2  24
HETATM   24  O5  UNL     1      -2.166  -1.933  -0.262  1.00  0.00    -0.326 OA
HETATM   25  C21 UNL     1      -2.262  -3.241  -0.772  1.00  0.00     0.181 C 
ENDBRANCH   2  24
BRANCH   3  26
HETATM   26  O4  UNL     1       0.451  -3.268  -0.003  1.00  0.00    -0.326 OA
HETATM   27  C20 UNL     1       0.458  -3.818   1.296  1.00  0.00     0.181 C 
ENDBRANCH   3  26
TORSDOF 2
