REMARK  4 active torsions:
REMARK  status: ('A' for Active; 'I' for Inactive)
REMARK    1  A    between atoms: C1_1  and  O1_2 
REMARK    2  A    between atoms: O1_2  and  C2_3 
REMARK    3  A    between atoms: C3_4  and  O2_5 
REMARK    4  A    between atoms: C16_24  and  C20_31 
ROOT
HETATM    1  C2  UNL     1       0.360   1.017   0.641  1.00  0.00     0.144 A 
HETATM    2  C3  UNL     1      -0.443   1.300   1.760  1.00  0.00     0.120 A 
HETATM    3  C5  UNL     1      -0.668   0.254   2.665  1.00  0.00     0.051 A 
HETATM    4  C6  UNL     1      -0.168  -1.041   2.507  1.00  0.00     0.107 A 
HETATM    5  C7  UNL     1       0.646  -1.276   1.389  1.00  0.00     0.089 A 
HETATM    6  C8  UNL     1       0.939  -0.250   0.474  1.00  0.00     0.160 A 
HETATM    7  O3  UNL     1       1.766  -0.440  -0.592  1.00  0.00    -0.188 OA
HETATM    8  C9  UNL     1       1.198  -2.641   1.193  1.00  0.00     0.202 A 
HETATM    9  C10 UNL     1       0.768  -3.655   2.185  1.00  0.00     0.064 A 
HETATM   10  C11 UNL     1      -0.047  -3.260   3.256  1.00  0.00     0.105 A 
HETATM   11  O4  UNL     1      -0.463  -1.978   3.456  1.00  0.00    -0.307 OA
HETATM   12  C12 UNL     1      -0.424  -4.260   4.158  1.00  0.00     0.054 A 
HETATM   13  C13 UNL     1      -0.035  -5.597   4.028  1.00  0.00     0.158 A 
HETATM   14  C14 UNL     1       0.773  -5.969   2.950  1.00  0.00     0.156 A 
HETATM   15  C15 UNL     1       1.168  -4.990   2.036  1.00  0.00     0.035 A 
HETATM   16  O5  UNL     1       1.159  -7.263   2.806  1.00  0.00    -0.188 OA
HETATM   17  O6  UNL     1      -0.420  -6.545   4.922  1.00  0.00    -0.188 OA
HETATM   18  O7  UNL     1       1.936  -2.953   0.260  1.00  0.00    -0.286 OA
ENDROOT
BRANCH   1  19
HETATM   19  O1  UNL     1       0.696   2.018  -0.230  1.00  0.00    -0.299 OA
BRANCH  19  20
HETATM   20  C1  UNL     1       0.114   1.896  -1.509  1.00  0.00     0.274 C 
HETATM   21  O8  UNL     1       1.206   2.043  -2.388  1.00  0.00    -0.326 OA
HETATM   22  C16 UNL     1       0.824   1.947  -3.735  1.00  0.00     0.184 C 
HETATM   23  C17 UNL     1      -0.209   3.021  -4.064  1.00  0.00     0.215 C 
HETATM   24  C18 UNL     1      -1.401   2.920  -3.132  1.00  0.00     0.220 C 
HETATM   25  O11 UNL     1      -0.681   2.877  -5.381  1.00  0.00    -0.218 OA
HETATM   26  C19 UNL     1      -0.897   2.996  -1.709  1.00  0.00     0.241 C 
HETATM   27  O10 UNL     1      -2.289   3.979  -3.382  1.00  0.00    -0.218 OA
HETATM   28  O9  UNL     1      -1.961   2.793  -0.815  1.00  0.00    -0.215 OA
BRANCH  22  29
HETATM   29  C20 UNL     1       2.075   2.087  -4.590  1.00  0.00     0.214 C 
HETATM   30  O12 UNL     1       2.984   1.051  -4.272  1.00  0.00    -0.218 OA
ENDBRANCH  22  29
ENDBRANCH  19  20
ENDBRANCH   1  19
BRANCH   2  31
HETATM   31  O2  UNL     1      -0.905   2.582   1.929  1.00  0.00    -0.326 OA
HETATM   32  C4  UNL     1      -1.408   2.961   3.189  1.00  0.00     0.181 C 
ENDBRANCH   2  31
TORSDOF 4
