REMARK  16 active torsions:
REMARK  status: ('A' for Active; 'I' for Inactive)
REMARK    1  A    between atoms: C1_1  and  C22_31 
REMARK    2  A    between atoms: C3_3  and  O4_29 
REMARK    3  A    between atoms: C7_7  and  C15_17 
REMARK    4  A    between atoms: C8_8  and  C9_10 
REMARK       I    between atoms: C15_17  and  N1_18 
REMARK    5  A    between atoms: N1_18  and  C16_19 
REMARK    6  A    between atoms: C16_19  and  C17_20 
REMARK    7  A    between atoms: C17_20  and  C18_21 
REMARK    8  A    between atoms: C18_21  and  C19_22 
REMARK    9  A    between atoms: C19_22  and  N2_23 
REMARK       I    between atoms: N2_23  and  C20_24 
REMARK   10  A    between atoms: C22_31  and  C23_32 
REMARK   11  A    between atoms: C23_32  and  C24_33 
REMARK   12  A    between atoms: N5_35  and  C25_36 
REMARK   13  A    between atoms: C25_36  and  C26_37 
REMARK   14  A    between atoms: C26_37  and  C27_38 
REMARK   15  A    between atoms: C27_38  and  C28_39 
REMARK   16  A    between atoms: C28_39  and  N6_40 
REMARK       I    between atoms: N6_40  and  C29_41 
ROOT
HETATM    1  C1  UNL     1       4.143  -1.939  -1.046  1.00  0.00    -0.042 C 
HETATM    2  C2  UNL     1       3.936  -3.032  -1.830  1.00  0.00    -0.003 C 
HETATM    3  C3  UNL     1       2.630  -3.796  -1.864  1.00  0.00     0.164 C 
HETATM    4  C4  UNL     1       1.971  -3.782  -0.477  1.00  0.00     0.148 C 
HETATM    5  C5  UNL     1       1.877  -2.339  -0.042  1.00  0.00     0.046 C 
HETATM    6  C6  UNL     1       3.078  -1.455  -0.195  1.00  0.00     0.025 C 
HETATM    7  C7  UNL     1       0.471  -1.855   0.158  1.00  0.00     0.115 C 
HETATM    8  C8  UNL     1      -0.296  -3.181  -0.039  1.00  0.00     0.146 C 
HETATM    9  O1  UNL     1       0.581  -4.124  -0.653  1.00  0.00    -0.351 OA
ENDROOT
BRANCH   1  10
HETATM   10  C22 UNL     1       5.465  -1.226  -1.031  1.00  0.00     0.051 C 
BRANCH  10  11
HETATM   11  C23 UNL     1       6.762  -1.999  -0.971  1.00  0.00     0.025 C 
BRANCH  11  12
HETATM   12  C24 UNL     1       8.120  -1.323  -0.856  1.00  0.00     0.205 C 
HETATM   13  O5  UNL     1       9.241  -1.998  -0.747  1.00  0.00    -0.170 OA
HETATM   14  N5  UNL     1       8.071   0.040  -0.881  1.00  0.00    -0.246 NA
BRANCH  14  15
HETATM   15  C25 UNL     1       9.272   0.874  -0.796  1.00  0.00     0.128 C 
BRANCH  15  16
HETATM   16  C26 UNL     1       9.815   1.168  -2.200  1.00  0.00     0.029 C 
BRANCH  16  17
HETATM   17  C27 UNL     1      11.089   2.026  -2.150  1.00  0.00     0.029 C 
BRANCH  17  18
HETATM   18  C28 UNL     1      11.649   2.302  -3.553  1.00  0.00     0.129 C 
BRANCH  18  19
HETATM   19  N6  UNL     1      12.905   3.074  -3.462  1.00  0.00    -0.241 NA
HETATM   20  C29 UNL     1      13.745   3.265  -4.547  1.00  0.00     0.225 C 
HETATM   21  N7  UNL     1      14.913   3.954  -4.281  1.00  0.00    -0.060 NA
HETATM   22  N8  UNL     1      13.497   2.822  -5.753  1.00  0.00    -0.270 NA
HETATM   23  H2  UNL     1      14.252   3.068  -6.397  1.00  0.00     0.189 HD
ENDBRANCH  18  19
ENDBRANCH  17  18
ENDBRANCH  16  17
ENDBRANCH  15  16
ENDBRANCH  14  15
ENDBRANCH  11  12
ENDBRANCH  10  11
ENDBRANCH   1  10
BRANCH   3  24
HETATM   24  O4  UNL     1       2.706  -5.038  -2.446  1.00  0.00    -0.347 OA
HETATM   25  C21 UNL     1       1.942  -5.142  -3.624  1.00  0.00     0.175 C 
ENDBRANCH   3  24
BRANCH   7  26
HETATM   26  C15 UNL     1       0.101  -0.795  -0.875  1.00  0.00     0.254 C 
HETATM   27  N1  UNL     1      -0.359   0.410  -0.416  1.00  0.00    -0.238 NA
HETATM   28  O3  UNL     1       0.189  -0.994  -2.062  1.00  0.00    -0.271 OA
BRANCH  27  29
HETATM   29  C16 UNL     1      -0.496   0.787   0.994  1.00  0.00     0.129 C 
BRANCH  29  30
HETATM   30  C17 UNL     1      -1.058   2.212   1.121  1.00  0.00     0.029 C 
BRANCH  30  31
HETATM   31  C18 UNL     1      -1.140   2.640   2.596  1.00  0.00     0.029 C 
BRANCH  31  32
HETATM   32  C19 UNL     1      -1.704   4.056   2.780  1.00  0.00     0.129 C 
BRANCH  32  33
HETATM   33  N2  UNL     1      -1.701   4.405   4.216  1.00  0.00    -0.241 NA
HETATM   34  C20 UNL     1      -2.204   5.599   4.706  1.00  0.00     0.225 C 
HETATM   35  N3  UNL     1      -2.097   5.772   6.073  1.00  0.00    -0.060 NA
HETATM   36  N4  UNL     1      -2.740   6.530   3.958  1.00  0.00    -0.270 NA
HETATM   37  H1  UNL     1      -3.039   7.327   4.523  1.00  0.00     0.189 HD
ENDBRANCH  32  33
ENDBRANCH  31  32
ENDBRANCH  30  31
ENDBRANCH  29  30
ENDBRANCH  27  29
ENDBRANCH   7  26
BRANCH   8  38
HETATM   38  C9  UNL     1      -0.807  -3.730   1.278  1.00  0.00     0.005 A 
HETATM   39  C10 UNL     1      -2.178  -3.855   1.533  1.00  0.00     0.000 A 
HETATM   40  C11 UNL     1      -2.638  -4.344   2.757  1.00  0.00     0.027 A 
HETATM   41  C12 UNL     1      -1.752  -4.723   3.771  1.00  0.00     0.131 A 
HETATM   42  C13 UNL     1      -0.384  -4.595   3.514  1.00  0.00     0.027 A 
HETATM   43  O2  UNL     1      -2.192  -5.196   4.966  1.00  0.00    -0.190 OA
HETATM   44  C14 UNL     1       0.080  -4.109   2.291  1.00  0.00     0.000 A 
ENDBRANCH   8  38
TORSDOF 16
