REMARK  7 active torsions:
REMARK  status: ('A' for Active; 'I' for Inactive)
REMARK    1  A    between atoms: C6_6  and  C7_7 
REMARK    2  A    between atoms: C7_7  and  C8_8 
REMARK    3  A    between atoms: C8_8  and  C9_9 
REMARK    4  A    between atoms: C9_9  and  O2_11 
REMARK    5  A    between atoms: O2_11  and  C10_12 
REMARK    6  A    between atoms: C11_13  and  C15_19 
REMARK    7  A    between atoms: C16_20  and  C17_21 
ROOT
HETATM    1  C10 UNL     1       4.267  -0.291  -1.445  1.00  0.00     0.170 C 
HETATM    2  C11 UNL     1       3.202   0.038  -2.498  1.00  0.00     0.186 C 
HETATM    3  O3  UNL     1       2.599  -1.113  -3.049  1.00  0.00    -0.295 OA
HETATM    4  C12 UNL     1       3.379  -2.216  -3.242  1.00  0.00     0.296 C 
HETATM    5  C13 UNL     1       4.795  -2.276  -2.806  1.00  0.00     0.066 C 
HETATM    6  C14 UNL     1       5.230  -1.326  -1.964  1.00  0.00     0.011 C 
HETATM    7  O4  UNL     1       2.918  -3.199  -3.816  1.00  0.00    -0.259 OA
ENDROOT
BRANCH   1   8
HETATM    8  O2  UNL     1       3.621  -0.756  -0.285  1.00  0.00    -0.324 OA
BRANCH   8   9
HETATM    9  C9  UNL     1       4.277  -0.671   0.903  1.00  0.00     0.270 C 
HETATM   10  O1  UNL     1       5.546  -0.313   0.963  1.00  0.00    -0.190 OA
BRANCH   9  11
HETATM   11  C8  UNL     1       3.535  -0.876   2.221  1.00  0.00     0.069 C 
BRANCH  11  12
HETATM   12  C7  UNL     1       2.060  -1.189   2.229  1.00  0.00     0.027 C 
BRANCH  12  13
HETATM   13  C6  UNL     1       1.362  -1.651   3.475  1.00  0.00    -0.048 C 
HETATM   14  C1  UNL     1       1.552  -1.006   4.653  1.00  0.00    -0.035 C 
HETATM   15  C2  UNL     1       0.878  -1.436   5.917  1.00  0.00     0.025 C 
HETATM   16  C3  UNL     1       0.028  -2.688   5.935  1.00  0.00     0.005 C 
HETATM   17  C4  UNL     1      -0.356  -3.221   4.573  1.00  0.00     0.005 C 
HETATM   18  C5  UNL     1       0.473  -2.796   3.390  1.00  0.00     0.022 C 
ENDBRANCH  12  13
ENDBRANCH  11  12
ENDBRANCH   9  11
ENDBRANCH   8   9
ENDBRANCH   1   8
BRANCH   2  19
HETATM   19  C15 UNL     1       2.087   0.952  -1.970  1.00  0.00     0.177 A 
HETATM   20  C16 UNL     1       1.681   2.054  -2.732  1.00  0.00     0.167 A 
HETATM   21  O5  UNL     1       2.709   2.317  -1.617  1.00  0.00    -0.347 OA
BRANCH  20  22
HETATM   22  C17 UNL     1       0.353   2.553  -2.383  1.00  0.00     0.007 A 
HETATM   23  C18 UNL     1      -0.513   2.909  -3.427  1.00  0.00    -0.002 A 
HETATM   24  C19 UNL     1      -1.793   3.408  -3.177  1.00  0.00    -0.000 A 
HETATM   25  C20 UNL     1      -2.235   3.572  -1.864  1.00  0.00    -0.000 A 
HETATM   26  C21 UNL     1      -1.384   3.236  -0.810  1.00  0.00    -0.000 A 
HETATM   27  C22 UNL     1      -0.105   2.738  -1.069  1.00  0.00    -0.002 A 
ENDBRANCH  20  22
ENDBRANCH   2  19
TORSDOF 7
