REMARK  4 active torsions:
REMARK  status: ('A' for Active; 'I' for Inactive)
REMARK    1  A    between atoms: N5_10  and  C6_11 
REMARK    2  A    between atoms: C6_11  and  C7_12 
REMARK    3  A    between atoms: C7_12  and  C8_13 
REMARK    4  A    between atoms: C8_13  and  C9_14 
ROOT
HETATM    1  N1  UNL     1      -2.563   2.960   0.158  1.00  0.00    -0.202 NA
HETATM    2  C1  UNL     1      -2.655   1.601   0.207  1.00  0.00     0.202 A 
HETATM    3  N2  UNL     1      -1.671   0.711   0.253  1.00  0.00    -0.205 NA
HETATM    4  C2  UNL     1      -0.405   1.238   0.250  1.00  0.00     0.168 A 
HETATM    5  C3  UNL     1      -0.208   2.626   0.203  1.00  0.00     0.155 A 
HETATM    6  C4  UNL     1      -1.333   3.510   0.155  1.00  0.00     0.206 A 
HETATM    7  N3  UNL     1      -1.098   4.856   0.109  1.00  0.00    -0.125 N 
HETATM    8  N4  UNL     1       1.141   2.951   0.206  1.00  0.00    -0.219 NA
HETATM    9  C5  UNL     1       1.777   1.807   0.253  1.00  0.00     0.180 A 
HETATM   10  N5  UNL     1       0.882   0.774   0.278  1.00  0.00    -0.294 N 
ENDROOT
BRANCH  10  11
HETATM   11  C6  UNL     1       1.309  -0.629   0.324  1.00  0.00     0.112 C 
BRANCH  11  12
HETATM   12  C7  UNL     1       0.203  -1.695   0.290  1.00  0.00     0.069 C 
BRANCH  12  13
HETATM   13  C8  UNL     1       0.726  -3.131   0.224  1.00  0.00     0.240 C 
HETATM   14  O3  UNL     1       1.517  -3.421   1.365  1.00  0.00    -0.212 OA
BRANCH  13  15
HETATM   15  C9  UNL     1       1.581  -3.474  -0.977  1.00  0.00     0.217 C 
HETATM   16  O1  UNL     1       2.574  -4.154  -0.882  1.00  0.00    -0.646 OA
HETATM   17  O2  UNL     1       1.116  -2.992  -2.141  1.00  0.00    -0.646 OA
ENDBRANCH  13  15
ENDBRANCH  12  13
ENDBRANCH  11  12
ENDBRANCH  10  11
TORSDOF 4
