REMARK  1 active torsions:
REMARK  status: ('A' for Active; 'I' for Inactive)
REMARK    1  A    between atoms: C14_15  and  O2_16 
ROOT
HETATM    1  C1  UNL     1      -2.308  -0.941   0.280  1.00  0.00     0.002 A 
HETATM    2  C2  UNL     1      -1.922  -2.271   0.160  1.00  0.00     0.028 A 
HETATM    3  C3  UNL     1      -0.574  -2.650   0.057  1.00  0.00     0.134 A 
HETATM    4  C4  UNL     1       0.403  -1.635   0.047  1.00  0.00     0.067 A 
HETATM    5  C5  UNL     1       0.021  -0.282   0.155  1.00  0.00     0.044 A 
HETATM    6  C6  UNL     1      -1.331   0.056   0.279  1.00  0.00     0.003 A 
HETATM    7  C7  UNL     1       1.015   0.824   0.144  1.00  0.00     0.198 A 
HETATM    8  C8  UNL     1       2.463   0.485   0.076  1.00  0.00     0.066 A 
HETATM    9  C9  UNL     1       2.844  -0.867  -0.018  1.00  0.00     0.044 A 
HETATM   10  C10 UNL     1       1.848  -1.969  -0.059  1.00  0.00     0.198 A 
HETATM   11  O1  UNL     1       2.237  -3.128  -0.170  1.00  0.00    -0.286 OA
HETATM   12  C11 UNL     1       4.200  -1.200  -0.056  1.00  0.00     0.005 A 
HETATM   13  C12 UNL     1       5.165  -0.197   0.030  1.00  0.00     0.029 A 
HETATM   14  C13 UNL     1       4.795   1.143   0.121  1.00  0.00     0.153 A 
HETATM   15  C14 UNL     1       3.436   1.508   0.070  1.00  0.00     0.122 A 
HETATM   16  O3  UNL     1       5.744   2.111   0.240  1.00  0.00    -0.188 OA
HETATM   17  O4  UNL     1       0.612   1.984   0.171  1.00  0.00    -0.286 OA
HETATM   18  O5  UNL     1      -0.304  -3.980  -0.066  1.00  0.00    -0.190 OA
ENDROOT
BRANCH  15  19
HETATM   19  O2  UNL     1       3.137   2.834   0.252  1.00  0.00    -0.326 OA
HETATM   20  C15 UNL     1       2.990   3.559  -0.949  1.00  0.00     0.181 C 
ENDBRANCH  15  19
TORSDOF 1
