REMARK  3 active torsions:
REMARK  status: ('A' for Active; 'I' for Inactive)
REMARK    1  A    between atoms: C10_11  and  C11_12 
REMARK    2  A    between atoms: C12_14  and  C16_21 
REMARK    3  A    between atoms: C18_24  and  C21_28 
ROOT
HETATM    1  C1  UNL     1      -2.009   1.002  -2.229  1.00  0.00     0.030 A 
HETATM    2  C2  UNL     1      -1.632  -0.330  -2.374  1.00  0.00     0.029 A 
HETATM    3  C3  UNL     1      -0.356  -0.771  -2.011  1.00  0.00     0.128 A 
HETATM    4  C4  UNL     1       0.535   0.155  -1.447  1.00  0.00     0.015 A 
HETATM    5  C5  UNL     1       0.150   1.500  -1.320  1.00  0.00     0.063 A 
HETATM    6  C6  UNL     1      -1.124   1.947  -1.708  1.00  0.00     0.134 A 
HETATM    7  O1  UNL     1      -1.513   3.248  -1.623  1.00  0.00    -0.190 OA
HETATM    8  C7  UNL     1       1.148   2.489  -0.820  1.00  0.00     0.199 C 
HETATM    9  C8  UNL     1       2.579   2.146  -1.052  1.00  0.00     0.061 A 
HETATM   10  C9  UNL     1       2.916   0.791  -1.168  1.00  0.00    -0.011 A 
HETATM   11  C10 UNL     1       1.880  -0.283  -0.912  1.00  0.00     0.077 C 
HETATM   12  C17 UNL     1       4.250   0.443  -1.397  1.00  0.00    -0.005 A 
HETATM   13  C18 UNL     1       5.248   1.413  -1.528  1.00  0.00     0.012 A 
HETATM   14  C19 UNL     1       4.870   2.755  -1.433  1.00  0.00     0.026 A 
HETATM   15  C20 UNL     1       3.549   3.153  -1.200  1.00  0.00     0.134 A 
HETATM   16  O7  UNL     1       3.260   4.482  -1.138  1.00  0.00    -0.190 OA
HETATM   17  O9  UNL     1       0.818   3.564  -0.331  1.00  0.00    -0.286 OA
HETATM   18  O10 UNL     1      -0.049  -2.089  -2.132  1.00  0.00    -0.191 OA
ENDROOT
BRANCH  11  19
HETATM   19  C11 UNL     1       1.866  -0.616   0.596  1.00  0.00     0.156 C 
HETATM   20  O2  UNL     1       3.142  -1.120   0.906  1.00  0.00    -0.350 OA
HETATM   21  C12 UNL     1       3.345  -1.419   2.259  1.00  0.00     0.181 C 
HETATM   22  C13 UNL     1       2.385  -2.525   2.664  1.00  0.00     0.214 C 
HETATM   23  C14 UNL     1       0.972  -2.032   2.457  1.00  0.00     0.217 C 
HETATM   24  O5  UNL     1       2.535  -2.865   4.020  1.00  0.00    -0.218 OA
HETATM   25  C15 UNL     1       0.788  -1.615   1.011  1.00  0.00     0.212 C 
HETATM   26  O4  UNL     1       0.072  -3.065   2.771  1.00  0.00    -0.218 OA
HETATM   27  O3  UNL     1      -0.496  -1.046   0.918  1.00  0.00    -0.218 OA
BRANCH  21  28
HETATM   28  C16 UNL     1       4.807  -1.813   2.457  1.00  0.00     0.214 C 
HETATM   29  O6  UNL     1       5.400  -0.987   3.440  1.00  0.00    -0.218 OA
ENDBRANCH  21  28
ENDBRANCH  11  19
BRANCH  13  30
HETATM   30  C21 UNL     1       6.678   0.979  -1.745  1.00  0.00     0.209 C 
HETATM   31  O8  UNL     1       7.598   2.062  -1.774  1.00  0.00    -0.215 OA
ENDBRANCH  13  30
TORSDOF 3
