REMARK  0 active torsions:
REMARK  status: ('A' for Active; 'I' for Inactive)
ROOT
HETATM    1  C1  UNL     1      -1.711  -0.390   0.314  1.00  0.00     0.038 C 
HETATM    2  C2  UNL     1      -1.790  -1.738   1.015  1.00  0.00     0.174 C 
HETATM    3  C3  UNL     1      -0.430  -2.173   1.479  1.00  0.00    -0.002 C 
HETATM    4  C4  UNL     1       0.594  -1.331   1.700  1.00  0.00    -0.047 C 
HETATM    5  C5  UNL     1       0.506   0.178   1.512  1.00  0.00     0.015 C 
HETATM    6  C6  UNL     1      -0.965   0.586   1.229  1.00  0.00     0.007 C 
HETATM    7  C7  UNL     1       1.468   0.535   0.339  1.00  0.00     0.004 C 
HETATM    8  C8  UNL     1       2.896  -0.045   0.486  1.00  0.00     0.001 C 
HETATM    9  C9  UNL     1       2.874  -1.547   0.827  1.00  0.00     0.004 C 
HETATM   10  C10 UNL     1       1.966  -1.867   2.022  1.00  0.00     0.022 C 
HETATM   11  C11 UNL     1       3.873   0.376  -0.653  1.00  0.00     0.007 C 
HETATM   12  C12 UNL     1       3.336   1.380  -1.714  1.00  0.00     0.051 C 
HETATM   13  C13 UNL     1       2.172   2.302  -1.296  1.00  0.00     0.007 C 
HETATM   14  C14 UNL     1       1.642   2.046   0.114  1.00  0.00     0.001 C 
HETATM   15  C15 UNL     1       2.915   0.460  -2.863  1.00  0.00     0.150 C 
HETATM   16  C16 UNL     1       3.411  -0.952  -2.645  1.00  0.00     0.065 C 
HETATM   17  C17 UNL     1       4.427  -0.782  -1.514  1.00  0.00     0.008 C 
HETATM   18  O1  UNL     1       2.291   0.802  -3.841  1.00  0.00    -0.296 OA
HETATM   19  C18 UNL     1       4.474   2.261  -2.279  1.00  0.00     0.007 C 
HETATM   20  C19 UNL     1       0.905   0.905   2.818  1.00  0.00     0.004 C 
HETATM   21  O2  UNL     1      -2.326  -2.699   0.125  1.00  0.00    -0.219 OA
ENDROOT
TORSDOF 0
