REMARK  1 active torsions:
REMARK  status: ('A' for Active; 'I' for Inactive)
REMARK    1  A    between atoms: C6_6  and  C9_10 
ROOT
HETATM    1  C1  UNL     1      -3.290   0.102  -0.442  1.00  0.00     0.000 C 
HETATM    2  C2  UNL     1      -2.645   1.163   0.440  1.00  0.00     0.000 C 
HETATM    3  C3  UNL     1      -1.167   0.795   0.440  1.00  0.00     0.000 C 
HETATM    4  C4  UNL     1      -0.552   1.163  -0.904  1.00  0.00     0.003 C 
HETATM    5  C5  UNL     1       0.701   0.302  -0.984  1.00  0.00     0.031 C 
HETATM    6  C6  UNL     1       1.761   0.860  -0.043  1.00  0.00     0.157 C 
HETATM    7  C7  UNL     1       1.001   1.775   1.161  1.00  0.00     0.033 C 
HETATM    8  C8  UNL     1      -0.455   1.556   1.550  1.00  0.00     0.003 C 
HETATM    9  O1  UNL     1       2.647   1.673  -0.763  1.00  0.00    -0.223 OA
HETATM   10  C10 UNL     1       0.244  -1.062  -0.482  1.00  0.00     0.002 C 
HETATM   11  C11 UNL     1      -0.082  -1.983  -1.651  1.00  0.00     0.000 C 
HETATM   12  C12 UNL     1       1.317  -1.768   0.335  1.00  0.00     0.000 C 
HETATM   13  C13 UNL     1      -1.167  -0.728   0.440  1.00  0.00     0.000 C 
HETATM   14  C14 UNL     1      -2.403  -1.097  -0.371  1.00  0.00     0.000 C 
ENDROOT
BRANCH   6  15
HETATM   15  C9  UNL     1       2.538  -0.285   0.594  1.00  0.00     0.212 C 
HETATM   16  O2  UNL     1       3.892  -0.184   0.242  1.00  0.00    -0.218 OA
ENDBRANCH   6  15
TORSDOF 1
