REMARK  2 active torsions:
REMARK  status: ('A' for Active; 'I' for Inactive)
REMARK    1  A    between atoms: C3_3  and  C29_33 
REMARK    2  A    between atoms: C16_17  and  C25_27 
ROOT
HETATM    1  C1  UNL     1       1.049  -2.428  -1.688  1.00  0.00     0.033 C 
HETATM    2  C2  UNL     1       1.270  -2.717   0.197  1.00  0.00     0.159 C 
HETATM    3  C3  UNL     1      -0.305  -2.231   1.367  1.00  0.00     0.093 C 
HETATM    4  C4  UNL     1      -1.613  -1.587   0.272  1.00  0.00     0.071 C 
HETATM    5  C5  UNL     1      -1.139  -0.705  -1.018  1.00  0.00     0.008 C 
HETATM    6  C6  UNL     1      -0.329  -1.536  -2.196  1.00  0.00     0.003 C 
HETATM    7  C7  UNL     1       0.054   0.148  -0.638  1.00  0.00     0.009 C 
HETATM    8  C8  UNL     1       0.676  -1.012   0.122  1.00  0.00     0.025 C 
HETATM    9  C9  UNL     1      -0.384  -2.715  -0.388  1.00  0.00     0.011 C 
HETATM   10  C10 UNL     1      -1.859  -2.760  -0.526  1.00  0.00     0.169 C 
HETATM   11  O1  UNL     1      -2.775  -3.376  -0.996  1.00  0.00    -0.292 OA
HETATM   12  C11 UNL     1       2.438  -0.356  -0.045  1.00  0.00     0.018 C 
HETATM   13  C12 UNL     1       2.582   1.233   0.049  1.00  0.00    -0.046 C 
HETATM   14  C13 UNL     1       1.484   2.027   0.058  1.00  0.00    -0.035 C 
HETATM   15  C14 UNL     1       0.044   1.581  -0.118  1.00  0.00     0.026 C 
HETATM   16  C15 UNL     1       3.976   1.987   0.093  1.00  0.00     0.056 C 
HETATM   17  C16 UNL     1       4.842   1.622   1.327  1.00  0.00     0.084 C 
HETATM   18  C17 UNL     1       4.952   0.081   1.323  1.00  0.00     0.011 C 
HETATM   19  C18 UNL     1       3.628  -0.708   1.086  1.00  0.00     0.005 C 
HETATM   20  C19 UNL     1       6.272   2.236   1.218  1.00  0.00     0.011 C 
HETATM   21  C20 UNL     1       6.398   3.368   0.195  1.00  0.00     0.003 C 
HETATM   22  C21 UNL     1       6.113   2.850  -1.219  1.00  0.00     0.028 C 
HETATM   23  C22 UNL     1       4.799   2.037  -1.240  1.00  0.00     0.131 C 
HETATM   24  C23 UNL     1       3.889   2.523  -2.383  1.00  0.00     0.033 C 
HETATM   25  O2  UNL     1       5.239   0.742  -1.522  1.00  0.00    -0.226 OA
HETATM   26  C24 UNL     1       7.347   2.082  -1.770  1.00  0.00     0.003 C 
HETATM   27  C26 UNL     1       3.182  -0.699  -1.336  1.00  0.00     0.004 C 
HETATM   28  C27 UNL     1       1.172  -0.709   1.743  1.00  0.00     0.005 C 
HETATM   29  C28 UNL     1      -2.360   0.134  -1.421  1.00  0.00     0.001 C 
HETATM   30  C30 UNL     1      -0.577  -3.369   2.408  1.00  0.00     0.011 C 
HETATM   31  O6  UNL     1       1.810  -4.019   0.435  1.00  0.00    -0.223 OA
ENDROOT
BRANCH   3  32
HETATM   32  C29 UNL     1      -1.057  -0.926   2.090  1.00  0.00     0.209 C 
HETATM   33  O5  UNL     1      -1.807  -1.014   3.038  1.00  0.00    -0.288 OA
ENDBRANCH   3  32
BRANCH  17  34
HETATM   34  C25 UNL     1       4.241   2.179   2.635  1.00  0.00     0.184 C 
HETATM   35  O3  UNL     1       4.717   3.054   3.320  1.00  0.00    -0.647 OA
HETATM   36  O4  UNL     1       3.074   1.630   3.033  1.00  0.00    -0.647 OA
ENDBRANCH  17  34
TORSDOF 2
