REMARK  1 active torsions:
REMARK  status: ('A' for Active; 'I' for Inactive)
REMARK    1  A    between atoms: C3_3  and  C29_30 
ROOT
HETATM    1  C1  UNL     1       2.501  -0.337  -4.266  1.00  0.00     0.034 C 
HETATM    2  C2  UNL     1       2.066  -1.774  -4.520  1.00  0.00     0.162 C 
HETATM    3  C3  UNL     1       1.682  -2.487  -3.211  1.00  0.00     0.106 C 
HETATM    4  C4  UNL     1       0.530  -1.683  -2.508  1.00  0.00     0.012 C 
HETATM    5  C5  UNL     1       0.679  -0.127  -2.385  1.00  0.00     0.001 C 
HETATM    6  C6  UNL     1       1.292   0.420  -3.712  1.00  0.00     0.003 C 
HETATM    7  C7  UNL     1       1.490   0.199  -1.097  1.00  0.00     0.004 C 
HETATM    8  C8  UNL     1       0.929  -0.389   0.230  1.00  0.00     0.018 C 
HETATM    9  C9  UNL     1      -0.149  -1.484   0.001  1.00  0.00     0.004 C 
HETATM   10  C10 UNL     1       0.079  -2.387  -1.210  1.00  0.00     0.001 C 
HETATM   11  C11 UNL     1       0.202   0.624   1.157  1.00  0.00     0.004 C 
HETATM   12  C12 UNL     1       2.104  -1.026   1.011  1.00  0.00    -0.031 C 
HETATM   13  C13 UNL     1       3.481  -0.377   1.076  1.00  0.00    -0.031 C 
HETATM   14  C14 UNL     1       3.649   1.136   1.115  1.00  0.00     0.022 C 
HETATM   15  C15 UNL     1       3.336   1.791  -0.251  1.00  0.00     0.004 C 
HETATM   16  C16 UNL     1       1.947   1.657  -0.899  1.00  0.00     0.001 C 
HETATM   17  C17 UNL     1       5.038   1.630   1.686  1.00  0.00     0.004 C 
HETATM   18  C18 UNL     1       5.622   0.551   2.641  1.00  0.00     0.007 C 
HETATM   19  C19 UNL     1       5.848  -0.741   1.836  1.00  0.00     0.026 C 
HETATM   20  C20 UNL     1       4.514  -1.204   1.325  1.00  0.00    -0.031 C 
HETATM   21  C21 UNL     1       6.778   0.934   3.619  1.00  0.00     0.029 C 
HETATM   22  C22 UNL     1       6.442   2.279   4.293  1.00  0.00     0.152 C 
HETATM   23  O1  UNL     1       7.528   2.748   5.058  1.00  0.00    -0.224 OA
HETATM   24  C23 UNL     1       6.031   3.369   3.309  1.00  0.00     0.033 C 
HETATM   25  C24 UNL     1       4.804   2.926   2.505  1.00  0.00     0.003 C 
HETATM   26  C25 UNL     1       6.863  -0.134   4.748  1.00  0.00     0.003 C 
HETATM   27  C26 UNL     1       8.184   0.972   2.979  1.00  0.00     0.003 C 
HETATM   28  C27 UNL     1       6.030   1.953   0.540  1.00  0.00     0.000 C 
HETATM   29  C28 UNL     1      -0.688   0.609  -2.327  1.00  0.00     0.000 C 
HETATM   30  C30 UNL     1       2.964  -2.734  -2.370  1.00  0.00     0.013 C 
HETATM   31  O4  UNL     1       3.070  -2.481  -5.209  1.00  0.00    -0.223 OA
ENDROOT
BRANCH   3  32
HETATM   32  C29 UNL     1       1.147  -3.898  -3.517  1.00  0.00     0.187 C 
HETATM   33  O2  UNL     1       1.171  -4.857  -2.781  1.00  0.00    -0.647 OA
HETATM   34  O3  UNL     1       0.604  -4.010  -4.742  1.00  0.00    -0.647 OA
ENDBRANCH   3  32
TORSDOF 1
