REMARK  5 active torsions:
REMARK  status: ('A' for Active; 'I' for Inactive)
REMARK    1  A    between atoms: C10_12  and  C12_14 
REMARK    2  A    between atoms: C17_22  and  C26_38 
REMARK    3  A    between atoms: C18_23  and  O5_26 
REMARK    4  A    between atoms: O5_26  and  C20_27 
REMARK    5  A    between atoms: C21_29  and  C25_36 
ROOT
HETATM    1  C1  UNL     1      -8.092  -1.175   2.631  1.00  0.00     0.000 A 
HETATM    2  C2  UNL     1      -8.093  -1.814   1.357  1.00  0.00     0.002 A 
HETATM    3  C3  UNL     1      -6.954  -1.869   0.581  1.00  0.00     0.019 A 
HETATM    4  C4  UNL     1      -5.782  -1.264   1.100  1.00  0.00     0.081 A 
HETATM    5  C5  UNL     1      -5.779  -0.637   2.352  1.00  0.00     0.015 A 
HETATM    6  C6  UNL     1      -6.954  -0.585   3.141  1.00  0.00     0.001 A 
HETATM    7  C7  UNL     1      -4.455  -0.152   2.560  1.00  0.00    -0.003 A 
HETATM    8  C8  UNL     1      -3.693  -0.469   1.469  1.00  0.00     0.075 A 
HETATM    9  N1  UNL     1      -4.508  -1.155   0.578  1.00  0.00    -0.248 NA
HETATM   10  C9  UNL     1      -2.238  -0.101   1.401  1.00  0.00     0.125 C 
HETATM   11  N2  UNL     1      -1.957   1.181   2.059  1.00  0.00    -0.305 N 
HETATM   12  C10 UNL     1      -2.883   1.647   3.110  1.00  0.00     0.176 C 
HETATM   13  C11 UNL     1      -3.857   0.602   3.695  1.00  0.00     0.061 C 
HETATM   14  C13 UNL     1      -0.909   1.980   1.661  1.00  0.00     0.256 C 
HETATM   15  O3  UNL     1      -0.726   3.077   2.175  1.00  0.00    -0.268 OA
HETATM   16  C14 UNL     1      -0.032   1.514   0.557  1.00  0.00     0.058 C 
HETATM   17  C15 UNL     1      -0.311   0.225  -0.157  1.00  0.00     0.040 C 
HETATM   18  C16 UNL     1      -1.804  -0.096  -0.071  1.00  0.00     0.034 C 
HETATM   19  C17 UNL     1       0.176   0.382  -1.603  1.00  0.00     0.083 C 
HETATM   20  C18 UNL     1       1.636   0.814  -1.612  1.00  0.00     0.246 C 
HETATM   21  O4  UNL     1       1.867   1.976  -0.850  1.00  0.00    -0.303 OA
HETATM   22  C19 UNL     1       1.022   2.272   0.181  1.00  0.00     0.119 C 
ENDROOT
BRANCH  20  23
HETATM   23  O5  UNL     1       2.443  -0.224  -1.098  1.00  0.00    -0.303 OA
BRANCH  23  24
HETATM   24  C20 UNL     1       3.837  -0.070  -1.262  1.00  0.00     0.272 C 
HETATM   25  O6  UNL     1       4.092   0.123  -2.635  1.00  0.00    -0.326 OA
HETATM   26  C21 UNL     1       5.458   0.255  -2.928  1.00  0.00     0.184 C 
HETATM   27  C22 UNL     1       6.173  -1.039  -2.559  1.00  0.00     0.215 C 
HETATM   28  C23 UNL     1       5.963  -1.338  -1.089  1.00  0.00     0.220 C 
HETATM   29  O9  UNL     1       7.558  -0.960  -2.784  1.00  0.00    -0.218 OA
HETATM   30  C24 UNL     1       4.478  -1.363  -0.806  1.00  0.00     0.241 C 
HETATM   31  O8  UNL     1       6.523  -2.590  -0.786  1.00  0.00    -0.218 OA
HETATM   32  O7  UNL     1       4.274  -1.533   0.574  1.00  0.00    -0.215 OA
BRANCH  26  33
HETATM   33  C25 UNL     1       5.581   0.617  -4.403  1.00  0.00     0.214 C 
HETATM   34  O10 UNL     1       6.845   1.192  -4.668  1.00  0.00    -0.218 OA
ENDBRANCH  26  33
ENDBRANCH  23  24
ENDBRANCH  20  23
BRANCH  19  35
HETATM   35  C26 UNL     1      -0.002  -0.895  -2.393  1.00  0.00    -0.021 C 
HETATM   36  C27 UNL     1      -0.438  -0.934  -3.660  1.00  0.00    -0.005 C 
ENDBRANCH  19  35
BRANCH  12  37
HETATM   37  C12 UNL     1      -2.136   2.246   4.304  1.00  0.00     0.207 C 
HETATM   38  O1  UNL     1      -2.560   3.488   4.601  1.00  0.00    -0.646 OA
HETATM   39  O2  UNL     1      -1.282   1.688   4.951  1.00  0.00    -0.646 OA
ENDBRANCH  12  37
TORSDOF 5
