REMARK  7 active torsions:
REMARK  status: ('A' for Active; 'I' for Inactive)
REMARK    1  A    between atoms: C2_2  and  O7_28 
REMARK    2  A    between atoms: C8_8  and  O5_23 
REMARK    3  A    between atoms: C10_10  and  O1_11 
REMARK    4  A    between atoms: O1_11  and  C11_12 
REMARK    5  A    between atoms: C11_12  and  C12_13 
REMARK    6  A    between atoms: O7_28  and  C22_29 
REMARK    7  A    between atoms: C22_29  and  C23_30 
ROOT
HETATM    1  C1  UNL     1       2.616   2.365  -1.999  1.00  0.00     0.033 C 
HETATM    2  C2  UNL     1       2.238   0.996  -1.435  1.00  0.00     0.125 C 
HETATM    3  C3  UNL     1       3.453   0.066  -1.235  1.00  0.00     0.033 C 
HETATM    4  C4  UNL     1       4.632   0.722  -0.436  1.00  0.00     0.058 C 
HETATM    5  C5  UNL     1       5.005   2.044  -1.183  1.00  0.00     0.134 C 
HETATM    6  C6  UNL     1       3.808   3.003  -1.274  1.00  0.00     0.033 C 
HETATM    7  C7  UNL     1       6.212   2.774  -0.573  1.00  0.00     0.092 C 
HETATM    8  C8  UNL     1       7.451   1.889  -0.544  1.00  0.00     0.216 A 
HETATM    9  C9  UNL     1       7.075   0.605   0.154  1.00  0.00     0.035 A 
HETATM   10  C10 UNL     1       5.896  -0.189  -0.371  1.00  0.00     0.149 C 
HETATM   11  C16 UNL     1       7.862   0.436   1.233  1.00  0.00     0.040 A 
HETATM   12  C17 UNL     1       8.720   1.641   1.247  1.00  0.00     0.293 A 
HETATM   13  O3  UNL     1       8.470   2.509   0.228  1.00  0.00    -0.274 OA
HETATM   14  O4  UNL     1       9.565   1.854   2.110  1.00  0.00    -0.259 OA
HETATM   15  C18 UNL     1       7.885  -0.637   2.277  1.00  0.00     0.036 C 
HETATM   16  O6  UNL     1       5.362   1.732  -2.511  1.00  0.00    -0.226 OA
HETATM   17  C20 UNL     1       4.225   1.002   1.035  1.00  0.00     0.005 C 
HETATM   18  C21 UNL     1       2.951  -1.315  -0.759  1.00  0.00     0.003 C 
ENDROOT
BRANCH   2  19
HETATM   19  O7  UNL     1       1.543   1.129  -0.230  1.00  0.00    -0.301 OA
BRANCH  19  20
HETATM   20  C22 UNL     1       0.176   1.149  -0.244  1.00  0.00     0.291 C 
HETATM   21  O8  UNL     1      -0.418   1.409  -1.284  1.00  0.00    -0.260 OA
BRANCH  20  22
HETATM   22  C23 UNL     1      -0.572   0.748   0.982  1.00  0.00     0.037 C 
HETATM   23  C24 UNL     1      -1.898   0.480   0.998  1.00  0.00    -0.025 C 
HETATM   24  C25 UNL     1      -2.892   0.476  -0.134  1.00  0.00     0.030 C 
HETATM   25  C26 UNL     1       0.247   0.639   2.250  1.00  0.00     0.036 C 
ENDBRANCH  20  22
ENDBRANCH  19  20
ENDBRANCH   2  19
BRANCH  10  26
HETATM   26  O1  UNL     1       5.640  -1.317   0.427  1.00  0.00    -0.297 OA
BRANCH  26  27
HETATM   27  C11 UNL     1       6.153  -2.530   0.072  1.00  0.00     0.292 C 
HETATM   28  O2  UNL     1       7.002  -2.600  -0.812  1.00  0.00    -0.260 OA
BRANCH  27  29
HETATM   29  C12 UNL     1       5.600  -3.817   0.589  1.00  0.00     0.037 C 
HETATM   30  C13 UNL     1       5.925  -5.068  -0.199  1.00  0.00     0.036 C 
HETATM   31  C14 UNL     1       4.817  -3.888   1.688  1.00  0.00    -0.025 C 
HETATM   32  C15 UNL     1       4.398  -2.793   2.633  1.00  0.00     0.030 C 
ENDBRANCH  27  29
ENDBRANCH  26  27
ENDBRANCH  10  26
BRANCH   8  33
HETATM   33  O5  UNL     1       7.941   1.714  -1.861  1.00  0.00    -0.328 OA
HETATM   34  C19 UNL     1       9.002   0.793  -1.984  1.00  0.00     0.177 C 
ENDBRANCH   8  33
TORSDOF 7
