REMARK  6 active torsions:
REMARK  status: ('A' for Active; 'I' for Inactive)
REMARK    1  A    between atoms: C6_6  and  C7_7 
REMARK    2  A    between atoms: C7_7  and  O2_9 
REMARK    3  A    between atoms: O2_9  and  C8_10 
REMARK    4  A    between atoms: C12_14  and  O3_19 
REMARK    5  A    between atoms: O3_19  and  C16_20 
REMARK    6  A    between atoms: C16_20  and  C17_22 
ROOT
HETATM    1  C8  UNL     1      -0.259   1.851   0.156  1.00  0.00     0.187 C 
HETATM    2  C9  UNL     1      -0.689   1.980  -1.309  1.00  0.00     0.213 C 
HETATM    3  C10 UNL     1       0.619   2.231  -2.068  1.00  0.00     0.254 C 
HETATM    4  C11 UNL     1       1.273   0.912  -2.534  1.00  0.00     0.066 C 
HETATM    5  C12 UNL     1       1.577  -0.075  -1.394  1.00  0.00     0.129 C 
HETATM    6  C13 UNL     1       2.004   0.682  -0.130  1.00  0.00     0.066 C 
HETATM    7  C14 UNL     1       1.270   2.023   0.079  1.00  0.00     0.252 C 
HETATM    8  N1  UNL     1       1.514   2.840  -1.099  1.00  0.00     0.141 N 
HETATM    9  C15 UNL     1       1.278   4.256  -0.884  1.00  0.00     0.285 C 
HETATM   10  O5  UNL     1      -1.591   3.040  -1.520  1.00  0.00    -0.219 OA
ENDROOT
BRANCH   1  11
HETATM   11  O2  UNL     1      -0.805   2.851   0.970  1.00  0.00    -0.307 OA
BRANCH  11  12
HETATM   12  C7  UNL     1      -1.432   2.548   2.141  1.00  0.00     0.228 C 
HETATM   13  O1  UNL     1      -1.916   3.534   2.881  1.00  0.00    -0.163 OA
BRANCH  12  14
HETATM   14  C6  UNL     1      -1.640   1.150   2.709  1.00  0.00     0.044 C 
HETATM   15  C1  UNL     1      -2.907   0.733   2.958  1.00  0.00    -0.022 C 
HETATM   16  C2  UNL     1      -3.132  -0.621   3.551  1.00  0.00     0.031 C 
HETATM   17  C3  UNL     1      -1.986  -1.591   3.437  1.00  0.00     0.031 C 
HETATM   18  C4  UNL     1      -0.618  -0.993   3.380  1.00  0.00    -0.026 C 
HETATM   19  C5  UNL     1      -0.472   0.305   3.018  1.00  0.00    -0.001 C 
ENDBRANCH  12  14
ENDBRANCH  11  12
ENDBRANCH   1  11
BRANCH   5  20
HETATM   20  O3  UNL     1       0.445  -0.851  -1.129  1.00  0.00    -0.301 OA
BRANCH  20  21
HETATM   21  C16 UNL     1       0.492  -2.216  -1.039  1.00  0.00     0.296 C 
HETATM   22  O4  UNL     1      -0.577  -2.813  -0.942  1.00  0.00    -0.259 OA
BRANCH  21  23
HETATM   23  C17 UNL     1       1.708  -3.097  -1.024  1.00  0.00     0.063 A 
HETATM   24  C18 UNL     1       1.661  -4.322  -1.705  1.00  0.00     0.005 A 
HETATM   25  C19 UNL     1       2.772  -5.169  -1.719  1.00  0.00     0.000 A 
HETATM   26  C20 UNL     1       3.938  -4.807  -1.042  1.00  0.00     0.000 A 
HETATM   27  C21 UNL     1       3.984  -3.599  -0.340  1.00  0.00     0.000 A 
HETATM   28  C22 UNL     1       2.874  -2.753  -0.327  1.00  0.00     0.005 A 
ENDBRANCH  21  23
ENDBRANCH  20  21
ENDBRANCH   5  20
TORSDOF 6
