REMARK  5 active torsions:
REMARK  status: ('A' for Active; 'I' for Inactive)
REMARK    1  A    between atoms: C15_15  and  C18_18 
REMARK    2  A    between atoms: C18_18  and  C19_19 
REMARK    3  A    between atoms: C19_19  and  C20_20 
REMARK    4  A    between atoms: C20_20  and  C21_21 
REMARK    5  A    between atoms: C22_22  and  C23_23 
ROOT
HETATM    1  C1  UNL     1      -0.035   0.264  -2.701  1.00  0.00     0.033 C 
HETATM    2  C2  UNL     1      -0.706  -0.737  -1.775  1.00  0.00     0.152 C 
HETATM    3  C3  UNL     1       0.304  -1.655  -1.054  1.00  0.00     0.028 C 
HETATM    4  C4  UNL     1       1.760  -1.052  -1.016  1.00  0.00     0.005 C 
HETATM    5  C5  UNL     1       1.903   0.507  -0.906  1.00  0.00     0.026 C 
HETATM    6  C6  UNL     1       1.065   1.133  -2.064  1.00  0.00     0.005 C 
HETATM    7  C7  UNL     1       3.425   0.993  -0.876  1.00  0.00     0.127 C 
HETATM    8  C8  UNL     1       4.405  -0.204  -0.896  1.00  0.00     0.028 C 
HETATM    9  C9  UNL     1       4.119  -1.068  -2.130  1.00  0.00     0.002 C 
HETATM   10  C10 UNL     1       2.677  -1.596  -2.138  1.00  0.00     0.000 C 
HETATM   11  C11 UNL     1       5.905   0.144  -0.707  1.00  0.00     0.002 C 
HETATM   12  C12 UNL     1       6.117   0.929   0.631  1.00  0.00     0.000 C 
HETATM   13  C13 UNL     1       5.334   2.244   0.446  1.00  0.00     0.003 C 
HETATM   14  C14 UNL     1       3.824   1.973   0.256  1.00  0.00     0.030 C 
HETATM   15  C15 UNL     1       7.670   0.982   0.746  1.00  0.00     0.000 C 
HETATM   16  C16 UNL     1       8.045  -0.444   0.254  1.00  0.00     0.000 C 
HETATM   17  C17 UNL     1       6.823  -1.067  -0.451  1.00  0.00     0.000 C 
HETATM   18  C26 UNL     1       5.601   0.211   1.911  1.00  0.00     0.000 C 
HETATM   19  C27 UNL     1       6.502   0.811  -1.982  1.00  0.00     0.000 C 
HETATM   20  O2  UNL     1       3.678   1.748  -2.035  1.00  0.00    -0.226 OA
HETATM   21  C28 UNL     1       1.232   0.969   0.415  1.00  0.00     0.002 C 
HETATM   22  C29 UNL     1       0.262  -3.025  -1.794  1.00  0.00     0.003 C 
HETATM   23  C30 UNL     1      -0.187  -2.029   0.373  1.00  0.00     0.003 C 
HETATM   24  O3  UNL     1      -1.575  -0.062  -0.896  1.00  0.00    -0.224 OA
ENDROOT
BRANCH  15  25
HETATM   25  C18 UNL     1       8.366   1.377   2.077  1.00  0.00     0.000 C 
HETATM   26  C25 UNL     1       7.891   2.757   2.584  1.00  0.00     0.000 C 
BRANCH  25  27
HETATM   27  C19 UNL     1       9.917   1.435   1.993  1.00  0.00     0.005 C 
BRANCH  27  28
HETATM   28  C20 UNL     1      10.653   0.085   1.950  1.00  0.00     0.026 C 
BRANCH  28  29
HETATM   29  C21 UNL     1      12.146   0.185   2.149  1.00  0.00    -0.027 C 
HETATM   30  C22 UNL     1      13.025  -0.806   1.873  1.00  0.00     0.016 C 
HETATM   31  C24 UNL     1      12.624  -2.160   1.337  1.00  0.00     0.034 C 
BRANCH  30  32
HETATM   32  C23 UNL     1      14.468  -0.568   2.107  1.00  0.00     0.230 C 
HETATM   33  O1  UNL     1      14.941   0.467   2.555  1.00  0.00    -0.283 OA
ENDBRANCH  30  32
ENDBRANCH  28  29
ENDBRANCH  27  28
ENDBRANCH  25  27
ENDBRANCH  15  25
TORSDOF 5
