REMARK  2 active torsions:
REMARK  status: ('A' for Active; 'I' for Inactive)
REMARK    1  A    between atoms: C2_2  and  O2_21 
REMARK    2  A    between atoms: O2_21  and  C20_22 
ROOT
HETATM    1  C1  UNL     1      -0.041  -1.664   1.938  1.00  0.00     0.031 C 
HETATM    2  C2  UNL     1      -1.042  -1.284   0.836  1.00  0.00     0.128 C 
HETATM    3  C3  UNL     1      -0.720   0.094   0.265  1.00  0.00     0.052 C 
HETATM    4  C4  UNL     1       0.704   0.236  -0.225  1.00  0.00    -0.047 C 
HETATM    5  C5  UNL     1       1.804  -0.508   0.517  1.00  0.00     0.015 C 
HETATM    6  C6  UNL     1       1.270  -0.850   1.925  1.00  0.00     0.006 C 
HETATM    7  C7  UNL     1       3.039   0.443   0.580  1.00  0.00     0.004 C 
HETATM    8  C8  UNL     1       3.499   0.811  -0.851  1.00  0.00     0.005 C 
HETATM    9  C9  UNL     1       2.373   1.513  -1.627  1.00  0.00     0.025 C 
HETATM   10  C10 UNL     1       0.986   1.105  -1.210  1.00  0.00    -0.035 C 
HETATM   11  C11 UNL     1       4.764   1.676  -0.796  1.00  0.00     0.003 C 
HETATM   12  C12 UNL     1       5.926   0.995  -0.049  1.00  0.00     0.028 C 
HETATM   13  C13 UNL     1       5.471   0.807   1.408  1.00  0.00     0.003 C 
HETATM   14  C14 UNL     1       4.194  -0.051   1.483  1.00  0.00     0.000 C 
HETATM   15  C15 UNL     1       7.011   2.058  -0.263  1.00  0.00     0.152 C 
HETATM   16  C16 UNL     1       6.834   2.524  -1.715  1.00  0.00     0.033 C 
HETATM   17  C17 UNL     1       5.393   2.140  -2.115  1.00  0.00     0.003 C 
HETATM   18  O1  UNL     1       8.306   1.563  -0.033  1.00  0.00    -0.224 OA
HETATM   19  C18 UNL     1       6.379  -0.353  -0.654  1.00  0.00     0.003 C 
HETATM   20  C19 UNL     1       2.142  -1.816  -0.237  1.00  0.00     0.004 C 
ENDROOT
BRANCH   2  21
HETATM   21  O2  UNL     1      -1.016  -2.218  -0.209  1.00  0.00    -0.304 OA
BRANCH  21  22
HETATM   22  C20 UNL     1      -2.049  -3.038  -0.552  1.00  0.00     0.272 C 
HETATM   23  O3  UNL     1      -1.971  -3.804  -1.489  1.00  0.00    -0.264 OA
HETATM   24  C21 UNL     1      -3.304  -2.978   0.300  1.00  0.00     0.106 C 
ENDBRANCH  21  22
ENDBRANCH   2  21
TORSDOF 2
