REMARK  2 active torsions:
REMARK  status: ('A' for Active; 'I' for Inactive)
REMARK    1  A    between atoms: C1_2  and  O2_3 
REMARK    2  A    between atoms: O2_3  and  C2_4 
ROOT
HETATM    1  C2  UNL     1       1.266  -2.622   1.315  1.00  0.00     0.124 C 
HETATM    2  C3  UNL     1       1.678  -2.365  -0.354  1.00  0.00     0.030 C 
HETATM    3  C4  UNL     1       0.762  -1.434  -1.435  1.00  0.00     0.003 C 
HETATM    4  C5  UNL     1      -0.903  -0.873  -0.874  1.00  0.00     0.000 C 
HETATM    5  C6  UNL     1      -1.505  -1.607   0.764  1.00  0.00     0.003 A 
HETATM    6  C7  UNL     1      -0.369  -2.548   1.908  1.00  0.00     0.026 C 
HETATM    7  C8  UNL     1      -0.429  -2.217   3.455  1.00  0.00     0.002 C 
HETATM    8  C9  UNL     1      -0.896  -4.048   2.155  1.00  0.00     0.002 C 
HETATM    9  C10 UNL     1      -1.953  -2.753  -0.032  1.00  0.00     0.000 A 
HETATM   10  C11 UNL     1      -0.431  -2.474  -0.124  1.00  0.00     0.004 A 
HETATM   11  C12 UNL     1       0.231  -0.647   0.498  1.00  0.00     0.015 C 
HETATM   12  C13 UNL     1      -0.385   0.415  -0.450  1.00  0.00     0.003 C 
HETATM   13  C14 UNL     1      -1.159   1.631  -0.019  1.00  0.00     0.001 C 
HETATM   14  C15 UNL     1       0.021   2.578   0.295  1.00  0.00     0.004 C 
HETATM   15  C16 UNL     1       1.466   1.922   0.376  1.00  0.00     0.016 C 
HETATM   16  C17 UNL     1       1.605   0.323   0.394  1.00  0.00    -0.043 C 
HETATM   17  C18 UNL     1       2.893  -0.022   0.617  1.00  0.00     0.029 C 
HETATM   18  C19 UNL     1       4.056   0.896   0.520  1.00  0.00     0.172 C 
HETATM   19  C20 UNL     1       3.954   2.159  -0.332  1.00  0.00     0.056 C 
HETATM   20  C21 UNL     1       2.476   2.525  -0.693  1.00  0.00     0.010 C 
HETATM   21  C22 UNL     1       2.168   2.335  -2.218  1.00  0.00     0.001 C 
HETATM   22  C23 UNL     1       3.260   2.830  -3.217  1.00  0.00     0.000 C 
HETATM   23  C24 UNL     1       4.676   2.887  -2.634  1.00  0.00     0.000 C 
HETATM   24  C25 UNL     1       4.812   1.807  -1.568  1.00  0.00     0.007 C 
HETATM   25  C26 UNL     1       3.286   1.962  -4.495  1.00  0.00     0.000 C 
HETATM   26  C27 UNL     1       0.864   2.996  -2.728  1.00  0.00     0.000 C 
HETATM   27  C28 UNL     1       4.682   3.307   0.422  1.00  0.00     0.008 C 
HETATM   28  O3  UNL     1       5.121   0.570   1.034  1.00  0.00    -0.291 OA
HETATM   29  C29 UNL     1       1.934   2.476   1.777  1.00  0.00     0.004 C 
HETATM   30  C30 UNL     1      -0.049  -0.053   1.949  1.00  0.00     0.004 C 
HETATM   31  C31 UNL     1      -1.880  -0.667  -2.049  1.00  0.00     0.000 C 
ENDROOT
BRANCH   1  32
HETATM   32  O2  UNL     1       1.800  -3.883   1.628  1.00  0.00    -0.304 OA
BRANCH  32  33
HETATM   33  C1  UNL     1       2.811  -4.137   2.508  1.00  0.00     0.272 C 
HETATM   34  O1  UNL     1       3.200  -5.268   2.716  1.00  0.00    -0.264 OA
HETATM   35  C32 UNL     1       3.444  -2.962   3.230  1.00  0.00     0.106 C 
ENDBRANCH  32  33
ENDBRANCH   1  32
TORSDOF 2
