REMARK  5 active torsions:
REMARK  status: ('A' for Active; 'I' for Inactive)
REMARK    1  A    between atoms: C2_2  and  O4_20 
REMARK    2  A    between atoms: C9_9  and  C11_11 
REMARK    3  A    between atoms: C12_12  and  C13_13 
REMARK    4  A    between atoms: C13_13  and  O1_14 
REMARK    5  A    between atoms: O4_20  and  C17_21 
ROOT
HETATM    1  C1  UNL     1       2.106  -2.389   2.485  1.00  0.00     0.033 C 
HETATM    2  C2  UNL     1       0.687  -2.209   1.954  1.00  0.00     0.152 C 
HETATM    3  C3  UNL     1       0.530  -0.830   1.296  1.00  0.00     0.152 C 
HETATM    4  C4  UNL     1       1.845  -0.348   0.636  1.00  0.00     0.031 C 
HETATM    5  C5  UNL     1       2.795  -1.472   0.150  1.00  0.00     0.003 C 
HETATM    6  C6  UNL     1       3.122  -2.429   1.330  1.00  0.00     0.003 C 
HETATM    7  C7  UNL     1       4.118  -0.820  -0.335  1.00  0.00     0.000 C 
HETATM    8  C8  UNL     1       3.915   0.252  -1.415  1.00  0.00     0.004 C 
HETATM    9  C9  UNL     1       2.966   1.354  -0.922  1.00  0.00     0.022 C 
HETATM   10  C10 UNL     1       1.641   0.758  -0.417  1.00  0.00     0.007 C 
HETATM   11  C15 UNL     1       2.207  -2.287  -1.027  1.00  0.00     0.000 C 
HETATM   12  C16 UNL     1      -0.688  -0.848   0.364  1.00  0.00     0.035 C 
HETATM   13  O3  UNL     1       0.235   0.104   2.309  1.00  0.00    -0.224 OA
ENDROOT
BRANCH   9  14
HETATM   14  C11 UNL     1       2.697   2.344  -2.035  1.00  0.00    -0.021 C 
HETATM   15  C12 UNL     1       3.062   3.642  -2.010  1.00  0.00     0.064 C 
BRANCH  15  16
HETATM   16  C13 UNL     1       2.772   4.577  -3.126  1.00  0.00     0.296 C 
HETATM   17  O2  UNL     1       2.148   4.165  -4.102  1.00  0.00    -0.259 OA
BRANCH  16  18
HETATM   18  O1  UNL     1       3.171   5.880  -3.057  1.00  0.00    -0.296 OA
HETATM   19  C14 UNL     1       2.810   6.716  -4.133  1.00  0.00     0.185 C 
ENDBRANCH  16  18
ENDBRANCH  15  16
ENDBRANCH   9  14
BRANCH   2  20
HETATM   20  O4  UNL     1      -0.240  -2.378   2.994  1.00  0.00    -0.302 OA
BRANCH  20  21
HETATM   21  C17 UNL     1      -1.188  -3.348   2.889  1.00  0.00     0.272 C 
HETATM   22  C18 UNL     1      -2.119  -3.322   4.087  1.00  0.00     0.106 C 
HETATM   23  O5  UNL     1      -1.308  -4.124   1.969  1.00  0.00    -0.264 OA
ENDBRANCH  20  21
ENDBRANCH   2  20
TORSDOF 5
