REMARK  3 active torsions:
REMARK  status: ('A' for Active; 'I' for Inactive)
REMARK    1  A    between atoms: C2_2  and  O4_34 
REMARK    2  A    between atoms: C14_14  and  O1_15 
REMARK    3  A    between atoms: O4_34  and  C31_35 
ROOT
HETATM    1  C1  UNL     1      -0.305   0.027  -2.546  1.00  0.00     0.030 C 
HETATM    2  C2  UNL     1      -1.152  -0.989  -1.786  1.00  0.00     0.124 C 
HETATM    3  C3  UNL     1      -0.258  -2.095  -1.168  1.00  0.00     0.026 C 
HETATM    4  C4  UNL     1       1.216  -1.600  -0.900  1.00  0.00     0.002 C 
HETATM    5  C5  UNL     1       1.418  -0.090  -0.558  1.00  0.00     0.003 C 
HETATM    6  C6  UNL     1       0.706   0.766  -1.654  1.00  0.00     0.003 C 
HETATM    7  C7  UNL     1       2.946   0.321  -0.427  1.00  0.00     0.033 C 
HETATM    8  C8  UNL     1       4.019  -0.795  -0.556  1.00  0.00     0.005 C 
HETATM    9  C9  UNL     1       3.667  -1.540  -1.866  1.00  0.00     0.000 C 
HETATM   10  C10 UNL     1       2.232  -2.082  -1.959  1.00  0.00     0.000 C 
HETATM   11  C11 UNL     1       5.462  -0.134  -0.639  1.00  0.00     0.025 C 
HETATM   12  C12 UNL     1       5.826   0.625   0.652  1.00  0.00     0.120 A 
HETATM   13  C13 UNL     1       4.775   1.497   1.116  1.00  0.00     0.170 A 
HETATM   14  C14 UNL     1       3.318   1.386   0.633  1.00  0.00     0.184 C 
HETATM   15  O3  UNL     1       4.975   0.399   1.972  1.00  0.00    -0.354 OA
HETATM   16  C15 UNL     1       7.306   0.949   0.951  1.00  0.00     0.027 C 
HETATM   17  C16 UNL     1       8.281  -0.216   0.636  1.00  0.00     0.002 C 
HETATM   18  C17 UNL     1       7.981  -0.758  -0.783  1.00  0.00     0.000 C 
HETATM   19  C18 UNL     1       6.528  -1.217  -0.962  1.00  0.00     0.002 C 
HETATM   20  C19 UNL     1       9.739   0.310   0.618  1.00  0.00     0.000 C 
HETATM   21  C20 UNL     1      10.145   1.104   1.865  1.00  0.00     0.000 C 
HETATM   22  C21 UNL     1       9.158   2.239   2.191  1.00  0.00     0.000 C 
HETATM   23  C22 UNL     1       7.700   1.716   2.248  1.00  0.00     0.002 C 
HETATM   24  C23 UNL     1       7.486   1.003   3.603  1.00  0.00     0.000 C 
HETATM   25  C24 UNL     1       9.335   3.442   1.245  1.00  0.00     0.000 C 
HETATM   26  C25 UNL     1       8.152  -1.391   1.628  1.00  0.00     0.000 C 
HETATM   27  C26 UNL     1       5.586   0.922  -1.785  1.00  0.00     0.002 C 
HETATM   28  C27 UNL     1       3.937  -1.822   0.605  1.00  0.00     0.000 C 
HETATM   29  C28 UNL     1       0.714   0.207   0.794  1.00  0.00     0.000 C 
HETATM   30  C29 UNL     1      -0.305  -3.309  -2.144  1.00  0.00     0.002 C 
HETATM   31  C30 UNL     1      -0.890  -2.690   0.122  1.00  0.00     0.002 C 
ENDROOT
BRANCH   2  32
HETATM   32  O4  UNL     1      -1.925  -0.334  -0.824  1.00  0.00    -0.304 OA
BRANCH  32  33
HETATM   33  C31 UNL     1      -3.053   0.317  -1.214  1.00  0.00     0.272 C 
HETATM   34  C32 UNL     1      -3.679   1.017  -0.025  1.00  0.00     0.106 C 
HETATM   35  O5  UNL     1      -3.489   0.354  -2.343  1.00  0.00    -0.264 OA
ENDBRANCH  32  33
ENDBRANCH   2  32
BRANCH  14  36
HETATM   36  O1  UNL     1       2.862   2.638   0.138  1.00  0.00    -0.189 OA
HETATM   37  O2  UNL     1       2.693   3.511   1.311  1.00  0.00    -0.035 OA
ENDBRANCH  14  36
TORSDOF 3
