REMARK  5 active torsions:
REMARK  status: ('A' for Active; 'I' for Inactive)
REMARK    1  A    between atoms: C2_2  and  O6_25 
REMARK    2  A    between atoms: C8_9  and  O4_17 
REMARK    3  A    between atoms: O4_17  and  C14_18 
REMARK    4  A    between atoms: C14_18  and  C15_20 
REMARK    5  A    between atoms: O6_25  and  C20_26 
ROOT
HETATM    1  C1  UNL     1      -2.353  -0.311   0.328  1.00  0.00     0.067 C 
HETATM    2  C2  UNL     1      -1.814  -0.805   1.674  1.00  0.00     0.145 C 
HETATM    3  C3  UNL     1      -0.391  -1.317   1.541  1.00  0.00    -0.015 C 
HETATM    4  C4  UNL     1       0.184  -1.266   0.141  1.00  0.00     0.051 C 
HETATM    5  C5  UNL     1       0.100   0.205  -0.370  1.00  0.00     0.036 C 
HETATM    6  C6  UNL     1      -1.394   0.641  -0.395  1.00  0.00     0.155 C 
HETATM    7  O1  UNL     1      -1.567   1.936   0.133  1.00  0.00    -0.223 OA
HETATM    8  C7  UNL     1       0.689   0.327  -1.808  1.00  0.00     0.034 C 
HETATM    9  C8  UNL     1       2.041  -0.358  -2.085  1.00  0.00     0.131 C 
HETATM   10  C9  UNL     1       1.936  -1.780  -1.558  1.00  0.00     0.084 C 
HETATM   11  C10 UNL     1       1.591  -1.828  -0.065  1.00  0.00     0.135 C 
HETATM   12  O2  UNL     1       1.780  -3.162   0.346  1.00  0.00    -0.300 OA
HETATM   13  C11 UNL     1       2.732  -3.671  -0.491  1.00  0.00     0.292 C 
HETATM   14  C12 UNL     1       3.070  -2.755  -1.602  1.00  0.00     0.045 C 
HETATM   15  C13 UNL     1       4.120  -2.846  -2.431  1.00  0.00     0.001 C 
HETATM   16  O3  UNL     1       3.217  -4.789  -0.357  1.00  0.00    -0.260 OA
HETATM   17  C18 UNL     1       0.899   1.139   0.575  1.00  0.00     0.003 C 
HETATM   18  C19 UNL     1       0.282  -1.739   2.623  1.00  0.00    -0.007 C 
ENDROOT
BRANCH   9  19
HETATM   19  O4  UNL     1       3.088   0.340  -1.475  1.00  0.00    -0.304 OA
BRANCH  19  20
HETATM   20  C14 UNL     1       4.066   0.879  -2.254  1.00  0.00     0.271 C 
HETATM   21  O5  UNL     1       4.147   0.741  -3.454  1.00  0.00    -0.264 OA
BRANCH  20  22
HETATM   22  C15 UNL     1       5.054   1.711  -1.442  1.00  0.00     0.086 C 
HETATM   23  C16 UNL     1       5.552   2.909  -2.271  1.00  0.00     0.010 C 
HETATM   24  C17 UNL     1       4.517   2.205  -0.088  1.00  0.00     0.010 C 
ENDBRANCH  20  22
ENDBRANCH  19  20
ENDBRANCH   9  19
BRANCH   2  25
HETATM   25  O6  UNL     1      -1.889   0.257   2.599  1.00  0.00    -0.300 OA
BRANCH  25  26
HETATM   26  C20 UNL     1      -2.409   0.023   3.834  1.00  0.00     0.273 C 
HETATM   27  C21 UNL     1      -2.354   1.286   4.669  1.00  0.00     0.106 C 
HETATM   28  O7  UNL     1      -2.850  -1.034   4.224  1.00  0.00    -0.264 OA
ENDBRANCH  25  26
ENDBRANCH   2  25
TORSDOF 5
