REMARK  6 active torsions:
REMARK  status: ('A' for Active; 'I' for Inactive)
REMARK    1  A    between atoms: C2_2  and  O2_32 
REMARK    2  A    between atoms: C15_15  and  C18_18 
REMARK    3  A    between atoms: C18_18  and  C19_19 
REMARK    4  A    between atoms: C19_19  and  C20_20 
REMARK    5  A    between atoms: C21_21  and  C22_22 
REMARK    6  A    between atoms: O2_32  and  C31_33 
ROOT
HETATM    1  C1  UNL     1       0.340   0.396  -2.592  1.00  0.00     0.030 C 
HETATM    2  C2  UNL     1       0.438  -0.920  -3.364  1.00  0.00     0.124 C 
HETATM    3  C3  UNL     1       1.575  -1.822  -2.824  1.00  0.00     0.026 C 
HETATM    4  C4  UNL     1       1.435  -2.002  -1.279  1.00  0.00     0.006 C 
HETATM    5  C5  UNL     1       1.263  -0.701  -0.447  1.00  0.00     0.015 C 
HETATM    6  C6  UNL     1       0.141   0.143  -1.095  1.00  0.00     0.006 C 
HETATM    7  C7  UNL     1       2.604   0.010  -0.278  1.00  0.00    -0.053 C 
HETATM    8  C8  UNL     1       3.744  -0.697  -0.134  1.00  0.00    -0.053 C 
HETATM    9  C9  UNL     1       3.812  -2.199  -0.287  1.00  0.00     0.021 C 
HETATM   10  C10 UNL     1       2.488  -2.903  -0.610  1.00  0.00     0.005 C 
HETATM   11  C11 UNL     1       5.068   0.020   0.075  1.00  0.00     0.015 C 
HETATM   12  C12 UNL     1       4.872   1.277   0.976  1.00  0.00     0.004 C 
HETATM   13  C13 UNL     1       3.928   2.207   0.199  1.00  0.00     0.005 C 
HETATM   14  C14 UNL     1       2.580   1.516  -0.072  1.00  0.00     0.021 C 
HETATM   15  C15 UNL     1       6.332   1.756   1.199  1.00  0.00     0.001 C 
HETATM   16  C16 UNL     1       7.094   0.413   1.342  1.00  0.00     0.000 C 
HETATM   17  C17 UNL     1       6.168  -0.719   0.855  1.00  0.00     0.004 C 
HETATM   18  C26 UNL     1       4.233   0.948   2.349  1.00  0.00     0.000 C 
HETATM   19  C27 UNL     1       5.630   0.280  -1.348  1.00  0.00     0.004 C 
HETATM   20  C28 UNL     1       0.782  -1.014   0.997  1.00  0.00     0.004 C 
HETATM   21  C29 UNL     1       2.920  -1.204  -3.265  1.00  0.00     0.002 C 
HETATM   22  C30 UNL     1       1.493  -3.194  -3.545  1.00  0.00     0.002 C 
ENDROOT
BRANCH  15  23
HETATM   23  C18 UNL     1       6.670   2.783   2.310  1.00  0.00     0.004 C 
HETATM   24  C25 UNL     1       5.866   4.090   2.167  1.00  0.00     0.000 C 
BRANCH  23  25
HETATM   25  C19 UNL     1       8.173   3.161   2.320  1.00  0.00     0.026 C 
BRANCH  25  26
HETATM   26  C20 UNL     1       9.069   2.092   2.893  1.00  0.00    -0.028 C 
HETATM   27  C21 UNL     1      10.095   1.538   2.228  1.00  0.00    -0.001 C 
BRANCH  27  28
HETATM   28  C22 UNL     1      11.003   0.437   2.737  1.00  0.00     0.145 C 
HETATM   29  C23 UNL     1      12.439   0.962   2.799  1.00  0.00     0.038 C 
HETATM   30  C24 UNL     1      10.594  -0.147   4.090  1.00  0.00     0.038 C 
HETATM   31  O1  UNL     1      10.973  -0.625   1.804  1.00  0.00    -0.222 OA
ENDBRANCH  27  28
ENDBRANCH  25  26
ENDBRANCH  23  25
ENDBRANCH  15  23
BRANCH   2  32
HETATM   32  O2  UNL     1      -0.802  -1.572  -3.287  1.00  0.00    -0.304 OA
BRANCH  32  33
HETATM   33  C31 UNL     1      -1.446  -1.917  -4.436  1.00  0.00     0.272 C 
HETATM   34  C32 UNL     1      -2.751  -2.626  -4.131  1.00  0.00     0.106 C 
HETATM   35  O3  UNL     1      -1.050  -1.705  -5.560  1.00  0.00    -0.264 OA
ENDBRANCH  32  33
ENDBRANCH   2  32
TORSDOF 6
