REMARK  6 active torsions:
REMARK  status: ('A' for Active; 'I' for Inactive)
REMARK    1  A    between atoms: C2_2  and  O2_32 
REMARK    2  A    between atoms: C15_15  and  C18_18 
REMARK    3  A    between atoms: C18_18  and  C20_20 
REMARK    4  A    between atoms: C20_20  and  C21_21 
REMARK    5  A    between atoms: C22_22  and  C23_23 
REMARK    6  A    between atoms: O2_32  and  C31_33 
ROOT
HETATM    1  C1  UNL     1       0.236  -0.854  -3.937  1.00  0.00     0.030 C 
HETATM    2  C2  UNL     1      -0.604  -1.919  -3.233  1.00  0.00     0.124 C 
HETATM    3  C3  UNL     1       0.306  -2.875  -2.421  1.00  0.00     0.026 C 
HETATM    4  C4  UNL     1       1.592  -2.146  -1.907  1.00  0.00     0.002 C 
HETATM    5  C5  UNL     1       1.485  -0.614  -1.635  1.00  0.00     0.000 C 
HETATM    6  C6  UNL     1       1.026   0.050  -2.973  1.00  0.00     0.003 C 
HETATM    7  C7  UNL     1       2.905  -0.055  -1.251  1.00  0.00     0.000 C 
HETATM    8  C8  UNL     1       3.700  -0.811  -0.132  1.00  0.00     0.000 C 
HETATM    9  C9  UNL     1       3.726  -2.310  -0.514  1.00  0.00     0.000 C 
HETATM   10  C10 UNL     1       2.333  -2.901  -0.786  1.00  0.00     0.000 C 
HETATM   11  C11 UNL     1       5.158  -0.215  -0.038  1.00  0.00     0.000 C 
HETATM   12  C12 UNL     1       5.075   1.313   0.189  1.00  0.00     0.004 C 
HETATM   13  C13 UNL     1       4.400   2.029  -0.979  1.00  0.00     0.000 C 
HETATM   14  C14 UNL     1       2.966   1.486  -1.103  1.00  0.00     0.000 C 
HETATM   15  C15 UNL     1       6.477   1.780   0.611  1.00  0.00     0.019 C 
HETATM   16  C16 UNL     1       7.081   0.547   1.318  1.00  0.00     0.004 C 
HETATM   17  C17 UNL     1       6.026  -0.576   1.194  1.00  0.00     0.000 C 
HETATM   18  C26 UNL     1       6.031  -0.572  -1.275  1.00  0.00     0.000 C 
HETATM   19  C27 UNL     1       2.993  -0.727   1.243  1.00  0.00     0.000 C 
HETATM   20  C28 UNL     1       0.452  -0.264  -0.534  1.00  0.00     0.000 C 
HETATM   21  C29 UNL     1       0.743  -4.017  -3.385  1.00  0.00     0.002 C 
HETATM   22  C30 UNL     1      -0.499  -3.588  -1.308  1.00  0.00     0.002 C 
ENDROOT
BRANCH  15  23
HETATM   23  C18 UNL     1       6.464   3.100   1.364  1.00  0.00    -0.040 C 
HETATM   24  C19 UNL     1       6.601   4.250   0.680  1.00  0.00    -0.009 C 
BRANCH  23  25
HETATM   25  C20 UNL     1       6.285   3.147   2.869  1.00  0.00     0.048 C 
BRANCH  25  26
HETATM   26  C21 UNL     1       5.122   2.356   3.410  1.00  0.00    -0.024 C 
HETATM   27  C22 UNL     1       3.906   2.872   3.647  1.00  0.00    -0.001 C 
BRANCH  27  28
HETATM   28  C23 UNL     1       2.735   2.106   4.232  1.00  0.00     0.145 C 
HETATM   29  C24 UNL     1       2.532   2.529   5.688  1.00  0.00     0.038 C 
HETATM   30  C25 UNL     1       1.471   2.361   3.409  1.00  0.00     0.038 C 
HETATM   31  O1  UNL     1       2.974   0.714   4.231  1.00  0.00    -0.222 OA
ENDBRANCH  27  28
ENDBRANCH  25  26
ENDBRANCH  23  25
ENDBRANCH  15  23
BRANCH   2  32
HETATM   32  O2  UNL     1      -1.543  -1.271  -2.428  1.00  0.00    -0.304 OA
BRANCH  32  33
HETATM   33  C31 UNL     1      -2.854  -1.625  -2.470  1.00  0.00     0.272 C 
HETATM   34  C32 UNL     1      -3.634  -0.788  -1.474  1.00  0.00     0.106 C 
HETATM   35  O3  UNL     1      -3.334  -2.483  -3.175  1.00  0.00    -0.264 OA
ENDBRANCH  32  33
ENDBRANCH   2  32
TORSDOF 6
