REMARK  2 active torsions:
REMARK  status: ('A' for Active; 'I' for Inactive)
REMARK    1  A    between atoms: C2_2  and  O2_32 
REMARK    2  A    between atoms: O2_32  and  C31_33 
ROOT
HETATM    1  C1  UNL     1       0.026   0.447  -2.123  1.00  0.00     0.030 C 
HETATM    2  C2  UNL     1      -0.845  -0.680  -1.581  1.00  0.00     0.124 C 
HETATM    3  C3  UNL     1       0.023  -1.924  -1.271  1.00  0.00     0.026 C 
HETATM    4  C4  UNL     1       1.506  -1.567  -0.890  1.00  0.00     0.003 C 
HETATM    5  C5  UNL     1       1.775  -0.151  -0.280  1.00  0.00     0.004 C 
HETATM    6  C6  UNL     1       0.984   0.959  -1.042  1.00  0.00     0.003 C 
HETATM    7  C7  UNL     1       3.300   0.221  -0.375  1.00  0.00     0.022 C 
HETATM    8  C8  UNL     1       4.354  -0.916  -0.274  1.00  0.00     0.006 C 
HETATM    9  C9  UNL     1       4.024  -1.895  -1.425  1.00  0.00     0.000 C 
HETATM   10  C10 UNL     1       2.578  -1.859  -1.962  1.00  0.00     0.000 C 
HETATM   11  C11 UNL     1       5.832  -0.419  -0.386  1.00  0.00     0.032 A 
HETATM   12  C12 UNL     1       6.128   0.918   0.272  1.00  0.00     0.021 A 
HETATM   13  C13 UNL     1       4.971   1.698   0.782  1.00  0.00    -0.031 C 
HETATM   14  C14 UNL     1       3.701   1.402   0.473  1.00  0.00    -0.031 C 
HETATM   15  C15 UNL     1       7.461   1.151   1.008  1.00  0.00     0.004 C 
HETATM   16  C16 UNL     1       8.305  -0.130   1.257  1.00  0.00     0.003 C 
HETATM   17  C17 UNL     1       8.328  -0.990  -0.022  1.00  0.00     0.033 C 
HETATM   18  C18 UNL     1       6.942  -1.479  -0.436  1.00  0.00     0.152 C 
HETATM   19  O1  UNL     1       7.068  -2.034  -1.736  1.00  0.00    -0.224 OA
HETATM   20  C19 UNL     1       9.771   0.216   1.617  1.00  0.00     0.000 C 
HETATM   21  C20 UNL     1       9.866   1.532   2.392  1.00  0.00     0.000 C 
HETATM   22  C21 UNL     1       9.438   2.711   1.498  1.00  0.00     0.000 C 
HETATM   23  C22 UNL     1       8.339   2.314   0.475  1.00  0.00     0.000 C 
HETATM   24  C23 UNL     1       7.529   3.566   0.088  1.00  0.00     0.000 C 
HETATM   25  C24 UNL     1      10.665   3.330   0.800  1.00  0.00     0.000 C 
HETATM   26  C25 UNL     1       7.705  -0.937   2.431  1.00  0.00     0.000 C 
HETATM   27  C26 UNL     1       6.160   0.786  -1.237  1.00  0.00     0.007 A 
HETATM   28  C27 UNL     1       4.210  -1.627   1.096  1.00  0.00     0.000 C 
HETATM   29  C28 UNL     1       1.282  -0.133   1.194  1.00  0.00     0.000 C 
HETATM   30  C29 UNL     1      -0.059  -2.849  -2.517  1.00  0.00     0.002 C 
HETATM   31  C30 UNL     1      -0.627  -2.774  -0.144  1.00  0.00     0.002 C 
ENDROOT
BRANCH   2  32
HETATM   32  O2  UNL     1      -1.542  -0.247  -0.447  1.00  0.00    -0.304 OA
BRANCH  32  33
HETATM   33  C31 UNL     1      -2.615   0.570  -0.610  1.00  0.00     0.272 C 
HETATM   34  C32 UNL     1      -3.142   1.004   0.743  1.00  0.00     0.106 C 
HETATM   35  O3  UNL     1      -3.077   0.922  -1.673  1.00  0.00    -0.264 OA
ENDBRANCH  32  33
ENDBRANCH   2  32
TORSDOF 2
