REMARK  7 active torsions:
REMARK  status: ('A' for Active; 'I' for Inactive)
REMARK    1  A    between atoms: C2_2  and  O4_21 
REMARK    2  A    between atoms: C9_9  and  C11_11 
REMARK    3  A    between atoms: C11_11  and  C12_12 
REMARK    4  A    between atoms: C12_12  and  O2_14 
REMARK    5  A    between atoms: O2_14  and  C13_15 
REMARK    6  A    between atoms: O4_21  and  C18_22 
REMARK    7  A    between atoms: C18_22  and  C19_23 
ROOT
HETATM    1  C1  UNL     1      -2.029   1.375  -2.097  1.00  0.00     0.035 C 
HETATM    2  C2  UNL     1      -2.175  -0.142  -1.939  1.00  0.00     0.125 C 
HETATM    3  C3  UNL     1      -0.856  -0.780  -1.455  1.00  0.00     0.035 C 
HETATM    4  C4  UNL     1      -0.238  -0.104  -0.203  1.00  0.00     0.036 C 
HETATM    5  C5  UNL     1      -0.232   1.397  -0.391  1.00  0.00    -0.038 C 
HETATM    6  C6  UNL     1      -1.537   2.033  -0.804  1.00  0.00     0.025 C 
HETATM    7  C7  UNL     1       0.860   2.134  -0.143  1.00  0.00     0.034 C 
HETATM    8  C8  UNL     1       2.062   1.612   0.209  1.00  0.00     0.191 C 
HETATM    9  C9  UNL     1       2.232   0.265   0.255  1.00  0.00     0.022 C 
HETATM   10  C10 UNL     1       1.191  -0.550   0.017  1.00  0.00    -0.024 C 
HETATM   11  O3  UNL     1       2.979   2.365   0.450  1.00  0.00    -0.287 OA
HETATM   12  C16 UNL     1      -0.953  -0.430   1.125  1.00  0.00     0.009 C 
HETATM   13  C17 UNL     1      -1.000  -2.310  -1.354  1.00  0.00     0.003 C 
ENDROOT
BRANCH   2  14
HETATM   14  O4  UNL     1      -3.237  -0.402  -1.061  1.00  0.00    -0.301 OA
BRANCH  14  15
HETATM   15  C18 UNL     1      -4.146  -1.386  -1.337  1.00  0.00     0.291 C 
HETATM   16  O5  UNL     1      -4.036  -2.023  -2.363  1.00  0.00    -0.260 OA
BRANCH  15  17
HETATM   17  C19 UNL     1      -5.172  -1.745  -0.512  1.00  0.00     0.037 C 
HETATM   18  C20 UNL     1      -6.043  -2.911  -0.951  1.00  0.00     0.036 C 
HETATM   19  C21 UNL     1      -5.451  -1.145   0.663  1.00  0.00    -0.025 C 
HETATM   20  C22 UNL     1      -4.811   0.032   1.350  1.00  0.00     0.030 C 
ENDBRANCH  15  17
ENDBRANCH  14  15
ENDBRANCH   2  14
BRANCH   9  21
HETATM   21  C11 UNL     1       3.576  -0.348   0.633  1.00  0.00     0.111 C 
HETATM   22  C15 UNL     1       3.595  -0.595   2.152  1.00  0.00     0.015 C 
BRANCH  21  23
HETATM   23  C12 UNL     1       4.781   0.415   0.087  1.00  0.00     0.276 C 
HETATM   24  O1  UNL     1       5.039   0.501  -1.093  1.00  0.00    -0.264 OA
BRANCH  23  25
HETATM   25  O2  UNL     1       5.506   0.987   1.085  1.00  0.00    -0.301 OA
BRANCH  25  26
HETATM   26  C13 UNL     1       6.577   1.810   0.711  1.00  0.00     0.152 C 
HETATM   27  C14 UNL     1       7.143   2.466   1.967  1.00  0.00     0.035 C 
ENDBRANCH  25  26
ENDBRANCH  23  25
ENDBRANCH  21  23
ENDBRANCH   9  21
TORSDOF 7
