REMARK  4 active torsions:
REMARK  status: ('A' for Active; 'I' for Inactive)
REMARK    1  A    between atoms: C5_5  and  C20_21 
REMARK    2  A    between atoms: C14_15  and  C17_18 
REMARK    3  A    between atoms: C20_21  and  C21_22 
REMARK    4  A    between atoms: C21_22  and  O2_23 
ROOT
HETATM    1  C3  UNL     1      -1.954   0.847  -1.399  1.00  0.00     0.033 C 
HETATM    2  C4  UNL     1      -1.551  -0.537  -1.898  1.00  0.00     0.153 C 
HETATM    3  C5  UNL     1      -0.289  -1.108  -1.199  1.00  0.00     0.038 C 
HETATM    4  C6  UNL     1      -0.525  -1.058   0.349  1.00  0.00     0.014 C 
HETATM    5  C7  UNL     1      -0.912   0.333   0.922  1.00  0.00     0.015 C 
HETATM    6  C8  UNL     1      -2.126   0.865   0.122  1.00  0.00     0.006 C 
HETATM    7  C9  UNL     1       0.320   1.233   0.943  1.00  0.00    -0.046 C 
HETATM    8  C10 UNL     1       1.549   0.732   1.199  1.00  0.00     0.005 C 
HETATM    9  C11 UNL     1       1.735  -0.717   1.477  1.00  0.00     0.169 C 
HETATM   10  C12 UNL     1       0.595  -1.672   1.199  1.00  0.00     0.069 C 
HETATM   11  O1  UNL     1       2.793  -1.151   1.916  1.00  0.00    -0.292 OA
HETATM   12  C13 UNL     1       2.799   1.580   1.209  1.00  0.00     0.033 C 
HETATM   13  C14 UNL     1       2.592   2.931   0.513  1.00  0.00     0.027 C 
HETATM   14  C15 UNL     1       1.340   3.579   1.110  1.00  0.00     0.009 C 
HETATM   15  C16 UNL     1       0.112   2.724   0.772  1.00  0.00     0.022 C 
HETATM   16  C19 UNL     1      -1.381   0.238   2.397  1.00  0.00     0.004 C 
HETATM   17  C23 UNL     1       0.913  -0.265  -1.688  1.00  0.00     0.003 C 
HETATM   18  O4  UNL     1      -2.650  -1.406  -1.730  1.00  0.00    -0.224 OA
ENDROOT
BRANCH   3  19
HETATM   19  C20 UNL     1      -0.120  -2.575  -1.707  1.00  0.00     0.098 C 
BRANCH  19  20
HETATM   20  C21 UNL     1       1.233  -3.274  -1.630  1.00  0.00     0.272 C 
HETATM   21  O3  UNL     1       2.312  -2.745  -1.486  1.00  0.00    -0.264 OA
BRANCH  20  22
HETATM   22  O2  UNL     1       1.071  -4.619  -1.777  1.00  0.00    -0.299 OA
HETATM   23  C22 UNL     1       2.251  -5.388  -1.781  1.00  0.00     0.184 C 
ENDBRANCH  20  22
ENDBRANCH  19  20
ENDBRANCH   3  19
BRANCH  13  24
HETATM   24  C17 UNL     1       3.814   3.803   0.681  1.00  0.00    -0.026 C 
HETATM   25  C18 UNL     1       4.601   4.190  -0.333  1.00  0.00    -0.005 C 
ENDBRANCH  13  24
TORSDOF 4
