REMARK  6 active torsions:
REMARK  status: ('A' for Active; 'I' for Inactive)
REMARK    1  A    between atoms: C1_2  and  C2_3 
REMARK    2  A    between atoms: C2_3  and  C3_4 
REMARK    3  A    between atoms: C3_4  and  C4_5 
REMARK    4  A    between atoms: C4_5  and  C5_6 
REMARK    5  A    between atoms: C5_6  and  C6_7 
REMARK    6  A    between atoms: C6_7  and  C7_8 
ROOT
HETATM    1  C4  UNL     1       0.030  -0.328   0.000  1.00  0.00     0.001 C 
HETATM    2  C8  UNL     1       0.112  -1.218   1.257  1.00  0.00     0.000 C 
HETATM    3  C9  UNL     1       0.112  -1.219  -1.256  1.00  0.00     0.000 C 
ENDROOT
BRANCH   1   4
HETATM    4  C3  UNL     1      -1.302   0.475  -0.001  1.00  0.00     0.011 C 
BRANCH   4   5
HETATM    5  C2  UNL     1      -2.608  -0.338   0.002  1.00  0.00     0.098 C 
BRANCH   5   6
HETATM    6  C1  UNL     1      -3.856   0.526   0.000  1.00  0.00     0.185 C 
HETATM    7  O1  UNL     1      -4.972  -0.227   0.010  1.00  0.00    -0.647 OA
HETATM    8  O4  UNL     1      -3.912   1.733  -0.009  1.00  0.00    -0.647 OA
ENDBRANCH   5   6
ENDBRANCH   4   5
ENDBRANCH   1   4
BRANCH   1   9
HETATM    9  C5  UNL     1       1.193   0.705  -0.001  1.00  0.00     0.011 C 
BRANCH   9  10
HETATM   10  C6  UNL     1       2.626   0.143   0.002  1.00  0.00     0.098 C 
BRANCH  10  11
HETATM   11  C7  UNL     1       3.695   1.220   0.000  1.00  0.00     0.185 C 
HETATM   12  O2  UNL     1       4.930   0.683   0.010  1.00  0.00    -0.647 OA
HETATM   13  O3  UNL     1       3.530   2.417  -0.010  1.00  0.00    -0.647 OA
ENDBRANCH  10  11
ENDBRANCH   9  10
ENDBRANCH   1   9
TORSDOF 6
