REMARK  1 active torsions:
REMARK  status: ('A' for Active; 'I' for Inactive)
REMARK    1  A    between atoms: C6_6  and  C15_15 
ROOT
HETATM    1  C1  UNL     1       2.086   0.543  -0.243  1.00  0.00     0.108 A 
HETATM    2  C2  UNL     1       2.621  -0.702   0.089  1.00  0.00     0.019 A 
HETATM    3  C3  UNL     1       1.773  -1.772   0.373  1.00  0.00    -0.018 A 
HETATM    4  C4  UNL     1       0.390  -1.597   0.325  1.00  0.00     0.076 A 
HETATM    5  C5  UNL     1      -0.145  -0.353  -0.008  1.00  0.00     0.029 A 
HETATM    6  C6  UNL     1       0.703   0.717  -0.292  1.00  0.00     0.051 A 
HETATM    7  C7  UNL     1      -0.432  -2.634   0.600  1.00  0.00     0.176 C 
HETATM    8  C8  UNL     1      -1.761  -2.518   0.385  1.00  0.00     0.034 C 
HETATM    9  C9  UNL     1      -2.263  -1.377  -0.100  1.00  0.00    -0.020 C 
HETATM   10  C10 UNL     1      -1.449  -0.352  -0.372  1.00  0.00     0.040 A 
HETATM   11  C11 UNL     1      -2.109   0.772  -0.870  1.00  0.00    -0.021 A 
HETATM   12  C12 UNL     1      -1.549   2.039  -0.707  1.00  0.00     0.019 A 
HETATM   13  C13 UNL     1      -0.330   2.183  -0.045  1.00  0.00     0.108 A 
HETATM   14  C14 UNL     1       0.329   1.059   0.454  1.00  0.00     0.051 A 
HETATM   15  C15 UNL     1      -0.230  -0.208   0.290  1.00  0.00     0.029 A 
HETATM   16  O1  UNL     1       0.213   3.413   0.114  1.00  0.00    -0.195 OA
HETATM   17  O2  UNL     1       0.021  -3.665   1.037  1.00  0.00    -0.291 OA
HETATM   18  O3  UNL     1       2.911   1.582  -0.519  1.00  0.00    -0.195 OA
ENDROOT
TORSDOF 1
