REMARK  0 active torsions:
REMARK  status: ('A' for Active; 'I' for Inactive)
ROOT
HETATM    1  C1  UNL     1       0.457  -0.461   1.323  1.00  0.00     0.033 C 
HETATM    2  C2  UNL     1      -0.211  -0.344  -0.069  1.00  0.00     0.040 C 
HETATM    3  C3  UNL     1       0.455  -1.098  -1.233  1.00  0.00     0.174 C 
HETATM    4  C4  UNL     1       1.775  -0.490  -1.626  1.00  0.00     0.004 C 
HETATM    5  C5  UNL     1       2.960  -1.018  -1.279  1.00  0.00     0.005 C 
HETATM    6  C6  UNL     1       4.258  -0.243  -1.307  1.00  0.00     0.184 C 
HETATM    7  C7  UNL     1       4.151   1.213  -0.821  1.00  0.00     0.133 C 
HETATM    8  C8  UNL     1       3.419   1.476   0.496  1.00  0.00     0.275 C 
HETATM    9  O1  UNL     1       2.542   0.479   0.747  1.00  0.00    -0.304 OA
HETATM   10  C9  UNL     1       1.517   0.601   1.675  1.00  0.00     0.124 C 
HETATM   11  C10 UNL     1       2.065   0.397   3.088  1.00  0.00     0.033 C 
HETATM   12  O2  UNL     1       3.523   2.488   1.151  1.00  0.00    -0.264 OA
HETATM   13  O3  UNL     1       4.807  -0.269  -2.611  1.00  0.00    -0.218 OA
HETATM   14  O4  UNL     1      -0.400  -1.066  -2.362  1.00  0.00    -0.219 OA
ENDROOT
TORSDOF 0
