REMARK  4 active torsions:
REMARK  status: ('A' for Active; 'I' for Inactive)
REMARK    1  A    between atoms: C2_2  and  C13_19 
REMARK    2  A    between atoms: C3_3  and  C12_16 
REMARK    3  A    between atoms: C6_6  and  O1_7 
REMARK    4  A    between atoms: C10_12  and  O3_13 
ROOT
HETATM    1  C1  UNL     1      -0.033  -1.907  -1.001  1.00  0.00     0.161 C 
HETATM    2  C2  UNL     1       1.058  -1.496  -0.317  1.00  0.00     0.098 C 
HETATM    3  C3  UNL     1       0.995  -0.353   0.435  1.00  0.00     0.076 C 
HETATM    4  C4  UNL     1      -0.015   0.547   0.208  1.00  0.00     0.053 A 
HETATM    5  C5  UNL     1      -1.088   0.101  -0.499  1.00  0.00     0.130 A 
HETATM    6  C6  UNL     1      -1.134  -1.141  -1.017  1.00  0.00     0.142 C 
HETATM    7  O2  UNL     1      -2.223   0.827  -0.751  1.00  0.00    -0.271 OA
HETATM    8  C8  UNL     1      -2.247   2.092  -0.308  1.00  0.00     0.302 A 
HETATM    9  C9  UNL     1      -1.180   2.588   0.350  1.00  0.00     0.093 A 
HETATM   10  C10 UNL     1      -0.082   1.852   0.617  1.00  0.00     0.102 A 
HETATM   11  O4  UNL     1      -3.213   2.799  -0.515  1.00  0.00    -0.259 OA
HETATM   12  O9  UNL     1      -0.099  -3.068  -1.720  1.00  0.00    -0.188 OA
ENDROOT
BRANCH   2  13
HETATM   13  C13 UNL     1       2.176  -2.290  -0.436  1.00  0.00     0.213 C 
HETATM   14  O7  UNL     1       2.228  -3.494  -1.050  1.00  0.00    -0.644 OA
HETATM   15  O8  UNL     1       3.293  -1.901  -0.173  1.00  0.00    -0.644 OA
ENDBRANCH   2  13
BRANCH   3  16
HETATM   16  C12 UNL     1       1.940  -0.188   1.428  1.00  0.00     0.211 C 
HETATM   17  O5  UNL     1       2.094   0.817   2.314  1.00  0.00    -0.644 OA
HETATM   18  O6  UNL     1       2.612  -1.123   1.801  1.00  0.00    -0.644 OA
ENDBRANCH   3  16
BRANCH   6  19
HETATM   19  O1  UNL     1      -2.227  -1.528  -1.763  1.00  0.00    -0.324 OA
HETATM   20  C7  UNL     1      -3.154  -2.312  -1.046  1.00  0.00     0.182 C 
ENDBRANCH   6  19
BRANCH  10  21
HETATM   21  O3  UNL     1       0.982   2.491   1.200  1.00  0.00    -0.328 OA
HETATM   22  C11 UNL     1       1.120   3.893   1.138  1.00  0.00     0.181 C 
ENDBRANCH  10  21
TORSDOF 4
