REMARK  0 active torsions:
REMARK  status: ('A' for Active; 'I' for Inactive)
ROOT
HETATM    1  C1  UNL     1      -2.452   1.226   0.582  1.00  0.00    -0.026 C 
HETATM    2  C2  UNL     1      -2.588  -0.261   0.755  1.00  0.00     0.026 C 
HETATM    3  C3  UNL     1      -1.407  -1.010   0.110  1.00  0.00     0.008 C 
HETATM    4  C4  UNL     1      -0.034  -0.437   0.557  1.00  0.00     0.022 C 
HETATM    5  C5  UNL     1      -0.011   1.069   0.357  1.00  0.00    -0.027 C 
HETATM    6  C6  UNL     1      -1.268   1.833   0.382  1.00  0.00    -0.009 C 
HETATM    7  C7  UNL     1       1.153   1.746   0.265  1.00  0.00    -0.030 C 
HETATM    8  C8  UNL     1       2.518   1.113   0.296  1.00  0.00     0.030 C 
HETATM    9  C9  UNL     1       2.547  -0.356  -0.080  1.00  0.00     0.026 A 
HETATM   10  C10 UNL     1       1.114  -1.179  -0.130  1.00  0.00     0.026 A 
HETATM   11  C11 UNL     1       1.726  -0.511  -1.312  1.00  0.00    -0.044 A 
HETATM   12  C12 UNL     1       1.637  -0.238  -2.608  1.00  0.00    -0.009 C 
HETATM   13  C13 UNL     1       0.143  -0.663   2.080  1.00  0.00     0.005 C 
HETATM   14  C14 UNL     1      -1.575  -1.014  -1.422  1.00  0.00     0.001 C 
ENDROOT
TORSDOF 0
