REMARK  1 active torsions:
REMARK  status: ('A' for Active; 'I' for Inactive)
REMARK    1  A    between atoms: C3_3  and  C19_23 
ROOT
HETATM    1  C1  UNL     1      -2.689   0.249   2.326  1.00  0.00     0.000 C 
HETATM    2  C2  UNL     1      -2.679  -1.278   2.192  1.00  0.00     0.003 C 
HETATM    3  C3  UNL     1      -2.146  -1.799   0.832  1.00  0.00     0.031 C 
HETATM    4  C4  UNL     1      -0.770  -1.107   0.579  1.00  0.00     0.005 C 
HETATM    5  C5  UNL     1      -0.722   0.454   0.640  1.00  0.00     0.007 C 
HETATM    6  C6  UNL     1      -1.320   0.872   2.012  1.00  0.00     0.000 C 
HETATM    7  C7  UNL     1       0.768   0.957   0.549  1.00  0.00     0.069 C 
HETATM    8  C8  UNL     1       1.627   0.303  -0.566  1.00  0.00     0.118 C 
HETATM    9  C9  UNL     1       1.500  -1.212  -0.441  1.00  0.00     0.162 C 
HETATM   10  C10 UNL     1       0.057  -1.667  -0.600  1.00  0.00     0.034 C 
HETATM   11  O1  UNL     1       2.386  -1.875  -1.309  1.00  0.00    -0.223 OA
HETATM   12  C11 UNL     1       1.375   0.993  -1.915  1.00  0.00     0.166 C 
HETATM   13  C12 UNL     1       2.104   2.319  -1.699  1.00  0.00     0.063 C 
HETATM   14  C13 UNL     1       1.331   3.205  -0.716  1.00  0.00     0.071 C 
HETATM   15  C14 UNL     1       0.930   2.481   0.563  1.00  0.00     0.151 C 
HETATM   16  O2  UNL     1       0.736   3.124   1.571  1.00  0.00    -0.296 OA
HETATM   17  C15 UNL     1       3.362   1.812  -1.045  1.00  0.00     0.015 C 
HETATM   18  C16 UNL     1       3.112   0.652  -0.393  1.00  0.00     0.174 C 
HETATM   19  O3  UNL     1       3.907  -0.066   0.165  1.00  0.00    -0.291 OA
HETATM   20  C17 UNL     1       4.567   2.393  -1.107  1.00  0.00    -0.002 C 
HETATM   21  O4  UNL     1       1.997   0.303  -2.972  1.00  0.00    -0.223 OA
HETATM   22  C18 UNL     1      -1.573   1.125  -0.462  1.00  0.00     0.000 C 
HETATM   23  C20 UNL     1      -3.201  -1.570  -0.270  1.00  0.00     0.003 C 
ENDROOT
BRANCH   3  24
HETATM   24  C19 UNL     1      -1.993  -3.332   0.997  1.00  0.00     0.182 C 
HETATM   25  O5  UNL     1      -1.988  -4.011  -0.245  1.00  0.00    -0.221 OA
ENDBRANCH   3  24
TORSDOF 1
