REMARK  6 active torsions:
REMARK  status: ('A' for Active; 'I' for Inactive)
REMARK    1  A    between atoms: C3_3  and  O3_14 
REMARK    2  A    between atoms: C4_4  and  C7_8 
REMARK    3  A    between atoms: C7_8  and  C8_9 
REMARK    4  A    between atoms: C8_9  and  C9_10 
REMARK    5  A    between atoms: O3_14  and  C12_15 
REMARK    6  A    between atoms: C13_17  and  C17_24 
ROOT
HETATM    1  C1  UNL     1       2.693   3.333  -1.661  1.00  0.00     0.005 A 
HETATM    2  C2  UNL     1       2.711   2.348  -0.671  1.00  0.00     0.022 A 
HETATM    3  C3  UNL     1       1.602   1.565  -0.322  1.00  0.00     0.093 A 
HETATM    4  C4  UNL     1       0.388   1.840  -0.983  1.00  0.00     0.002 A 
HETATM    5  C5  UNL     1       0.379   2.819  -1.985  1.00  0.00     0.025 A 
HETATM    6  C6  UNL     1       1.500   3.566  -2.352  1.00  0.00     0.127 A 
HETATM    7  O1  UNL     1       1.420   4.516  -3.321  1.00  0.00    -0.191 OA
HETATM    8  C18 UNL     1       3.933   4.133  -1.981  1.00  0.00     0.033 C 
ENDROOT
BRANCH   3   9
HETATM    9  O3  UNL     1       1.767   0.637   0.673  1.00  0.00    -0.304 OA
BRANCH   9  10
HETATM   10  C12 UNL     1       1.568  -0.717   0.331  1.00  0.00     0.274 C 
HETATM   11  O4  UNL     1       2.123  -1.377   1.453  1.00  0.00    -0.326 OA
HETATM   12  C13 UNL     1       1.919  -2.764   1.418  1.00  0.00     0.184 C 
HETATM   13  C14 UNL     1       2.596  -3.342   0.181  1.00  0.00     0.215 C 
HETATM   14  C15 UNL     1       2.101  -2.642  -1.067  1.00  0.00     0.220 C 
HETATM   15  O7  UNL     1       2.307  -4.712   0.047  1.00  0.00    -0.218 OA
HETATM   16  C16 UNL     1       2.297  -1.145  -0.926  1.00  0.00     0.241 C 
HETATM   17  O6  UNL     1       2.813  -3.110  -2.183  1.00  0.00    -0.218 OA
HETATM   18  O5  UNL     1       1.764  -0.544  -2.081  1.00  0.00    -0.215 OA
BRANCH  12  19
HETATM   19  C17 UNL     1       2.482  -3.369   2.696  1.00  0.00     0.214 C 
HETATM   20  O8  UNL     1       1.765  -2.884   3.813  1.00  0.00    -0.218 OA
ENDBRANCH  12  19
ENDBRANCH   9  10
ENDBRANCH   3   9
BRANCH   4  21
HETATM   21  C7  UNL     1      -0.913   1.111  -0.694  1.00  0.00     0.031 C 
BRANCH  21  22
HETATM   22  C8  UNL     1      -1.419   1.261   0.751  1.00  0.00     0.035 C 
BRANCH  22  23
HETATM   23  C9  UNL     1      -2.641   0.395   1.097  1.00  0.00     0.127 C 
HETATM   24  C10 UNL     1      -2.312  -1.101   1.117  1.00  0.00     0.033 C 
HETATM   25  C11 UNL     1      -3.214   0.812   2.455  1.00  0.00     0.033 C 
HETATM   26  O2  UNL     1      -3.638   0.608   0.133  1.00  0.00    -0.226 OA
ENDBRANCH  22  23
ENDBRANCH  21  22
ENDBRANCH   4  21
TORSDOF 6
