REMARK  4 active torsions:
REMARK  status: ('A' for Active; 'I' for Inactive)
REMARK    1  A    between atoms: C1_1  and  O3_10 
REMARK    2  A    between atoms: C5_6  and  C6_7 
REMARK    3  A    between atoms: O3_10  and  C7_11 
REMARK    4  A    between atoms: C8_13  and  C12_20 
ROOT
HETATM    1  C7  UNL     1       2.766   0.301  -0.084  1.00  0.00     0.274 C 
HETATM    2  O4  UNL     1       3.687   0.515   0.966  1.00  0.00    -0.326 OA
HETATM    3  C8  UNL     1       4.971   0.055   0.640  1.00  0.00     0.184 C 
HETATM    4  C9  UNL     1       5.499   0.863  -0.540  1.00  0.00     0.215 C 
HETATM    5  C10 UNL     1       4.544   0.761  -1.714  1.00  0.00     0.220 C 
HETATM    6  C11 UNL     1       3.148   1.152  -1.272  1.00  0.00     0.241 C 
HETATM    7  O5  UNL     1       2.258   0.915  -2.332  1.00  0.00    -0.215 OA
HETATM    8  O6  UNL     1       4.974   1.617  -2.742  1.00  0.00    -0.218 OA
HETATM    9  O7  UNL     1       6.751   0.378  -0.959  1.00  0.00    -0.218 OA
ENDROOT
BRANCH   1  10
HETATM   10  O3  UNL     1       1.530   0.698   0.473  1.00  0.00    -0.303 OA
BRANCH  10  11
HETATM   11  C1  UNL     1       0.450  -0.034   0.053  1.00  0.00     0.106 C 
HETATM   12  C2  UNL     1      -0.482   0.532  -0.824  1.00  0.00     0.045 C 
HETATM   13  C3  UNL     1      -1.629  -0.170  -1.211  1.00  0.00     0.101 C 
HETATM   14  N1  UNL     1      -1.948  -1.376  -0.737  1.00  0.00    -0.242 NA
HETATM   15  C4  UNL     1      -1.132  -1.879   0.197  1.00  0.00     0.107 C 
HETATM   16  C5  UNL     1       0.041  -1.249   0.652  1.00  0.00     0.106 C 
BRANCH  16  17
HETATM   17  C6  UNL     1       0.831  -1.912   1.725  1.00  0.00     0.214 C 
HETATM   18  O1  UNL     1       1.988  -1.426   2.210  1.00  0.00    -0.644 OA
HETATM   19  O2  UNL     1       0.439  -2.965   2.215  1.00  0.00    -0.644 OA
ENDBRANCH  16  17
ENDBRANCH  10  11
ENDBRANCH   1  10
BRANCH   3  20
HETATM   20  C12 UNL     1       5.848   0.180   1.877  1.00  0.00     0.214 C 
HETATM   21  O8  UNL     1       5.351  -0.664   2.899  1.00  0.00    -0.218 OA
ENDBRANCH   3  20
TORSDOF 4
