REMARK  1 active torsions:
REMARK  status: ('A' for Active; 'I' for Inactive)
REMARK    1  A    between atoms: C5_5  and  C9_9 
ROOT
HETATM    1  C1  UNL     1      -0.324  -1.106   0.729  1.00  0.00     0.037 C 
HETATM    2  C2  UNL     1      -1.214  -0.165  -0.067  1.00  0.00     0.157 C 
HETATM    3  C3  UNL     1      -0.660   1.249   0.026  1.00  0.00     0.054 C 
HETATM    4  C4  UNL     1       0.836   1.319  -0.175  1.00  0.00    -0.047 C 
HETATM    5  C5  UNL     1       1.639   0.234  -0.142  1.00  0.00    -0.020 C 
HETATM    6  C6  UNL     1       1.105  -1.170   0.144  1.00  0.00     0.019 C 
HETATM    7  C7  UNL     1       1.101  -1.993  -1.163  1.00  0.00     0.004 C 
HETATM    8  C8  UNL     1       1.980  -1.899   1.190  1.00  0.00     0.004 C 
HETATM    9  C10 UNL     1       1.329   2.737  -0.372  1.00  0.00     0.026 C 
HETATM   10  O2  UNL     1      -2.522  -0.192   0.455  1.00  0.00    -0.223 OA
ENDROOT
BRANCH   5  11
HETATM   11  C9  UNL     1       3.124   0.346  -0.412  1.00  0.00     0.204 C 
HETATM   12  O1  UNL     1       3.835   0.663   0.778  1.00  0.00    -0.216 OA
ENDBRANCH   5  11
TORSDOF 1
