REMARK  3 active torsions:
REMARK  status: ('A' for Active; 'I' for Inactive)
REMARK    1  A    between atoms: C7_8  and  C10_11 
REMARK    2  A    between atoms: C10_11  and  C11_12 
REMARK    3  A    between atoms: C12_13  and  C13_14 
ROOT
HETATM    1  C1  UNL     1      -1.388   1.775   0.978  1.00  0.00     0.117 C 
HETATM    2  O1  UNL     1      -1.250   0.581   0.250  1.00  0.00    -0.332 OA
HETATM    3  C2  UNL     1      -0.164  -0.225   0.454  1.00  0.00     0.096 A 
HETATM    4  C3  UNL     1       0.971   0.144   1.198  1.00  0.00     0.048 A 
HETATM    5  C4  UNL     1       0.973   1.482   1.786  1.00  0.00     0.002 C 
HETATM    6  C5  UNL     1      -0.127   2.242   1.667  1.00  0.00     0.001 C 
HETATM    7  C6  UNL     1       2.086  -0.703   1.342  1.00  0.00     0.136 A 
HETATM    8  C7  UNL     1       2.029  -1.969   0.754  1.00  0.00     0.064 A 
HETATM    9  C8  UNL     1       0.887  -2.400   0.077  1.00  0.00     0.007 A 
HETATM   10  C9  UNL     1      -0.192  -1.529  -0.061  1.00  0.00     0.024 A 
HETATM   11  O4  UNL     1       3.187  -0.318   2.044  1.00  0.00    -0.190 OA
HETATM   12  C19 UNL     1      -1.831   2.861  -0.013  1.00  0.00     0.035 C 
HETATM   13  C20 UNL     1      -2.479   1.565   2.035  1.00  0.00     0.035 C 
ENDROOT
BRANCH   8  14
HETATM   14  C10 UNL     1       3.211  -2.898   0.845  1.00  0.00     0.198 C 
HETATM   15  O3  UNL     1       3.102  -3.998   1.373  1.00  0.00    -0.286 OA
BRANCH  14  16
HETATM   16  C11 UNL     1       4.488  -2.468   0.217  1.00  0.00     0.042 C 
HETATM   17  C12 UNL     1       4.607  -1.375  -0.573  1.00  0.00     0.003 C 
BRANCH  17  18
HETATM   18  C13 UNL     1       5.837  -0.919  -1.236  1.00  0.00     0.000 A 
HETATM   19  C14 UNL     1       5.803   0.292  -1.949  1.00  0.00     0.002 A 
HETATM   20  C15 UNL     1       6.931   0.768  -2.616  1.00  0.00     0.027 A 
HETATM   21  C16 UNL     1       8.137   0.058  -2.604  1.00  0.00     0.131 A 
HETATM   22  C17 UNL     1       8.167  -1.151  -1.905  1.00  0.00     0.027 A 
HETATM   23  O2  UNL     1       9.235   0.517  -3.257  1.00  0.00    -0.190 OA
HETATM   24  C18 UNL     1       7.042  -1.636  -1.233  1.00  0.00     0.002 A 
ENDBRANCH  17  18
ENDBRANCH  14  16
ENDBRANCH   8  14
TORSDOF 3
