REMARK  1 active torsions:
REMARK  status: ('A' for Active; 'I' for Inactive)
REMARK    1  A    between atoms: C6_6  and  C16_21 
ROOT
HETATM    1  C3  UNL     1      -1.216  -0.484  -0.584  1.00  0.00     0.057 C 
HETATM    2  C4  UNL     1      -0.497  -1.811  -0.201  1.00  0.00     0.016 C 
HETATM    3  C5  UNL     1       0.753  -1.720   0.712  1.00  0.00     0.117 C 
HETATM    4  C6  UNL     1       0.786  -0.477   1.600  1.00  0.00     0.165 C 
HETATM    5  C7  UNL     1       0.973   0.499   0.434  1.00  0.00     0.208 C 
HETATM    6  C8  UNL     1      -0.205   0.678  -0.556  1.00  0.00     0.313 C 
HETATM    7  N1  UNL     1       0.248   0.808  -1.936  1.00  0.00     0.163 N 
HETATM    8  C9  UNL     1      -0.878   0.492  -2.788  1.00  0.00     0.253 C 
HETATM    9  C10 UNL     1      -1.631  -0.641  -2.078  1.00  0.00     0.038 C 
HETATM   10  C11 UNL     1      -1.302  -2.080  -2.485  1.00  0.00     0.002 C 
HETATM   11  C12 UNL     1      -0.167  -2.484  -1.551  1.00  0.00     0.001 C 
HETATM   12  C13 UNL     1       0.713   2.172  -2.046  1.00  0.00     0.285 C 
HETATM   13  C14 UNL     1      -0.175   2.907  -1.051  1.00  0.00     0.180 C 
HETATM   14  O1  UNL     1      -0.840   1.909  -0.314  1.00  0.00    -0.328 OA
HETATM   15  O2  UNL     1       2.049  -0.083  -0.268  1.00  0.00    -0.297 OA
HETATM   16  C15 UNL     1       2.014  -1.429  -0.089  1.00  0.00     0.274 C 
HETATM   17  O3  UNL     1       2.818  -2.226  -0.518  1.00  0.00    -0.264 OA
HETATM   18  O4  UNL     1       1.998  -0.473   2.324  1.00  0.00    -0.223 OA
HETATM   19  C19 UNL     1      -2.541  -0.185   0.158  1.00  0.00     0.004 C 
ENDROOT
BRANCH   4  20
HETATM   20  C16 UNL     1      -0.315  -0.373   2.657  1.00  0.00     0.031 C 
HETATM   21  C17 UNL     1      -0.033  -1.235   3.907  1.00  0.00     0.003 C 
HETATM   22  C18 UNL     1      -0.566   1.078   3.098  1.00  0.00     0.003 C 
ENDBRANCH   4  20
TORSDOF 1
