REMARK  2 active torsions:
REMARK  status: ('A' for Active; 'I' for Inactive)
REMARK    1  A    between atoms: C15_16  and  C18_19 
REMARK    2  A    between atoms: C18_19  and  C19_21 
ROOT
HETATM    1  C1  UNL     1      -1.154  -2.071  -0.776  1.00  0.00     0.070 C 
HETATM    2  C2  UNL     1      -0.884  -3.504  -0.362  1.00  0.00     0.172 C 
HETATM    3  C3  UNL     1       0.339  -3.820   0.131  1.00  0.00     0.029 C 
HETATM    4  C4  UNL     1       1.369  -2.961   0.234  1.00  0.00    -0.042 C 
HETATM    5  C5  UNL     1       1.293  -1.515  -0.240  1.00  0.00     0.022 C 
HETATM    6  C6  UNL     1      -0.188  -1.086  -0.107  1.00  0.00     0.012 C 
HETATM    7  C7  UNL     1       2.222  -0.632   0.640  1.00  0.00     0.061 C 
HETATM    8  C8  UNL     1       3.687  -1.135   0.775  1.00  0.00     0.008 C 
HETATM    9  C9  UNL     1       3.865  -2.623   0.424  1.00  0.00     0.005 C 
HETATM   10  C10 UNL     1       2.652  -3.432   0.879  1.00  0.00     0.022 C 
HETATM   11  C11 UNL     1       4.699  -0.270   0.013  1.00  0.00     0.003 C 
HETATM   12  C12 UNL     1       4.553   1.247   0.254  1.00  0.00     0.035 C 
HETATM   13  C13 UNL     1       3.184   1.642  -0.323  1.00  0.00     0.067 C 
HETATM   14  C14 UNL     1       2.078   0.874   0.384  1.00  0.00     0.151 C 
HETATM   15  O1  UNL     1       1.085   1.469   0.742  1.00  0.00    -0.296 OA
HETATM   16  C15 UNL     1       5.798   1.779  -0.497  1.00  0.00     0.157 C 
HETATM   17  C16 UNL     1       6.902   0.782  -0.104  1.00  0.00     0.033 C 
HETATM   18  C17 UNL     1       6.191  -0.539   0.260  1.00  0.00     0.003 C 
HETATM   19  O4  UNL     1       5.571   1.592  -1.879  1.00  0.00    -0.223 OA
HETATM   20  C20 UNL     1       4.564   1.591   1.759  1.00  0.00     0.003 C 
HETATM   21  C21 UNL     1       1.685  -1.410  -1.730  1.00  0.00     0.004 C 
HETATM   22  O5  UNL     1      -1.759  -4.337  -0.447  1.00  0.00    -0.291 OA
ENDROOT
BRANCH  16  23
HETATM   23  C18 UNL     1       6.196   3.252  -0.381  1.00  0.00     0.213 C 
HETATM   24  O2  UNL     1       7.247   3.461  -1.304  1.00  0.00    -0.218 OA
BRANCH  23  25
HETATM   25  C19 UNL     1       6.652   3.828   0.955  1.00  0.00     0.218 C 
HETATM   26  O3  UNL     1       5.698   4.753   1.440  1.00  0.00    -0.218 OA
ENDBRANCH  23  25
ENDBRANCH  16  23
TORSDOF 2
