REMARK  1 active torsions:
REMARK  status: ('A' for Active; 'I' for Inactive)
REMARK    1  A    between atoms: C3_3  and  C8_8 
ROOT
HETATM    1  C1  UNL     1       1.333   1.238   0.321  1.00  0.00    -0.001 A 
HETATM    2  C2  UNL     1       1.344  -0.171   0.252  1.00  0.00    -0.025 A 
HETATM    3  C3  UNL     1       2.622  -1.001   0.344  1.00  0.00     0.022 C 
HETATM    4  C4  UNL     1       3.886  -0.131   0.290  1.00  0.00     0.005 C 
HETATM    5  C5  UNL     1       3.714   1.104   1.169  1.00  0.00     0.005 C 
HETATM    6  C6  UNL     1       2.617   2.015   0.593  1.00  0.00     0.024 C 
HETATM    7  C7  UNL     1       2.477   3.201   1.569  1.00  0.00     0.005 C 
HETATM    8  C11 UNL     1       0.123  -0.848   0.128  1.00  0.00    -0.009 A 
HETATM    9  C12 UNL     1      -1.093  -0.188  -0.038  1.00  0.00    -0.020 A 
HETATM   10  C13 UNL     1      -1.064   1.204  -0.076  1.00  0.00     0.023 A 
HETATM   11  C14 UNL     1       0.120   1.923   0.109  1.00  0.00     0.126 A 
HETATM   12  O1  UNL     1       0.038   3.279   0.059  1.00  0.00    -0.191 OA
HETATM   13  C15 UNL     1      -2.377  -0.965  -0.187  1.00  0.00     0.031 C 
ENDROOT
BRANCH   3  14
HETATM   14  C8  UNL     1       2.704  -2.161  -0.688  1.00  0.00     0.004 C 
HETATM   15  C9  UNL     1       2.582  -1.685  -2.147  1.00  0.00     0.000 C 
HETATM   16  C10 UNL     1       3.962  -3.032  -0.519  1.00  0.00     0.000 C 
ENDBRANCH   3  14
TORSDOF 1
