REMARK  1 active torsions:
REMARK  status: ('A' for Active; 'I' for Inactive)
REMARK    1  A    between atoms: C18_22  and  C19_23 
ROOT
HETATM    1  C1  UNL     1      -0.797  -1.798   0.547  1.00  0.00     0.029 A 
HETATM    2  C2  UNL     1      -1.459  -0.564   0.289  1.00  0.00     0.131 A 
HETATM    3  C3  UNL     1      -0.688   0.563   0.114  1.00  0.00     0.029 A 
HETATM    4  C4  UNL     1       0.737   0.512   0.176  1.00  0.00     0.019 A 
HETATM    5  C5  UNL     1       1.380  -0.719   0.432  1.00  0.00     0.082 A 
HETATM    6  C6  UNL     1       0.573  -1.881   0.619  1.00  0.00     0.021 A 
HETATM    7  N1  UNL     1       2.749  -0.837   0.488  1.00  0.00    -0.244 NA
HETATM    8  C7  UNL     1       3.447   0.253   0.273  1.00  0.00     0.095 A 
HETATM    9  C8  UNL     1       2.886   1.529   0.005  1.00  0.00     0.020 A 
HETATM   10  C9  UNL     1       1.523   1.684  -0.040  1.00  0.00     0.001 A 
HETATM   11  C10 UNL     1       3.958   2.559  -0.224  1.00  0.00     0.138 A 
HETATM   12  N2  UNL     1       5.192   1.764  -0.092  1.00  0.00    -0.290 N 
HETATM   13  C11 UNL     1       4.895   0.445   0.217  1.00  0.00     0.080 A 
HETATM   14  C12 UNL     1       5.925  -0.432   0.383  1.00  0.00     0.017 A 
HETATM   15  C13 UNL     1       7.293   0.036   0.225  1.00  0.00     0.019 A 
HETATM   16  C14 UNL     1       7.550   1.335  -0.104  1.00  0.00     0.063 A 
HETATM   17  C15 UNL     1       6.430   2.283  -0.276  1.00  0.00     0.259 A 
HETATM   18  O1  UNL     1       6.607   3.467  -0.581  1.00  0.00    -0.267 OA
HETATM   19  C16 UNL     1       8.971   1.759  -0.325  1.00  0.00     0.183 C 
HETATM   20  O2  UNL     1       9.870   1.136   0.561  1.00  0.00    -0.295 OA
HETATM   21  C17 UNL     1       9.745  -0.182   0.871  1.00  0.00     0.304 C 
HETATM   22  C18 UNL     1       8.479  -0.895   0.365  1.00  0.00     0.222 C 
HETATM   23  O3  UNL     1       8.143  -1.898   1.317  1.00  0.00    -0.211 OA
HETATM   24  O4  UNL     1      10.585  -0.757   1.532  1.00  0.00    -0.261 OA
HETATM   25  O5  UNL     1      -2.815  -0.496   0.213  1.00  0.00    -0.190 OA
ENDROOT
BRANCH  22  26
HETATM   26  C19 UNL     1       8.837  -1.593  -0.954  1.00  0.00     0.045 C 
HETATM   27  C20 UNL     1       7.720  -2.464  -1.544  1.00  0.00     0.004 C 
ENDBRANCH  22  26
TORSDOF 1
