REMARK  1 active torsions:
REMARK  status: ('A' for Active; 'I' for Inactive)
REMARK    1  A    between atoms: C22_25  and  C23_26 
ROOT
HETATM    1  C1  UNL     1      -2.484  -0.776   0.398  1.00  0.00     0.033 C 
HETATM    2  C2  UNL     1      -2.283  -2.232   0.805  1.00  0.00     0.152 C 
HETATM    3  C3  UNL     1      -1.261  -2.970  -0.088  1.00  0.00     0.028 C 
HETATM    4  C4  UNL     1       0.098  -2.205  -0.009  1.00  0.00     0.002 C 
HETATM    5  C5  UNL     1      -0.036  -0.714  -0.338  1.00  0.00     0.000 A 
HETATM    6  C6  UNL     1      -1.148  -0.028   0.456  1.00  0.00     0.003 C 
HETATM    7  C7  UNL     1       1.256   0.050  -0.595  1.00  0.00     0.000 A 
HETATM    8  C8  UNL     1       2.559  -0.742  -0.570  1.00  0.00     0.003 C 
HETATM    9  C9  UNL     1       2.435  -2.146  -1.183  1.00  0.00     0.000 C 
HETATM   10  C10 UNL     1       1.268  -2.983  -0.645  1.00  0.00     0.000 C 
HETATM   11  C11 UNL     1       3.819   0.034  -1.099  1.00  0.00     0.033 C 
HETATM   12  C12 UNL     1       3.747   1.590  -0.894  1.00  0.00     0.007 C 
HETATM   13  C13 UNL     1       2.825   1.859   0.316  1.00  0.00     0.000 C 
HETATM   14  C14 UNL     1       1.375   1.425   0.056  1.00  0.00     0.000 C 
HETATM   15  C15 UNL     1       5.240   2.002  -0.684  1.00  0.00     0.057 C 
HETATM   16  C16 UNL     1       5.833   0.861   0.126  1.00  0.00     0.216 C 
HETATM   17  C17 UNL     1       5.047  -0.383  -0.240  1.00  0.00     0.203 C 
HETATM   18  O1  UNL     1       5.853  -1.322  -0.914  1.00  0.00    -0.218 OA
HETATM   19  O2  UNL     1       5.704   1.210   1.479  1.00  0.00    -0.330 OA
HETATM   20  C18 UNL     1       6.837   1.981   1.704  1.00  0.00     0.177 C 
HETATM   21  C19 UNL     1       6.702   3.320   0.971  1.00  0.00     0.182 C 
HETATM   22  C20 UNL     1       5.543   3.375  -0.041  1.00  0.00     0.038 C 
HETATM   23  C21 UNL     1       5.803   4.466  -1.096  1.00  0.00     0.003 C 
HETATM   24  O3  UNL     1       6.530   4.346   1.923  1.00  0.00    -0.221 OA
HETATM   25  C22 UNL     1       7.886   1.098   1.062  1.00  0.00     0.175 C 
HETATM   26  O5  UNL     1       7.218   0.712  -0.100  1.00  0.00    -0.330 OA
HETATM   27  C26 UNL     1       3.172   2.385  -2.090  1.00  0.00     0.000 C 
HETATM   28  C27 UNL     1       4.072  -0.252  -2.602  1.00  0.00     0.003 C 
HETATM   29  C28 UNL     1       0.260  -0.174  -1.713  1.00  0.00     0.000 A 
HETATM   30  C29 UNL     1      -1.110  -4.413   0.448  1.00  0.00     0.003 C 
HETATM   31  C30 UNL     1      -1.765  -3.049  -1.547  1.00  0.00     0.003 C 
HETATM   32  O6  UNL     1      -3.534  -2.879   0.798  1.00  0.00    -0.224 OA
ENDROOT
BRANCH  25  33
HETATM   33  C23 UNL     1       8.377  -0.128   1.848  1.00  0.00     0.154 C 
HETATM   34  C24 UNL     1       9.344  -0.963   1.001  1.00  0.00     0.036 C 
HETATM   35  O4  UNL     1       7.296  -0.956   2.191  1.00  0.00    -0.223 OA
HETATM   36  C25 UNL     1       9.075   0.277   3.151  1.00  0.00     0.036 C 
ENDBRANCH  25  33
TORSDOF 1
