REMARK  0 active torsions:
REMARK  status: ('A' for Active; 'I' for Inactive)
ROOT
HETATM    1  C1  UNL     1       1.280  -1.910  -0.368  1.00  0.00     0.000 A 
HETATM    2  C2  UNL     1       0.163  -2.337  -1.087  1.00  0.00     0.002 A 
HETATM    3  C3  UNL     1      -0.964  -1.519  -1.160  1.00  0.00     0.025 A 
HETATM    4  C4  UNL     1      -1.022  -0.268  -0.530  1.00  0.00     0.105 A 
HETATM    5  C5  UNL     1       0.111   0.149   0.196  1.00  0.00     0.048 A 
HETATM    6  C6  UNL     1       1.250  -0.671   0.270  1.00  0.00     0.004 A 
HETATM    7  C7  UNL     1       0.094   1.448   0.877  1.00  0.00     0.138 A 
HETATM    8  C8  UNL     1      -1.036   2.184   0.770  1.00  0.00     0.096 A 
HETATM    9  C9  UNL     1      -2.187   1.677  -0.008  1.00  0.00     0.302 A 
HETATM   10  O1  UNL     1      -2.163   0.476  -0.648  1.00  0.00    -0.273 OA
HETATM   11  O2  UNL     1      -3.192   2.383  -0.068  1.00  0.00    -0.259 OA
HETATM   12  O3  UNL     1       1.160   1.904   1.588  1.00  0.00    -0.190 OA
ENDROOT
TORSDOF 0
