REMARK  4 active torsions:
REMARK  status: ('A' for Active; 'I' for Inactive)
REMARK    1  A    between atoms: C15_15  and  C18_19 
REMARK    2  A    between atoms: C19_20  and  C20_21 
REMARK    3  A    between atoms: C20_21  and  C21_22 
REMARK    4  A    between atoms: C21_22  and  C22_23 
ROOT
HETATM    1  C1  UNL     1      -1.438  -0.873  -2.151  1.00  0.00     0.065 C 
HETATM    2  C2  UNL     1      -2.208  -2.163  -1.933  1.00  0.00     0.150 C 
HETATM    3  C3  UNL     1      -2.001  -2.875  -0.599  1.00  0.00     0.051 C 
HETATM    4  C4  UNL     1      -0.593  -2.478  -0.045  1.00  0.00     0.006 C 
HETATM    5  C5  UNL     1      -0.323  -0.949   0.167  1.00  0.00     0.001 C 
HETATM    6  C6  UNL     1      -1.198  -0.135  -0.830  1.00  0.00     0.008 C 
HETATM    7  C7  UNL     1       1.172  -0.488  -0.011  1.00  0.00     0.000 C 
HETATM    8  C8  UNL     1       2.279  -1.582   0.095  1.00  0.00     0.000 C 
HETATM    9  C9  UNL     1       1.899  -2.627  -0.970  1.00  0.00     0.000 C 
HETATM   10  C10 UNL     1       0.511  -3.256  -0.806  1.00  0.00     0.000 C 
HETATM   11  C11 UNL     1       3.691  -0.961  -0.235  1.00  0.00     0.003 C 
HETATM   12  C12 UNL     1       3.940   0.255   0.687  1.00  0.00     0.006 C 
HETATM   13  C13 UNL     1       2.929   1.370   0.444  1.00  0.00     0.000 C 
HETATM   14  C14 UNL     1       1.534   0.808   0.759  1.00  0.00     0.000 C 
HETATM   15  C15 UNL     1       5.426   0.608   0.551  1.00  0.00     0.048 C 
HETATM   16  C16 UNL     1       6.090  -0.750   0.270  1.00  0.00     0.156 C 
HETATM   17  C17 UNL     1       4.955  -1.779   0.134  1.00  0.00     0.033 C 
HETATM   18  O1  UNL     1       6.976  -1.118   1.299  1.00  0.00    -0.223 OA
HETATM   19  C26 UNL     1       3.853  -0.592  -1.738  1.00  0.00     0.000 C 
HETATM   20  C27 UNL     1       2.274  -2.286   1.472  1.00  0.00     0.000 C 
HETATM   21  C28 UNL     1      -0.787  -0.568   1.602  1.00  0.00     0.000 C 
HETATM   22  C29 UNL     1      -2.140  -4.408  -0.798  1.00  0.00     0.007 C 
HETATM   23  C30 UNL     1      -3.189  -2.506   0.321  1.00  0.00     0.007 C 
HETATM   24  O2  UNL     1      -2.952  -2.595  -2.784  1.00  0.00    -0.296 OA
ENDROOT
BRANCH  15  25
HETATM   25  C18 UNL     1       6.021   1.420   1.689  1.00  0.00    -0.046 C 
HETATM   26  C19 UNL     1       6.789   2.505   1.479  1.00  0.00    -0.034 C 
HETATM   27  C25 UNL     1       5.700   1.003   3.110  1.00  0.00     0.026 C 
BRANCH  26  28
HETATM   28  C20 UNL     1       7.125   3.102   0.133  1.00  0.00     0.030 C 
BRANCH  28  29
HETATM   29  C21 UNL     1       7.950   4.394   0.251  1.00  0.00     0.027 C 
BRANCH  29  30
HETATM   30  C22 UNL     1       8.253   5.124  -1.041  1.00  0.00    -0.044 C 
HETATM   31  C23 UNL     1       9.010   6.422  -0.876  1.00  0.00     0.026 C 
HETATM   32  C24 UNL     1       7.891   4.688  -2.259  1.00  0.00    -0.009 C 
ENDBRANCH  29  30
ENDBRANCH  28  29
ENDBRANCH  26  28
ENDBRANCH  15  25
TORSDOF 4
