REMARK  14 active torsions:
REMARK  status: ('A' for Active; 'I' for Inactive)
REMARK    1  A    between atoms: C1_1  and  O10_48 
REMARK    2  A    between atoms: C8_8  and  O1_9 
REMARK    3  A    between atoms: O1_9  and  C9_10 
REMARK    4  A    between atoms: C11_13  and  O5_32 
REMARK    5  A    between atoms: C13_15  and  O3_18 
REMARK    6  A    between atoms: O3_18  and  C16_19 
REMARK    7  A    between atoms: C16_19  and  C17_21 
REMARK    8  A    between atoms: C17_21  and  C18_22 
REMARK    9  A    between atoms: C18_22  and  N1_23 
REMARK   10  A    between atoms: C18_22  and  C21_26 
REMARK   11  A    between atoms: O5_32  and  C27_33 
REMARK   12  A    between atoms: C31_39  and  O8_42 
REMARK   13  A    between atoms: O8_42  and  C34_43 
REMARK   14  A    between atoms: O10_48  and  C38_49 
ROOT
HETATM    1  C1  UNL     1       4.558  -0.731   2.370  1.00  0.00     0.170 C 
HETATM    2  C2  UNL     1       3.170  -0.179   2.618  1.00  0.00    -0.021 C 
HETATM    3  C3  UNL     1       3.084   1.311   2.916  1.00  0.00     0.019 C 
HETATM    4  C4  UNL     1       1.995   1.800   1.938  1.00  0.00     0.037 C 
HETATM    5  C5  UNL     1       2.115   1.464   0.425  1.00  0.00     0.156 C 
HETATM    6  C6  UNL     1       3.478   1.176  -0.252  1.00  0.00     0.056 C 
HETATM    7  C7  UNL     1       4.103  -0.276  -0.287  1.00  0.00     0.060 C 
HETATM    8  C8  UNL     1       5.082  -0.547   0.921  1.00  0.00     0.158 C 
HETATM    9  C11 UNL     1       4.933  -0.426  -1.618  1.00  0.00     0.130 C 
HETATM   10  C12 UNL     1       4.174  -0.136  -2.930  1.00  0.00     0.065 C 
HETATM   11  C13 UNL     1       3.018   0.839  -2.741  1.00  0.00     0.145 C 
HETATM   12  C14 UNL     1       3.459   1.781  -1.651  1.00  0.00    -0.015 C 
HETATM   13  C15 UNL     1       3.824   3.054  -1.879  1.00  0.00    -0.007 C 
HETATM   14  C29 UNL     1       3.064  -1.420  -0.370  1.00  0.00     0.005 C 
HETATM   15  O7  UNL     1       1.510   2.572  -0.220  1.00  0.00    -0.223 OA
HETATM   16  C30 UNL     1       0.633   1.285   2.459  1.00  0.00     0.037 C 
HETATM   17  C31 UNL     1       0.642  -0.236   2.680  1.00  0.00     0.142 C 
HETATM   18  C32 UNL     1       2.022  -0.895   2.644  1.00  0.00    -0.022 C 
HETATM   19  C33 UNL     1       1.911  -2.410   2.595  1.00  0.00     0.028 C 
HETATM   20  C36 UNL     1       2.699   1.432   4.421  1.00  0.00     0.004 C 
HETATM   21  C37 UNL     1       4.349   2.212   2.878  1.00  0.00     0.004 C 
ENDROOT
BRANCH  11  22
HETATM   22  O3  UNL     1       2.709   1.488  -3.950  1.00  0.00    -0.300 OA
BRANCH  22  23
HETATM   23  C16 UNL     1       1.449   1.643  -4.446  1.00  0.00     0.274 C 
HETATM   24  O4  UNL     1       1.226   2.443  -5.332  1.00  0.00    -0.264 OA
BRANCH  23  25
HETATM   25  C17 UNL     1       0.370   0.653  -4.012  1.00  0.00     0.134 C 
BRANCH  25  26
HETATM   26  C18 UNL     1      -0.434   0.970  -2.730  1.00  0.00     0.252 C 
BRANCH  26  27
HETATM   27  N1  UNL     1      -0.828   2.368  -2.551  1.00  0.00     0.144 N 
HETATM   28  C19 UNL     1      -1.546   2.579  -1.298  1.00  0.00     0.286 C 
HETATM   29  C20 UNL     1      -1.610   2.929  -3.643  1.00  0.00     0.286 C 
ENDBRANCH  26  27
BRANCH  26  30
HETATM   30  C21 UNL     1      -1.579  -0.010  -2.508  1.00  0.00     0.009 A 
HETATM   31  C22 UNL     1      -1.662  -0.741  -1.314  1.00  0.00    -0.002 A 
HETATM   32  C23 UNL     1      -2.690  -1.660  -1.093  1.00  0.00    -0.000 A 
HETATM   33  C24 UNL     1      -3.662  -1.871  -2.072  1.00  0.00    -0.000 A 
HETATM   34  C25 UNL     1      -3.590  -1.162  -3.271  1.00  0.00    -0.000 A 
HETATM   35  C26 UNL     1      -2.555  -0.249  -3.484  1.00  0.00    -0.002 A 
ENDBRANCH  26  30
ENDBRANCH  25  26
ENDBRANCH  23  25
ENDBRANCH  22  23
ENDBRANCH  11  22
BRANCH   9  36
HETATM   36  O5  UNL     1       5.476  -1.718  -1.697  1.00  0.00    -0.304 OA
BRANCH  36  37
HETATM   37  C27 UNL     1       6.480  -1.962  -2.581  1.00  0.00     0.272 C 
HETATM   38  C28 UNL     1       6.852  -3.431  -2.540  1.00  0.00     0.106 C 
HETATM   39  O6  UNL     1       6.984  -1.139  -3.311  1.00  0.00    -0.264 OA
ENDBRANCH  36  37
ENDBRANCH   9  36
BRANCH   8  40
HETATM   40  O1  UNL     1       6.102   0.423   0.939  1.00  0.00    -0.301 OA
BRANCH  40  41
HETATM   41  C9  UNL     1       7.383   0.099   0.609  1.00  0.00     0.272 C 
HETATM   42  C10 UNL     1       8.277   1.308   0.801  1.00  0.00     0.106 C 
HETATM   43  O2  UNL     1       7.760  -0.981   0.214  1.00  0.00    -0.264 OA
ENDBRANCH  40  41
ENDBRANCH   8  40
BRANCH   1  44
HETATM   44  O10 UNL     1       4.696  -2.066   2.804  1.00  0.00    -0.298 OA
BRANCH  44  45
HETATM   45  C38 UNL     1       5.936  -2.514   3.142  1.00  0.00     0.273 C 
HETATM   46  C39 UNL     1       5.883  -3.994   3.462  1.00  0.00     0.106 C 
HETATM   47  O11 UNL     1       6.938  -1.835   3.161  1.00  0.00    -0.264 OA
ENDBRANCH  44  45
ENDBRANCH   1  44
BRANCH  17  48
HETATM   48  O8  UNL     1      -0.028  -0.578   3.873  1.00  0.00    -0.300 OA
BRANCH  48  49
HETATM   49  C34 UNL     1      -1.330  -0.976   3.938  1.00  0.00     0.273 C 
HETATM   50  O9  UNL     1      -1.872  -1.226   4.994  1.00  0.00    -0.264 OA
HETATM   51  C35 UNL     1      -2.076  -1.128   2.625  1.00  0.00     0.106 C 
ENDBRANCH  48  49
ENDBRANCH  17  48
TORSDOF 14
