REMARK  1 active torsions:
REMARK  status: ('A' for Active; 'I' for Inactive)
REMARK    1  A    between atoms: C12_13  and  C19_22 
ROOT
HETATM    1  C1  UNL     1      -2.277  -2.833  -0.914  1.00  0.00     0.002 A 
HETATM    2  C2  UNL     1      -0.965  -3.192  -1.238  1.00  0.00     0.019 A 
HETATM    3  C3  UNL     1       0.063  -2.277  -1.005  1.00  0.00     0.077 A 
HETATM    4  C4  UNL     1      -0.241  -1.028  -0.422  1.00  0.00     0.001 A 
HETATM    5  C5  UNL     1      -1.544  -0.658  -0.112  1.00  0.00    -0.002 A 
HETATM    6  C6  UNL     1      -2.566  -1.582  -0.357  1.00  0.00    -0.000 A 
HETATM    7  C7  UNL     1       0.995  -0.204  -0.349  1.00  0.00     0.068 A 
HETATM    8  C8  UNL     1       2.145  -1.529  -0.818  1.00  0.00     0.068 C 
HETATM    9  N1  UNL     1       1.486  -2.539  -1.245  1.00  0.00    -0.252 NA
HETATM   10  C9  UNL     1       3.911  -1.263  -0.587  1.00  0.00     0.151 C 
HETATM   11  C10 UNL     1       4.436  -0.168   0.562  1.00  0.00     0.036 C 
HETATM   12  C11 UNL     1       3.468   1.208   0.618  1.00  0.00     0.012 C 
HETATM   13  C12 UNL     1       1.667   1.095   0.800  1.00  0.00     0.058 C 
HETATM   14  C13 UNL     1       1.617   0.192   1.949  1.00  0.00     0.100 C 
HETATM   15  N2  UNL     1       2.357  -0.539   0.952  1.00  0.00    -0.369 N 
HETATM   16  C14 UNL     1       2.461   0.371  -0.726  1.00  0.00     0.071 A 
HETATM   17  C15 UNL     1       3.582   1.385  -0.872  1.00  0.00     0.049 C 
HETATM   18  C16 UNL     1       4.676   0.695  -1.740  1.00  0.00     0.144 C 
HETATM   19  O1  UNL     1       4.610  -0.745  -1.728  1.00  0.00    -0.351 OA
HETATM   20  C17 UNL     1       1.161   0.732  -1.464  1.00  0.00     0.032 A 
HETATM   21  C18 UNL     1       2.063  -1.949   1.384  1.00  0.00     0.121 C 
ENDROOT
BRANCH  13  22
HETATM   22  C19 UNL     1       0.892   2.395   1.056  1.00  0.00     0.155 C 
HETATM   23  C20 UNL     1       1.400   3.653   0.353  1.00  0.00     0.036 C 
HETATM   24  O2  UNL     1       0.922   2.690   2.437  1.00  0.00    -0.223 OA
ENDBRANCH  13  22
TORSDOF 1
