REMARK  2 active torsions:
REMARK  status: ('A' for Active; 'I' for Inactive)
REMARK    1  A    between atoms: N1_9  and  O1_10 
REMARK    2  A    between atoms: C17_23  and  C18_24 
ROOT
HETATM    1  C1  UNL     1      -1.669  -0.406   0.898  1.00  0.00    -0.000 A 
HETATM    2  C2  UNL     1      -2.149  -1.720   0.866  1.00  0.00     0.002 A 
HETATM    3  C3  UNL     1      -1.337  -2.750   0.391  1.00  0.00     0.019 A 
HETATM    4  C4  UNL     1      -0.053  -2.421  -0.051  1.00  0.00     0.087 A 
HETATM    5  C5  UNL     1       0.444  -1.113  -0.034  1.00  0.00     0.006 A 
HETATM    6  C6  UNL     1      -0.377  -0.097   0.458  1.00  0.00    -0.002 A 
HETATM    7  C7  UNL     1       1.890  -1.032  -0.517  1.00  0.00     0.123 C 
HETATM    8  C8  UNL     1       2.040  -2.509  -0.953  1.00  0.00     0.266 C 
HETATM    9  N1  UNL     1       0.945  -3.258  -0.572  1.00  0.00    -0.185 N 
HETATM   10  O2  UNL     1       2.973  -2.977  -1.607  1.00  0.00    -0.269 OA
HETATM   11  C10 UNL     1       2.866  -0.710   0.641  1.00  0.00     0.158 C 
HETATM   12  C11 UNL     1       3.113   0.441   1.632  1.00  0.00     0.182 C 
HETATM   13  O3  UNL     1       1.980   0.680   2.435  1.00  0.00    -0.221 OA
HETATM   14  C12 UNL     1       3.591   1.722   0.869  1.00  0.00     0.071 C 
HETATM   15  C13 UNL     1       4.114   1.295  -0.530  1.00  0.00     0.068 C 
HETATM   16  C14 UNL     1       4.869  -0.022  -0.458  1.00  0.00     0.144 C 
HETATM   17  O4  UNL     1       4.138  -1.052   0.159  1.00  0.00    -0.353 OA
HETATM   18  C15 UNL     1       2.875   1.287  -1.470  1.00  0.00     0.260 C 
HETATM   19  C16 UNL     1       2.164  -0.085  -1.746  1.00  0.00     0.052 C 
HETATM   20  N2  UNL     1       1.956   2.248  -0.850  1.00  0.00     0.335 N 
HETATM   21  C17 UNL     1       2.504   2.729   0.426  1.00  0.00     0.259 C 
ENDROOT
BRANCH   9  22
HETATM   22  O1  UNL     1       0.847  -4.569  -0.648  1.00  0.00    -0.248 OA
HETATM   23  C9  UNL     1       1.576  -5.225   0.367  1.00  0.00     0.209 C 
ENDBRANCH   9  22
BRANCH  21  24
HETATM   24  C18 UNL     1       3.079   4.151   0.254  1.00  0.00     0.036 C 
HETATM   25  C19 UNL     1       2.011   5.183  -0.137  1.00  0.00     0.002 C 
ENDBRANCH  21  24
TORSDOF 2
