REMARK  12 active torsions:
REMARK  status: ('A' for Active; 'I' for Inactive)
REMARK    1  A    between atoms: C2_2  and  C3_3 
REMARK    2  A    between atoms: C3_3  and  C4_4 
REMARK    3  A    between atoms: C4_4  and  C5_5 
REMARK    4  A    between atoms: C5_5  and  C6_6 
REMARK    5  A    between atoms: C6_6  and  C7_7 
REMARK    6  A    between atoms: C7_7  and  C8_8 
REMARK    7  A    between atoms: C8_8  and  C9_9 
REMARK    8  A    between atoms: C9_9  and  C10_10 
REMARK    9  A    between atoms: C10_10  and  C11_11 
REMARK   10  A    between atoms: C11_11  and  C12_12 
REMARK   11  A    between atoms: C12_12  and  O1_13 
REMARK   12  A    between atoms: O1_13  and  C13_14 
ROOT
HETATM    1  C13 UNL     1      -1.797  -1.655  -0.640  1.00  0.00     0.124 C 
HETATM    2  C14 UNL     1      -3.296  -1.440   0.302  1.00  0.00     0.026 C 
HETATM    3  C15 UNL     1      -4.486  -0.285  -0.508  1.00  0.00     0.002 C 
HETATM    4  C16 UNL     1      -4.155   0.569  -2.127  1.00  0.00     0.001 C 
HETATM    5  C17 UNL     1      -2.824  -0.132  -3.181  1.00  0.00     0.003 C 
HETATM    6  C18 UNL     1      -1.688  -1.214  -2.357  1.00  0.00     0.030 C 
HETATM    7  C19 UNL     1      -3.285   1.692  -1.765  1.00  0.00     0.005 C 
HETATM    8  C20 UNL     1      -2.566   0.469  -1.149  1.00  0.00     0.004 C 
HETATM    9  C21 UNL     1      -3.629  -1.188  -1.681  1.00  0.00     0.000 C 
HETATM   10  C22 UNL     1      -5.126  -1.331  -1.322  1.00  0.00     0.000 C 
HETATM   11  C23 UNL     1      -0.999   1.290  -1.545  1.00  0.00     0.015 C 
HETATM   12  C24 UNL     1      -1.060   2.859  -1.116  1.00  0.00    -0.049 C 
HETATM   13  C25 UNL     1      -2.215   3.529  -0.875  1.00  0.00    -0.035 C 
HETATM   14  C26 UNL     1      -3.605   2.949  -0.996  1.00  0.00     0.025 C 
HETATM   15  C27 UNL     1       0.256   3.664  -1.062  1.00  0.00     0.018 C 
HETATM   16  C28 UNL     1       1.307   3.017  -0.138  1.00  0.00     0.003 C 
HETATM   17  C29 UNL     1       1.541   1.589  -0.666  1.00  0.00     0.001 C 
HETATM   18  C30 UNL     1       0.255   0.749  -0.756  1.00  0.00     0.004 C 
HETATM   19  C31 UNL     1       2.656   3.773  -0.224  1.00  0.00     0.000 C 
HETATM   20  C32 UNL     1       2.538   5.283   0.019  1.00  0.00     0.000 C 
HETATM   21  C33 UNL     1       1.500   5.947  -0.905  1.00  0.00     0.000 C 
HETATM   22  C34 UNL     1       0.158   5.185  -0.805  1.00  0.00     0.004 C 
HETATM   23  C35 UNL     1       1.284   7.407  -0.443  1.00  0.00     0.000 C 
HETATM   24  C36 UNL     1       2.018   6.002  -2.360  1.00  0.00     0.000 C 
HETATM   25  C37 UNL     1       0.851   2.987   1.337  1.00  0.00     0.000 C 
HETATM   26  C38 UNL     1      -0.480   1.490  -3.022  1.00  0.00     0.004 C 
HETATM   27  C39 UNL     1      -2.452   0.903   0.382  1.00  0.00     0.000 C 
HETATM   28  C40 UNL     1      -5.333   1.096  -2.966  1.00  0.00     0.000 C 
HETATM   29  C41 UNL     1      -5.621   0.273   0.373  1.00  0.00     0.000 C 
HETATM   30  C42 UNL     1      -3.146  -1.242   1.869  1.00  0.00     0.002 C 
HETATM   31  C43 UNL     1      -3.827  -2.947   0.501  1.00  0.00     0.002 C 
ENDROOT
BRANCH   1  32
HETATM   32  O1  UNL     1      -1.335  -2.973  -0.449  1.00  0.00    -0.304 OA
BRANCH  32  33
HETATM   33  C12 UNL     1      -0.095  -3.310  -0.900  1.00  0.00     0.272 C 
HETATM   34  O2  UNL     1       0.594  -2.639  -1.633  1.00  0.00    -0.264 OA
BRANCH  33  35
HETATM   35  C11 UNL     1       0.438  -4.586  -0.261  1.00  0.00     0.096 C 
BRANCH  35  36
HETATM   36  C10 UNL     1       1.838  -4.311   0.317  1.00  0.00     0.010 C 
BRANCH  36  37
HETATM   37  C9  UNL     1       2.669  -5.564   0.626  1.00  0.00     0.001 C 
BRANCH  37  38
HETATM   38  C8  UNL     1       4.013  -5.246   1.315  1.00  0.00     0.000 C 
BRANCH  38  39
HETATM   39  C7  UNL     1       4.878  -4.206   0.579  1.00  0.00     0.000 C 
BRANCH  39  40
HETATM   40  C6  UNL     1       6.215  -3.869   1.261  1.00  0.00     0.000 C 
BRANCH  40  41
HETATM   41  C5  UNL     1       6.188  -2.694   2.261  1.00  0.00     0.000 C 
BRANCH  41  42
HETATM   42  C4  UNL     1       5.417  -2.953   3.567  1.00  0.00     0.000 C 
BRANCH  42  43
HETATM   43  C3  UNL     1       3.961  -2.454   3.540  1.00  0.00     0.000 C 
BRANCH  43  44
HETATM   44  C2  UNL     1       3.139  -3.038   4.700  1.00  0.00     0.000 C 
HETATM   45  C1  UNL     1       1.655  -2.661   4.603  1.00  0.00     0.000 C 
ENDBRANCH  43  44
ENDBRANCH  42  43
ENDBRANCH  41  42
ENDBRANCH  40  41
ENDBRANCH  39  40
ENDBRANCH  38  39
ENDBRANCH  37  38
ENDBRANCH  36  37
ENDBRANCH  35  36
ENDBRANCH  33  35
ENDBRANCH  32  33
ENDBRANCH   1  32
TORSDOF 12
