REMARK  6 active torsions:
REMARK  status: ('A' for Active; 'I' for Inactive)
REMARK       I    between atoms: C1_2  and  N2_3 
REMARK    1  A    between atoms: N2_3  and  C2_4 
REMARK    2  A    between atoms: C2_4  and  C3_5 
REMARK    3  A    between atoms: C3_5  and  C4_6 
REMARK    4  A    between atoms: C4_6  and  C5_7 
REMARK    5  A    between atoms: C5_7  and  C6_8 
REMARK    6  A    between atoms: C6_8  and  C7_9 
ROOT
HETATM    1  C4  UNL     1       3.707   0.234  -0.144  1.00  0.00     0.157 C 
HETATM    2  O3  UNL     1       3.806   1.171   0.901  1.00  0.00    -0.223 OA
ENDROOT
BRANCH   1   3
HETATM    3  C3  UNL     1       2.341  -0.455  -0.084  1.00  0.00     0.059 C 
BRANCH   3   4
HETATM    4  C2  UNL     1       1.167   0.529  -0.201  1.00  0.00     0.131 C 
BRANCH   4   5
HETATM    5  N2  UNL     1      -0.120  -0.196  -0.215  1.00  0.00    -0.241 NA
HETATM    6  C1  UNL     1      -1.357   0.429  -0.261  1.00  0.00     0.225 C 
HETATM    7  N1  UNL     1      -2.448  -0.420  -0.263  1.00  0.00    -0.060 NA
HETATM    8  N4  UNL     1      -1.518   1.728  -0.300  1.00  0.00    -0.270 NA
HETATM    9  H1  UNL     1      -0.623   2.217  -0.292  1.00  0.00     0.189 HD
ENDBRANCH   4   5
ENDBRANCH   3   4
ENDBRANCH   1   3
BRANCH   1  10
HETATM   10  C5  UNL     1       4.862  -0.768  -0.050  1.00  0.00     0.084 C 
BRANCH  10  11
HETATM   11  C6  UNL     1       6.250  -0.104   0.002  1.00  0.00     0.390 C 
HETATM   12  N3  UNL     1       6.446   0.577   1.294  1.00  0.00     0.628 N 
BRANCH  11  13
HETATM   13  C7  UNL     1       7.382  -1.096  -0.203  1.00  0.00     0.224 C 
HETATM   14  O1  UNL     1       8.571  -0.472  -0.303  1.00  0.00    -0.646 OA
HETATM   15  O2  UNL     1       7.293  -2.297  -0.286  1.00  0.00    -0.646 OA
ENDBRANCH  11  13
ENDBRANCH  10  11
ENDBRANCH   1  10
TORSDOF 6
