REMARK  1 active torsions:
REMARK  status: ('A' for Active; 'I' for Inactive)
REMARK    1  A    between atoms: C19_19  and  C22_22 
ROOT
HETATM    1  C1  UNL     1      -1.550  -0.632  -2.544  1.00  0.00     0.000 C 
HETATM    2  C2  UNL     1      -2.593  -1.306  -1.650  1.00  0.00     0.000 C 
HETATM    3  C3  UNL     1      -1.938  -2.244  -0.608  1.00  0.00     0.000 C 
HETATM    4  C4  UNL     1      -0.485  -1.767  -0.254  1.00  0.00     0.000 C 
HETATM    5  C5  UNL     1      -0.216  -0.235  -0.317  1.00  0.00     0.000 C 
HETATM    6  C6  UNL     1      -0.561   0.249  -1.761  1.00  0.00     0.000 C 
HETATM    7  C7  UNL     1       1.267   0.153   0.078  1.00  0.00     0.000 C 
HETATM    8  C8  UNL     1       2.390  -0.909  -0.106  1.00  0.00     0.000 C 
HETATM    9  C9  UNL     1       1.933  -1.819  -1.265  1.00  0.00     0.000 C 
HETATM   10  C10 UNL     1       0.617  -2.564  -0.996  1.00  0.00     0.000 C 
HETATM   11  C11 UNL     1       3.769  -0.156  -0.397  1.00  0.00     0.000 C 
HETATM   12  C12 UNL     1       3.870   1.196   0.413  1.00  0.00     0.000 C 
HETATM   13  C13 UNL     1       3.004   1.186   1.689  1.00  0.00     0.000 C 
HETATM   14  C14 UNL     1       1.519   0.845   1.436  1.00  0.00     0.000 C 
HETATM   15  C15 UNL     1       5.301   1.798   0.627  1.00  0.00     0.000 C 
HETATM   16  C16 UNL     1       6.320   0.691   0.962  1.00  0.00     0.002 C 
HETATM   17  C17 UNL     1       6.367  -0.414  -0.088  1.00  0.00     0.000 C 
HETATM   18  C18 UNL     1       4.984  -1.090  -0.131  1.00  0.00     0.000 C 
HETATM   19  C19 UNL     1       7.590   1.333   1.569  1.00  0.00     0.028 C 
HETATM   20  C20 UNL     1       7.071   2.698   2.084  1.00  0.00     0.002 C 
HETATM   21  C21 UNL     1       5.540   2.683   1.881  1.00  0.00     0.000 C 
HETATM   22  C25 UNL     1       5.686   2.684  -0.586  1.00  0.00     0.000 C 
HETATM   23  C26 UNL     1       3.858   0.186  -1.913  1.00  0.00     0.000 C 
HETATM   24  C27 UNL     1       2.492  -1.857   1.125  1.00  0.00     0.000 C 
HETATM   25  C28 UNL     1      -1.171   0.542   0.630  1.00  0.00     0.000 C 
HETATM   26  C29 UNL     1      -2.831  -2.320   0.660  1.00  0.00     0.000 C 
HETATM   27  C30 UNL     1      -1.995  -3.692  -1.169  1.00  0.00     0.000 C 
ENDROOT
BRANCH  19  28
HETATM   28  C22 UNL     1       8.946   1.387   0.834  1.00  0.00     0.127 C 
HETATM   29  O1  UNL     1       9.842   2.029   1.712  1.00  0.00    -0.226 OA
HETATM   30  C23 UNL     1       8.981   2.182  -0.471  1.00  0.00     0.033 C 
HETATM   31  C24 UNL     1       9.549   0.001   0.568  1.00  0.00     0.033 C 
ENDBRANCH  19  28
TORSDOF 1
