REMARK  2 active torsions:
REMARK  status: ('A' for Active; 'I' for Inactive)
REMARK    1  A    between atoms: C2_2  and  C8_11 
REMARK    2  A    between atoms: C4_4  and  C7_8 
ROOT
HETATM    1  C1  UNL     1       0.461   1.545  -0.450  1.00  0.00     0.034 A 
HETATM    2  C2  UNL     1       1.017   0.292  -0.149  1.00  0.00     0.067 A 
HETATM    3  C3  UNL     1       0.177  -0.782   0.171  1.00  0.00     0.012 A 
HETATM    4  C4  UNL     1      -1.211  -0.595   0.184  1.00  0.00     0.067 A 
HETATM    5  C5  UNL     1      -1.746   0.666  -0.122  1.00  0.00     0.034 A 
HETATM    6  C6  UNL     1      -0.922   1.749  -0.443  1.00  0.00     0.131 A 
HETATM    7  O1  UNL     1      -1.440   2.972  -0.735  1.00  0.00    -0.190 OA
ENDROOT
BRANCH   2   8
HETATM    8  C8  UNL     1       2.492   0.103  -0.167  1.00  0.00     0.211 C 
HETATM    9  O4  UNL     1       3.080  -1.077   0.117  1.00  0.00    -0.644 OA
HETATM   10  O5  UNL     1       3.237   1.034  -0.450  1.00  0.00    -0.644 OA
ENDBRANCH   2   8
BRANCH   4  11
HETATM   11  C7  UNL     1      -2.110  -1.729   0.524  1.00  0.00     0.211 C 
HETATM   12  O2  UNL     1      -3.327  -1.586   0.526  1.00  0.00    -0.644 OA
HETATM   13  O3  UNL     1      -1.649  -2.955   0.846  1.00  0.00    -0.644 OA
ENDBRANCH   4  11
TORSDOF 2
