REMARK  6 active torsions:
REMARK  status: ('A' for Active; 'I' for Inactive)
REMARK    1  A    between atoms: C2_2  and  C17_20 
REMARK    2  A    between atoms: C4_4  and  C12_14 
REMARK    3  A    between atoms: C6_6  and  C7_7 
REMARK    4  A    between atoms: C7_7  and  C8_8 
REMARK    5  A    between atoms: C8_8  and  C9_9 
REMARK    6  A    between atoms: C13_15  and  C14_16 
ROOT
HETATM    1  C1  UNL     1       3.635   0.867  -1.148  1.00  0.00     0.008 A 
HETATM    2  C2  UNL     1       4.054  -0.440  -0.883  1.00  0.00     0.035 A 
HETATM    3  C3  UNL     1       3.109  -1.359  -0.411  1.00  0.00     0.005 A 
HETATM    4  C4  UNL     1       1.772  -0.986  -0.230  1.00  0.00     0.025 A 
HETATM    5  C5  UNL     1       1.360   0.345  -0.440  1.00  0.00     0.134 A 
HETATM    6  C6  UNL     1       2.316   1.271  -0.900  1.00  0.00     0.060 A 
HETATM    7  O2  UNL     1       0.086   0.724  -0.141  1.00  0.00    -0.190 OA
ENDROOT
BRANCH   4   8
HETATM    8  C12 UNL     1       0.855  -2.041   0.261  1.00  0.00    -0.000 C 
HETATM    9  C13 UNL     1      -0.426  -2.182  -0.127  1.00  0.00     0.004 C 
BRANCH   9  10
HETATM   10  C14 UNL     1      -1.335  -3.309   0.320  1.00  0.00     0.145 C 
HETATM   11  O3  UNL     1      -2.657  -3.037  -0.103  1.00  0.00    -0.222 OA
HETATM   12  C15 UNL     1      -1.370  -3.449   1.843  1.00  0.00     0.038 C 
HETATM   13  C16 UNL     1      -0.904  -4.619  -0.343  1.00  0.00     0.038 C 
ENDBRANCH   9  10
ENDBRANCH   4   8
BRANCH   2  14
HETATM   14  C17 UNL     1       5.480  -0.810  -1.094  1.00  0.00     0.173 C 
HETATM   15  C18 UNL     1       5.984  -2.148  -0.582  1.00  0.00     0.077 C 
HETATM   16  O4  UNL     1       6.265  -0.040  -1.636  1.00  0.00    -0.291 OA
ENDBRANCH   2  14
BRANCH   6  17
HETATM   17  C7  UNL     1       1.946   2.705  -1.106  1.00  0.00     0.175 C 
HETATM   18  O1  UNL     1       0.797   3.024  -1.385  1.00  0.00    -0.291 OA
BRANCH  17  19
HETATM   19  C8  UNL     1       2.993   3.798  -0.919  1.00  0.00     0.069 C 
BRANCH  19  20
HETATM   20  C9  UNL     1       3.536   3.888   0.526  1.00  0.00     0.008 C 
HETATM   21  C10 UNL     1       5.040   3.573   0.613  1.00  0.00     0.001 C 
HETATM   22  C11 UNL     1       3.276   5.280   1.131  1.00  0.00     0.001 C 
ENDBRANCH  19  20
ENDBRANCH  17  19
ENDBRANCH   6  17
TORSDOF 6
