REMARK  4 active torsions:
REMARK  status: ('A' for Active; 'I' for Inactive)
REMARK    1  A    between atoms: C1_1  and  O7_22 
REMARK    2  A    between atoms: C7_8  and  C10_13 
REMARK    3  A    between atoms: O7_22  and  C16_23 
REMARK    4  A    between atoms: C17_25  and  C21_32 
ROOT
HETATM    1  C1  UNL     1       1.935   1.840   0.018  1.00  0.00     0.126 A 
HETATM    2  C2  UNL     1       2.378   3.173   0.053  1.00  0.00     0.179 A 
HETATM    3  C3  UNL     1       3.735   3.504   0.166  1.00  0.00     0.163 A 
HETATM    4  C4  UNL     1       4.678   2.470   0.280  1.00  0.00     0.091 A 
HETATM    5  C5  UNL     1       4.279   1.129   0.328  1.00  0.00     0.107 A 
HETATM    6  C6  UNL     1       2.915   0.855   0.201  1.00  0.00     0.051 A 
HETATM    7  O1  UNL     1       5.149   0.099   0.519  1.00  0.00    -0.305 OA
HETATM    8  C7  UNL     1       6.477   0.308   0.281  1.00  0.00     0.128 C 
HETATM    9  C8  UNL     1       7.018   1.547   0.183  1.00  0.00     0.192 C 
HETATM   10  C9  UNL     1       6.136   2.734   0.341  1.00  0.00     0.227 C 
HETATM   11  O2  UNL     1       6.604   3.866   0.409  1.00  0.00    -0.284 OA
HETATM   12  O3  UNL     1       8.315   1.794  -0.146  1.00  0.00    -0.185 OA
HETATM   13  O5  UNL     1       4.067   4.824   0.138  1.00  0.00    -0.188 OA
HETATM   14  O6  UNL     1       1.479   4.189  -0.062  1.00  0.00    -0.186 OA
ENDROOT
BRANCH   1  15
HETATM   15  O7  UNL     1       0.586   1.633  -0.137  1.00  0.00    -0.301 OA
BRANCH  15  16
HETATM   16  C16 UNL     1      -0.000   0.358   0.008  1.00  0.00     0.274 C 
HETATM   17  O8  UNL     1      -0.764   0.174  -1.165  1.00  0.00    -0.326 OA
HETATM   18  C17 UNL     1      -1.432  -1.063  -1.176  1.00  0.00     0.184 C 
HETATM   19  C18 UNL     1      -2.389  -1.140   0.009  1.00  0.00     0.215 C 
HETATM   20  C19 UNL     1      -1.638  -0.935   1.309  1.00  0.00     0.220 C 
HETATM   21  O11 UNL     1      -3.020  -2.395   0.072  1.00  0.00    -0.218 OA
HETATM   22  C20 UNL     1      -0.897   0.379   1.222  1.00  0.00     0.241 C 
HETATM   23  O10 UNL     1      -2.549  -0.903   2.378  1.00  0.00    -0.218 OA
HETATM   24  O9  UNL     1      -0.101   0.560   2.365  1.00  0.00    -0.215 OA
BRANCH  18  25
HETATM   25  C21 UNL     1      -2.158  -1.211  -2.505  1.00  0.00     0.214 C 
HETATM   26  O12 UNL     1      -1.216  -1.264  -3.559  1.00  0.00    -0.218 OA
ENDBRANCH  18  25
ENDBRANCH  15  16
ENDBRANCH   1  15
BRANCH   8  27
HETATM   27  C10 UNL     1       7.337  -0.895   0.135  1.00  0.00     0.025 A 
HETATM   28  C11 UNL     1       6.789  -2.066  -0.412  1.00  0.00     0.004 A 
HETATM   29  C12 UNL     1       7.532  -3.243  -0.494  1.00  0.00     0.028 A 
HETATM   30  C13 UNL     1       8.847  -3.305  -0.022  1.00  0.00     0.131 A 
HETATM   31  C14 UNL     1       9.381  -2.151   0.556  1.00  0.00     0.028 A 
HETATM   32  O4  UNL     1       9.569  -4.455  -0.083  1.00  0.00    -0.190 OA
HETATM   33  C15 UNL     1       8.640  -0.971   0.646  1.00  0.00     0.004 A 
ENDBRANCH   8  27
TORSDOF 4
