REMARK  3 active torsions:
REMARK  status: ('A' for Active; 'I' for Inactive)
REMARK    1  A    between atoms: C3_3  and  C20_23 
REMARK    2  A    between atoms: C12_12  and  C16_17 
REMARK    3  A    between atoms: C16_17  and  C17_19 
ROOT
HETATM    1  C1  UNL     1      -0.467   0.887   2.228  1.00  0.00     0.152 C 
HETATM    2  C2  UNL     1      -0.144  -0.343   3.064  1.00  0.00     0.035 C 
HETATM    3  C3  UNL     1       0.592  -1.431   2.249  1.00  0.00     0.033 C 
HETATM    4  C4  UNL     1      -0.216  -1.750   0.945  1.00  0.00     0.003 C 
HETATM    5  C5  UNL     1      -0.816  -0.568   0.113  1.00  0.00     0.006 C 
HETATM    6  C6  UNL     1      -1.387   0.503   1.078  1.00  0.00     0.033 C 
HETATM    7  C7  UNL     1       0.156  -0.041  -0.998  1.00  0.00     0.021 C 
HETATM    8  C8  UNL     1       1.515  -0.697  -0.989  1.00  0.00    -0.049 C 
HETATM    9  C9  UNL     1       1.530  -2.205  -0.906  1.00  0.00     0.022 C 
HETATM   10  C10 UNL     1       0.445  -2.781   0.010  1.00  0.00     0.004 C 
HETATM   11  C11 UNL     1       2.658  -0.024  -1.211  1.00  0.00    -0.030 C 
HETATM   12  C12 UNL     1       2.765   1.460  -1.498  1.00  0.00     0.077 C 
HETATM   13  C13 UNL     1       1.401   1.913  -2.054  1.00  0.00     0.159 C 
HETATM   14  C14 UNL     1       0.236   1.486  -1.164  1.00  0.00     0.037 C 
HETATM   15  O1  UNL     1       1.368   3.314  -2.202  1.00  0.00    -0.223 OA
HETATM   16  C15 UNL     1       3.130   2.195  -0.192  1.00  0.00     0.009 C 
HETATM   17  C18 UNL     1      -2.081  -1.076  -0.653  1.00  0.00     0.000 C 
HETATM   18  C19 UNL     1       2.041  -0.965   2.004  1.00  0.00     0.003 C 
HETATM   19  O5  UNL     1      -1.113   1.842   3.039  1.00  0.00    -0.224 OA
ENDROOT
BRANCH  12  20
HETATM   20  C16 UNL     1       3.864   1.719  -2.554  1.00  0.00     0.191 C 
HETATM   21  O2  UNL     1       3.654   0.904  -3.684  1.00  0.00    -0.220 OA
BRANCH  20  22
HETATM   22  C17 UNL     1       5.302   1.496  -2.112  1.00  0.00     0.215 C 
HETATM   23  O3  UNL     1       6.125   1.576  -3.259  1.00  0.00    -0.218 OA
ENDBRANCH  20  22
ENDBRANCH  12  20
BRANCH   3  24
HETATM   24  C20 UNL     1       0.676  -2.699   3.134  1.00  0.00     0.182 C 
HETATM   25  O4  UNL     1       1.303  -2.427   4.373  1.00  0.00    -0.221 OA
ENDBRANCH   3  24
TORSDOF 3
