REMARK  6 active torsions:
REMARK  status: ('A' for Active; 'I' for Inactive)
REMARK    1  A    between atoms: C15_15  and  C18_18 
REMARK    2  A    between atoms: C18_18  and  C19_19 
REMARK    3  A    between atoms: C19_19  and  C20_20 
REMARK    4  A    between atoms: C20_20  and  C21_21 
REMARK    5  A    between atoms: C22_22  and  C23_23 
REMARK    6  A    between atoms: C22_22  and  C24_26 
ROOT
HETATM    1  C1  UNL     1      -2.508  -2.008  -0.168  1.00  0.00     0.065 C 
HETATM    2  C2  UNL     1      -2.245  -3.315   0.565  1.00  0.00     0.150 C 
HETATM    3  C3  UNL     1      -1.197  -4.269  -0.014  1.00  0.00     0.051 C 
HETATM    4  C4  UNL     1       0.143  -3.493  -0.156  1.00  0.00     0.006 C 
HETATM    5  C5  UNL     1      -0.012  -1.970  -0.208  1.00  0.00     0.001 A 
HETATM    6  C6  UNL     1      -1.269  -1.493  -0.911  1.00  0.00     0.008 C 
HETATM    7  C7  UNL     1       1.274  -1.175  -0.288  1.00  0.00     0.000 A 
HETATM    8  C8  UNL     1       2.535  -2.035  -0.423  1.00  0.00     0.000 C 
HETATM    9  C9  UNL     1       2.354  -3.181  -1.441  1.00  0.00     0.000 C 
HETATM   10  C10 UNL     1       1.014  -3.938  -1.343  1.00  0.00     0.000 C 
HETATM   11  C11 UNL     1       3.722  -1.146  -0.839  1.00  0.00     0.000 C 
HETATM   12  C12 UNL     1       3.814   0.174  -0.042  1.00  0.00     0.000 C 
HETATM   13  C13 UNL     1       2.556   1.013  -0.382  1.00  0.00     0.000 C 
HETATM   14  C14 UNL     1       1.381   0.190  -0.954  1.00  0.00     0.000 C 
HETATM   15  C15 UNL     1       5.161   0.729  -0.583  1.00  0.00     0.000 C 
HETATM   16  C16 UNL     1       6.049  -0.536  -0.724  1.00  0.00     0.000 C 
HETATM   17  C17 UNL     1       5.120  -1.764  -0.762  1.00  0.00     0.000 C 
HETATM   18  C26 UNL     1       3.901  -0.081   1.480  1.00  0.00     0.000 C 
HETATM   19  C27 UNL     1       0.469  -1.200   0.996  1.00  0.00     0.000 A 
HETATM   20  C28 UNL     1      -1.003  -5.464   0.948  1.00  0.00     0.007 C 
HETATM   21  C29 UNL     1      -1.783  -4.823  -1.329  1.00  0.00     0.007 C 
HETATM   22  O4  UNL     1      -2.887  -3.587   1.555  1.00  0.00    -0.296 OA
ENDROOT
BRANCH  15  23
HETATM   23  C18 UNL     1       5.874   1.879   0.173  1.00  0.00     0.000 C 
HETATM   24  C25 UNL     1       4.943   3.081   0.415  1.00  0.00     0.000 C 
BRANCH  23  25
HETATM   25  C19 UNL     1       7.152   2.314  -0.591  1.00  0.00     0.005 C 
BRANCH  25  26
HETATM   26  C20 UNL     1       8.051   3.341   0.127  1.00  0.00     0.026 C 
BRANCH  26  27
HETATM   27  C21 UNL     1       7.483   4.738   0.119  1.00  0.00    -0.022 C 
HETATM   28  C22 UNL     1       7.567   5.705   1.059  1.00  0.00     0.071 C 
BRANCH  28  29
HETATM   29  C23 UNL     1       8.378   5.558   2.301  1.00  0.00     0.209 C 
HETATM   30  O1  UNL     1       8.375   6.463   3.125  1.00  0.00    -0.644 OA
HETATM   31  O2  UNL     1       9.192   4.521   2.580  1.00  0.00    -0.644 OA
ENDBRANCH  28  29
BRANCH  28  32
HETATM   32  C24 UNL     1       6.825   7.012   0.857  1.00  0.00     0.214 C 
HETATM   33  O3  UNL     1       5.588   6.833   0.176  1.00  0.00    -0.215 OA
ENDBRANCH  28  32
ENDBRANCH  26  27
ENDBRANCH  25  26
ENDBRANCH  23  25
ENDBRANCH  15  23
TORSDOF 6
