REMARK  2 active torsions:
REMARK  status: ('A' for Active; 'I' for Inactive)
REMARK    1  A    between atoms: C6_6  and  O1_7 
REMARK    2  A    between atoms: C10_12  and  C11_13 
ROOT
HETATM    1  C1  UNL     1       1.331  -2.263  -1.030  1.00  0.00     0.153 A 
HETATM    2  C2  UNL     1       1.256  -1.013  -0.411  1.00  0.00     0.031 A 
HETATM    3  C3  UNL     1       0.104  -0.214  -0.416  1.00  0.00     0.025 A 
HETATM    4  C4  UNL     1      -1.021  -0.656  -1.127  1.00  0.00     0.105 A 
HETATM    5  C5  UNL     1      -0.921  -1.910  -1.741  1.00  0.00     0.051 A 
HETATM    6  C6  UNL     1       0.203  -2.749  -1.722  1.00  0.00     0.121 A 
HETATM    7  O2  UNL     1      -2.179   0.062  -1.241  1.00  0.00    -0.273 OA
HETATM    8  C8  UNL     1      -2.197   1.301  -0.675  1.00  0.00     0.300 A 
HETATM    9  C9  UNL     1      -1.065   1.832   0.115  1.00  0.00     0.069 A 
HETATM   10  C10 UNL     1       0.057   1.088   0.259  1.00  0.00     0.007 A 
HETATM   11  O5  UNL     1      -3.187   2.020  -0.803  1.00  0.00    -0.259 OA
HETATM   12  O6  UNL     1       2.506  -2.938  -0.933  1.00  0.00    -0.188 OA
ENDROOT
BRANCH  10  13
HETATM   13  C11 UNL     1       1.190   1.606   1.073  1.00  0.00     0.002 A 
HETATM   14  C12 UNL     1       1.708   0.864   2.139  1.00  0.00     0.002 A 
HETATM   15  C13 UNL     1       2.811   1.337   2.850  1.00  0.00     0.029 A 
HETATM   16  C14 UNL     1       3.400   2.564   2.535  1.00  0.00     0.156 A 
HETATM   17  C15 UNL     1       2.856   3.337   1.502  1.00  0.00     0.156 A 
HETATM   18  O4  UNL     1       4.483   3.031   3.210  1.00  0.00    -0.188 OA
HETATM   19  C16 UNL     1       1.760   2.850   0.784  1.00  0.00     0.029 A 
HETATM   20  O3  UNL     1       3.409   4.539   1.198  1.00  0.00    -0.188 OA
ENDBRANCH  10  13
BRANCH   6  21
HETATM   21  O1  UNL     1       0.073  -3.944  -2.390  1.00  0.00    -0.326 OA
HETATM   22  C7  UNL     1       1.114  -4.886  -2.435  1.00  0.00     0.181 C 
ENDBRANCH   6  21
TORSDOF 2
