REMARK  1 active torsions:
REMARK  status: ('A' for Active; 'I' for Inactive)
REMARK    1  A    between atoms: C8_8  and  O3_13 
ROOT
HETATM    1  C1  UNL     1       1.120  -2.176  -0.666  1.00  0.00     0.023 A 
HETATM    2  C2  UNL     1       0.027  -2.417  -1.499  1.00  0.00     0.133 A 
HETATM    3  C3  UNL     1      -0.956  -1.431  -1.540  1.00  0.00     0.052 A 
HETATM    4  C4  UNL     1      -0.886  -0.242  -0.805  1.00  0.00     0.107 A 
HETATM    5  C5  UNL     1       0.241  -0.015   0.019  1.00  0.00     0.042 A 
HETATM    6  C6  UNL     1       1.251  -1.006   0.089  1.00  0.00    -0.016 A 
HETATM    7  C7  UNL     1       2.494  -0.895   0.945  1.00  0.00     0.031 C 
HETATM    8  C8  UNL     1       0.311   1.263   0.764  1.00  0.00     0.101 A 
HETATM    9  C9  UNL     1      -0.790   2.053   0.719  1.00  0.00     0.093 A 
HETATM   10  C10 UNL     1      -1.934   1.723  -0.151  1.00  0.00     0.302 A 
HETATM   11  O1  UNL     1      -1.929   0.630  -0.949  1.00  0.00    -0.273 OA
HETATM   12  O2  UNL     1      -2.901   2.482  -0.147  1.00  0.00    -0.259 OA
HETATM   13  O4  UNL     1      -0.087  -3.557  -2.228  1.00  0.00    -0.190 OA
ENDROOT
BRANCH   8  14
HETATM   14  O3  UNL     1       1.303   1.576   1.655  1.00  0.00    -0.328 OA
HETATM   15  C11 UNL     1       2.174   2.593   1.210  1.00  0.00     0.181 C 
ENDBRANCH   8  14
TORSDOF 1
