REMARK  2 active torsions:
REMARK  status: ('A' for Active; 'I' for Inactive)
REMARK    1  A    between atoms: C1_1  and  O4_27 
REMARK    2  A    between atoms: C18_20  and  C19_21 
ROOT
HETATM    1  C1  UNL     1      -0.408  -1.415  -0.997  1.00  0.00     0.121 A 
HETATM    2  C2  UNL     1       0.833  -2.044  -1.188  1.00  0.00     0.169 A 
HETATM    3  C3  UNL     1       2.000  -1.269  -1.134  1.00  0.00     0.086 A 
HETATM    4  C4  UNL     1       2.035   0.106  -0.850  1.00  0.00    -0.001 A 
HETATM    5  C5  UNL     1       0.788   0.719  -0.726  1.00  0.00    -0.001 A 
HETATM    6  C6  UNL     1      -0.390  -0.029  -0.781  1.00  0.00     0.026 A 
HETATM    7  C7  UNL     1       3.456   0.685  -0.996  1.00  0.00     0.074 C 
HETATM    8  C8  UNL     1       4.173  -0.645  -0.774  1.00  0.00     0.112 C 
HETATM    9  N1  UNL     1       3.306  -1.748  -1.179  1.00  0.00    -0.295 N 
HETATM   10  C9  UNL     1       3.896  -3.001  -1.075  1.00  0.00     0.242 C 
HETATM   11  C10 UNL     1       4.647  -3.235   0.234  1.00  0.00     0.114 C 
HETATM   12  C11 UNL     1       4.490  -2.068   1.188  1.00  0.00    -0.023 C 
HETATM   13  C12 UNL     1       4.245  -0.826   0.738  1.00  0.00    -0.024 C 
HETATM   14  C13 UNL     1       4.066   0.390   1.645  1.00  0.00     0.042 C 
HETATM   15  C14 UNL     1       5.064   1.365   1.061  1.00  0.00     0.042 C 
HETATM   16  C15 UNL     1       4.350   1.724  -0.241  1.00  0.00     0.226 C 
HETATM   17  N2  UNL     1       3.469   2.837  -0.100  1.00  0.00     0.140 N 
HETATM   18  C16 UNL     1       2.610   2.553   1.060  1.00  0.00     0.273 C 
HETATM   19  C17 UNL     1       2.714   1.117   1.639  1.00  0.00    -0.009 C 
HETATM   20  C18 UNL     1       1.691   0.499   2.259  1.00  0.00     0.003 C 
HETATM   21  C20 UNL     1       2.934   2.909  -1.469  1.00  0.00     0.251 C 
HETATM   22  C21 UNL     1       3.263   1.578  -2.228  1.00  0.00     0.043 C 
HETATM   23  O2  UNL     1       3.728  -3.878  -1.907  1.00  0.00    -0.272 OA
HETATM   24  O3  UNL     1       0.884  -3.365  -1.508  1.00  0.00    -0.187 OA
ENDROOT
BRANCH  20  25
HETATM   25  C19 UNL     1       0.314   1.041   2.538  1.00  0.00     0.208 C 
HETATM   26  O1  UNL     1       0.023   0.935   3.926  1.00  0.00    -0.215 OA
ENDBRANCH  20  25
BRANCH   1  27
HETATM   27  O4  UNL     1      -1.548  -2.172  -1.113  1.00  0.00    -0.326 OA
HETATM   28  C22 UNL     1      -2.785  -1.506  -1.217  1.00  0.00     0.181 C 
ENDBRANCH   1  27
TORSDOF 2
