REMARK  0 active torsions:
REMARK  status: ('A' for Active; 'I' for Inactive)
ROOT
HETATM    1  C1  UNL     1      -1.395  -1.805  -0.088  1.00  0.00     0.015 A 
HETATM    2  C2  UNL     1      -0.183  -1.585  -0.750  1.00  0.00     0.059 A 
HETATM    3  N1  UNL     1       0.315  -0.351  -0.915  1.00  0.00    -0.252 NA
HETATM    4  C3  UNL     1      -0.344   0.713  -0.433  1.00  0.00     0.089 A 
HETATM    5  C4  UNL     1      -1.567   0.562   0.233  1.00  0.00     0.017 A 
HETATM    6  C5  UNL     1      -2.104  -0.713   0.411  1.00  0.00     0.003 A 
HETATM    7  C6  UNL     1       0.281   2.070  -0.701  1.00  0.00     0.192 C 
HETATM    8  C7  UNL     1       1.820   2.122  -0.659  1.00  0.00     0.036 C 
HETATM    9  C8  UNL     1       2.369   1.869   0.763  1.00  0.00     0.003 C 
HETATM   10  C9  UNL     1       3.872   1.529   0.833  1.00  0.00     0.000 C 
HETATM   11  C10 UNL     1       4.184   0.077   0.429  1.00  0.00     0.000 C 
HETATM   12  C11 UNL     1       3.954  -0.924   1.573  1.00  0.00     0.000 C 
HETATM   13  C12 UNL     1       3.742  -2.381   1.118  1.00  0.00     0.000 C 
HETATM   14  C13 UNL     1       2.311  -2.683   0.630  1.00  0.00     0.000 C 
HETATM   15  C14 UNL     1       2.128  -2.646  -0.897  1.00  0.00     0.006 C 
HETATM   16  C15 UNL     1       0.647  -2.719  -1.307  1.00  0.00     0.046 C 
HETATM   17  C16 UNL     1       2.324   3.466  -1.225  1.00  0.00     0.003 C 
HETATM   18  O1  UNL     1      -0.235   3.051   0.184  1.00  0.00    -0.217 OA
ENDROOT
TORSDOF 0
