REMARK  6 active torsions:
REMARK  status: ('A' for Active; 'I' for Inactive)
REMARK    1  A    between atoms: C15_15  and  C18_18 
REMARK    2  A    between atoms: C18_18  and  C19_19 
REMARK    3  A    between atoms: C18_18  and  C20_21 
REMARK    4  A    between atoms: C20_21  and  C21_22 
REMARK    5  A    between atoms: C21_22  and  C22_23 
REMARK    6  A    between atoms: C23_24  and  C25_26 
ROOT
HETATM    1  C1  UNL     1      -1.794   0.307   0.422  1.00  0.00     0.065 C 
HETATM    2  C2  UNL     1      -2.355   1.498  -0.320  1.00  0.00     0.150 C 
HETATM    3  C3  UNL     1      -1.481   2.750  -0.311  1.00  0.00     0.052 C 
HETATM    4  C4  UNL     1       0.021   2.332  -0.286  1.00  0.00     0.011 C 
HETATM    5  C5  UNL     1       0.374   0.935  -0.880  1.00  0.00     0.004 C 
HETATM    6  C6  UNL     1      -0.510  -0.182  -0.251  1.00  0.00     0.008 C 
HETATM    7  C7  UNL     1       1.864   0.630  -0.532  1.00  0.00     0.018 C 
HETATM    8  C8  UNL     1       2.825   1.774  -0.808  1.00  0.00    -0.049 C 
HETATM    9  C9  UNL     1       2.390   3.037  -0.926  1.00  0.00    -0.035 C 
HETATM   10  C10 UNL     1       0.946   3.435  -0.832  1.00  0.00     0.026 C 
HETATM   11  C11 UNL     1       4.299   1.430  -0.965  1.00  0.00     0.015 C 
HETATM   12  C12 UNL     1       4.642   0.197  -0.081  1.00  0.00     0.004 C 
HETATM   13  C13 UNL     1       3.855  -1.011  -0.629  1.00  0.00     0.001 C 
HETATM   14  C14 UNL     1       2.417  -0.694  -1.091  1.00  0.00     0.004 C 
HETATM   15  C15 UNL     1       6.184   0.110  -0.236  1.00  0.00     0.008 C 
HETATM   16  C16 UNL     1       6.606   1.602  -0.192  1.00  0.00     0.001 C 
HETATM   17  C17 UNL     1       5.337   2.446  -0.446  1.00  0.00     0.004 C 
HETATM   18  C26 UNL     1       4.313   0.473   1.415  1.00  0.00     0.000 C 
HETATM   19  C27 UNL     1       4.560   1.292  -2.488  1.00  0.00     0.004 C 
HETATM   20  C28 UNL     1       0.166   0.928  -2.411  1.00  0.00     0.000 C 
HETATM   21  C29 UNL     1      -1.893   3.651  -1.498  1.00  0.00     0.007 C 
HETATM   22  C30 UNL     1      -1.842   3.530   0.977  1.00  0.00     0.007 C 
HETATM   23  O3  UNL     1      -3.447   1.451  -0.841  1.00  0.00    -0.296 OA
ENDROOT
BRANCH  15  24
HETATM   24  C18 UNL     1       7.022  -0.794   0.701  1.00  0.00     0.065 C 
BRANCH  24  25
HETATM   25  C19 UNL     1       8.501  -0.542   0.418  1.00  0.00     0.207 C 
HETATM   26  O1  UNL     1       9.261  -0.123   1.259  1.00  0.00    -0.288 OA
ENDBRANCH  24  25
BRANCH  24  27
HETATM   27  C20 UNL     1       6.739  -2.308   0.559  1.00  0.00     0.012 C 
BRANCH  27  28
HETATM   28  C21 UNL     1       5.931  -2.898   1.727  1.00  0.00     0.026 C 
BRANCH  28  29
HETATM   29  C22 UNL     1       5.513  -4.322   1.456  1.00  0.00    -0.032 C 
HETATM   30  C23 UNL     1       4.273  -4.847   1.476  1.00  0.00    -0.015 C 
HETATM   31  C24 UNL     1       4.055  -6.295   1.091  1.00  0.00     0.029 C 
BRANCH  30  32
HETATM   32  C25 UNL     1       2.998  -4.103   1.806  1.00  0.00     0.204 C 
HETATM   33  O2  UNL     1       3.128  -3.162   2.862  1.00  0.00    -0.216 OA
ENDBRANCH  30  32
ENDBRANCH  28  29
ENDBRANCH  27  28
ENDBRANCH  24  27
ENDBRANCH  15  24
TORSDOF 6
