REMARK  4 active torsions:
REMARK  status: ('A' for Active; 'I' for Inactive)
REMARK    1  A    between atoms: C1_1  and  C16_22 
REMARK    2  A    between atoms: C7_9  and  O4_13 
REMARK    3  A    between atoms: O4_13  and  C10_14 
REMARK    4  A    between atoms: C16_22  and  C17_23 
ROOT
HETATM    1  C1  UNL     1       2.160   2.244   0.031  1.00  0.00     0.033 A 
HETATM    2  C2  UNL     1       3.455   2.077   0.556  1.00  0.00     0.134 A 
HETATM    3  C3  UNL     1       4.124   0.859   0.334  1.00  0.00     0.087 A 
HETATM    4  C4  UNL     1       3.537  -0.191  -0.395  1.00  0.00     0.109 A 
HETATM    5  C5  UNL     1       2.239   0.012  -0.862  1.00  0.00     0.052 A 
HETATM    6  C6  UNL     1       1.534   1.202  -0.666  1.00  0.00     0.131 A 
HETATM    7  O1  UNL     1       0.285   1.342  -1.187  1.00  0.00    -0.190 OA
HETATM    8  O2  UNL     1       4.155  -1.386  -0.634  1.00  0.00    -0.285 OA
HETATM    9  C7  UNL     1       5.518  -1.415  -0.547  1.00  0.00     0.207 C 
HETATM   10  C8  UNL     1       6.212  -0.501   0.159  1.00  0.00     0.093 C 
HETATM   11  C9  UNL     1       5.518   0.640   0.802  1.00  0.00     0.204 C 
HETATM   12  O3  UNL     1       6.125   1.383   1.566  1.00  0.00    -0.286 OA
HETATM   13  O6  UNL     1       4.041   3.114   1.218  1.00  0.00    -0.190 OA
ENDROOT
BRANCH   9  14
HETATM   14  O4  UNL     1       6.149  -2.431  -1.214  1.00  0.00    -0.285 OA
BRANCH  14  15
HETATM   15  C10 UNL     1       5.922  -3.677  -0.704  1.00  0.00     0.102 A 
HETATM   16  C11 UNL     1       6.816  -4.276   0.192  1.00  0.00     0.027 A 
HETATM   17  C12 UNL     1       6.602  -5.563   0.689  1.00  0.00     0.029 A 
HETATM   18  C13 UNL     1       5.482  -6.310   0.313  1.00  0.00     0.131 A 
HETATM   19  C14 UNL     1       4.585  -5.717  -0.579  1.00  0.00     0.029 A 
HETATM   20  O5  UNL     1       5.270  -7.568   0.782  1.00  0.00    -0.190 OA
HETATM   21  C15 UNL     1       4.803  -4.433  -1.079  1.00  0.00     0.027 A 
ENDBRANCH  14  15
ENDBRANCH   9  14
BRANCH   1  22
HETATM   22  C16 UNL     1       1.432   3.567   0.184  1.00  0.00     0.056 C 
BRANCH  22  23
HETATM   23  C17 UNL     1       0.111   3.390   0.891  1.00  0.00    -0.030 C 
HETATM   24  C18 UNL     1      -1.108   3.745   0.446  1.00  0.00    -0.048 C 
HETATM   25  C19 UNL     1      -2.344   3.478   1.275  1.00  0.00     0.026 C 
HETATM   26  C20 UNL     1      -1.397   4.422  -0.873  1.00  0.00     0.026 C 
ENDBRANCH  22  23
ENDBRANCH   1  22
TORSDOF 4
