REMARK  6 active torsions:
REMARK  status: ('A' for Active; 'I' for Inactive)
REMARK    1  A    between atoms: C1_1  and  O2_8 
REMARK    2  A    between atoms: O2_8  and  C7_9 
REMARK    3  A    between atoms: C8_11  and  C12_18 
REMARK    4  A    between atoms: C12_18  and  O7_19 
REMARK    5  A    between atoms: O7_19  and  C13_20 
REMARK    6  A    between atoms: C14_22  and  C18_29 
ROOT
HETATM    1  C7  UNL     1       0.233  -0.879   2.333  1.00  0.00     0.274 C 
HETATM    2  O3  UNL     1       0.591  -0.262   1.116  1.00  0.00    -0.326 OA
HETATM    3  C8  UNL     1       0.228   1.093   1.072  1.00  0.00     0.180 C 
HETATM    4  C9  UNL     1       0.948   1.850   2.181  1.00  0.00     0.215 C 
HETATM    5  C10 UNL     1       0.628   1.230   3.528  1.00  0.00     0.220 C 
HETATM    6  C11 UNL     1       0.972  -0.244   3.487  1.00  0.00     0.241 C 
HETATM    7  O4  UNL     1       0.573  -0.846   4.692  1.00  0.00    -0.215 OA
HETATM    8  O5  UNL     1       1.380   1.871   4.527  1.00  0.00    -0.218 OA
HETATM    9  O6  UNL     1       0.536   3.195   2.217  1.00  0.00    -0.218 OA
ENDROOT
BRANCH   3  10
HETATM   10  C12 UNL     1       0.565   1.615  -0.320  1.00  0.00     0.177 C 
BRANCH  10  11
HETATM   11  O7  UNL     1      -0.177   0.866  -1.250  1.00  0.00    -0.326 OA
BRANCH  11  12
HETATM   12  C13 UNL     1       0.096   1.178  -2.596  1.00  0.00     0.270 C 
HETATM   13  O8  UNL     1      -0.559   2.399  -2.862  1.00  0.00    -0.326 OA
HETATM   14  C14 UNL     1      -0.405   2.813  -4.195  1.00  0.00     0.184 C 
HETATM   15  C15 UNL     1      -1.010   1.770  -5.130  1.00  0.00     0.215 C 
HETATM   16  C16 UNL     1      -0.361   0.421  -4.901  1.00  0.00     0.220 C 
HETATM   17  O11 UNL     1      -0.818   2.120  -6.478  1.00  0.00    -0.218 OA
HETATM   18  C17 UNL     1      -0.502   0.074  -3.437  1.00  0.00     0.241 C 
HETATM   19  O10 UNL     1      -1.005  -0.552  -5.682  1.00  0.00    -0.218 OA
HETATM   20  O9  UNL     1       0.175  -1.130  -3.178  1.00  0.00    -0.215 OA
BRANCH  14  21
HETATM   21  C18 UNL     1      -1.050   4.187  -4.354  1.00  0.00     0.214 C 
HETATM   22  O12 UNL     1      -0.147   5.077  -4.979  1.00  0.00    -0.218 OA
ENDBRANCH  14  21
ENDBRANCH  11  12
ENDBRANCH  10  11
ENDBRANCH   3  10
BRANCH   1  23
HETATM   23  O2  UNL     1       0.653  -2.212   2.142  1.00  0.00    -0.304 OA
BRANCH  23  24
HETATM   24  C1  UNL     1      -0.005  -3.143   2.897  1.00  0.00     0.097 A 
HETATM   25  C2  UNL     1       0.686  -3.957   3.803  1.00  0.00     0.026 A 
HETATM   26  C3  UNL     1       0.038  -4.944   4.547  1.00  0.00     0.029 A 
HETATM   27  C4  UNL     1      -1.331  -5.186   4.396  1.00  0.00     0.131 A 
HETATM   28  C5  UNL     1      -2.017  -4.412   3.457  1.00  0.00     0.029 A 
HETATM   29  O1  UNL     1      -1.968  -6.155   5.102  1.00  0.00    -0.190 OA
HETATM   30  C6  UNL     1      -1.365  -3.429   2.712  1.00  0.00     0.026 A 
ENDBRANCH  23  24
ENDBRANCH   1  23
TORSDOF 6
