REMARK  3 active torsions:
REMARK  status: ('A' for Active; 'I' for Inactive)
REMARK    1  A    between atoms: C4_4  and  N1_7 
REMARK    2  A    between atoms: N1_7  and  C7_8 
REMARK    3  A    between atoms: C7_8  and  C8_9 
ROOT
HETATM    1  C1  UNL     1       2.685   2.293  -0.604  1.00  0.00     0.028 A 
HETATM    2  C2  UNL     1       3.186   1.031  -0.265  1.00  0.00     0.133 A 
HETATM    3  C3  UNL     1       2.269   0.011   0.003  1.00  0.00     0.046 A 
HETATM    4  C4  UNL     1       0.881   0.226  -0.058  1.00  0.00     0.079 A 
HETATM    5  C5  UNL     1       0.407   1.504  -0.400  1.00  0.00     0.019 A 
HETATM    6  C6  UNL     1       1.310   2.531  -0.672  1.00  0.00     0.004 A 
HETATM    7  O3  UNL     1       4.524   0.797  -0.199  1.00  0.00    -0.190 OA
ENDROOT
BRANCH   4   8
HETATM    8  N1  UNL     1       0.033  -0.855   0.227  1.00  0.00    -0.259 NA
BRANCH   8   9
HETATM    9  C7  UNL     1      -1.441  -0.792   0.207  1.00  0.00     0.222 C 
BRANCH   9  10
HETATM   10  C8  UNL     1      -2.090  -2.122   0.556  1.00  0.00     0.211 C 
HETATM   11  O1  UNL     1      -3.279  -2.332   0.595  1.00  0.00    -0.646 OA
HETATM   12  O2  UNL     1      -1.197  -3.090   0.833  1.00  0.00    -0.646 OA
ENDBRANCH   9  10
ENDBRANCH   8   9
ENDBRANCH   4   8
TORSDOF 3
