REMARK  3 active torsions:
REMARK  status: ('A' for Active; 'I' for Inactive)
REMARK    1  A    between atoms: C5_5  and  C7_8 
REMARK    2  A    between atoms: C7_8  and  C8_9 
REMARK    3  A    between atoms: C8_9  and  C9_10 
ROOT
HETATM    1  C1  UNL     1       4.212   0.230  -0.205  1.00  0.00     0.027 A 
HETATM    2  C2  UNL     1       4.675  -1.037   0.145  1.00  0.00     0.002 A 
HETATM    3  C3  UNL     1       3.752  -2.043   0.420  1.00  0.00    -0.000 A 
HETATM    4  C4  UNL     1       2.389  -1.757   0.341  1.00  0.00    -0.002 A 
HETATM    5  C5  UNL     1       1.912  -0.483  -0.004  1.00  0.00     0.004 A 
HETATM    6  C6  UNL     1       2.847   0.530  -0.286  1.00  0.00     0.127 A 
HETATM    7  O1  UNL     1       2.490   1.790  -0.646  1.00  0.00    -0.191 OA
ENDROOT
BRANCH   5   8
HETATM    8  C7  UNL     1       0.403  -0.303  -0.057  1.00  0.00     0.040 C 
BRANCH   8   9
HETATM    9  C8  UNL     1      -0.179   1.115   0.038  1.00  0.00     0.102 C 
BRANCH   9  10
HETATM   10  C9  UNL     1      -1.690   1.212   0.172  1.00  0.00     0.186 C 
HETATM   11  O2  UNL     1      -2.309   2.212   0.452  1.00  0.00    -0.647 OA
HETATM   12  O3  UNL     1      -2.325   0.054  -0.084  1.00  0.00    -0.647 OA
ENDBRANCH   9  10
ENDBRANCH   8   9
ENDBRANCH   5   8
TORSDOF 3
