REMARK  3 active torsions:
REMARK  status: ('A' for Active; 'I' for Inactive)
REMARK    1  A    between atoms: C4_4  and  C7_7 
REMARK    2  A    between atoms: C7_7  and  C8_8 
REMARK    3  A    between atoms: C8_8  and  C9_9 
ROOT
HETATM    1  C1  UNL     1       3.158   2.217  -0.584  1.00  0.00     0.027 A 
HETATM    2  C2  UNL     1       3.546   0.921  -0.235  1.00  0.00     0.131 A 
HETATM    3  C3  UNL     1       2.538  -0.017   0.011  1.00  0.00     0.028 A 
HETATM    4  C4  UNL     1       1.170   0.280  -0.073  1.00  0.00     0.005 A 
HETATM    5  C5  UNL     1       0.825   1.591  -0.424  1.00  0.00     0.000 A 
HETATM    6  C6  UNL     1       1.808   2.550  -0.678  1.00  0.00     0.002 A 
HETATM    7  O4  UNL     1       4.858   0.577  -0.139  1.00  0.00    -0.190 OA
ENDROOT
BRANCH   4   8
HETATM    8  C7  UNL     1       0.184  -0.837   0.222  1.00  0.00     0.049 C 
BRANCH   8   9
HETATM    9  C8  UNL     1      -1.326  -0.635   0.163  1.00  0.00     0.259 C 
HETATM   10  O3  UNL     1      -1.868   0.420  -0.125  1.00  0.00    -0.280 OA
BRANCH   9  11
HETATM   11  C9  UNL     1      -2.149  -1.847   0.487  1.00  0.00     0.252 C 
HETATM   12  O1  UNL     1      -3.370  -1.807   0.467  1.00  0.00    -0.642 OA
HETATM   13  O2  UNL     1      -1.593  -3.032   0.815  1.00  0.00    -0.642 OA
ENDBRANCH   9  11
ENDBRANCH   8   9
ENDBRANCH   4   8
TORSDOF 3
