REMARK  6 active torsions:
REMARK  status: ('A' for Active; 'I' for Inactive)
REMARK    1  A    between atoms: C2_2  and  C17_20 
REMARK    2  A    between atoms: C4_4  and  C12_14 
REMARK    3  A    between atoms: C6_6  and  C7_7 
REMARK    4  A    between atoms: C7_7  and  C8_9 
REMARK    5  A    between atoms: C8_9  and  C9_10 
REMARK    6  A    between atoms: C12_14  and  C13_15 
ROOT
HETATM    1  C1  UNL     1       2.023   1.967  -0.038  1.00  0.00     0.008 A 
HETATM    2  C2  UNL     1       2.752   0.853   0.393  1.00  0.00     0.035 A 
HETATM    3  C3  UNL     1       2.057  -0.211   0.978  1.00  0.00     0.003 A 
HETATM    4  C4  UNL     1       0.663  -0.200   1.105  1.00  0.00     0.037 A 
HETATM    5  C5  UNL     1      -0.071   0.893   0.608  1.00  0.00     0.132 A 
HETATM    6  C6  UNL     1       0.627   1.988   0.074  1.00  0.00     0.060 A 
HETATM    7  O2  UNL     1      -1.422   0.931   0.756  1.00  0.00    -0.190 OA
ENDROOT
BRANCH   4   8
HETATM    8  C12 UNL     1      -0.071  -1.346   1.779  1.00  0.00     0.198 C 
HETATM    9  O3  UNL     1      -0.775  -0.860   2.921  1.00  0.00    -0.214 OA
BRANCH   8  10
HETATM   10  C13 UNL     1       0.810  -2.483   2.240  1.00  0.00     0.002 C 
HETATM   11  C14 UNL     1       1.327  -3.458   1.471  1.00  0.00    -0.045 C 
HETATM   12  C15 UNL     1       2.225  -4.521   2.059  1.00  0.00     0.026 C 
HETATM   13  C16 UNL     1       1.100  -3.574  -0.016  1.00  0.00     0.026 C 
ENDBRANCH   8  10
ENDBRANCH   4   8
BRANCH   2  14
HETATM   14  C17 UNL     1       4.233   0.832   0.230  1.00  0.00     0.173 C 
HETATM   15  C18 UNL     1       5.013  -0.398   0.663  1.00  0.00     0.077 C 
HETATM   16  O4  UNL     1       4.834   1.775  -0.269  1.00  0.00    -0.291 OA
ENDBRANCH   2  14
BRANCH   6  17
HETATM   17  C7  UNL     1      -0.068   3.209  -0.452  1.00  0.00     0.175 C 
HETATM   18  O1  UNL     1       0.399   4.312  -0.202  1.00  0.00    -0.291 OA
BRANCH  17  19
HETATM   19  C8  UNL     1      -1.301   3.114  -1.342  1.00  0.00     0.069 C 
BRANCH  19  20
HETATM   20  C9  UNL     1      -1.032   2.526  -2.741  1.00  0.00     0.008 C 
HETATM   21  C10 UNL     1      -0.908   0.993  -2.722  1.00  0.00     0.001 C 
HETATM   22  C11 UNL     1      -2.153   2.934  -3.715  1.00  0.00     0.001 C 
ENDBRANCH  19  20
ENDBRANCH  17  19
ENDBRANCH   6  17
TORSDOF 6
