REMARK  2 active torsions:
REMARK  status: ('A' for Active; 'I' for Inactive)
REMARK    1  A    between atoms: C1_1  and  C18_21 
REMARK    2  A    between atoms: C14_14  and  C16_16 
ROOT
HETATM    1  C1  UNL     1      -1.057  -0.563   0.370  1.00  0.00     0.037 C 
HETATM    2  C2  UNL     1      -0.356  -1.710   1.123  1.00  0.00     0.008 C 
HETATM    3  C3  UNL     1       1.099  -1.884   0.674  1.00  0.00     0.005 C 
HETATM    4  C4  UNL     1       1.935  -0.600   0.861  1.00  0.00     0.020 C 
HETATM    5  C5  UNL     1       1.122   0.672   0.706  1.00  0.00    -0.019 C 
HETATM    6  C6  UNL     1      -0.204   0.679   0.491  1.00  0.00    -0.029 C 
HETATM    7  C7  UNL     1       1.903   1.943   0.945  1.00  0.00     0.170 C 
HETATM    8  C8  UNL     1       3.163   1.986   0.092  1.00  0.00     0.038 C 
HETATM    9  C9  UNL     1       4.040   0.742   0.335  1.00  0.00     0.013 C 
HETATM   10  C10 UNL     1       3.248  -0.561   0.007  1.00  0.00     0.004 C 
HETATM   11  C11 UNL     1       4.119  -1.783   0.387  1.00  0.00     0.000 C 
HETATM   12  C12 UNL     1       5.529  -1.741  -0.212  1.00  0.00     0.001 C 
HETATM   13  C13 UNL     1       6.254  -0.461   0.218  1.00  0.00     0.010 C 
HETATM   14  C14 UNL     1       5.504   0.830  -0.196  1.00  0.00     0.079 C 
HETATM   15  C15 UNL     1       6.278   2.003   0.457  1.00  0.00     0.011 C 
HETATM   16  C17 UNL     1       2.889  -0.635  -1.495  1.00  0.00     0.000 C 
HETATM   17  O3  UNL     1       1.136   3.106   0.695  1.00  0.00    -0.219 OA
HETATM   18  C20 UNL     1      -2.417  -0.298   1.052  1.00  0.00     0.009 C 
ENDROOT
BRANCH  14  19
HETATM   19  C16 UNL     1       5.657   1.021  -1.708  1.00  0.00     0.184 C 
HETATM   20  O1  UNL     1       5.061   2.133  -2.171  1.00  0.00    -0.647 OA
HETATM   21  O2  UNL     1       6.291   0.324  -2.464  1.00  0.00    -0.647 OA
ENDBRANCH  14  19
BRANCH   1  22
HETATM   22  C18 UNL     1      -1.187  -0.860  -1.113  1.00  0.00    -0.023 C 
HETATM   23  C19 UNL     1      -2.324  -1.083  -1.788  1.00  0.00    -0.005 C 
ENDBRANCH   1  22
TORSDOF 2
