REMARK  10 active torsions:
REMARK  status: ('A' for Active; 'I' for Inactive)
REMARK    1  A    between atoms: C3_3  and  C5_6 
REMARK    2  A    between atoms: C7_8  and  O8_24 
REMARK    3  A    between atoms: C8_9  and  O2_12 
REMARK    4  A    between atoms: O2_12  and  C11_13 
REMARK    5  A    between atoms: C12_15  and  C16_22 
REMARK    6  A    between atoms: C19_28  and  C20_29 
REMARK    7  A    between atoms: C22_31  and  O16_47 
REMARK    8  A    between atoms: C23_32  and  O10_35 
REMARK    9  A    between atoms: O10_35  and  C26_36 
REMARK   10  A    between atoms: C27_38  and  C31_45 
ROOT
HETATM    1  C1  UNL     1       6.906   1.135   0.518  1.00  0.00     0.094 C 
HETATM    2  C2  UNL     1       8.201   0.616   1.111  1.00  0.00     0.187 C 
HETATM    3  C3  UNL     1       9.064   1.866   1.201  1.00  0.00     0.168 C 
HETATM    4  O1  UNL     1       8.495   2.854   0.365  1.00  0.00    -0.349 OA
HETATM    5  C4  UNL     1       7.412   2.290  -0.329  1.00  0.00     0.148 C 
HETATM    6  C18 UNL     1       7.716   0.007   2.406  1.00  0.00     0.176 C 
HETATM    7  O9  UNL     1       6.671   0.825   2.869  1.00  0.00    -0.349 OA
HETATM    8  C19 UNL     1       6.117   1.520   1.770  1.00  0.00     0.143 C 
HETATM    9  O17 UNL     1       8.777  -0.343   0.268  1.00  0.00    -0.220 OA
ENDROOT
BRANCH   3  10
HETATM   10  C5  UNL     1      10.504   1.538   0.868  1.00  0.00     0.009 A 
HETATM   11  C6  UNL     1      11.360   1.031   1.846  1.00  0.00     0.024 A 
HETATM   12  C7  UNL     1      12.672   0.597   1.601  1.00  0.00     0.116 A 
HETATM   13  C8  UNL     1      13.183   0.713   0.287  1.00  0.00     0.119 A 
HETATM   14  C9  UNL     1      12.306   1.189  -0.702  1.00  0.00     0.026 A 
HETATM   15  C10 UNL     1      11.000   1.593  -0.433  1.00  0.00     0.000 A 
BRANCH  12  16
HETATM   16  O8  UNL     1      13.380   0.163   2.700  1.00  0.00    -0.326 OA
HETATM   17  C17 UNL     1      14.778   0.332   2.741  1.00  0.00     0.181 C 
ENDBRANCH  12  16
BRANCH  13  18
HETATM   18  O2  UNL     1      14.447   0.255   0.018  1.00  0.00    -0.302 OA
BRANCH  18  19
HETATM   19  C11 UNL     1      14.820  -0.131  -1.287  1.00  0.00     0.274 C 
HETATM   20  O3  UNL     1      15.578  -1.307  -1.076  1.00  0.00    -0.326 OA
HETATM   21  C12 UNL     1      16.055  -1.859  -2.276  1.00  0.00     0.184 C 
HETATM   22  C13 UNL     1      16.976  -0.861  -2.969  1.00  0.00     0.215 C 
HETATM   23  C14 UNL     1      16.242   0.442  -3.216  1.00  0.00     0.220 C 
HETATM   24  O6  UNL     1      17.412  -1.354  -4.212  1.00  0.00    -0.218 OA
HETATM   25  C15 UNL     1      15.697   0.938  -1.897  1.00  0.00     0.241 C 
HETATM   26  O5  UNL     1      17.133   1.389  -3.747  1.00  0.00    -0.218 OA
HETATM   27  O4  UNL     1      14.947   2.106  -2.108  1.00  0.00    -0.215 OA
BRANCH  21  28
HETATM   28  C16 UNL     1      16.772  -3.164  -1.960  1.00  0.00     0.214 C 
HETATM   29  O7  UNL     1      15.847  -4.105  -1.452  1.00  0.00    -0.218 OA
ENDBRANCH  21  28
ENDBRANCH  18  19
ENDBRANCH  13  18
ENDBRANCH   3  10
BRANCH   8  30
HETATM   30  C20 UNL     1       4.636   1.258   1.585  1.00  0.00     0.007 A 
HETATM   31  C21 UNL     1       3.762   2.282   1.221  1.00  0.00     0.024 A 
HETATM   32  C22 UNL     1       2.393   2.098   0.971  1.00  0.00     0.116 A 
HETATM   33  C23 UNL     1       1.849   0.803   1.132  1.00  0.00     0.119 A 
HETATM   34  C24 UNL     1       2.731  -0.226   1.498  1.00  0.00     0.026 A 
HETATM   35  C25 UNL     1       4.090  -0.017   1.724  1.00  0.00     0.000 A 
BRANCH  32  36
HETATM   36  O16 UNL     1       1.672   3.229   0.658  1.00  0.00    -0.326 OA
HETATM   37  C32 UNL     1       0.336   3.337   1.093  1.00  0.00     0.181 C 
ENDBRANCH  32  36
BRANCH  33  38
HETATM   38  O10 UNL     1       0.527   0.594   0.831  1.00  0.00    -0.302 OA
BRANCH  38  39
HETATM   39  C26 UNL     1       0.058  -0.688   0.474  1.00  0.00     0.274 C 
HETATM   40  O11 UNL     1      -0.772  -0.444  -0.645  1.00  0.00    -0.326 OA
HETATM   41  C27 UNL     1      -1.365  -1.620  -1.133  1.00  0.00     0.184 C 
HETATM   42  C28 UNL     1      -2.268  -2.212  -0.058  1.00  0.00     0.215 C 
HETATM   43  C29 UNL     1      -1.457  -2.511   1.187  1.00  0.00     0.220 C 
HETATM   44  O14 UNL     1      -2.854  -3.415  -0.491  1.00  0.00    -0.218 OA
HETATM   45  C30 UNL     1      -0.759  -1.242   1.619  1.00  0.00     0.241 C 
HETATM   46  O13 UNL     1      -2.314  -2.950   2.209  1.00  0.00    -0.218 OA
HETATM   47  O12 UNL     1       0.090  -1.515   2.704  1.00  0.00    -0.215 OA
BRANCH  41  48
HETATM   48  C31 UNL     1      -2.128  -1.289  -2.407  1.00  0.00     0.214 C 
HETATM   49  O15 UNL     1      -1.218  -0.908  -3.420  1.00  0.00    -0.218 OA
ENDBRANCH  41  48
ENDBRANCH  38  39
ENDBRANCH  33  38
ENDBRANCH   8  30
TORSDOF 10
