REMARK  1 active torsions:
REMARK  status: ('A' for Active; 'I' for Inactive)
REMARK    1  A    between atoms: C3_4  and  C5_7 
ROOT
HETATM    1  C1  UNL     1      -0.418  -1.189  -1.077  1.00  0.00     0.074 C 
HETATM    2  C2  UNL     1       0.583  -0.925   0.053  1.00  0.00     0.294 C 
HETATM    3  N1  UNL     1       0.192   0.385   0.561  1.00  0.00     0.351 N 
HETATM    4  C3  UNL     1      -1.268   0.398   0.578  1.00  0.00     0.372 C 
HETATM    5  C4  UNL     1      -1.683  -0.453  -0.628  1.00  0.00     0.199 C 
HETATM    6  O1  UNL     1      -2.675  -1.375  -0.244  1.00  0.00    -0.221 OA
ENDROOT
BRANCH   4   7
HETATM    7  C5  UNL     1      -1.781   1.823   0.572  1.00  0.00     0.223 C 
HETATM    8  O2  UNL     1      -1.335   2.501   1.646  1.00  0.00    -0.646 OA
HETATM    9  O3  UNL     1      -2.492   2.345  -0.252  1.00  0.00    -0.646 OA
ENDBRANCH   4   7
TORSDOF 1
