REMARK  1 active torsions:
REMARK  status: ('A' for Active; 'I' for Inactive)
REMARK    1  A    between atoms: C1_1  and  C2_2 
ROOT
HETATM    1  C1  UNL     1      -1.693   0.412   0.853  1.00  0.00     0.345 C 
HETATM    2  C3  UNL     1      -2.337  -0.439  -0.255  1.00  0.00     0.083 C 
HETATM    3  C4  UNL     1      -1.210  -1.347  -0.758  1.00  0.00     0.191 C 
HETATM    4  C5  UNL     1      -0.003  -1.011   0.114  1.00  0.00     0.323 C 
HETATM    5  N1  UNL     1      -0.258   0.343   0.594  1.00  0.00     0.351 N 
HETATM    6  O3  UNL     1      -0.916  -1.051  -2.103  1.00  0.00    -0.221 OA
ENDROOT
BRANCH   1   7
HETATM    7  C2  UNL     1      -2.163   1.851   0.931  1.00  0.00     0.221 C 
HETATM    8  O1  UNL     1      -2.670   2.379   1.891  1.00  0.00    -0.646 OA
HETATM    9  O2  UNL     1      -1.920   2.539  -0.200  1.00  0.00    -0.646 OA
ENDBRANCH   1   7
TORSDOF 1
