REMARK  3 active torsions:
REMARK  status: ('A' for Active; 'I' for Inactive)
REMARK    1  A    between atoms: C1_1  and  C21_28 
REMARK    2  A    between atoms: C16_19  and  O5_24 
REMARK    3  A    between atoms: C17_20  and  O4_22 
ROOT
HETATM    1  C1  UNL     1      -0.624   3.141  -2.142  1.00  0.00     0.144 A 
HETATM    2  O1  UNL     1      -1.012   1.819  -2.525  1.00  0.00    -0.329 OA
HETATM    3  C2  UNL     1      -0.060   0.925  -2.092  1.00  0.00     0.092 A 
HETATM    4  C3  UNL     1       0.930   1.558  -1.346  1.00  0.00     0.025 A 
HETATM    5  C4  UNL     1       0.640   3.029  -1.253  1.00  0.00     0.065 A 
HETATM    6  C5  UNL     1       1.986   0.863  -0.757  1.00  0.00     0.095 A 
HETATM    7  C6  UNL     1       2.011  -0.523  -1.004  1.00  0.00     0.060 A 
HETATM    8  C7  UNL     1       1.030  -1.169  -1.778  1.00  0.00     0.007 A 
HETATM    9  C8  UNL     1      -0.029  -0.448  -2.332  1.00  0.00     0.024 A 
HETATM   10  C9  UNL     1       3.077  -1.325  -0.367  1.00  0.00     0.209 C 
HETATM   11  C10 UNL     1       3.915  -0.582   0.668  1.00  0.00     0.229 C 
HETATM   12  C11 UNL     1       4.124   0.864   0.248  1.00  0.00     0.190 C 
HETATM   13  O2  UNL     1       2.932   1.535  -0.038  1.00  0.00    -0.328 OA
HETATM   14  C12 UNL     1       5.100   0.914  -0.917  1.00  0.00     0.182 C 
HETATM   15  O3  UNL     1       6.371   0.489  -0.493  1.00  0.00    -0.328 OA
HETATM   16  C13 UNL     1       6.406  -0.645   0.275  1.00  0.00     0.095 A 
HETATM   17  C14 UNL     1       5.269  -1.234   0.840  1.00  0.00     0.039 A 
HETATM   18  C15 UNL     1       5.402  -2.435   1.541  1.00  0.00     0.027 A 
HETATM   19  C16 UNL     1       6.622  -3.086   1.777  1.00  0.00     0.116 A 
HETATM   20  C17 UNL     1       7.781  -2.463   1.270  1.00  0.00     0.118 A 
HETATM   21  C18 UNL     1       7.618  -1.311   0.486  1.00  0.00     0.050 A 
HETATM   22  O6  UNL     1       3.226  -0.590   1.908  1.00  0.00    -0.211 OA
HETATM   23  O7  UNL     1       3.253  -2.516  -0.597  1.00  0.00    -0.288 OA
ENDROOT
BRANCH   1  24
HETATM   24  C21 UNL     1      -1.762   3.873  -1.470  1.00  0.00    -0.017 C 
HETATM   25  C22 UNL     1      -2.217   5.163  -2.105  1.00  0.00     0.029 C 
HETATM   26  C23 UNL     1      -2.340   3.389  -0.359  1.00  0.00    -0.007 C 
ENDBRANCH   1  24
BRANCH  19  27
HETATM   27  O5  UNL     1       6.558  -4.288   2.443  1.00  0.00    -0.326 OA
HETATM   28  C20 UNL     1       7.538  -5.275   2.225  1.00  0.00     0.181 C 
ENDBRANCH  19  27
BRANCH  20  29
HETATM   29  O4  UNL     1       9.029  -3.018   1.361  1.00  0.00    -0.326 OA
HETATM   30  C19 UNL     1       9.794  -2.506   2.429  1.00  0.00     0.181 C 
ENDBRANCH  20  29
TORSDOF 3
