REMARK  8 active torsions:
REMARK  status: ('A' for Active; 'I' for Inactive)
REMARK    1  A    between atoms: C1_1  and  O8_34 
REMARK    2  A    between atoms: C2_2  and  O6_30 
REMARK    3  A    between atoms: C10_10  and  O2_13 
REMARK    4  A    between atoms: O2_13  and  C12_14 
REMARK    5  A    between atoms: C18_21  and  O4_24 
REMARK    6  A    between atoms: O4_24  and  C21_25 
REMARK    7  A    between atoms: O6_30  and  C25_31 
REMARK    8  A    between atoms: O8_34  and  C27_35 
ROOT
HETATM    1  C1  UNL     1       1.628   1.669   1.072  1.00  0.00     0.170 C 
HETATM    2  C2  UNL     1       2.811   1.878   0.094  1.00  0.00     0.159 C 
HETATM    3  C3  UNL     1       4.160   1.132   0.284  1.00  0.00     0.047 C 
HETATM    4  C4  UNL     1       4.154  -0.384  -0.122  1.00  0.00    -0.026 C 
HETATM    5  C5  UNL     1       2.913  -1.320  -0.225  1.00  0.00    -0.028 C 
HETATM    6  C6  UNL     1       2.046  -1.894   0.935  1.00  0.00     0.058 C 
HETATM    7  C7  UNL     1       1.600  -0.840   1.965  1.00  0.00     0.023 C 
HETATM    8  C8  UNL     1       1.039   0.266   1.074  1.00  0.00    -0.020 C 
HETATM    9  C9  UNL     1       0.060  -0.092   0.204  1.00  0.00    -0.020 C 
HETATM   10  C10 UNL     1      -0.303  -1.558  -0.061  1.00  0.00     0.173 C 
HETATM   11  C11 UNL     1       0.805  -2.553   0.311  1.00  0.00     0.188 C 
HETATM   12  O1  UNL     1       0.289  -3.552   1.161  1.00  0.00    -0.220 OA
HETATM   13  C14 UNL     1      -0.768   0.876  -0.620  1.00  0.00     0.028 C 
HETATM   14  C15 UNL     1       0.478  -1.243   2.960  1.00  0.00     0.004 C 
HETATM   15  C16 UNL     1       2.796  -0.655   2.921  1.00  0.00     0.004 C 
HETATM   16  C17 UNL     1       5.499  -1.010   0.184  1.00  0.00     0.001 C 
HETATM   17  C18 UNL     1       6.673  -0.387  -0.558  1.00  0.00     0.146 C 
HETATM   18  C19 UNL     1       6.637   1.148  -0.520  1.00  0.00     0.035 C 
HETATM   19  C20 UNL     1       5.228   1.756  -0.694  1.00  0.00     0.009 C 
HETATM   20  C23 UNL     1       5.664  -2.060   1.002  1.00  0.00    -0.003 C 
HETATM   21  C24 UNL     1       4.767   1.496   1.669  1.00  0.00     0.007 C 
ENDROOT
BRANCH   1  22
HETATM   22  O8  UNL     1       1.903   2.182   2.350  1.00  0.00    -0.298 OA
BRANCH  22  23
HETATM   23  C27 UNL     1       0.856   2.539   3.139  1.00  0.00     0.273 C 
HETATM   24  C28 UNL     1       1.366   3.138   4.434  1.00  0.00     0.106 C 
HETATM   25  O9  UNL     1      -0.312   2.414   2.846  1.00  0.00    -0.264 OA
ENDBRANCH  22  23
ENDBRANCH   1  22
BRANCH   2  26
HETATM   26  O6  UNL     1       2.355   1.650  -1.216  1.00  0.00    -0.301 OA
BRANCH  26  27
HETATM   27  C25 UNL     1       2.254   2.688  -2.089  1.00  0.00     0.272 C 
HETATM   28  C26 UNL     1       1.852   2.177  -3.458  1.00  0.00     0.106 C 
HETATM   29  O7  UNL     1       2.478   3.849  -1.833  1.00  0.00    -0.264 OA
ENDBRANCH  26  27
ENDBRANCH   2  26
BRANCH  10  30
HETATM   30  O2  UNL     1      -0.612  -1.763  -1.428  1.00  0.00    -0.297 OA
BRANCH  30  31
HETATM   31  C12 UNL     1      -1.884  -2.076  -1.798  1.00  0.00     0.273 C 
HETATM   32  C13 UNL     1      -1.969  -2.190  -3.308  1.00  0.00     0.106 C 
HETATM   33  O3  UNL     1      -2.824  -2.231  -1.052  1.00  0.00    -0.264 OA
ENDBRANCH  30  31
ENDBRANCH  10  30
BRANCH  17  34
HETATM   34  O4  UNL     1       6.668  -0.842  -1.892  1.00  0.00    -0.300 OA
BRANCH  34  35
HETATM   35  C21 UNL     1       7.839  -0.782  -2.586  1.00  0.00     0.273 C 
HETATM   36  C22 UNL     1       7.636  -1.245  -4.014  1.00  0.00     0.106 C 
HETATM   37  O5  UNL     1       8.897  -0.403  -2.138  1.00  0.00    -0.264 OA
ENDBRANCH  34  35
ENDBRANCH  17  34
TORSDOF 8
