REMARK  6 active torsions:
REMARK  status: ('A' for Active; 'I' for Inactive)
REMARK    1  A    between atoms: C1_1  and  O5_30 
REMARK    2  A    between atoms: C11_11  and  C12_12 
REMARK    3  A    between atoms: C12_12  and  C13_13 
REMARK    4  A    between atoms: C19_21  and  O3_24 
REMARK    5  A    between atoms: O3_24  and  C22_25 
REMARK    6  A    between atoms: O5_30  and  C26_31 
ROOT
HETATM    1  C1  UNL     1       0.329   2.279   0.475  1.00  0.00     0.142 C 
HETATM    2  C2  UNL     1       1.556   2.449  -0.453  1.00  0.00     0.038 C 
HETATM    3  C3  UNL     1       2.907   1.726  -0.204  1.00  0.00     0.020 C 
HETATM    4  C4  UNL     1       2.918   0.188  -0.516  1.00  0.00    -0.017 C 
HETATM    5  C5  UNL     1       1.701  -0.772  -0.646  1.00  0.00     0.171 C 
HETATM    6  C6  UNL     1       0.777  -1.274   0.510  1.00  0.00     0.039 C 
HETATM    7  C7  UNL     1       0.320  -0.173   1.491  1.00  0.00     0.019 C 
HETATM    8  C8  UNL     1      -0.237   0.869   0.526  1.00  0.00    -0.025 C 
HETATM    9  C9  UNL     1      -1.198   0.436  -0.328  1.00  0.00    -0.050 C 
HETATM   10  C10 UNL     1      -1.593  -1.034  -0.416  1.00  0.00     0.022 C 
HETATM   11  C11 UNL     1      -0.453  -2.022  -0.074  1.00  0.00     0.014 C 
HETATM   12  C15 UNL     1      -1.950   1.283  -1.334  1.00  0.00     0.026 C 
HETATM   13  C16 UNL     1      -0.802  -0.507   2.511  1.00  0.00     0.004 C 
HETATM   14  C17 UNL     1       1.508   0.071   2.443  1.00  0.00     0.004 C 
HETATM   15  O2  UNL     1       0.938  -0.304  -1.746  1.00  0.00    -0.219 OA
HETATM   16  C18 UNL     1       4.270  -0.410  -0.186  1.00  0.00    -0.000 C 
HETATM   17  C19 UNL     1       5.418   0.162  -1.008  1.00  0.00     0.146 C 
HETATM   18  C20 UNL     1       5.376   1.697  -1.035  1.00  0.00     0.035 C 
HETATM   19  C21 UNL     1       3.966   2.302  -1.218  1.00  0.00     0.007 C 
HETATM   20  C24 UNL     1       4.455  -1.388   0.713  1.00  0.00    -0.003 C 
HETATM   21  C25 UNL     1       3.494   2.180   1.162  1.00  0.00     0.004 C 
ENDROOT
BRANCH   1  22
HETATM   22  O5  UNL     1       0.558   2.841   1.740  1.00  0.00    -0.300 OA
BRANCH  22  23
HETATM   23  C26 UNL     1      -0.435   3.323   2.542  1.00  0.00     0.273 C 
HETATM   24  O6  UNL     1      -0.206   3.771   3.646  1.00  0.00    -0.264 OA
HETATM   25  C27 UNL     1      -1.851   3.287   1.991  1.00  0.00     0.106 C 
ENDBRANCH  22  23
ENDBRANCH   1  22
BRANCH  11  26
HETATM   26  C12 UNL     1      -0.918  -3.249   0.740  1.00  0.00     0.065 C 
BRANCH  26  27
HETATM   27  C13 UNL     1      -1.877  -4.176   0.004  1.00  0.00     0.151 C 
HETATM   28  O1  UNL     1      -2.329  -3.909  -1.086  1.00  0.00    -0.296 OA
HETATM   29  C14 UNL     1      -2.235  -5.475   0.703  1.00  0.00     0.072 C 
ENDBRANCH  26  27
ENDBRANCH  11  26
BRANCH  17  30
HETATM   30  O3  UNL     1       5.338  -0.357  -2.316  1.00  0.00    -0.300 OA
BRANCH  30  31
HETATM   31  C22 UNL     1       6.444  -0.294  -3.104  1.00  0.00     0.273 C 
HETATM   32  C23 UNL     1       6.130  -0.830  -4.487  1.00  0.00     0.106 C 
HETATM   33  O4  UNL     1       7.523   0.134  -2.763  1.00  0.00    -0.264 OA
ENDBRANCH  30  31
ENDBRANCH  17  30
TORSDOF 6
