REMARK  4 active torsions:
REMARK  status: ('A' for Active; 'I' for Inactive)
REMARK    1  A    between atoms: C1_1  and  O6_23 
REMARK    2  A    between atoms: C3_3  and  O5_21 
REMARK    3  A    between atoms: C7_9  and  C10_13 
REMARK    4  A    between atoms: C13_16  and  O4_19 
ROOT
HETATM    1  C1  UNL     1      -0.205   1.648  -0.023  1.00  0.00     0.123 A 
HETATM    2  C2  UNL     1       0.319   2.941   0.014  1.00  0.00     0.051 A 
HETATM    3  C3  UNL     1       1.669   3.320   0.046  1.00  0.00     0.101 A 
HETATM    4  C4  UNL     1       2.590   2.243   0.038  1.00  0.00     0.086 A 
HETATM    5  C5  UNL     1       2.124   0.907   0.005  1.00  0.00     0.132 A 
HETATM    6  C6  UNL     1       0.748   0.618  -0.022  1.00  0.00     0.176 A 
HETATM    7  O1  UNL     1       0.392  -0.694  -0.056  1.00  0.00    -0.186 OA
HETATM    8  O2  UNL     1       2.934  -0.200  -0.002  1.00  0.00    -0.305 OA
HETATM    9  C7  UNL     1       4.291  -0.079   0.015  1.00  0.00     0.103 A 
HETATM   10  C8  UNL     1       4.871   1.140   0.047  1.00  0.00     0.067 A 
HETATM   11  C9  UNL     1       4.073   2.385   0.064  1.00  0.00     0.202 A 
HETATM   12  O3  UNL     1       4.728   3.418   0.096  1.00  0.00    -0.286 OA
ENDROOT
BRANCH   9  13
HETATM   13  C10 UNL     1       5.125  -1.305  -0.000  1.00  0.00     0.023 A 
HETATM   14  C11 UNL     1       4.495  -2.561  -0.031  1.00  0.00     0.004 A 
HETATM   15  C12 UNL     1       5.229  -3.747  -0.045  1.00  0.00     0.024 A 
HETATM   16  C13 UNL     1       6.631  -3.773  -0.030  1.00  0.00     0.094 A 
HETATM   17  C14 UNL     1       7.253  -2.519  -0.000  1.00  0.00     0.024 A 
HETATM   18  C15 UNL     1       6.528  -1.324   0.014  1.00  0.00     0.004 A 
BRANCH  16  19
HETATM   19  O4  UNL     1       7.280  -4.983  -0.045  1.00  0.00    -0.328 OA
HETATM   20  C16 UNL     1       8.688  -4.987  -0.034  1.00  0.00     0.181 C 
ENDBRANCH  16  19
ENDBRANCH   9  13
BRANCH   3  21
HETATM   21  O5  UNL     1       1.819   4.690   0.076  1.00  0.00    -0.328 OA
HETATM   22  C17 UNL     1       3.041   5.371   0.104  1.00  0.00     0.181 C 
ENDBRANCH   3  21
BRANCH   1  23
HETATM   23  O6  UNL     1      -1.577   1.553  -0.047  1.00  0.00    -0.326 OA
HETATM   24  C18 UNL     1      -2.247   0.319  -0.059  1.00  0.00     0.181 C 
ENDBRANCH   1  23
TORSDOF 4
