REMARK  3 active torsions:
REMARK  status: ('A' for Active; 'I' for Inactive)
REMARK    1  A    between atoms: O1_2  and  C2_3 
REMARK    2  A    between atoms: C3_4  and  O2_5 
REMARK    3  A    between atoms: C15_19  and  O5_20 
ROOT
HETATM    1  C2  UNL     1      -1.507   2.532  -0.020  1.00  0.00     0.120 A 
HETATM    2  C3  UNL     1      -1.500   2.220  -1.399  1.00  0.00     0.142 A 
HETATM    3  C5  UNL     1      -1.403   0.863  -1.792  1.00  0.00     0.160 A 
HETATM    4  C6  UNL     1      -1.360  -0.164  -0.822  1.00  0.00     0.089 A 
HETATM    5  C7  UNL     1      -1.410   0.126   0.545  1.00  0.00     0.107 A 
HETATM    6  C8  UNL     1      -1.488   1.471   0.891  1.00  0.00     0.051 A 
HETATM    7  O3  UNL     1      -1.395  -0.791   1.551  1.00  0.00    -0.305 OA
HETATM    8  C9  UNL     1      -1.298  -2.119   1.274  1.00  0.00     0.125 A 
HETATM    9  C10 UNL     1      -1.233  -2.579  -0.054  1.00  0.00     0.064 A 
HETATM   10  C11 UNL     1      -1.267  -1.607  -1.178  1.00  0.00     0.202 A 
HETATM   11  O4  UNL     1      -1.217  -2.020  -2.332  1.00  0.00    -0.286 OA
HETATM   12  C12 UNL     1      -1.136  -3.943  -0.360  1.00  0.00     0.005 A 
HETATM   13  C13 UNL     1      -1.103  -4.874   0.673  1.00  0.00     0.002 A 
HETATM   14  C14 UNL     1      -1.167  -4.420   1.987  1.00  0.00     0.026 A 
HETATM   15  C15 UNL     1      -1.264  -3.061   2.328  1.00  0.00     0.117 A 
HETATM   16  O6  UNL     1      -1.357   0.556  -3.118  1.00  0.00    -0.188 OA
ENDROOT
BRANCH   1  17
HETATM   17  O1  UNL     1      -1.623   3.783   0.546  1.00  0.00    -0.326 OA
HETATM   18  C1  UNL     1      -2.173   4.862  -0.169  1.00  0.00     0.181 C 
ENDBRANCH   1  17
BRANCH   2  19
HETATM   19  O2  UNL     1      -1.545   3.289  -2.264  1.00  0.00    -0.324 OA
HETATM   20  C4  UNL     1      -1.467   3.157  -3.660  1.00  0.00     0.182 C 
ENDBRANCH   2  19
BRANCH  15  21
HETATM   21  O5  UNL     1      -1.317  -2.792   3.677  1.00  0.00    -0.326 OA
HETATM   22  C16 UNL     1      -1.420  -1.473   4.157  1.00  0.00     0.181 C 
ENDBRANCH  15  21
TORSDOF 3
