REMARK  5 active torsions:
REMARK  status: ('A' for Active; 'I' for Inactive)
REMARK    1  A    between atoms: C1_1  and  C13_17 
REMARK    2  A    between atoms: C13_17  and  C14_18 
REMARK    3  A    between atoms: C15_19  and  C17_21 
REMARK    4  A    between atoms: C17_21  and  C18_22 
REMARK    5  A    between atoms: C18_22  and  C19_23 
ROOT
HETATM    1  C1  UNL     1      -1.137  -2.097   1.160  1.00  0.00     0.099 C 
HETATM    2  C2  UNL     1      -1.127  -3.589   1.491  1.00  0.00     0.176 C 
HETATM    3  C3  UNL     1       0.126  -4.359   1.321  1.00  0.00     0.039 C 
HETATM    4  C4  UNL     1       1.317  -3.727   1.167  1.00  0.00     0.134 C 
HETATM    5  C5  UNL     1       1.366  -2.260   1.237  1.00  0.00     0.078 C 
HETATM    6  C6  UNL     1       0.253  -1.484   1.280  1.00  0.00     0.083 C 
HETATM    7  O1  UNL     1       0.258  -0.118   1.392  1.00  0.00    -0.337 OA
HETATM    8  C7  UNL     1       1.447   0.501   1.773  1.00  0.00     0.129 C 
HETATM    9  C8  UNL     1       2.619  -0.068   0.989  1.00  0.00     0.099 C 
HETATM   10  C9  UNL     1       2.684  -1.564   1.212  1.00  0.00     0.179 C 
HETATM   11  O2  UNL     1       3.765  -2.122   1.338  1.00  0.00    -0.291 OA
HETATM   12  C10 UNL     1       1.305   2.008   1.567  1.00  0.00     0.033 C 
HETATM   13  O3  UNL     1       2.444  -4.477   1.004  1.00  0.00    -0.190 OA
HETATM   14  C11 UNL     1       0.004  -5.867   1.339  1.00  0.00     0.036 C 
HETATM   15  O4  UNL     1      -2.159  -4.167   1.811  1.00  0.00    -0.291 OA
HETATM   16  C12 UNL     1      -2.119  -1.433   2.153  1.00  0.00     0.015 C 
ENDROOT
BRANCH   1  17
HETATM   17  C13 UNL     1      -1.637  -1.994  -0.304  1.00  0.00     0.039 C 
BRANCH  17  18
HETATM   18  C14 UNL     1      -1.771  -0.589  -0.839  1.00  0.00    -0.034 C 
HETATM   19  C15 UNL     1      -1.874  -0.231  -2.132  1.00  0.00    -0.048 C 
HETATM   20  C16 UNL     1      -1.939  -1.232  -3.263  1.00  0.00     0.026 C 
BRANCH  19  21
HETATM   21  C17 UNL     1      -1.938   1.218  -2.585  1.00  0.00     0.026 C 
BRANCH  21  22
HETATM   22  C18 UNL     1      -1.701   2.281  -1.500  1.00  0.00     0.030 C 
BRANCH  22  23
HETATM   23  C19 UNL     1      -1.643   3.691  -2.032  1.00  0.00    -0.034 C 
HETATM   24  C20 UNL     1      -1.415   4.782  -1.279  1.00  0.00    -0.048 C 
HETATM   25  C21 UNL     1      -1.347   6.162  -1.889  1.00  0.00     0.026 C 
HETATM   26  C22 UNL     1      -1.203   4.740   0.216  1.00  0.00     0.026 C 
ENDBRANCH  22  23
ENDBRANCH  21  22
ENDBRANCH  19  21
ENDBRANCH  17  18
ENDBRANCH   1  17
TORSDOF 5
