REMARK  3 active torsions:
REMARK  status: ('A' for Active; 'I' for Inactive)
REMARK    1  A    between atoms: C7_7  and  C9_10 
REMARK    2  A    between atoms: C9_10  and  C10_11 
REMARK    3  A    between atoms: C10_11  and  C11_12 
ROOT
HETATM    1  C1  UNL     1       4.404   1.082  -0.428  1.00  0.00     0.131 A 
HETATM    2  C2  UNL     1       5.254  -0.021  -0.738  1.00  0.00     0.029 A 
HETATM    3  C3  UNL     1       4.830  -1.327  -0.639  1.00  0.00     0.021 A 
HETATM    4  C4  UNL     1       3.495  -1.551  -0.221  1.00  0.00     0.081 A 
HETATM    5  C5  UNL     1       2.633  -0.491   0.088  1.00  0.00     0.017 A 
HETATM    6  C6  UNL     1       3.110   0.842  -0.010  1.00  0.00     0.029 A 
HETATM    7  C7  UNL     1       1.372  -1.054   0.465  1.00  0.00     0.001 A 
HETATM    8  C8  UNL     1       1.514  -2.419   0.374  1.00  0.00     0.095 A 
HETATM    9  N1  UNL     1       2.797  -2.723  -0.038  1.00  0.00    -0.244 NA
HETATM   10  O3  UNL     1       4.858   2.359  -0.541  1.00  0.00    -0.190 OA
ENDROOT
BRANCH   7  11
HETATM   11  C9  UNL     1       0.100  -0.361   0.873  1.00  0.00     0.079 C 
BRANCH  11  12
HETATM   12  C10 UNL     1      -0.285   0.876   0.048  1.00  0.00     0.392 C 
HETATM   13  N2  UNL     1       0.009   0.647  -1.377  1.00  0.00     0.628 N 
BRANCH  12  14
HETATM   14  C11 UNL     1      -1.743   1.268   0.187  1.00  0.00     0.224 C 
HETATM   15  O1  UNL     1      -2.472   1.595  -0.719  1.00  0.00    -0.646 OA
HETATM   16  O2  UNL     1      -2.160   1.260   1.466  1.00  0.00    -0.646 OA
ENDBRANCH  12  14
ENDBRANCH  11  12
ENDBRANCH   7  11
TORSDOF 3
