REMARK  2 active torsions:
REMARK  status: ('A' for Active; 'I' for Inactive)
REMARK    1  A    between atoms: C2_3  and  C5_6 
REMARK    2  A    between atoms: C5_6  and  C6_7 
ROOT
HETATM    1  C1  UNL     1      -2.484   0.377  -0.851  1.00  0.00     0.250 C 
HETATM    2  N1  UNL     1      -1.219  -0.308  -1.052  1.00  0.00     0.138 N 
HETATM    3  C2  UNL     1      -0.486  -0.088   0.187  1.00  0.00     0.227 C 
HETATM    4  C3  UNL     1      -0.741   1.404   0.480  1.00  0.00     0.036 C 
HETATM    5  C4  UNL     1      -2.089   1.710  -0.199  1.00  0.00     0.037 C 
HETATM    6  C8  UNL     1      -1.394  -1.702  -1.418  1.00  0.00     0.285 C 
ENDROOT
BRANCH   3   7
HETATM    7  C5  UNL     1       1.005  -0.453   0.086  1.00  0.00     0.098 C 
BRANCH   7   8
HETATM    8  C6  UNL     1       1.808  -0.214   1.356  1.00  0.00     0.153 C 
HETATM    9  C7  UNL     1       3.305  -0.444   1.259  1.00  0.00     0.072 C 
HETATM   10  O1  UNL     1       1.295   0.122   2.399  1.00  0.00    -0.296 OA
ENDBRANCH   7   8
ENDBRANCH   3   7
TORSDOF 2
