REMARK  1 active torsions:
REMARK  status: ('A' for Active; 'I' for Inactive)
REMARK    1  A    between atoms: C9_10  and  C10_11 
ROOT
HETATM    1  C1  UNL     1      -1.891  -1.132   0.145  1.00  0.00     0.149 A 
HETATM    2  C2  UNL     1      -0.997  -0.094   0.800  1.00  0.00     0.150 A 
HETATM    3  C3  UNL     1       0.391  -0.605   1.133  1.00  0.00     0.059 C 
HETATM    4  C4  UNL     1       1.049  -1.621   0.263  1.00  0.00    -0.011 C 
HETATM    5  C5  UNL     1       0.252  -2.551  -0.303  1.00  0.00    -0.042 C 
HETATM    6  C6  UNL     1      -1.221  -2.467  -0.110  1.00  0.00     0.054 C 
HETATM    7  C7  UNL     1       0.799  -3.712  -1.055  1.00  0.00     0.048 C 
HETATM    8  C8  UNL     1       2.216  -4.156  -0.814  1.00  0.00     0.130 C 
HETATM    9  N1  UNL     1       3.232  -3.209  -0.400  1.00  0.00    -0.272 NA
HETATM   10  C9  UNL     1       2.529  -1.683   0.124  1.00  0.00     0.081 C 
HETATM   11  O5  UNL     1      -1.706   0.339   1.968  1.00  0.00    -0.327 OA
HETATM   12  C19 UNL     1      -2.979  -0.290   2.049  1.00  0.00     0.294 A 
HETATM   13  O6  UNL     1      -3.037  -1.249   0.999  1.00  0.00    -0.327 OA
ENDROOT
BRANCH  10  14
HETATM   14  C10 UNL     1       3.576  -0.597   0.275  1.00  0.00     0.185 A 
HETATM   15  C11 UNL     1       3.122   0.835   0.071  1.00  0.00     0.013 A 
HETATM   16  C12 UNL     1       3.764   1.370  -1.120  1.00  0.00     0.045 A 
HETATM   17  C17 UNL     1       2.403   1.658   0.867  1.00  0.00     0.004 C 
HETATM   18  C13 UNL     1       4.665   0.259  -1.556  1.00  0.00     0.228 A 
HETATM   19  C14 UNL     1       3.619   2.610  -1.630  1.00  0.00     0.010 C 
HETATM   20  O1  UNL     1       4.591  -0.823  -0.725  1.00  0.00    -0.301 OA
HETATM   21  O2  UNL     1       5.466   0.326  -2.600  1.00  0.00    -0.163 OA
HETATM   22  C15 UNL     1       2.715   3.542  -0.879  1.00  0.00     0.172 A 
HETATM   23  C16 UNL     1       2.139   3.080   0.447  1.00  0.00     0.171 A 
HETATM   24  O4  UNL     1       1.635   4.112  -1.621  1.00  0.00    -0.322 OA
HETATM   25  O3  UNL     1       0.745   3.405   0.380  1.00  0.00    -0.322 OA
HETATM   26  C18 UNL     1       0.442   4.073  -0.843  1.00  0.00     0.295 A 
ENDBRANCH  10  14
TORSDOF 1
