REMARK  0 active torsions:
REMARK  status: ('A' for Active; 'I' for Inactive)
ROOT
HETATM    1  C1  UNL     1       2.289   4.259  -0.273  1.00  0.00     0.023 C 
HETATM    2  C2  UNL     1       1.216   3.398  -0.428  1.00  0.00    -0.020 C 
HETATM    3  C3  UNL     1       1.360   2.038  -0.033  1.00  0.00    -0.004 C 
HETATM    4  C4  UNL     1       2.664   1.542   0.140  1.00  0.00     0.005 C 
HETATM    5  C5  UNL     1       3.744   2.452   0.282  1.00  0.00     0.064 C 
HETATM    6  C6  UNL     1       3.558   3.827   0.155  1.00  0.00     0.134 C 
HETATM    7  O1  UNL     1       4.568   4.733   0.246  1.00  0.00    -0.190 OA
HETATM    8  C7  UNL     1       5.114   1.936   0.513  1.00  0.00     0.200 C 
HETATM    9  C8  UNL     1       5.367   0.509   0.199  1.00  0.00     0.065 C 
HETATM   10  C9  UNL     1       4.268  -0.384   0.112  1.00  0.00     0.007 C 
HETATM   11  C10 UNL     1       2.905   0.114   0.115  1.00  0.00     0.000 C 
HETATM   12  C11 UNL     1       1.848  -0.758  -0.110  1.00  0.00     0.000 C 
HETATM   13  C12 UNL     1       0.484  -0.263  -0.119  1.00  0.00     0.005 C 
HETATM   14  C13 UNL     1       0.243   1.107   0.085  1.00  0.00    -0.004 C 
HETATM   15  C14 UNL     1      -1.058   1.492   0.510  1.00  0.00    -0.020 C 
HETATM   16  C15 UNL     1      -2.103   0.597   0.353  1.00  0.00     0.023 C 
HETATM   17  C16 UNL     1      -1.928  -0.718  -0.118  1.00  0.00     0.134 C 
HETATM   18  C17 UNL     1      -0.612  -1.154  -0.271  1.00  0.00     0.064 C 
HETATM   19  C18 UNL     1      -0.347  -2.585  -0.557  1.00  0.00     0.200 C 
HETATM   20  C19 UNL     1       1.010  -3.098  -0.255  1.00  0.00     0.065 C 
HETATM   21  C20 UNL     1       2.088  -2.188  -0.128  1.00  0.00     0.007 C 
HETATM   22  C21 UNL     1       3.389  -2.685   0.060  1.00  0.00     0.028 C 
HETATM   23  C22 UNL     1       4.507  -1.757  -0.067  1.00  0.00     0.028 C 
HETATM   24  C23 UNL     1       5.794  -2.174  -0.492  1.00  0.00     0.133 C 
HETATM   25  C24 UNL     1       6.827  -1.252  -0.484  1.00  0.00     0.055 C 
HETATM   26  C25 UNL     1       6.668   0.083  -0.072  1.00  0.00     0.136 C 
HETATM   27  O2  UNL     1       7.752   0.906  -0.100  1.00  0.00    -0.190 OA
HETATM   28  O3  UNL     1       6.049  -3.421  -0.967  1.00  0.00    -0.190 OA
HETATM   29  C26 UNL     1       3.550  -4.037   0.463  1.00  0.00     0.133 C 
HETATM   30  C27 UNL     1       2.457  -4.885   0.388  1.00  0.00     0.055 C 
HETATM   31  C28 UNL     1       1.185  -4.463  -0.035  1.00  0.00     0.136 C 
HETATM   32  O4  UNL     1       0.167  -5.364  -0.067  1.00  0.00    -0.190 OA
HETATM   33  O5  UNL     1       4.718  -4.526   0.957  1.00  0.00    -0.190 OA
HETATM   34  O6  UNL     1      -1.220  -3.318  -1.015  1.00  0.00    -0.286 OA
HETATM   35  O7  UNL     1      -3.019  -1.529  -0.202  1.00  0.00    -0.190 OA
HETATM   36  C29 UNL     1      -1.370   2.774   1.250  1.00  0.00     0.031 C 
HETATM   37  O8  UNL     1       6.017   2.653   0.935  1.00  0.00    -0.286 OA
HETATM   38  C30 UNL     1       0.002   3.953  -1.137  1.00  0.00     0.031 C 
ENDROOT
TORSDOF 0
