REMARK  6 active torsions:
REMARK  status: ('A' for Active; 'I' for Inactive)
REMARK    1  A    between atoms: C2_2  and  O5_22 
REMARK    2  A    between atoms: C3_3  and  O4_20 
REMARK    3  A    between atoms: C4_4  and  O3_18 
REMARK    4  A    between atoms: C12_12  and  O2_16 
REMARK    5  A    between atoms: O5_22  and  C18_23 
REMARK    6  A    between atoms: C19_25  and  C23_32 
ROOT
HETATM    1  C1  UNL     1       4.243   1.332   0.308  1.00  0.00     0.026 C 
HETATM    2  C2  UNL     1       2.864   1.282   0.426  1.00  0.00     0.121 C 
HETATM    3  C3  UNL     1       2.208   0.058   0.074  1.00  0.00     0.139 C 
HETATM    4  C4  UNL     1       2.985  -1.065  -0.273  1.00  0.00     0.118 C 
HETATM    5  C5  UNL     1       4.404  -1.046  -0.084  1.00  0.00     0.025 C 
HETATM    6  C6  UNL     1       5.031   0.200   0.033  1.00  0.00     0.004 C 
HETATM    7  C7  UNL     1       6.458   0.352  -0.127  1.00  0.00     0.000 C 
HETATM    8  C8  UNL     1       7.244  -0.737  -0.337  1.00  0.00     0.000 C 
HETATM    9  C9  UNL     1       6.664  -2.056  -0.257  1.00  0.00     0.002 C 
HETATM   10  C10 UNL     1       5.283  -2.219  -0.073  1.00  0.00     0.004 C 
HETATM   11  C11 UNL     1       4.870  -3.532   0.264  1.00  0.00     0.026 C 
HETATM   12  C12 UNL     1       5.683  -4.662   0.265  1.00  0.00     0.119 C 
HETATM   13  C13 UNL     1       7.053  -4.475  -0.070  1.00  0.00     0.153 C 
HETATM   14  C14 UNL     1       7.509  -3.188  -0.298  1.00  0.00     0.029 C 
HETATM   15  O1  UNL     1       7.962  -5.485  -0.107  1.00  0.00    -0.188 OA
ENDROOT
BRANCH   2  16
HETATM   16  O5  UNL     1       2.296   2.482   0.795  1.00  0.00    -0.302 OA
BRANCH  16  17
HETATM   17  C18 UNL     1       0.918   2.757   0.757  1.00  0.00     0.274 C 
HETATM   18  O6  UNL     1       0.583   2.957  -0.598  1.00  0.00    -0.326 OA
HETATM   19  C19 UNL     1      -0.775   3.268  -0.776  1.00  0.00     0.184 C 
HETATM   20  C20 UNL     1      -1.124   4.546  -0.017  1.00  0.00     0.215 C 
HETATM   21  C21 UNL     1      -0.760   4.411   1.446  1.00  0.00     0.220 C 
HETATM   22  O9  UNL     1      -2.501   4.823  -0.088  1.00  0.00    -0.218 OA
HETATM   23  C22 UNL     1       0.701   4.038   1.531  1.00  0.00     0.241 C 
HETATM   24  O8  UNL     1      -0.980   5.632   2.105  1.00  0.00    -0.218 OA
HETATM   25  O7  UNL     1       1.048   3.835   2.878  1.00  0.00    -0.215 OA
BRANCH  19  26
HETATM   26  C23 UNL     1      -1.042   3.432  -2.266  1.00  0.00     0.214 C 
HETATM   27  O10 UNL     1      -0.829   2.206  -2.937  1.00  0.00    -0.218 OA
ENDBRANCH  19  26
ENDBRANCH  16  17
ENDBRANCH   2  16
BRANCH   3  28
HETATM   28  O4  UNL     1       0.833   0.091   0.091  1.00  0.00    -0.324 OA
HETATM   29  C17 UNL     1       0.002  -0.993  -0.235  1.00  0.00     0.182 C 
ENDBRANCH   3  28
BRANCH   4  30
HETATM   30  O3  UNL     1       2.389  -2.244  -0.633  1.00  0.00    -0.326 OA
HETATM   31  C16 UNL     1       2.554  -2.581  -1.993  1.00  0.00     0.181 C 
ENDBRANCH   4  30
BRANCH  12  32
HETATM   32  O2  UNL     1       5.081  -5.850   0.610  1.00  0.00    -0.326 OA
HETATM   33  C15 UNL     1       5.826  -7.041   0.665  1.00  0.00     0.181 C 
ENDBRANCH  12  32
TORSDOF 6
