REMARK  12 active torsions:
REMARK  status: ('A' for Active; 'I' for Inactive)
REMARK    1  A    between atoms: C3_3  and  O6_21 
REMARK    2  A    between atoms: C6_6  and  C7_7 
REMARK    3  A    between atoms: C7_7  and  C8_8 
REMARK    4  A    between atoms: C8_8  and  C9_9 
REMARK    5  A    between atoms: C9_9  and  O1_10 
REMARK    6  A    between atoms: O1_10  and  C10_11 
REMARK    7  A    between atoms: O6_21  and  C16_22 
REMARK    8  A    between atoms: C16_22  and  C17_23 
REMARK    9  A    between atoms: C16_22  and  C26_36 
REMARK   10  A    between atoms: C17_23  and  C18_25 
REMARK   11  A    between atoms: C20_27  and  O10_34 
REMARK   12  A    between atoms: C22_29  and  O8_31 
ROOT
HETATM    1  C1  UNL     1      -0.746   0.848   0.448  1.00  0.00    -0.002 A 
HETATM    2  C2  UNL     1      -0.342  -0.432   0.829  1.00  0.00     0.024 A 
HETATM    3  C3  UNL     1      -0.572  -1.568   0.039  1.00  0.00     0.094 A 
HETATM    4  C4  UNL     1      -1.279  -1.345  -1.152  1.00  0.00     0.024 A 
HETATM    5  C5  UNL     1      -1.688  -0.068  -1.547  1.00  0.00    -0.002 A 
HETATM    6  C6  UNL     1      -1.429   1.052  -0.753  1.00  0.00    -0.022 A 
ENDROOT
BRANCH   3   7
HETATM    7  O6  UNL     1      -0.167  -2.787   0.523  1.00  0.00    -0.328 OA
BRANCH   7   8
HETATM    8  C16 UNL     1      -0.762  -3.969   0.066  1.00  0.00     0.189 C 
BRANCH   8   9
HETATM    9  C17 UNL     1       0.079  -5.156   0.555  1.00  0.00     0.205 C 
HETATM   10  O7  UNL     1      -0.265  -6.274  -0.247  1.00  0.00    -0.216 OA
BRANCH   9  11
HETATM   11  C18 UNL     1       0.009  -5.570   2.014  1.00  0.00     0.014 C 
HETATM   12  C19 UNL     1       0.342  -6.877   2.386  1.00  0.00     0.025 C 
HETATM   13  C20 UNL     1       0.391  -7.304   3.719  1.00  0.00     0.121 C 
HETATM   14  C21 UNL     1      -0.078  -6.428   4.707  1.00  0.00     0.175 C 
HETATM   15  C22 UNL     1      -0.476  -5.125   4.378  1.00  0.00     0.121 C 
HETATM   16  O9  UNL     1      -0.120  -6.811   6.012  1.00  0.00    -0.186 OA
HETATM   17  C23 UNL     1      -0.323  -4.697   3.054  1.00  0.00     0.025 C 
BRANCH  13  18
HETATM   18  O10 UNL     1       0.700  -8.604   4.022  1.00  0.00    -0.326 OA
HETATM   19  C25 UNL     1       2.041  -8.787   4.416  1.00  0.00     0.181 C 
ENDBRANCH  13  18
BRANCH  15  20
HETATM   20  O8  UNL     1      -0.804  -4.246   5.375  1.00  0.00    -0.326 OA
HETATM   21  C24 UNL     1      -2.195  -4.104   5.557  1.00  0.00     0.181 C 
ENDBRANCH  15  20
ENDBRANCH   9  11
ENDBRANCH   8   9
BRANCH   8  22
HETATM   22  C26 UNL     1      -2.229  -4.051   0.476  1.00  0.00     0.215 C 
HETATM   23  O11 UNL     1      -2.769  -5.302   0.098  1.00  0.00    -0.218 OA
ENDBRANCH   8  22
ENDBRANCH   7   8
ENDBRANCH   3   7
BRANCH   6  24
HETATM   24  C7  UNL     1      -1.896   2.432  -1.158  1.00  0.00     0.029 C 
BRANCH  24  25
HETATM   25  C8  UNL     1      -0.830   3.179  -1.974  1.00  0.00     0.037 C 
BRANCH  25  26
HETATM   26  C9  UNL     1      -1.276   4.607  -2.293  1.00  0.00     0.145 C 
BRANCH  26  27
HETATM   27  O1  UNL     1      -0.286   5.237  -3.069  1.00  0.00    -0.329 OA
BRANCH  27  28
HETATM   28  C10 UNL     1      -0.517   6.613  -3.267  1.00  0.00     0.270 C 
HETATM   29  O2  UNL     1      -0.190   7.312  -2.086  1.00  0.00    -0.329 OA
HETATM   30  C11 UNL     1       1.173   7.416  -1.768  1.00  0.00     0.151 C 
HETATM   31  C12 UNL     1       2.036   7.896  -2.929  1.00  0.00     0.212 C 
HETATM   32  C15 UNL     1       1.713   6.175  -1.049  1.00  0.00     0.035 C 
HETATM   33  C13 UNL     1       1.734   7.200  -4.242  1.00  0.00     0.220 C 
HETATM   34  O5  UNL     1       1.828   9.279  -3.113  1.00  0.00    -0.218 OA
HETATM   35  C14 UNL     1       0.239   7.143  -4.464  1.00  0.00     0.241 C 
HETATM   36  O4  UNL     1       2.241   5.888  -4.242  1.00  0.00    -0.218 OA
HETATM   37  O3  UNL     1      -0.004   6.333  -5.590  1.00  0.00    -0.215 OA
ENDBRANCH  27  28
ENDBRANCH  26  27
ENDBRANCH  25  26
ENDBRANCH  24  25
ENDBRANCH   6  24
TORSDOF 12
