REMARK  1 active torsions:
REMARK  status: ('A' for Active; 'I' for Inactive)
REMARK    1  A    between atoms: C22_24  and  C25_27 
ROOT
HETATM    1  C1  UNL     1      -2.030   0.208   0.419  1.00  0.00     0.182 C 
HETATM    2  C2  UNL     1      -2.309  -1.148  -0.206  1.00  0.00     0.182 C 
HETATM    3  C3  UNL     1      -1.738  -1.281  -1.621  1.00  0.00     0.036 C 
HETATM    4  C4  UNL     1      -0.241  -0.947  -1.546  1.00  0.00     0.003 C 
HETATM    5  C5  UNL     1       0.021   0.513  -1.080  1.00  0.00     0.003 C 
HETATM    6  C6  UNL     1      -0.554   0.611   0.353  1.00  0.00     0.036 C 
HETATM    7  C7  UNL     1       1.550   0.810  -1.163  1.00  0.00     0.000 C 
HETATM    8  C8  UNL     1       2.380  -0.486  -1.090  1.00  0.00     0.000 C 
HETATM    9  C9  UNL     1       2.123  -1.291  -2.381  1.00  0.00     0.000 C 
HETATM   10  C10 UNL     1       0.622  -1.314  -2.762  1.00  0.00     0.000 C 
HETATM   11  C11 UNL     1       3.842  -0.207  -0.712  1.00  0.00     0.003 C 
HETATM   12  C12 UNL     1       4.359   1.162  -1.169  1.00  0.00     0.003 C 
HETATM   13  C13 UNL     1       3.519   2.328  -0.623  1.00  0.00     0.000 C 
HETATM   14  C14 UNL     1       2.102   1.880  -0.206  1.00  0.00     0.000 C 
HETATM   15  C15 UNL     1       5.867   1.089  -0.843  1.00  0.00     0.032 C 
HETATM   16  C16 UNL     1       6.206  -0.412  -0.858  1.00  0.00     0.118 C 
HETATM   17  C17 UNL     1       4.925  -1.161  -1.230  1.00  0.00     0.030 C 
HETATM   18  O1  UNL     1       6.587  -0.773   0.438  1.00  0.00    -0.337 OA
HETATM   19  C18 UNL     1       7.163   0.346   1.051  1.00  0.00     0.187 C 
HETATM   20  C19 UNL     1       6.303   1.512   0.570  1.00  0.00     0.054 C 
HETATM   21  C20 UNL     1       6.986   2.884   0.612  1.00  0.00     0.005 C 
HETATM   22  O2  UNL     1       8.483   0.485   0.589  1.00  0.00    -0.335 OA
HETATM   23  C21 UNL     1       9.345  -0.564   0.958  1.00  0.00     0.147 C 
HETATM   24  C22 UNL     1       9.430  -0.742   2.475  1.00  0.00     0.063 C 
HETATM   25  C23 UNL     1       8.018  -0.953   3.037  1.00  0.00     0.010 C 
HETATM   26  C24 UNL     1       7.127   0.199   2.566  1.00  0.00     0.057 C 
HETATM   27  C26 UNL     1      -0.681   1.561  -1.982  1.00  0.00     0.000 C 
HETATM   28  O4  UNL     1      -3.700  -1.352  -0.213  1.00  0.00    -0.221 OA
HETATM   29  O5  UNL     1      -2.451   0.159   1.762  1.00  0.00    -0.221 OA
ENDROOT
BRANCH  24  30
HETATM   30  C25 UNL     1      10.352  -1.909   2.831  1.00  0.00     0.185 C 
HETATM   31  O3  UNL     1      10.457  -2.034   4.235  1.00  0.00    -0.221 OA
ENDBRANCH  24  30
TORSDOF 1
