REMARK  3 active torsions:
REMARK  status: ('A' for Active; 'I' for Inactive)
REMARK    1  A    between atoms: C10_12  and  C15_19 
REMARK    2  A    between atoms: C11_13  and  O4_17 
REMARK    3  A    between atoms: C15_19  and  C16_20 
ROOT
HETATM    1  C1  UNL     1      -0.368   3.005   1.957  1.00  0.00     0.131 A 
HETATM    2  C2  UNL     1      -0.665   1.680   1.611  1.00  0.00     0.026 A 
HETATM    3  C3  UNL     1       0.338   0.788   1.200  1.00  0.00     0.097 A 
HETATM    4  C4  UNL     1       1.666   1.269   1.141  1.00  0.00     0.084 A 
HETATM    5  C5  UNL     1       1.997   2.592   1.465  1.00  0.00     0.107 A 
HETATM    6  C6  UNL     1       0.957   3.430   1.871  1.00  0.00     0.052 A 
HETATM    7  O1  UNL     1       3.263   3.087   1.429  1.00  0.00    -0.307 OA
HETATM    8  C7  UNL     1       4.245   2.335   0.856  1.00  0.00     0.105 C 
HETATM    9  C8  UNL     1       4.117   0.981   0.507  1.00  0.00     0.060 C 
HETATM   10  C9  UNL     1       2.773   0.364   0.719  1.00  0.00     0.201 C 
HETATM   11  O2  UNL     1       2.545  -0.825   0.521  1.00  0.00    -0.286 OA
HETATM   12  C10 UNL     1       5.209   0.249  -0.028  1.00  0.00     0.011 C 
HETATM   13  C11 UNL     1       6.396   0.935  -0.371  1.00  0.00     0.116 C 
HETATM   14  C12 UNL     1       6.559   2.261   0.059  1.00  0.00     0.155 C 
HETATM   15  C13 UNL     1       5.487   2.931   0.645  1.00  0.00     0.054 C 
HETATM   16  O3  UNL     1       7.731   2.926  -0.132  1.00  0.00    -0.188 OA
HETATM   17  O5  UNL     1       0.053  -0.491   0.799  1.00  0.00    -0.336 OA
HETATM   18  C20 UNL     1      -1.263  -0.818   0.489  1.00  0.00     0.099 C 
HETATM   19  C21 UNL     1      -2.182  -0.308   1.599  1.00  0.00     0.033 C 
HETATM   20  C22 UNL     1      -2.099   1.216   1.708  1.00  0.00     0.033 C 
HETATM   21  C23 UNL     1      -1.339  -2.350   0.424  1.00  0.00     0.030 C 
HETATM   22  C24 UNL     1      -1.625  -0.254  -0.892  1.00  0.00     0.030 C 
HETATM   23  O6  UNL     1      -1.336   3.872   2.359  1.00  0.00    -0.190 OA
ENDROOT
BRANCH  12  24
HETATM   24  C15 UNL     1       5.052  -1.242  -0.308  1.00  0.00     0.054 C 
BRANCH  24  25
HETATM   25  C16 UNL     1       6.257  -2.123  -0.520  1.00  0.00    -0.030 C 
HETATM   26  C17 UNL     1       6.396  -3.099  -1.438  1.00  0.00    -0.048 C 
HETATM   27  C18 UNL     1       7.669  -3.911  -1.524  1.00  0.00     0.026 C 
HETATM   28  C19 UNL     1       5.346  -3.508  -2.446  1.00  0.00     0.026 C 
ENDBRANCH  24  25
ENDBRANCH  12  24
BRANCH  13  29
HETATM   29  O4  UNL     1       7.491   0.306  -0.905  1.00  0.00    -0.326 OA
HETATM   30  C14 UNL     1       7.580   0.409  -2.307  1.00  0.00     0.181 C 
ENDBRANCH  13  29
TORSDOF 3
