REMARK  4 active torsions:
REMARK  status: ('A' for Active; 'I' for Inactive)
REMARK    1  A    between atoms: C2_2  and  O3_33 
REMARK    2  A    between atoms: C16_16  and  C25_25 
REMARK    3  A    between atoms: O3_33  and  C31_34 
REMARK    4  A    between atoms: C32_36  and  C35_41 
ROOT
HETATM    1  C1  UNL     1       3.550   0.783  -2.204  1.00  0.00     0.030 C 
HETATM    2  C2  UNL     1       2.504   1.746  -1.166  1.00  0.00     0.118 C 
HETATM    3  C3  UNL     1       3.130   2.989  -0.076  1.00  0.00     0.025 C 
HETATM    4  C4  UNL     1       4.922   2.772   0.264  1.00  0.00     0.002 C 
HETATM    5  C5  UNL     1       5.981   1.441  -0.506  1.00  0.00     0.001 C 
HETATM    6  C6  UNL     1       5.274   0.590  -1.970  1.00  0.00     0.003 C 
HETATM    7  C7  UNL     1       5.723   0.285   0.348  1.00  0.00     0.005 C 
HETATM    8  C8  UNL     1       4.317   0.786  -0.071  1.00  0.00     0.004 C 
HETATM    9  C9  UNL     1       4.594   2.370  -1.331  1.00  0.00     0.000 C 
HETATM   10  C10 UNL     1       5.363   3.629  -0.838  1.00  0.00     0.000 C 
HETATM   11  C11 UNL     1       3.822  -0.939  -0.126  1.00  0.00     0.018 C 
HETATM   12  C12 UNL     1       4.361  -1.694   1.182  1.00  0.00    -0.031 C 
HETATM   13  C13 UNL     1       5.330  -1.227   2.016  1.00  0.00    -0.031 C 
HETATM   14  C14 UNL     1       6.123   0.037   1.782  1.00  0.00     0.026 C 
HETATM   15  C15 UNL     1       3.773  -3.004   1.605  1.00  0.00    -0.025 C 
HETATM   16  C16 UNL     1       2.263  -3.097   1.641  1.00  0.00     0.096 C 
HETATM   17  C17 UNL     1       1.750  -2.607   0.274  1.00  0.00     0.015 C 
HETATM   18  C18 UNL     1       2.269  -1.204  -0.088  1.00  0.00     0.005 C 
HETATM   19  C19 UNL     1       1.751  -4.536   1.843  1.00  0.00     0.015 C 
HETATM   20  C20 UNL     1       2.533  -5.222   2.961  1.00  0.00     0.005 C 
HETATM   21  C21 UNL     1       4.008  -5.339   2.549  1.00  0.00     0.018 C 
HETATM   22  C22 UNL     1       4.557  -4.052   1.953  1.00  0.00    -0.048 C 
HETATM   23  C23 UNL     1       6.049  -4.086   1.684  1.00  0.00     0.026 C 
HETATM   24  C24 UNL     1       4.818  -5.814   3.770  1.00  0.00     0.004 C 
HETATM   25  C26 UNL     1       4.367  -2.005  -1.153  1.00  0.00     0.004 C 
HETATM   26  C27 UNL     1       3.607   0.993   1.356  1.00  0.00     0.000 C 
HETATM   27  C28 UNL     1       7.501   1.659  -0.624  1.00  0.00     0.000 C 
HETATM   28  C29 UNL     1       2.280   3.347   1.214  1.00  0.00     0.002 C 
HETATM   29  C30 UNL     1       2.705   4.371  -0.790  1.00  0.00     0.002 C 
ENDROOT
BRANCH   2  30
HETATM   30  O3  UNL     1       1.514   2.333  -1.979  1.00  0.00    -0.332 OA
BRANCH  30  31
HETATM   31  C31 UNL     1       0.550   1.435  -2.484  1.00  0.00     0.270 C 
HETATM   32  O4  UNL     1      -0.033   2.086  -3.597  1.00  0.00    -0.326 OA
HETATM   33  C32 UNL     1      -1.432   2.026  -3.484  1.00  0.00     0.184 C 
HETATM   34  C33 UNL     1      -1.710   0.973  -2.422  1.00  0.00     0.217 C 
HETATM   35  C34 UNL     1      -0.545   1.151  -1.481  1.00  0.00     0.241 C 
HETATM   36  O6  UNL     1      -2.941   1.116  -1.762  1.00  0.00    -0.218 OA
HETATM   37  O5  UNL     1      -0.780   2.270  -0.661  1.00  0.00    -0.215 OA
BRANCH  33  38
HETATM   38  C35 UNL     1      -1.950   3.442  -3.253  1.00  0.00     0.214 C 
HETATM   39  O7  UNL     1      -3.326   3.426  -2.944  1.00  0.00    -0.218 OA
ENDBRANCH  33  38
ENDBRANCH  30  31
ENDBRANCH   2  30
BRANCH  16  40
HETATM   40  C25 UNL     1       1.683  -2.224   2.755  1.00  0.00     0.188 C 
HETATM   41  O1  UNL     1       2.570  -1.938   3.726  1.00  0.00    -0.647 OA
HETATM   42  O2  UNL     1       0.554  -1.797   2.808  1.00  0.00    -0.647 OA
ENDBRANCH  16  40
TORSDOF 4
