REMARK  2 active torsions:
REMARK  status: ('A' for Active; 'I' for Inactive)
REMARK    1  A    between atoms: C7_7  and  O1_10 
REMARK    2  A    between atoms: O1_10  and  S1_11 
ROOT
HETATM    1  C1  UNL     1       2.326   1.397  -1.495  1.00  0.00     0.000 A 
HETATM    2  C2  UNL     1       3.324   0.401  -1.288  1.00  0.00     0.002 A 
HETATM    3  C3  UNL     1       3.014  -0.814  -0.714  1.00  0.00     0.019 A 
HETATM    4  C4  UNL     1       1.665  -1.030  -0.334  1.00  0.00     0.083 A 
HETATM    5  C5  UNL     1       0.680  -0.054  -0.531  1.00  0.00     0.043 A 
HETATM    6  C6  UNL     1       1.013   1.188  -1.131  1.00  0.00     0.004 A 
HETATM    7  C7  UNL     1      -0.564  -0.563  -0.042  1.00  0.00     0.136 A 
HETATM    8  C8  UNL     1      -0.299  -1.832   0.422  1.00  0.00     0.125 A 
HETATM    9  N1  UNL     1       1.045  -2.112   0.251  1.00  0.00    -0.242 NA
ENDROOT
BRANCH   7  10
HETATM   10  O1  UNL     1      -1.770   0.066  -0.042  1.00  0.00    -0.211 OA
BRANCH  10  11
HETATM   11  S1  UNL     1      -1.980   1.036   1.297  1.00  0.00     0.257 S 
HETATM   12  O2  UNL     1      -3.394   1.254   1.547  1.00  0.00    -0.572 OA
HETATM   13  O3  UNL     1      -1.255   0.342   2.622  1.00  0.00    -0.572 OA
HETATM   14  O4  UNL     1      -1.171   2.239   1.191  1.00  0.00    -0.572 OA
ENDBRANCH  10  11
ENDBRANCH   7  10
TORSDOF 2
