REMARK  1 active torsions:
REMARK  status: ('A' for Active; 'I' for Inactive)
REMARK    1  A    between atoms: C7_7  and  C9_10 
ROOT
HETATM    1  C9  UNL     1      -1.880   0.222   0.748  1.00  0.00     0.133 C 
HETATM    2  C10 UNL     1      -2.635   0.262  -0.516  1.00  0.00     0.079 C 
HETATM    3  N2  UNL     1      -3.233   0.292  -1.508  1.00  0.00    -0.196 NA
ENDROOT
BRANCH   1   4
HETATM    4  C7  UNL     1      -0.551  -0.439   0.537  1.00  0.00     0.013 A 
HETATM    5  C5  UNL     1       0.654   0.182   0.086  1.00  0.00     0.016 A 
HETATM    6  C4  UNL     1       1.650  -0.800   0.034  1.00  0.00     0.081 A 
HETATM    7  C6  UNL     1       0.946   1.521  -0.282  1.00  0.00     0.001 A 
HETATM    8  C3  UNL     1       2.970  -0.498  -0.384  1.00  0.00     0.019 A 
HETATM    9  N1  UNL     1       1.073  -1.985   0.444  1.00  0.00    -0.244 NA
HETATM   10  C2  UNL     1       3.241   0.807  -0.738  1.00  0.00     0.002 A 
HETATM   11  C1  UNL     1       2.232   1.812  -0.686  1.00  0.00     0.000 A 
HETATM   12  C8  UNL     1      -0.259  -1.765   0.750  1.00  0.00     0.096 A 
ENDBRANCH   1   4
TORSDOF 1
