REMARK  1 active torsions:
REMARK  status: ('A' for Active; 'I' for Inactive)
REMARK    1  A    between atoms: C12_13  and  C15_17 
ROOT
HETATM    1  C1  UNL     1       6.748  -1.527  -0.609  1.00  0.00     0.000 C 
HETATM    2  C2  UNL     1       7.494  -0.246  -0.232  1.00  0.00     0.002 C 
HETATM    3  C3  UNL     1       6.652   1.020  -0.515  1.00  0.00     0.026 C 
HETATM    4  C4  UNL     1       5.311   0.922   0.277  1.00  0.00     0.134 C 
HETATM    5  C5  UNL     1       4.510  -0.374  -0.020  1.00  0.00     0.035 C 
HETATM    6  C6  UNL     1       5.407  -1.621   0.127  1.00  0.00     0.003 C 
HETATM    7  C7  UNL     1       3.133  -0.503   0.726  1.00  0.00     0.052 C 
HETATM    8  C8  UNL     1       2.357   0.774   0.452  1.00  0.00     0.011 C 
HETATM    9  C9  UNL     1       3.050   2.082   0.643  1.00  0.00     0.171 C 
HETATM   10  C10 UNL     1       4.439   2.161   0.050  1.00  0.00     0.099 C 
HETATM   11  O1  UNL     1       2.537   3.036   1.211  1.00  0.00    -0.292 OA
HETATM   12  C11 UNL     1       1.068   0.833   0.071  1.00  0.00    -0.024 C 
HETATM   13  C12 UNL     1       0.201  -0.364  -0.229  1.00  0.00     0.039 C 
HETATM   14  C13 UNL     1       0.809  -1.603   0.446  1.00  0.00     0.041 C 
HETATM   15  C14 UNL     1       2.321  -1.730   0.236  1.00  0.00     0.157 C 
HETATM   16  O2  UNL     1       2.710  -2.908   0.911  1.00  0.00    -0.223 OA
HETATM   17  C17 UNL     1       0.159  -0.526  -1.760  1.00  0.00     0.009 C 
HETATM   18  C18 UNL     1       3.248  -0.584   2.269  1.00  0.00     0.007 C 
HETATM   19  O3  UNL     1       5.648   0.909   1.643  1.00  0.00    -0.226 OA
HETATM   20  C19 UNL     1       7.504   2.242  -0.079  1.00  0.00     0.003 C 
HETATM   21  C20 UNL     1       6.462   1.167  -2.045  1.00  0.00     0.003 C 
ENDROOT
BRANCH  13  22
HETATM   22  C15 UNL     1      -1.168  -0.111   0.380  1.00  0.00    -0.023 C 
HETATM   23  C16 UNL     1      -2.357  -0.331  -0.200  1.00  0.00    -0.005 C 
ENDBRANCH  13  22
TORSDOF 1
