REMARK  0 active torsions:
REMARK  status: ('A' for Active; 'I' for Inactive)
ROOT
HETATM    1  C1  UNL     1      -0.815   3.482  -0.774  1.00  0.00     0.003 C 
HETATM    2  C2  UNL     1      -1.307   2.104  -1.260  1.00  0.00     0.032 C 
HETATM    3  C3  UNL     1      -0.220   1.043  -1.004  1.00  0.00     0.064 C 
HETATM    4  C4  UNL     1       0.271   0.763   0.447  1.00  0.00     0.034 C 
HETATM    5  C5  UNL     1       0.025   2.086   1.235  1.00  0.00     0.003 C 
HETATM    6  C6  UNL     1       0.175   3.374   0.404  1.00  0.00     0.000 C 
HETATM    7  C7  UNL     1       1.800   0.542   0.332  1.00  0.00     0.152 C 
HETATM    8  O1  UNL     1       2.390  -0.048   1.450  1.00  0.00    -0.301 OA
HETATM    9  C8  UNL     1       2.010  -1.310   1.768  1.00  0.00     0.278 C 
HETATM   10  C9  UNL     1       0.599  -1.674   1.313  1.00  0.00     0.133 C 
HETATM   11  C10 UNL     1      -0.313  -0.424   1.281  1.00  0.00     0.018 C 
HETATM   12  C11 UNL     1      -1.803  -0.763   1.075  1.00  0.00     0.001 C 
HETATM   13  C12 UNL     1      -2.288  -2.076   1.712  1.00  0.00     0.004 C 
HETATM   14  C13 UNL     1      -1.249  -3.195   1.577  1.00  0.00     0.026 C 
HETATM   15  C14 UNL     1       0.020  -2.720   2.298  1.00  0.00     0.021 C 
HETATM   16  C15 UNL     1      -0.718  -3.323   0.172  1.00  0.00     0.013 C 
HETATM   17  C16 UNL     1       0.462  -2.448   0.006  1.00  0.00     0.177 C 
HETATM   18  O2  UNL     1       1.173  -2.340  -0.982  1.00  0.00    -0.291 OA
HETATM   19  C17 UNL     1      -1.221  -4.081  -0.817  1.00  0.00    -0.002 C 
HETATM   20  O3  UNL     1       2.671  -2.027   2.490  1.00  0.00    -0.264 OA
HETATM   21  C18 UNL     1      -0.500  -0.023  -2.049  1.00  0.00     0.269 C 
HETATM   22  O4  UNL     1      -1.351   0.557  -3.020  1.00  0.00    -0.329 OA
HETATM   23  C19 UNL     1      -1.384   1.945  -2.788  1.00  0.00     0.145 C 
HETATM   24  O5  UNL     1       0.676  -0.416  -2.741  1.00  0.00    -0.190 OA
HETATM   25  C20 UNL     1      -2.714   1.823  -0.703  1.00  0.00     0.003 C 
ENDROOT
TORSDOF 0
