REMARK  7 active torsions:
REMARK  status: ('A' for Active; 'I' for Inactive)
REMARK    1  A    between atoms: C5_5  and  C7_7 
REMARK    2  A    between atoms: C7_7  and  O1_8 
REMARK    3  A    between atoms: O1_8  and  C8_9 
REMARK    4  A    between atoms: C16_17  and  C18_20 
REMARK    5  A    between atoms: C18_20  and  O3_21 
REMARK    6  A    between atoms: O3_21  and  C19_22 
REMARK    7  A    between atoms: C19_22  and  C20_23 
ROOT
HETATM    1  C8  UNL     1      -0.519   0.405  -0.558  1.00  0.00     0.177 C 
HETATM    2  C9  UNL     1       1.009   0.596  -0.323  1.00  0.00     0.197 C 
HETATM    3  C10 UNL     1       1.205   2.145  -0.303  1.00  0.00     0.101 C 
HETATM    4  C11 UNL     1       0.007   2.647  -1.060  1.00  0.00    -0.019 C 
HETATM    5  C12 UNL     1      -0.936   1.711  -1.176  1.00  0.00     0.002 C 
HETATM    6  C13 UNL     1       2.466   2.391  -1.081  1.00  0.00     0.160 C 
HETATM    7  C14 UNL     1       3.668   1.927  -0.294  1.00  0.00     0.079 C 
HETATM    8  C15 UNL     1       4.168   0.728  -1.024  1.00  0.00    -0.023 C 
HETATM    9  C16 UNL     1       3.342  -0.239  -1.476  1.00  0.00     0.014 C 
HETATM   10  C17 UNL     1       1.803  -0.222  -1.377  1.00  0.00     0.204 C 
HETATM   11  O2  UNL     1       1.374  -1.559  -1.147  1.00  0.00    -0.216 OA
HETATM   12  C26 UNL     1       4.496   3.171  -0.090  1.00  0.00     0.011 A 
HETATM   13  C27 UNL     1       3.668   4.320   0.482  1.00  0.00     0.001 A 
HETATM   14  C28 UNL     1       2.212   4.186   0.975  1.00  0.00     0.001 C 
HETATM   15  C29 UNL     1       1.359   2.885   1.058  1.00  0.00     0.013 C 
HETATM   16  C30 UNL     1       0.001   3.216   1.715  1.00  0.00     0.001 C 
HETATM   17  C31 UNL     1       4.838   3.758   1.265  1.00  0.00     0.001 A 
HETATM   18  C32 UNL     1       6.096   4.623   1.305  1.00  0.00     0.000 C 
HETATM   19  C33 UNL     1       4.624   2.983   2.554  1.00  0.00     0.000 C 
HETATM   20  O5  UNL     1       2.515   2.840  -2.203  1.00  0.00    -0.295 OA
HETATM   21  O6  UNL     1       1.394   0.008   0.892  1.00  0.00    -0.219 OA
ENDROOT
BRANCH   9  22
HETATM   22  C18 UNL     1       3.940  -1.402  -2.261  1.00  0.00     0.177 C 
BRANCH  22  23
HETATM   23  O3  UNL     1       5.322  -1.627  -2.059  1.00  0.00    -0.294 OA
BRANCH  23  24
HETATM   24  C19 UNL     1       5.763  -2.559  -1.158  1.00  0.00     0.296 C 
HETATM   25  O4  UNL     1       6.968  -2.799  -1.118  1.00  0.00    -0.259 OA
BRANCH  24  26
HETATM   26  C20 UNL     1       4.924  -3.354  -0.200  1.00  0.00     0.063 A 
HETATM   27  C21 UNL     1       5.230  -4.705   0.007  1.00  0.00     0.005 A 
HETATM   28  C22 UNL     1       4.456  -5.479   0.875  1.00  0.00     0.000 A 
HETATM   29  C23 UNL     1       3.370  -4.910   1.542  1.00  0.00     0.000 A 
HETATM   30  C24 UNL     1       3.077  -3.555   1.365  1.00  0.00     0.000 A 
HETATM   31  C25 UNL     1       3.863  -2.779   0.514  1.00  0.00     0.005 A 
ENDBRANCH  24  26
ENDBRANCH  23  24
ENDBRANCH  22  23
ENDBRANCH   9  22
BRANCH   1  32
HETATM   32  O1  UNL     1      -1.216   0.191   0.645  1.00  0.00    -0.294 OA
BRANCH  32  33
HETATM   33  C7  UNL     1      -1.699  -1.049   0.952  1.00  0.00     0.296 C 
HETATM   34  O7  UNL     1      -2.090  -1.269   2.095  1.00  0.00    -0.259 OA
BRANCH  33  35
HETATM   35  C5  UNL     1      -1.848  -2.198  -0.006  1.00  0.00     0.063 A 
HETATM   36  C4  UNL     1      -1.363  -3.460   0.350  1.00  0.00     0.005 A 
HETATM   37  C3  UNL     1      -1.514  -4.535  -0.530  1.00  0.00     0.000 A 
HETATM   38  C2  UNL     1      -2.162  -4.354  -1.753  1.00  0.00     0.000 A 
HETATM   39  C1  UNL     1      -2.668  -3.098  -2.098  1.00  0.00     0.000 A 
HETATM   40  C6  UNL     1      -2.518  -2.022  -1.223  1.00  0.00     0.005 A 
ENDBRANCH  33  35
ENDBRANCH  32  33
ENDBRANCH   1  32
TORSDOF 7
