REMARK  2 active torsions:
REMARK  status: ('A' for Active; 'I' for Inactive)
REMARK    1  A    between atoms: N4_10  and  C6_11 
REMARK    2  A    between atoms: C9_14  and  C10_16 
ROOT
HETATM    1  N1  UNL     1      -1.531  -0.341   3.363  1.00  0.00    -0.196 NA
HETATM    2  C1  UNL     1      -0.680  -0.954   2.649  1.00  0.00     0.202 A 
HETATM    3  N2  UNL     1      -0.428  -0.789   1.418  1.00  0.00    -0.205 NA
HETATM    4  C2  UNL     1      -1.109   0.097   0.832  1.00  0.00     0.170 A 
HETATM    5  C3  UNL     1      -2.036   0.797   1.511  1.00  0.00     0.161 A 
HETATM    6  C4  UNL     1      -2.239   0.557   2.814  1.00  0.00     0.235 A 
HETATM    7  O1  UNL     1      -3.164   1.238   3.544  1.00  0.00    -0.167 OA
HETATM    8  N3  UNL     1      -2.618   1.643   0.770  1.00  0.00    -0.219 NA
HETATM    9  C5  UNL     1      -2.083   1.504  -0.368  1.00  0.00     0.182 A 
HETATM   10  N4  UNL     1      -1.201   0.595  -0.327  1.00  0.00    -0.270 N 
ENDROOT
BRANCH  10  11
HETATM   11  C6  UNL     1      -0.394   0.218  -1.503  1.00  0.00     0.241 C 
HETATM   12  C7  UNL     1       0.020  -1.236  -1.641  1.00  0.00     0.234 C 
HETATM   13  C8  UNL     1       1.442  -1.252  -1.128  1.00  0.00     0.216 C 
HETATM   14  O5  UNL     1       0.035  -1.589  -3.007  1.00  0.00    -0.216 OA
HETATM   15  C9  UNL     1       1.895   0.195  -1.228  1.00  0.00     0.183 C 
HETATM   16  O4  UNL     1       2.224  -2.100  -1.933  1.00  0.00    -0.218 OA
HETATM   17  O2  UNL     1       0.789   0.985  -1.577  1.00  0.00    -0.331 OA
BRANCH  15  18
HETATM   18  C10 UNL     1       2.513   0.707   0.065  1.00  0.00     0.214 C 
HETATM   19  O3  UNL     1       3.086   1.983  -0.144  1.00  0.00    -0.218 OA
ENDBRANCH  15  18
ENDBRANCH  10  11
TORSDOF 2
