REMARK  3 active torsions:
REMARK  status: ('A' for Active; 'I' for Inactive)
REMARK    1  A    between atoms: C11_12  and  O3_16 
REMARK    2  A    between atoms: C12_13  and  O2_14 
REMARK    3  A    between atoms: C31_37  and  O6_41 
ROOT
HETATM    1  C1  UNL     1      -2.340   0.782   2.204  1.00  0.00    -0.042 A 
HETATM    2  C2  UNL     1      -2.401  -0.318   1.301  1.00  0.00     0.027 A 
HETATM    3  C3  UNL     1      -1.143  -0.964   0.839  1.00  0.00     0.063 A 
HETATM    4  C4  UNL     1       0.416  -0.240   1.507  1.00  0.00     0.122 A 
HETATM    5  C5  UNL     1       0.169   0.898   2.455  1.00  0.00     0.000 A 
HETATM    6  C6  UNL     1      -1.142   1.323   2.758  1.00  0.00    -0.011 A 
HETATM    7  O1  UNL     1       1.812  -0.543   1.575  1.00  0.00    -0.330 OA
HETATM    8  C7  UNL     1       2.738  -0.660   0.563  1.00  0.00     0.116 A 
HETATM    9  C8  UNL     1       3.271  -1.882   0.296  1.00  0.00     0.029 A 
HETATM   10  C9  UNL     1       4.221  -1.973  -0.646  1.00  0.00    -0.018 A 
HETATM   11  C10 UNL     1       4.606  -0.869  -1.297  1.00  0.00     0.022 A 
HETATM   12  C11 UNL     1       4.128   0.356  -1.020  1.00  0.00     0.118 A 
HETATM   13  C12 UNL     1       3.162   0.463  -0.074  1.00  0.00     0.138 A 
HETATM   14  C15 UNL     1       4.901  -3.287  -0.916  1.00  0.00     0.061 C 
HETATM   15  C16 UNL     1       4.976  -4.045   0.413  1.00  0.00     0.255 C 
HETATM   16  N1  UNL     1       3.625  -4.336   0.847  1.00  0.00     0.142 N 
HETATM   17  C17 UNL     1       2.800  -3.142   1.053  1.00  0.00     0.247 C 
HETATM   18  C18 UNL     1       1.345  -3.526   0.679  1.00  0.00     0.060 C 
HETATM   19  C19 UNL     1       0.504  -2.281   0.795  1.00  0.00    -0.042 A 
HETATM   20  C20 UNL     1       0.523  -1.403  -0.320  1.00  0.00    -0.012 A 
HETATM   21  C21 UNL     1      -0.018  -0.093  -0.394  1.00  0.00     0.010 A 
HETATM   22  C22 UNL     1      -0.737   0.470   0.802  1.00  0.00     0.121 A 
HETATM   23  O4  UNL     1      -1.236   1.784   0.541  1.00  0.00    -0.330 OA
HETATM   24  C23 UNL     1      -2.189   1.932  -0.440  1.00  0.00     0.116 A 
HETATM   25  C24 UNL     1      -3.537   1.987  -0.248  1.00  0.00     0.029 A 
HETATM   26  C25 UNL     1      -4.354   1.812   1.058  1.00  0.00     0.247 C 
HETATM   27  C26 UNL     1      -3.576   1.623   2.383  1.00  0.00     0.060 C 
HETATM   28  N2  UNL     1      -5.348   0.766   0.792  1.00  0.00     0.142 N 
HETATM   29  C27 UNL     1      -6.359   1.238  -0.148  1.00  0.00     0.255 C 
HETATM   30  C28 UNL     1      -5.819   2.231  -1.187  1.00  0.00     0.061 C 
HETATM   31  C29 UNL     1      -4.316   2.167  -1.336  1.00  0.00    -0.018 A 
HETATM   32  C30 UNL     1      -3.780   2.314  -2.555  1.00  0.00     0.022 A 
HETATM   33  C31 UNL     1      -2.455   2.300  -2.753  1.00  0.00     0.118 A 
HETATM   34  C32 UNL     1      -1.678   2.024  -1.687  1.00  0.00     0.138 A 
HETATM   35  O5  UNL     1      -0.317   1.943  -1.834  1.00  0.00    -0.322 OA
HETATM   36  C33 UNL     1       0.154   0.617  -1.733  1.00  0.00     0.173 C 
HETATM   37  C35 UNL     1      -6.003   0.176   1.950  1.00  0.00     0.286 C 
HETATM   38  C36 UNL     1      -0.805  -0.692   2.233  1.00  0.00     0.063 A 
HETATM   39  C37 UNL     1      -0.127  -2.006   2.040  1.00  0.00     0.027 A 
HETATM   40  C38 UNL     1       3.642  -5.188   2.030  1.00  0.00     0.286 C 
ENDROOT
BRANCH  12  41
HETATM   41  O3  UNL     1       4.607   1.411  -1.757  1.00  0.00    -0.326 OA
HETATM   42  C14 UNL     1       5.922   1.801  -1.425  1.00  0.00     0.181 C 
ENDBRANCH  12  41
BRANCH  13  43
HETATM   43  O2  UNL     1       2.536   1.629   0.322  1.00  0.00    -0.324 OA
HETATM   44  C13 UNL     1       2.703   2.849  -0.356  1.00  0.00     0.182 C 
ENDBRANCH  13  43
BRANCH  33  45
HETATM   45  O6  UNL     1      -1.935   2.404  -4.018  1.00  0.00    -0.326 OA
HETATM   46  C34 UNL     1      -1.712   3.736  -4.423  1.00  0.00     0.181 C 
ENDBRANCH  33  45
TORSDOF 3
