REMARK  7 active torsions:
REMARK  status: ('A' for Active; 'I' for Inactive)
REMARK    1  A    between atoms: C10_12  and  C27_35 
REMARK    2  A    between atoms: C12_15  and  N3_24 
REMARK    3  A    between atoms: C13_16  and  C14_18 
REMARK       I    between atoms: N3_24  and  C20_25 
REMARK    4  A    between atoms: C20_25  and  C21_26 
REMARK    5  A    between atoms: C21_26  and  N4_27 
REMARK    6  A    between atoms: C21_26  and  C24_30 
REMARK    7  A    between atoms: C27_35  and  C28_36 
ROOT
HETATM    1  C1  UNL     1      -2.393   1.453   2.294  1.00  0.00     0.094 C 
HETATM    2  C2  UNL     1      -1.303   1.140   3.013  1.00  0.00     0.024 C 
HETATM    3  C3  UNL     1      -0.347   2.040   3.268  1.00  0.00     0.002 C 
HETATM    4  C4  UNL     1      -0.478   3.332   2.913  1.00  0.00     0.002 C 
HETATM    5  C5  UNL     1      -1.689   3.704   2.459  1.00  0.00     0.002 C 
HETATM    6  C6  UNL     1      -2.608   2.775   2.134  1.00  0.00     0.024 C 
HETATM    7  C7  UNL     1       0.550   4.185   3.108  1.00  0.00     0.021 C 
HETATM    8  C8  UNL     1       1.837   3.799   2.981  1.00  0.00     0.102 C 
HETATM    9  N1  UNL     1       2.238   2.675   2.346  1.00  0.00    -0.209 NA
HETATM   10  C9  UNL     1       1.554   2.183   1.266  1.00  0.00     0.279 C 
HETATM   11  O1  UNL     1       0.779   2.844   0.612  1.00  0.00    -0.268 OA
HETATM   12  C10 UNL     1       1.730   0.707   0.930  1.00  0.00     0.191 C 
HETATM   13  N2  UNL     1       0.512   0.417   0.163  1.00  0.00    -0.228 NA
HETATM   14  C11 UNL     1      -0.517  -0.352   0.630  1.00  0.00     0.277 C 
HETATM   15  C12 UNL     1      -1.862  -0.024  -0.021  1.00  0.00     0.218 C 
HETATM   16  C13 UNL     1      -3.162  -0.241   0.791  1.00  0.00     0.175 C 
HETATM   17  O2  UNL     1      -3.327   0.497   1.998  1.00  0.00    -0.326 OA
HETATM   18  O4  UNL     1      -0.372  -1.187   1.489  1.00  0.00    -0.268 OA
ENDROOT
BRANCH  12  19
HETATM   19  C27 UNL     1       3.002   0.464   0.108  1.00  0.00     0.062 C 
BRANCH  19  20
HETATM   20  C28 UNL     1       4.184   0.972   0.879  1.00  0.00     0.001 A 
HETATM   21  C29 UNL     1       4.758   2.183   0.806  1.00  0.00     0.015 A 
HETATM   22  C30 UNL     1       5.745   2.197   1.712  1.00  0.00     0.081 A 
HETATM   23  C35 UNL     1       4.494   3.261   0.058  1.00  0.00     0.001 A 
HETATM   24  N5  UNL     1       5.769   1.067   2.286  1.00  0.00    -0.244 NA
HETATM   25  C32 UNL     1       6.508   3.278   1.899  1.00  0.00     0.019 A 
HETATM   26  C31 UNL     1       4.861   0.307   1.827  1.00  0.00     0.095 A 
HETATM   27  C33 UNL     1       6.250   4.362   1.146  1.00  0.00     0.002 A 
HETATM   28  C34 UNL     1       5.256   4.353   0.240  1.00  0.00     0.000 A 
ENDBRANCH  19  20
ENDBRANCH  12  19
BRANCH  15  29
HETATM   29  N3  UNL     1      -1.913  -0.767  -1.290  1.00  0.00    -0.223 NA
HETATM   30  C20 UNL     1      -1.177  -0.383  -2.381  1.00  0.00     0.282 C 
HETATM   31  O3  UNL     1      -0.552   0.651  -2.403  1.00  0.00    -0.265 OA
BRANCH  30  32
HETATM   32  C21 UNL     1      -1.136  -1.388  -3.537  1.00  0.00     0.071 C 
BRANCH  32  33
HETATM   33  N4  UNL     1      -0.009  -2.308  -3.358  1.00  0.00    -0.249 NA
HETATM   34  C22 UNL     1       0.322  -3.061  -4.557  1.00  0.00     0.094 C 
HETATM   35  C23 UNL     1      -0.087  -3.199  -2.211  1.00  0.00     0.094 C 
ENDBRANCH  32  33
BRANCH  32  36
HETATM   36  C24 UNL     1      -2.530  -1.893  -3.994  1.00  0.00     0.038 C 
HETATM   37  C25 UNL     1      -2.676  -1.960  -5.529  1.00  0.00     0.006 C 
HETATM   38  C26 UNL     1      -3.044  -3.202  -3.379  1.00  0.00     0.006 C 
ENDBRANCH  32  36
ENDBRANCH  30  32
ENDBRANCH  15  29
BRANCH  16  39
HETATM   39  C14 UNL     1      -3.441  -1.724   0.997  1.00  0.00     0.007 A 
HETATM   40  C15 UNL     1      -4.127  -2.427   0.077  1.00  0.00    -0.002 A 
HETATM   41  C16 UNL     1      -4.362  -3.739   0.233  1.00  0.00    -0.000 A 
HETATM   42  C17 UNL     1      -3.920  -4.375   1.328  1.00  0.00    -0.000 A 
HETATM   43  C18 UNL     1      -3.251  -3.686   2.264  1.00  0.00    -0.000 A 
HETATM   44  C19 UNL     1      -3.019  -2.375   2.096  1.00  0.00    -0.002 A 
ENDBRANCH  16  39
TORSDOF 7
