REMARK  4 active torsions:
REMARK  status: ('A' for Active; 'I' for Inactive)
REMARK    1  A    between atoms: C1_1  and  O6_23 
REMARK    2  A    between atoms: C2_2  and  O5_21 
REMARK    3  A    between atoms: C7_8  and  C10_12 
REMARK    4  A    between atoms: C11_13  and  O3_14 
ROOT
HETATM    1  C1  UNL     1      -2.004   1.115   0.009  1.00  0.00     0.139 A 
HETATM    2  C2  UNL     1      -2.785   2.229   0.014  1.00  0.00     0.120 A 
HETATM    3  C3  UNL     1      -2.176   3.423   0.014  1.00  0.00     0.054 A 
HETATM    4  C4  UNL     1      -0.852   3.587   0.018  1.00  0.00     0.138 A 
HETATM    5  C5  UNL     1      -0.098   2.470   0.014  1.00  0.00     0.089 A 
HETATM    6  C6  UNL     1      -0.641   1.229   0.008  1.00  0.00     0.129 A 
HETATM    7  O1  UNL     1       0.174   0.112  -0.001  1.00  0.00    -0.305 OA
HETATM    8  C7  UNL     1       1.546   0.249   0.003  1.00  0.00     0.105 A 
HETATM    9  C8  UNL     1       2.028   1.508   0.011  1.00  0.00     0.067 A 
HETATM   10  C9  UNL     1       1.253   2.618   0.017  1.00  0.00     0.202 A 
HETATM   11  O2  UNL     1       1.820   3.690   0.023  1.00  0.00    -0.286 OA
HETATM   12  O4  UNL     1      -0.368   4.861   0.024  1.00  0.00    -0.190 OA
ENDROOT
BRANCH   8  13
HETATM   13  C10 UNL     1       2.404  -0.820  -0.007  1.00  0.00     0.045 A 
HETATM   14  C11 UNL     1       1.968  -2.114  -0.031  1.00  0.00     0.096 A 
HETATM   15  C13 UNL     1       2.881  -3.111  -0.041  1.00  0.00     0.024 A 
HETATM   16  C14 UNL     1       4.203  -2.914  -0.027  1.00  0.00     0.002 A 
HETATM   17  C15 UNL     1       4.643  -1.656  -0.002  1.00  0.00     0.000 A 
HETATM   18  C16 UNL     1       3.750  -0.656   0.008  1.00  0.00     0.004 A 
BRANCH  14  19
HETATM   19  O3  UNL     1       0.625  -2.404  -0.050  1.00  0.00    -0.328 OA
HETATM   20  C12 UNL     1       0.196  -3.749  -0.091  1.00  0.00     0.181 C 
ENDBRANCH  14  19
ENDBRANCH   8  13
BRANCH   1  21
HETATM   21  O6  UNL     1      -2.704  -0.067   0.018  1.00  0.00    -0.324 OA
HETATM   22  C18 UNL     1      -2.102  -1.325   0.087  1.00  0.00     0.182 C 
ENDBRANCH   1  21
BRANCH   2  23
HETATM   23  O5  UNL     1      -4.165   2.308   0.006  1.00  0.00    -0.326 OA
HETATM   24  C17 UNL     1      -5.007   1.185  -0.088  1.00  0.00     0.181 C 
ENDBRANCH   2  23
TORSDOF 4
