REMARK  5 active torsions:
REMARK  status: ('A' for Active; 'I' for Inactive)
REMARK    1  A    between atoms: C2_2  and  O1_3 
REMARK    2  A    between atoms: O1_3  and  C3_4 
REMARK    3  A    between atoms: C3_4  and  C4_5 
REMARK    4  A    between atoms: C4_5  and  C5_6 
REMARK    5  A    between atoms: C5_6  and  C6_7 
ROOT
HETATM    1  C6  UNL     1      -0.275   0.880  -0.497  1.00  0.00    -0.050 C 
HETATM    2  C7  UNL     1       0.115   1.950  -1.230  1.00  0.00    -0.049 C 
HETATM    3  C8  UNL     1       0.832   1.956  -2.565  1.00  0.00     0.052 C 
HETATM    4  C9  UNL     1       1.832   0.873  -2.932  1.00  0.00     0.135 C 
HETATM    5  C10 UNL     1       1.285  -0.535  -3.165  1.00  0.00     0.086 C 
HETATM    6  C11 UNL     1      -0.052  -0.801  -2.475  1.00  0.00     0.162 C 
HETATM    7  C12 UNL     1      -0.166  -0.571  -0.959  1.00  0.00     0.049 C 
HETATM    8  C13 UNL     1       0.845  -1.398  -0.145  1.00  0.00     0.007 C 
HETATM    9  O2  UNL     1      -0.420  -2.135  -2.756  1.00  0.00    -0.223 OA
HETATM   10  C14 UNL     1       2.453  -1.351  -2.678  1.00  0.00     0.045 C 
HETATM   11  C15 UNL     1       3.277  -0.516  -2.001  1.00  0.00     0.292 C 
HETATM   12  O3  UNL     1       2.894   0.790  -2.020  1.00  0.00    -0.300 OA
HETATM   13  O4  UNL     1       4.277  -0.883  -1.421  1.00  0.00    -0.260 OA
HETATM   14  C16 UNL     1       2.652  -2.665  -2.843  1.00  0.00     0.001 C 
HETATM   15  C17 UNL     1      -0.230   3.382  -0.841  1.00  0.00     0.026 C 
ENDROOT
BRANCH   1  16
HETATM   16  C5  UNL     1      -1.040   1.126   0.804  1.00  0.00     0.024 C 
BRANCH  16  17
HETATM   17  C4  UNL     1      -1.095   0.058   1.907  1.00  0.00     0.037 C 
BRANCH  17  18
HETATM   18  C3  UNL     1      -1.914   0.530   3.113  1.00  0.00     0.152 C 
BRANCH  18  19
HETATM   19  O1  UNL     1      -1.982  -0.510   4.053  1.00  0.00    -0.302 OA
BRANCH  19  20
HETATM   20  C2  UNL     1      -2.605  -0.230   5.229  1.00  0.00     0.272 C 
HETATM   21  C1  UNL     1      -2.622  -1.457   6.119  1.00  0.00     0.106 C 
HETATM   22  O5  UNL     1      -3.086   0.841   5.524  1.00  0.00    -0.264 OA
ENDBRANCH  19  20
ENDBRANCH  18  19
ENDBRANCH  17  18
ENDBRANCH  16  17
ENDBRANCH   1  16
TORSDOF 5
