REMARK  1 active torsions:
REMARK  status: ('A' for Active; 'I' for Inactive)
REMARK    1  A    between atoms: C12_16  and  C15_21 
ROOT
HETATM    1  C1  UNL     1      -3.597   0.143   0.151  1.00  0.00     0.173 A 
HETATM    2  C2  UNL     1      -3.399  -1.212  -0.547  1.00  0.00     0.190 C 
HETATM    3  C3  UNL     1      -2.090  -1.299  -1.320  1.00  0.00     0.111 C 
HETATM    4  C4  UNL     1      -0.993  -0.921  -0.324  1.00  0.00     0.048 C 
HETATM    5  C5  UNL     1      -1.112   0.337   0.538  1.00  0.00     0.048 C 
HETATM    6  C6  UNL     1      -2.520   0.945   0.563  1.00  0.00     0.148 A 
HETATM    7  O1  UNL     1      -3.142   1.267  -0.800  1.00  0.00    -0.351 OA
HETATM    8  C7  UNL     1       0.143   1.164   0.323  1.00  0.00    -0.008 C 
HETATM    9  C8  UNL     1       1.420   0.458   0.245  1.00  0.00     0.163 A 
HETATM   10  C9  UNL     1       1.499  -0.758  -0.534  1.00  0.00     0.174 A 
HETATM   11  C10 UNL     1       0.201  -1.174  -1.218  1.00  0.00     0.155 C 
HETATM   12  O2  UNL     1      -0.079  -2.508  -1.612  1.00  0.00    -0.302 OA
HETATM   13  C11 UNL     1      -1.456  -2.669  -1.570  1.00  0.00     0.274 C 
HETATM   14  O3  UNL     1      -2.083  -3.700  -1.654  1.00  0.00    -0.264 OA
HETATM   15  O4  UNL     1       1.980   0.357  -1.249  1.00  0.00    -0.347 OA
HETATM   16  C12 UNL     1       2.519   1.145   1.038  1.00  0.00     0.185 C 
HETATM   17  O5  UNL     1       2.578   2.509   0.665  1.00  0.00    -0.295 OA
HETATM   18  C13 UNL     1       1.393   3.137   0.358  1.00  0.00     0.295 C 
HETATM   19  C14 UNL     1       0.192   2.501   0.272  1.00  0.00     0.062 C 
HETATM   20  O6  UNL     1       1.388   4.345   0.228  1.00  0.00    -0.259 OA
HETATM   21  C17 UNL     1      -0.930  -0.064   2.045  1.00  0.00     0.007 C 
HETATM   22  C18 UNL     1      -2.174  -0.610  -2.705  1.00  0.00     0.013 C 
HETATM   23  O8  UNL     1      -3.445  -2.304   0.355  1.00  0.00    -0.220 OA
ENDROOT
BRANCH  16  24
HETATM   24  C15 UNL     1       3.934   0.578   1.134  1.00  0.00     0.183 C 
HETATM   25  O7  UNL     1       3.867  -0.753   1.586  1.00  0.00    -0.221 OA
HETATM   26  C16 UNL     1       4.801   0.637  -0.121  1.00  0.00     0.038 C 
ENDBRANCH  16  24
TORSDOF 1
