REMARK  4 active torsions:
REMARK  status: ('A' for Active; 'I' for Inactive)
REMARK    1  A    between atoms: C12_16  and  C15_21 
REMARK    2  A    between atoms: C15_21  and  O7_23 
REMARK    3  A    between atoms: O7_23  and  C17_24 
REMARK    4  A    between atoms: C21_28  and  C22_30 
ROOT
HETATM    1  C1  UNL     1      -5.630  -0.568  -0.551  1.00  0.00     0.173 A 
HETATM    2  C2  UNL     1      -5.528  -1.790  -1.476  1.00  0.00     0.190 C 
HETATM    3  C3  UNL     1      -4.216  -1.845  -2.247  1.00  0.00     0.111 C 
HETATM    4  C4  UNL     1      -3.111  -1.747  -1.194  1.00  0.00     0.048 C 
HETATM    5  C5  UNL     1      -3.147  -0.663  -0.116  1.00  0.00     0.048 C 
HETATM    6  C6  UNL     1      -4.499   0.052   0.007  1.00  0.00     0.148 A 
HETATM    7  O1  UNL     1      -5.060   0.664  -1.281  1.00  0.00    -0.351 OA
HETATM    8  C7  UNL     1      -1.823   0.076  -0.179  1.00  0.00    -0.008 C 
HETATM    9  C8  UNL     1      -0.607  -0.723  -0.348  1.00  0.00     0.163 A 
HETATM   10  C9  UNL     1      -0.613  -1.778  -1.340  1.00  0.00     0.174 A 
HETATM   11  C10 UNL     1      -1.921  -1.924  -2.111  1.00  0.00     0.155 C 
HETATM   12  O2  UNL     1      -2.302  -3.132  -2.752  1.00  0.00    -0.302 OA
HETATM   13  C11 UNL     1      -3.687  -3.192  -2.739  1.00  0.00     0.274 C 
HETATM   14  O3  UNL     1      -4.389  -4.140  -3.006  1.00  0.00    -0.264 OA
HETATM   15  O4  UNL     1       0.026  -0.619  -1.819  1.00  0.00    -0.347 OA
HETATM   16  C12 UNL     1       0.521  -0.274   0.572  1.00  0.00     0.182 C 
HETATM   17  O5  UNL     1       0.670   1.118   0.394  1.00  0.00    -0.296 OA
HETATM   18  C13 UNL     1      -0.429   1.899   0.185  1.00  0.00     0.295 C 
HETATM   19  C14 UNL     1      -1.676   1.399  -0.017  1.00  0.00     0.062 C 
HETATM   20  O6  UNL     1      -0.272   3.100   0.278  1.00  0.00    -0.259 OA
HETATM   21  C23 UNL     1      -3.032  -1.339   1.294  1.00  0.00     0.007 C 
HETATM   22  C24 UNL     1      -4.216  -0.915  -3.486  1.00  0.00     0.013 C 
HETATM   23  O13 UNL     1      -5.674  -3.014  -0.779  1.00  0.00    -0.220 OA
ENDROOT
BRANCH  16  24
HETATM   24  C15 UNL     1       1.913  -0.924   0.545  1.00  0.00     0.148 C 
HETATM   25  C16 UNL     1       1.857  -2.376   1.038  1.00  0.00     0.035 C 
BRANCH  24  26
HETATM   26  O7  UNL     1       2.783  -0.261   1.435  1.00  0.00    -0.329 OA
BRANCH  26  27
HETATM   27  C17 UNL     1       3.334   0.963   0.972  1.00  0.00     0.270 C 
HETATM   28  C18 UNL     1       2.952   2.095   1.915  1.00  0.00     0.241 C 
HETATM   29  C19 UNL     1       4.107   2.554   2.787  1.00  0.00     0.220 C 
HETATM   30  O12 UNL     1       2.454   3.187   1.170  1.00  0.00    -0.215 OA
HETATM   31  C20 UNL     1       5.368   2.796   1.974  1.00  0.00     0.215 C 
HETATM   32  O11 UNL     1       4.364   1.564   3.758  1.00  0.00    -0.218 OA
HETATM   33  C21 UNL     1       5.480   1.873   0.763  1.00  0.00     0.184 C 
HETATM   34  O10 UNL     1       5.381   4.136   1.536  1.00  0.00    -0.218 OA
HETATM   35  O8  UNL     1       4.724   0.711   0.957  1.00  0.00    -0.326 OA
BRANCH  33  36
HETATM   36  C22 UNL     1       6.918   1.446   0.498  1.00  0.00     0.214 C 
HETATM   37  O9  UNL     1       7.743   2.577   0.299  1.00  0.00    -0.218 OA
ENDBRANCH  33  36
ENDBRANCH  26  27
ENDBRANCH  24  26
ENDBRANCH  16  24
TORSDOF 4
