REMARK  5 active torsions:
REMARK  status: ('A' for Active; 'I' for Inactive)
REMARK    1  A    between atoms: C2_3  and  O6_17 
REMARK    2  A    between atoms: C5_6  and  C6_7 
REMARK    3  A    between atoms: C6_7  and  O2_8 
REMARK    4  A    between atoms: O6_17  and  C12_18 
REMARK    5  A    between atoms: C16_22  and  C17_24 
ROOT
HETATM    1  C1  UNL     1      -1.691   1.724   0.548  1.00  0.00     0.122 C 
HETATM    2  O1  UNL     1      -1.266   0.442   0.374  1.00  0.00    -0.303 OA
HETATM    3  C2  UNL     1      -0.023   0.232  -0.253  1.00  0.00     0.247 C 
HETATM    4  C3  UNL     1       1.051   1.181   0.268  1.00  0.00     0.117 C 
HETATM    5  C4  UNL     1       0.569   2.634   0.140  1.00  0.00     0.159 C 
HETATM    6  C5  UNL     1      -0.907   2.807   0.421  1.00  0.00     0.093 C 
HETATM    7  C8  UNL     1       0.963   3.062  -1.275  1.00  0.00     0.038 C 
HETATM    8  C9  UNL     1       2.082   2.108  -1.727  1.00  0.00     0.034 C 
HETATM    9  C10 UNL     1       2.362   1.173  -0.547  1.00  0.00     0.134 C 
HETATM   10  O4  UNL     1       3.380   1.750   0.234  1.00  0.00    -0.226 OA
HETATM   11  C11 UNL     1       2.903  -0.182  -0.995  1.00  0.00     0.033 C 
HETATM   12  O5  UNL     1       1.287   3.421   1.071  1.00  0.00    -0.221 OA
ENDROOT
BRANCH   3  13
HETATM   13  O6  UNL     1       0.291  -1.106   0.103  1.00  0.00    -0.304 OA
BRANCH  13  14
HETATM   14  C12 UNL     1      -0.086  -2.087  -0.839  1.00  0.00     0.272 C 
HETATM   15  C13 UNL     1       0.704  -3.365  -0.632  1.00  0.00     0.241 C 
HETATM   16  C14 UNL     1       0.189  -4.219   0.509  1.00  0.00     0.220 C 
HETATM   17  O11 UNL     1       0.646  -4.123  -1.819  1.00  0.00    -0.215 OA
HETATM   18  C15 UNL     1      -1.311  -4.376   0.372  1.00  0.00     0.215 C 
HETATM   19  O10 UNL     1       0.518  -3.628   1.743  1.00  0.00    -0.218 OA
HETATM   20  C16 UNL     1      -2.034  -3.050   0.190  1.00  0.00     0.184 C 
HETATM   21  O9  UNL     1      -1.569  -5.197  -0.749  1.00  0.00    -0.218 OA
HETATM   22  O7  UNL     1      -1.483  -2.277  -0.843  1.00  0.00    -0.326 OA
BRANCH  20  23
HETATM   23  C17 UNL     1      -2.260  -2.246   1.464  1.00  0.00     0.214 C 
HETATM   24  O8  UNL     1      -3.026  -2.998   2.384  1.00  0.00    -0.218 OA
ENDBRANCH  20  23
ENDBRANCH  13  14
ENDBRANCH   3  13
BRANCH   6  25
HETATM   25  C6  UNL     1      -1.443   4.054   0.568  1.00  0.00     0.296 C 
HETATM   26  O3  UNL     1      -2.632   4.183   0.772  1.00  0.00    -0.259 OA
BRANCH  25  27
HETATM   27  O2  UNL     1      -0.667   5.174   0.443  1.00  0.00    -0.296 OA
HETATM   28  C7  UNL     1      -1.318   6.423   0.444  1.00  0.00     0.185 C 
ENDBRANCH  25  27
ENDBRANCH   6  25
TORSDOF 5
