REMARK  0 active torsions:
REMARK  status: ('A' for Active; 'I' for Inactive)
ROOT
HETATM    1  C1  UNL     1      -0.006   0.597  -0.899  1.00  0.00     0.031 C 
HETATM    2  C2  UNL     1       0.021  -0.928  -0.818  1.00  0.00     0.012 C 
HETATM    3  C3  UNL     1       1.146  -1.445   0.093  1.00  0.00     0.086 C 
HETATM    4  C4  UNL     1       2.444  -0.644   0.078  1.00  0.00     0.271 C 
HETATM    5  O1  UNL     1       2.392   0.653  -0.320  1.00  0.00    -0.302 OA
HETATM    6  C5  UNL     1       1.374   1.183  -1.119  1.00  0.00     0.152 C 
HETATM    7  O2  UNL     1       3.461  -1.122   0.536  1.00  0.00    -0.264 OA
HETATM    8  C6  UNL     1       0.792  -1.728   1.568  1.00  0.00     0.010 C 
HETATM    9  C7  UNL     1      -1.418  -1.226  -0.369  1.00  0.00     0.001 C 
HETATM   10  C8  UNL     1      -1.805  -0.078   0.583  1.00  0.00     0.000 C 
HETATM   11  C9  UNL     1      -0.774   1.049   0.352  1.00  0.00     0.003 C 
HETATM   12  C10 UNL     1      -1.421   2.433   0.215  1.00  0.00     0.000 C 
ENDROOT
TORSDOF 0
