REMARK  1 active torsions:
REMARK  status: ('A' for Active; 'I' for Inactive)
REMARK    1  A    between atoms: C5_5  and  C7_7 
ROOT
HETATM    1  C1  UNL     1       2.111   0.067  -0.285  1.00  0.00    -0.000 A 
HETATM    2  C2  UNL     1       2.514  -1.198  -0.098  1.00  0.00     0.000 A 
HETATM    3  C3  UNL     1       1.594  -2.141   0.146  1.00  0.00    -0.000 A 
HETATM    4  C4  UNL     1       0.294  -1.813   0.207  1.00  0.00    -0.000 A 
HETATM    5  C5  UNL     1      -0.139  -0.544   0.042  1.00  0.00    -0.000 A 
HETATM    6  C6  UNL     1       0.807   0.380  -0.219  1.00  0.00    -0.000 A 
ENDROOT
BRANCH   5   7
HETATM    7  C7  UNL     1      -1.466  -0.306   0.123  1.00  0.00    -0.004 C 
HETATM    8  C8  UNL     1      -2.187   0.829   0.081  1.00  0.00    -0.026 C 
HETATM    9  C9  UNL     1      -1.729   2.260   0.008  1.00  0.00     0.030 C 
ENDBRANCH   5   7
TORSDOF 1
