REMARK  5 active torsions:
REMARK  status: ('A' for Active; 'I' for Inactive)
REMARK    1  A    between atoms: C1_1  and  C19_28 
REMARK    2  A    between atoms: C5_5  and  O2_7 
REMARK    3  A    between atoms: O2_7  and  C6_8 
REMARK    4  A    between atoms: C15_17  and  C16_19 
REMARK    5  A    between atoms: C16_19  and  C17_20 
ROOT
HETATM    1  C6  UNL     1       0.308  -0.582   0.356  1.00  0.00     0.118 A 
HETATM    2  C7  UNL     1      -0.210   0.647   0.576  1.00  0.00     0.155 A 
HETATM    3  C8  UNL     1       0.612   1.705   0.607  1.00  0.00     0.054 A 
HETATM    4  C9  UNL     1       1.937   1.629   0.433  1.00  0.00     0.104 A 
HETATM    5  C10 UNL     1       2.465   0.409   0.208  1.00  0.00     0.060 A 
HETATM    6  C11 UNL     1       1.654  -0.679   0.178  1.00  0.00     0.008 A 
HETATM    7  C12 UNL     1       2.236  -2.072  -0.052  1.00  0.00     0.033 C 
HETATM    8  C13 UNL     1       3.817   0.328   0.021  1.00  0.00     0.199 A 
HETATM    9  C14 UNL     1       4.554   1.468   0.066  1.00  0.00     0.063 A 
HETATM   10  C15 UNL     1       3.990   2.662   0.292  1.00  0.00     0.088 A 
HETATM   11  O3  UNL     1       2.656   2.789   0.492  1.00  0.00    -0.311 OA
HETATM   12  O5  UNL     1       4.440  -0.687  -0.191  1.00  0.00    -0.286 OA
HETATM   13  O6  UNL     1      -1.534   0.900   0.753  1.00  0.00    -0.188 OA
ENDROOT
BRANCH   1  14
HETATM   14  O2  UNL     1      -0.410  -1.757   0.300  1.00  0.00    -0.302 OA
BRANCH  14  15
HETATM   15  C5  UNL     1      -1.815  -1.850   0.306  1.00  0.00     0.274 C 
HETATM   16  C4  UNL     1      -2.151  -3.317   0.464  1.00  0.00     0.241 C 
HETATM   17  C3  UNL     1      -3.630  -3.571   0.242  1.00  0.00     0.220 C 
HETATM   18  O7  UNL     1      -1.397  -4.035  -0.485  1.00  0.00    -0.215 OA
HETATM   19  C2  UNL     1      -4.084  -2.913  -1.050  1.00  0.00     0.215 C 
HETATM   20  O8  UNL     1      -4.354  -3.040   1.326  1.00  0.00    -0.218 OA
HETATM   21  C1  UNL     1      -3.590  -1.480  -1.207  1.00  0.00     0.184 C 
HETATM   22  O9  UNL     1      -3.604  -3.679  -2.133  1.00  0.00    -0.218 OA
HETATM   23  O1  UNL     1      -2.213  -1.392  -0.966  1.00  0.00    -0.326 OA
BRANCH  21  24
HETATM   24  C19 UNL     1      -4.391  -0.453  -0.417  1.00  0.00     0.214 C 
HETATM   25  O10 UNL     1      -3.945   0.846  -0.751  1.00  0.00    -0.218 OA
ENDBRANCH  21  24
ENDBRANCH  14  15
ENDBRANCH   1  14
BRANCH  10  26
HETATM   26  C16 UNL     1       4.810   3.931   0.357  1.00  0.00     0.116 C 
BRANCH  26  27
HETATM   27  C17 UNL     1       4.385   4.951  -0.692  1.00  0.00     0.158 C 
HETATM   28  O4  UNL     1       5.103   5.210  -1.632  1.00  0.00    -0.296 OA
HETATM   29  C18 UNL     1       3.045   5.644  -0.524  1.00  0.00     0.073 C 
ENDBRANCH  26  27
ENDBRANCH  10  26
TORSDOF 5
