REMARK  1 active torsions:
REMARK  status: ('A' for Active; 'I' for Inactive)
REMARK    1  A    between atoms: C5_5  and  C7_8 
ROOT
HETATM    1  C1  UNL     1       0.077   1.897   1.319  1.00  0.00     0.065 C 
HETATM    2  C2  UNL     1      -0.022   0.999   0.064  1.00  0.00     0.009 C 
HETATM    3  C3  UNL     1       1.395   0.402  -0.127  1.00  0.00     0.001 C 
HETATM    4  C4  UNL     1       2.425   1.490  -0.466  1.00  0.00     0.011 C 
HETATM    5  C5  UNL     1       2.540   2.562   0.643  1.00  0.00     0.070 C 
HETATM    6  C6  UNL     1       1.154   2.965   1.164  1.00  0.00     0.153 C 
HETATM    7  O1  UNL     1       0.917   4.106   1.496  1.00  0.00    -0.296 OA
HETATM    8  C9  UNL     1       3.247   3.810   0.073  1.00  0.00     0.012 C 
HETATM    9  C10 UNL     1       1.455  -0.844  -1.036  1.00  0.00     0.003 C 
HETATM   10  C11 UNL     1       0.162  -1.169  -1.794  1.00  0.00     0.030 C 
HETATM   11  C12 UNL     1      -1.126  -1.120  -0.953  1.00  0.00     0.127 C 
HETATM   12  C13 UNL     1      -0.981  -0.203   0.277  1.00  0.00     0.031 C 
HETATM   13  C14 UNL     1      -2.359   0.138   0.884  1.00  0.00     0.035 C 
HETATM   14  C15 UNL     1      -3.356  -1.018   0.761  1.00  0.00     0.152 C 
HETATM   15  C16 UNL     1      -2.637  -2.361   0.713  1.00  0.00     0.035 C 
HETATM   16  C17 UNL     1      -1.676  -2.509  -0.502  1.00  0.00     0.028 C 
HETATM   17  C18 UNL     1      -0.557  -3.486  -0.062  1.00  0.00     0.003 C 
HETATM   18  C19 UNL     1      -2.440  -3.202  -1.657  1.00  0.00     0.003 C 
HETATM   19  O2  UNL     1      -4.244  -0.996   1.855  1.00  0.00    -0.224 OA
HETATM   20  O3  UNL     1      -2.088  -0.530  -1.796  1.00  0.00    -0.226 OA
HETATM   21  C20 UNL     1      -0.481   1.926  -1.088  1.00  0.00     0.001 C 
ENDROOT
BRANCH   5  22
HETATM   22  C7  UNL     1       3.330   2.013   1.819  1.00  0.00    -0.020 C 
HETATM   23  C8  UNL     1       4.635   1.704   1.783  1.00  0.00    -0.004 C 
ENDBRANCH   5  22
TORSDOF 1
