REMARK  3 active torsions:
REMARK  status: ('A' for Active; 'I' for Inactive)
REMARK    1  A    between atoms: C1_1  and  O4_20 
REMARK    2  A    between atoms: C3_3  and  O3_18 
REMARK    3  A    between atoms: C12_12  and  O2_16 
ROOT
HETATM    1  C1  UNL     1       3.317   0.751  -0.021  1.00  0.00     0.096 A 
HETATM    2  C2  UNL     1       2.755  -0.460  -0.017  1.00  0.00     0.048 A 
HETATM    3  C3  UNL     1       1.440  -0.795  -0.020  1.00  0.00     0.096 A 
HETATM    4  C4  UNL     1       0.523   0.235  -0.025  1.00  0.00     0.022 A 
HETATM    5  C5  UNL     1       1.088   1.481  -0.028  1.00  0.00     0.004 A 
HETATM    6  C6  UNL     1       2.411   1.732  -0.027  1.00  0.00     0.024 A 
HETATM    7  C7  UNL     1       0.377   2.624  -0.032  1.00  0.00     0.000 A 
HETATM    8  C8  UNL     1      -0.952   2.604  -0.029  1.00  0.00     0.000 A 
HETATM    9  C9  UNL     1      -1.561   1.413  -0.027  1.00  0.00     0.002 A 
HETATM   10  C10 UNL     1      -0.851   0.258  -0.028  1.00  0.00     0.004 A 
HETATM   11  C11 UNL     1      -1.685  -0.800  -0.035  1.00  0.00     0.026 A 
HETATM   12  C12 UNL     1      -3.033  -0.825  -0.038  1.00  0.00     0.119 A 
HETATM   13  C13 UNL     1      -3.662   0.360  -0.021  1.00  0.00     0.153 A 
HETATM   14  C14 UNL     1      -2.906   1.462  -0.022  1.00  0.00     0.029 A 
HETATM   15  O1  UNL     1      -5.022   0.426  -0.012  1.00  0.00    -0.188 OA
ENDROOT
BRANCH   1  16
HETATM   16  O4  UNL     1       4.684   0.887  -0.018  1.00  0.00    -0.328 OA
HETATM   17  C17 UNL     1       5.238   2.183  -0.026  1.00  0.00     0.181 C 
ENDBRANCH   1  16
BRANCH   3  18
HETATM   18  O3  UNL     1       1.429  -2.186  -0.012  1.00  0.00    -0.328 OA
HETATM   19  C16 UNL     1       0.387  -3.114   0.023  1.00  0.00     0.181 C 
ENDBRANCH   3  18
BRANCH  12  20
HETATM   20  O2  UNL     1      -3.826  -1.951  -0.028  1.00  0.00    -0.326 OA
HETATM   21  C15 UNL     1      -3.241  -3.220   0.140  1.00  0.00     0.181 C 
ENDBRANCH  12  20
TORSDOF 3
