REMARK  1 active torsions:
REMARK  status: ('A' for Active; 'I' for Inactive)
REMARK    1  A    between atoms: C12_15  and  O4_19 
ROOT
HETATM    1  C1  UNL     1      -2.768   0.841  -1.735  1.00  0.00     0.119 A 
HETATM    2  O1  UNL     1      -3.840   1.060  -2.290  1.00  0.00    -0.300 OA
HETATM    3  C2  UNL     1      -4.424  -0.210  -2.591  1.00  0.00     0.304 A 
HETATM    4  O2  UNL     1      -3.449  -1.127  -2.089  1.00  0.00    -0.300 OA
HETATM    5  C3  UNL     1      -2.526  -0.464  -1.624  1.00  0.00     0.119 A 
HETATM    6  C4  UNL     1      -1.404  -0.897  -1.039  1.00  0.00     0.026 A 
HETATM    7  C5  UNL     1      -0.476  -0.042  -0.543  1.00  0.00    -0.002 A 
HETATM    8  C6  UNL     1      -0.737   1.284  -0.678  1.00  0.00    -0.018 A 
HETATM    9  C7  UNL     1      -1.874   1.714  -1.270  1.00  0.00     0.022 A 
HETATM   10  C8  UNL     1       0.218   2.406  -0.336  1.00  0.00     0.062 C 
HETATM   11  C9  UNL     1       1.641   2.031   0.069  1.00  0.00     0.255 C 
HETATM   12  N1  UNL     1       1.738   1.365   1.344  1.00  0.00     0.138 N 
HETATM   13  C10 UNL     1       1.257  -0.008   1.358  1.00  0.00     0.220 C 
HETATM   14  C11 UNL     1       0.593  -0.579   0.098  1.00  0.00     0.032 C 
HETATM   15  C12 UNL     1       1.138  -1.778  -0.229  1.00  0.00     0.127 C 
HETATM   16  C13 UNL     1       2.185  -2.086   0.580  1.00  0.00     0.197 C 
HETATM   17  C14 UNL     1       2.470  -0.944   1.521  1.00  0.00     0.107 C 
HETATM   18  O3  UNL     1       2.883  -3.072   0.545  1.00  0.00    -0.289 OA
HETATM   19  C16 UNL     1       0.272  -0.137   2.543  1.00  0.00     0.038 C 
HETATM   20  C17 UNL     1      -0.200   1.302   2.760  1.00  0.00     0.038 C 
HETATM   21  C18 UNL     1       1.098   2.058   2.453  1.00  0.00     0.251 C 
ENDROOT
BRANCH  15  22
HETATM   22  O4  UNL     1       0.797  -2.511  -1.340  1.00  0.00    -0.326 OA
HETATM   23  C15 UNL     1       1.730  -3.399  -1.909  1.00  0.00     0.181 C 
ENDBRANCH  15  22
TORSDOF 1
