REMARK  0 active torsions:
REMARK  status: ('A' for Active; 'I' for Inactive)
ROOT
HETATM    1  C1  UNL     1       4.266  -0.717   0.464  1.00  0.00     0.026 A 
HETATM    2  C2  UNL     1       4.541   0.560   0.181  1.00  0.00     0.119 A 
HETATM    3  C3  UNL     1       3.560   1.415  -0.120  1.00  0.00     0.117 A 
HETATM    4  C4  UNL     1       2.270   1.043  -0.154  1.00  0.00     0.034 A 
HETATM    5  C5  UNL     1       1.970  -0.245   0.128  1.00  0.00    -0.018 A 
HETATM    6  C6  UNL     1       2.978  -1.093   0.431  1.00  0.00    -0.002 A 
HETATM    7  C7  UNL     1       0.521  -0.741   0.122  1.00  0.00     0.083 C 
HETATM    8  C8  UNL     1      -0.396   0.271  -0.603  1.00  0.00     0.285 C 
HETATM    9  N1  UNL     1      -0.111   1.630  -0.153  1.00  0.00     0.346 N 
HETATM   10  C9  UNL     1       1.227   2.071  -0.519  1.00  0.00     0.319 C 
HETATM   11  C10 UNL     1      -1.878   0.014  -0.400  1.00  0.00     0.010 A 
HETATM   12  C11 UNL     1      -2.345  -0.727   0.630  1.00  0.00    -0.020 A 
HETATM   13  C12 UNL     1      -1.420  -1.366   1.639  1.00  0.00     0.059 C 
HETATM   14  C13 UNL     1       0.013  -0.852   1.569  1.00  0.00     0.162 C 
HETATM   15  O1  UNL     1       0.830  -1.702   2.338  1.00  0.00    -0.223 OA
HETATM   16  C14 UNL     1      -3.670  -0.931   0.770  1.00  0.00     0.022 A 
HETATM   17  C15 UNL     1      -4.513  -0.389  -0.115  1.00  0.00     0.119 A 
HETATM   18  C16 UNL     1      -4.054   0.350  -1.128  1.00  0.00     0.119 A 
HETATM   19  C17 UNL     1      -2.742   0.559  -1.280  1.00  0.00     0.024 A 
HETATM   20  O2  UNL     1      -4.972   0.762  -1.832  1.00  0.00    -0.300 OA
HETATM   21  C18 UNL     1      -6.192   0.269  -1.273  1.00  0.00     0.304 A 
HETATM   22  O3  UNL     1      -5.738  -0.473  -0.140  1.00  0.00    -0.300 OA
HETATM   23  C19 UNL     1       0.413  -2.088  -0.633  1.00  0.00     0.009 C 
HETATM   24  O4  UNL     1       4.017   2.533  -0.351  1.00  0.00    -0.300 OA
HETATM   25  C20 UNL     1       5.435   2.466  -0.199  1.00  0.00     0.304 A 
HETATM   26  O5  UNL     1       5.644   1.099   0.156  1.00  0.00    -0.300 OA
ENDROOT
TORSDOF 0
