REMARK  4 active torsions:
REMARK  status: ('A' for Active; 'I' for Inactive)
REMARK    1  A    between atoms: C15_16  and  C18_20 
REMARK    2  A    between atoms: C18_20  and  C19_21 
REMARK    3  A    between atoms: C19_21  and  C20_22 
REMARK    4  A    between atoms: C21_23  and  C22_24 
ROOT
HETATM    1  C1  UNL     1      -5.968  -1.398  -0.147  1.00  0.00     0.181 C 
HETATM    2  C2  UNL     1      -5.758  -2.851   0.200  1.00  0.00     0.212 C 
HETATM    3  C3  UNL     1      -4.774  -3.571  -0.727  1.00  0.00     0.050 C 
HETATM    4  C4  UNL     1      -3.469  -2.777  -0.727  1.00  0.00    -0.046 C 
HETATM    5  C5  UNL     1      -3.467  -1.254  -0.829  1.00  0.00     0.032 C 
HETATM    6  C6  UNL     1      -4.888  -0.647  -0.889  1.00  0.00     0.072 C 
HETATM    7  C7  UNL     1      -2.472  -0.658   0.220  1.00  0.00     0.056 C 
HETATM    8  C8  UNL     1      -1.063  -1.338   0.104  1.00  0.00     0.011 C 
HETATM    9  C9  UNL     1      -1.012  -2.568  -0.823  1.00  0.00     0.026 C 
HETATM   10  C10 UNL     1      -2.269  -3.378  -0.722  1.00  0.00    -0.035 C 
HETATM   11  C11 UNL     1       0.095  -0.343  -0.195  1.00  0.00     0.004 C 
HETATM   12  C12 UNL     1       0.156   0.752   0.919  1.00  0.00     0.012 C 
HETATM   13  C13 UNL     1      -1.139   1.577   0.806  1.00  0.00     0.065 C 
HETATM   14  C14 UNL     1      -2.288   0.866   0.096  1.00  0.00     0.150 C 
HETATM   15  O1  UNL     1      -3.035   1.552  -0.564  1.00  0.00    -0.296 OA
HETATM   16  C15 UNL     1       1.488   1.484   0.579  1.00  0.00     0.066 C 
HETATM   17  C16 UNL     1       2.414   0.311   0.183  1.00  0.00     0.155 C 
HETATM   18  C17 UNL     1       1.526  -0.912  -0.104  1.00  0.00     0.033 C 
HETATM   19  O2  UNL     1       3.178   0.641  -0.955  1.00  0.00    -0.223 OA
HETATM   20  C26 UNL     1       0.293   0.199   2.363  1.00  0.00     0.001 C 
HETATM   21  C27 UNL     1      -0.035   0.191  -1.655  1.00  0.00     0.000 C 
HETATM   22  C28 UNL     1      -3.117  -0.878   1.610  1.00  0.00     0.008 C 
HETATM   23  C29 UNL     1      -4.611  -5.011  -0.186  1.00  0.00     0.007 C 
HETATM   24  C30 UNL     1      -5.289  -3.680  -2.177  1.00  0.00     0.007 C 
HETATM   25  O6  UNL     1      -7.042  -3.454   0.193  1.00  0.00    -0.215 OA
HETATM   26  O7  UNL     1      -7.034  -0.917   0.167  1.00  0.00    -0.293 OA
ENDROOT
BRANCH  16  27
HETATM   27  C18 UNL     1       2.119   2.535   1.516  1.00  0.00     0.184 C 
HETATM   28  C25 UNL     1       1.125   3.574   2.048  1.00  0.00     0.041 C 
HETATM   29  O5  UNL     1       2.713   1.918   2.638  1.00  0.00    -0.218 OA
BRANCH  27  30
HETATM   30  C19 UNL     1       3.192   3.295   0.714  1.00  0.00     0.200 C 
HETATM   31  O4  UNL     1       2.923   4.355   0.159  1.00  0.00    -0.289 OA
BRANCH  30  32
HETATM   32  C20 UNL     1       4.559   2.727   0.642  1.00  0.00     0.038 C 
HETATM   33  C21 UNL     1       5.489   3.232  -0.194  1.00  0.00     0.006 C 
BRANCH  33  34
HETATM   34  C22 UNL     1       6.889   2.676  -0.340  1.00  0.00     0.145 C 
HETATM   35  C23 UNL     1       6.856   1.400  -1.182  1.00  0.00     0.038 C 
HETATM   36  C24 UNL     1       7.821   3.715  -0.967  1.00  0.00     0.038 C 
HETATM   37  O3  UNL     1       7.409   2.350   0.932  1.00  0.00    -0.222 OA
ENDBRANCH  33  34
ENDBRANCH  30  32
ENDBRANCH  27  30
ENDBRANCH  16  27
TORSDOF 4
