REMARK  0 active torsions:
REMARK  status: ('A' for Active; 'I' for Inactive)
ROOT
HETATM    1  C1  UNL     1      -4.129  -0.495  -0.313  1.00  0.00     0.070 C 
HETATM    2  C2  UNL     1      -4.050  -1.953  -0.740  1.00  0.00     0.173 C 
HETATM    3  C3  UNL     1      -2.835  -2.551  -0.849  1.00  0.00     0.033 C 
HETATM    4  C4  UNL     1      -1.664  -1.894  -0.746  1.00  0.00    -0.020 C 
HETATM    5  C5  UNL     1      -1.640  -0.367  -0.743  1.00  0.00     0.020 C 
HETATM    6  C6  UNL     1      -2.789   0.081   0.173  1.00  0.00     0.012 C 
HETATM    7  C7  UNL     1      -0.243   0.230  -0.412  1.00  0.00     0.008 C 
HETATM    8  C8  UNL     1       0.611  -0.704   0.448  1.00  0.00     0.023 C 
HETATM    9  C9  UNL     1       0.592  -2.089  -0.141  1.00  0.00    -0.027 C 
HETATM   10  C10 UNL     1      -0.536  -2.621  -0.632  1.00  0.00    -0.009 C 
HETATM   11  C11 UNL     1       2.034  -0.184   0.713  1.00  0.00     0.011 C 
HETATM   12  C12 UNL     1       2.089   1.294   1.158  1.00  0.00     0.052 C 
HETATM   13  C13 UNL     1       1.173   2.196   0.310  1.00  0.00     0.007 C 
HETATM   14  C14 UNL     1      -0.254   1.643   0.191  1.00  0.00     0.001 C 
HETATM   15  C15 UNL     1       3.532   1.677   0.843  1.00  0.00     0.150 C 
HETATM   16  C16 UNL     1       4.189   0.625  -0.028  1.00  0.00     0.065 C 
HETATM   17  C17 UNL     1       3.027  -0.280  -0.460  1.00  0.00     0.009 C 
HETATM   18  O1  UNL     1       4.080   2.685   1.225  1.00  0.00    -0.296 OA
HETATM   19  C18 UNL     1       1.815   1.465   2.661  1.00  0.00     0.007 C 
HETATM   20  C19 UNL     1      -1.944   0.078  -2.203  1.00  0.00     0.004 C 
HETATM   21  O2  UNL     1      -5.072  -2.587  -0.880  1.00  0.00    -0.291 OA
ENDROOT
TORSDOF 0
