REMARK  0 active torsions:
REMARK  status: ('A' for Active; 'I' for Inactive)
ROOT
HETATM    1  C1  UNL     1       2.753  -0.262   1.478  1.00  0.00    -0.034 C 
HETATM    2  C2  UNL     1       1.606  -0.951   1.459  1.00  0.00    -0.046 C 
HETATM    3  C3  UNL     1       0.428  -0.068   1.118  1.00  0.00     0.050 C 
HETATM    4  C4  UNL     1       1.129   1.199   0.562  1.00  0.00     0.029 C 
HETATM    5  C5  UNL     1       2.555   1.192   1.159  1.00  0.00     0.030 C 
HETATM    6  C6  UNL     1       1.099   1.239  -0.959  1.00  0.00    -0.044 C 
HETATM    7  C7  UNL     1      -0.108   1.893  -1.599  1.00  0.00     0.022 C 
HETATM    8  C8  UNL     1      -1.312   0.941  -1.684  1.00  0.00     0.011 C 
HETATM    9  C9  UNL     1      -1.649   0.307  -0.329  1.00  0.00     0.056 C 
HETATM   10  C10 UNL     1      -0.587  -0.691   0.164  1.00  0.00     0.133 C 
HETATM   11  O1  UNL     1      -1.272  -1.758   0.767  1.00  0.00    -0.301 OA
HETATM   12  C11 UNL     1      -2.578  -1.666   0.399  1.00  0.00     0.292 C 
HETATM   13  C12 UNL     1      -2.888  -0.547  -0.297  1.00  0.00     0.043 C 
HETATM   14  C13 UNL     1      -4.096  -0.264  -0.798  1.00  0.00     0.001 C 
HETATM   15  O2  UNL     1      -3.385  -2.527   0.676  1.00  0.00    -0.260 OA
HETATM   16  C14 UNL     1       2.028   0.645  -1.726  1.00  0.00    -0.009 C 
HETATM   17  C15 UNL     1       1.468  -2.399   1.825  1.00  0.00     0.026 C 
ENDROOT
TORSDOF 0
