REMARK  0 active torsions:
REMARK  status: ('A' for Active; 'I' for Inactive)
ROOT
HETATM    1  C1  UNL     1       4.516   0.163   0.249  1.00  0.00     0.057 A 
HETATM    2  C2  UNL     1       4.009  -1.139   0.301  1.00  0.00     0.133 A 
HETATM    3  C3  UNL     1       2.626  -1.286   0.225  1.00  0.00     0.032 A 
HETATM    4  C4  UNL     1       1.793  -0.167   0.104  1.00  0.00     0.050 A 
HETATM    5  C5  UNL     1       2.303   1.147   0.056  1.00  0.00     0.131 A 
HETATM    6  C6  UNL     1       3.698   1.292   0.129  1.00  0.00     0.156 A 
HETATM    7  O1  UNL     1       4.264   2.528   0.085  1.00  0.00    -0.188 OA
HETATM    8  O2  UNL     1       1.522   2.275  -0.061  1.00  0.00    -0.271 OA
HETATM    9  C7  UNL     1       0.164   2.121  -0.126  1.00  0.00     0.302 A 
HETATM   10  C8  UNL     1      -0.437   0.780  -0.088  1.00  0.00     0.088 A 
HETATM   11  C9  UNL     1       0.350  -0.325   0.020  1.00  0.00     0.107 A 
HETATM   12  O3  UNL     1      -0.402  -1.476   0.045  1.00  0.00    -0.307 OA
HETATM   13  C10 UNL     1      -1.713  -1.054  -0.059  1.00  0.00     0.102 A 
HETATM   14  C11 UNL     1      -1.805   0.337  -0.142  1.00  0.00     0.032 A 
HETATM   15  C12 UNL     1      -3.048   0.981  -0.250  1.00  0.00     0.032 A 
HETATM   16  C13 UNL     1      -4.198   0.202  -0.268  1.00  0.00     0.156 A 
HETATM   17  C14 UNL     1      -4.113  -1.210  -0.175  1.00  0.00     0.158 A 
HETATM   18  C15 UNL     1      -2.876  -1.839  -0.069  1.00  0.00     0.054 A 
HETATM   19  O4  UNL     1      -5.264  -1.932  -0.190  1.00  0.00    -0.188 OA
HETATM   20  O5  UNL     1      -5.420   0.786  -0.369  1.00  0.00    -0.188 OA
HETATM   21  O6  UNL     1      -0.578   3.097  -0.216  1.00  0.00    -0.259 OA
HETATM   22  O7  UNL     1       4.821  -2.222   0.419  1.00  0.00    -0.190 OA
ENDROOT
TORSDOF 0
