REMARK  6 active torsions:
REMARK  status: ('A' for Active; 'I' for Inactive)
REMARK    1  A    between atoms: C12_14  and  C27_38 
REMARK    2  A    between atoms: C16_18  and  C25_34 
REMARK    3  A    between atoms: C18_21  and  O2_22 
REMARK    4  A    between atoms: O2_22  and  C19_23 
REMARK    5  A    between atoms: C20_25  and  C24_32 
REMARK    6  A    between atoms: C25_34  and  O8_35 
ROOT
HETATM    1  C1  UNL     1      -7.695   0.037  -1.771  1.00  0.00     0.000 A 
HETATM    2  C2  UNL     1      -7.759  -1.379  -1.634  1.00  0.00     0.002 A 
HETATM    3  C3  UNL     1      -6.628  -2.126  -1.375  1.00  0.00     0.019 A 
HETATM    4  C4  UNL     1      -5.401  -1.428  -1.248  1.00  0.00     0.081 A 
HETATM    5  C5  UNL     1      -5.334  -0.037  -1.389  1.00  0.00     0.015 A 
HETATM    6  C6  UNL     1      -6.503   0.721  -1.653  1.00  0.00     0.001 A 
HETATM    7  C7  UNL     1      -3.968   0.329  -1.212  1.00  0.00    -0.003 A 
HETATM    8  C8  UNL     1      -3.242  -0.804  -0.950  1.00  0.00     0.086 A 
HETATM    9  N1  UNL     1      -4.122  -1.879  -0.991  1.00  0.00    -0.248 NA
HETATM   10  C9  UNL     1      -1.745  -0.794  -0.755  1.00  0.00     0.259 C 
HETATM   11  N2  UNL     1      -1.207   0.532  -0.404  1.00  0.00     0.142 N 
HETATM   12  C10 UNL     1      -2.236   1.519  -0.094  1.00  0.00     0.255 C 
HETATM   13  C11 UNL     1      -3.321   1.673  -1.172  1.00  0.00     0.063 C 
HETATM   14  C12 UNL     1      -0.132   0.973  -1.295  1.00  0.00     0.257 C 
HETATM   15  C13 UNL     1       0.931  -0.163  -1.374  1.00  0.00     0.095 C 
HETATM   16  C14 UNL     1       0.350  -1.304  -2.214  1.00  0.00     0.039 C 
HETATM   17  C15 UNL     1      -1.170  -1.416  -2.040  1.00  0.00     0.044 C 
HETATM   18  C16 UNL     1       1.123  -2.580  -2.017  1.00  0.00     0.065 C 
HETATM   19  C17 UNL     1       1.901  -2.758  -0.937  1.00  0.00     0.120 C 
HETATM   20  O1  UNL     1       2.096  -1.844   0.050  1.00  0.00    -0.304 OA
HETATM   21  C18 UNL     1       1.425  -0.602   0.006  1.00  0.00     0.244 C 
ENDROOT
BRANCH  21  22
HETATM   22  O2  UNL     1       2.429   0.306   0.430  1.00  0.00    -0.304 OA
BRANCH  22  23
HETATM   23  C19 UNL     1       2.337   0.728   1.773  1.00  0.00     0.272 C 
HETATM   24  O3  UNL     1       3.045   1.952   1.713  1.00  0.00    -0.326 OA
HETATM   25  C20 UNL     1       3.079   2.629   2.940  1.00  0.00     0.184 C 
HETATM   26  C21 UNL     1       3.750   1.752   3.991  1.00  0.00     0.215 C 
HETATM   27  C22 UNL     1       3.054   0.409   4.088  1.00  0.00     0.220 C 
HETATM   28  O6  UNL     1       3.698   2.360   5.258  1.00  0.00    -0.218 OA
HETATM   29  C23 UNL     1       3.029  -0.229   2.715  1.00  0.00     0.241 C 
HETATM   30  O5  UNL     1       3.752  -0.418   4.984  1.00  0.00    -0.218 OA
HETATM   31  O4  UNL     1       2.325  -1.442   2.796  1.00  0.00    -0.215 OA
BRANCH  25  32
HETATM   32  C24 UNL     1       3.832   3.936   2.733  1.00  0.00     0.214 C 
HETATM   33  O7  UNL     1       3.170   4.730   1.768  1.00  0.00    -0.218 OA
ENDBRANCH  25  32
ENDBRANCH  22  23
ENDBRANCH  21  22
BRANCH  14  34
HETATM   34  C27 UNL     1       0.533   2.290  -0.859  1.00  0.00     0.216 C 
HETATM   35  O10 UNL     1      -0.145   3.408  -1.397  1.00  0.00    -0.219 OA
ENDBRANCH  14  34
BRANCH  18  36
HETATM   36  C25 UNL     1       1.043  -3.645  -3.079  1.00  0.00     0.294 C 
HETATM   37  O9  UNL     1      -0.059  -3.787  -3.604  1.00  0.00    -0.259 OA
BRANCH  36  38
HETATM   38  O8  UNL     1       2.075  -4.402  -3.564  1.00  0.00    -0.296 OA
HETATM   39  C26 UNL     1       3.403  -4.134  -3.185  1.00  0.00     0.185 C 
ENDBRANCH  36  38
ENDBRANCH  18  36
TORSDOF 6
