REMARK  0 active torsions:
REMARK  status: ('A' for Active; 'I' for Inactive)
ROOT
HETATM    1  C1  UNL     1       2.633  -1.464  -1.586  1.00  0.00     0.033 C 
HETATM    2  C2  UNL     1       3.497  -0.375  -0.961  1.00  0.00     0.152 C 
HETATM    3  C3  UNL     1       2.753   0.948  -0.681  1.00  0.00     0.028 C 
HETATM    4  C4  UNL     1       1.421   0.628   0.069  1.00  0.00     0.003 C 
HETATM    5  C5  UNL     1       0.481  -0.461  -0.539  1.00  0.00     0.003 C 
HETATM    6  C6  UNL     1       1.357  -1.724  -0.771  1.00  0.00     0.003 C 
HETATM    7  C7  UNL     1      -0.655  -0.796   0.499  1.00  0.00     0.037 C 
HETATM    8  C8  UNL     1      -1.358   0.419   1.161  1.00  0.00     0.060 C 
HETATM    9  C9  UNL     1      -0.369   1.490   1.631  1.00  0.00     0.007 C 
HETATM   10  C10 UNL     1       0.622   1.865   0.524  1.00  0.00     0.001 C 
HETATM   11  C11 UNL     1      -2.483   0.985   0.271  1.00  0.00     0.042 C 
HETATM   12  C12 UNL     1      -3.529  -0.121   0.353  1.00  0.00     0.151 C 
HETATM   13  C13 UNL     1      -3.042  -1.336  -0.431  1.00  0.00     0.068 C 
HETATM   14  C14 UNL     1      -1.689  -1.867   0.069  1.00  0.00     0.155 C 
HETATM   15  O1  UNL     1      -1.949  -2.710   1.172  1.00  0.00    -0.223 OA
HETATM   16  C15 UNL     1      -3.538  -0.381   1.831  1.00  0.00     0.040 C 
HETATM   17  C16 UNL     1      -2.186  -0.087   2.354  1.00  0.00     0.171 C 
HETATM   18  O2  UNL     1      -1.793  -0.230   3.503  1.00  0.00    -0.292 OA
HETATM   19  C17 UNL     1      -4.558  -0.831   2.581  1.00  0.00     0.001 C 
HETATM   20  O3  UNL     1      -4.775   0.329  -0.119  1.00  0.00    -0.221 OA
HETATM   21  C18 UNL     1      -0.124  -0.057  -1.901  1.00  0.00     0.000 C 
HETATM   22  C19 UNL     1       3.683   1.798   0.230  1.00  0.00     0.003 C 
HETATM   23  C20 UNL     1       2.554   1.781  -1.966  1.00  0.00     0.003 C 
HETATM   24  O4  UNL     1       4.611  -0.163  -1.799  1.00  0.00    -0.224 OA
ENDROOT
TORSDOF 0
