REMARK  0 active torsions:
REMARK  status: ('A' for Active; 'I' for Inactive)
ROOT
HETATM    1  C1  UNL     1      -2.502  -0.882  -3.014  1.00  0.00     0.033 C 
HETATM    2  C2  UNL     1      -3.415  -1.691  -2.104  1.00  0.00     0.152 C 
HETATM    3  C3  UNL     1      -2.604  -2.423  -1.032  1.00  0.00     0.033 C 
HETATM    4  C4  UNL     1      -1.243  -1.756  -0.740  1.00  0.00     0.003 C 
HETATM    5  C5  UNL     1      -1.295  -0.207  -0.789  1.00  0.00     0.000 C 
HETATM    6  C6  UNL     1      -1.739   0.200  -2.225  1.00  0.00     0.003 C 
HETATM    7  C7  UNL     1       0.129   0.361  -0.487  1.00  0.00     0.000 C 
HETATM    8  C8  UNL     1       0.736  -0.202   0.825  1.00  0.00     0.000 C 
HETATM    9  C9  UNL     1       0.770  -1.738   0.795  1.00  0.00     0.000 C 
HETATM   10  C10 UNL     1      -0.633  -2.308   0.560  1.00  0.00     0.000 C 
HETATM   11  C11 UNL     1       2.138   0.388   1.017  1.00  0.00     0.007 C 
HETATM   12  C12 UNL     1       2.102   1.924   1.111  1.00  0.00     0.051 C 
HETATM   13  C13 UNL     1       1.626   2.464  -0.243  1.00  0.00     0.007 C 
HETATM   14  C14 UNL     1       0.226   1.905  -0.567  1.00  0.00     0.000 C 
HETATM   15  C15 UNL     1       3.559   2.195   1.458  1.00  0.00     0.150 C 
HETATM   16  C16 UNL     1       4.130   0.999   2.206  1.00  0.00     0.065 C 
HETATM   17  C17 UNL     1       3.001  -0.052   2.207  1.00  0.00     0.008 C 
HETATM   18  O1  UNL     1       4.165   3.207   1.197  1.00  0.00    -0.296 OA
HETATM   19  C18 UNL     1       1.282   2.516   2.276  1.00  0.00     0.007 C 
HETATM   20  C19 UNL     1      -2.317   0.337   0.240  1.00  0.00     0.000 C 
HETATM   21  O2  UNL     1      -4.150  -2.620  -2.865  1.00  0.00    -0.224 OA
ENDROOT
TORSDOF 0
