REMARK  1 active torsions:
REMARK  status: ('A' for Active; 'I' for Inactive)
REMARK    1  A    between atoms: C11_12  and  C13_16 
ROOT
HETATM    1  C1  UNL     1      -3.287   1.584   0.137  1.00  0.00     0.033 C 
HETATM    2  C2  UNL     1      -2.896   0.161   0.164  1.00  0.00     0.175 C 
HETATM    3  C3  UNL     1      -1.372   0.117   0.345  1.00  0.00     0.091 C 
HETATM    4  C4  UNL     1      -0.922   1.539  -0.083  1.00  0.00     0.032 C 
HETATM    5  C5  UNL     1      -2.188   2.349   0.059  1.00  0.00    -0.023 C 
HETATM    6  C6  UNL     1       0.336   2.123   0.580  1.00  0.00     0.007 C 
HETATM    7  C7  UNL     1       1.560   1.177   0.548  1.00  0.00     0.035 C 
HETATM    8  C8  UNL     1       1.647   0.199  -0.627  1.00  0.00     0.145 A 
HETATM    9  C9  UNL     1       0.753  -1.021  -0.493  1.00  0.00     0.017 A 
HETATM   10  C10 UNL     1      -0.749  -0.972  -0.529  1.00  0.00     0.180 C 
HETATM   11  O1  UNL     1      -1.144  -0.802  -1.877  1.00  0.00    -0.218 OA
HETATM   12  C11 UNL     1       1.490  -2.145  -0.442  1.00  0.00     0.070 A 
HETATM   13  C12 UNL     1       2.881  -1.661  -0.548  1.00  0.00     0.294 A 
HETATM   14  O2  UNL     1       2.973  -0.310  -0.682  1.00  0.00    -0.297 OA
HETATM   15  O3  UNL     1       3.872  -2.384  -0.535  1.00  0.00    -0.259 OA
HETATM   16  C14 UNL     1       0.720   3.469  -0.073  1.00  0.00     0.000 C 
HETATM   17  C15 UNL     1      -1.181  -0.201   1.841  1.00  0.00     0.011 C 
HETATM   18  O5  UNL     1      -3.652  -0.799   0.154  1.00  0.00    -0.291 OA
ENDROOT
BRANCH  12  19
HETATM   19  C13 UNL     1       0.976  -3.552  -0.352  1.00  0.00     0.214 C 
HETATM   20  O4  UNL     1       2.005  -4.521  -0.484  1.00  0.00    -0.215 OA
ENDBRANCH  12  19
TORSDOF 1
