REMARK  3 active torsions:
REMARK  status: ('A' for Active; 'I' for Inactive)
REMARK    1  A    between atoms: C1_1  and  C13_19 
REMARK    2  A    between atoms: C5_5  and  O2_7 
REMARK    3  A    between atoms: O2_7  and  C6_8 
ROOT
HETATM    1  C1  UNL     1       1.204  -1.573   0.518  1.00  0.00     0.184 C 
HETATM    2  C2  UNL     1       0.532  -2.940   0.607  1.00  0.00     0.215 C 
HETATM    3  C3  UNL     1      -0.818  -2.822   1.285  1.00  0.00     0.220 C 
HETATM    4  C4  UNL     1      -1.633  -1.789   0.541  1.00  0.00     0.241 C 
HETATM    5  C5  UNL     1      -0.864  -0.489   0.520  1.00  0.00     0.274 C 
HETATM    6  O1  UNL     1       0.362  -0.669  -0.152  1.00  0.00    -0.326 OA
HETATM    7  O4  UNL     1      -2.858  -1.603   1.204  1.00  0.00    -0.215 OA
HETATM    8  O5  UNL     1      -1.473  -4.063   1.250  1.00  0.00    -0.218 OA
HETATM    9  O6  UNL     1       1.309  -3.839   1.359  1.00  0.00    -0.218 OA
ENDROOT
BRANCH   5  10
HETATM   10  O2  UNL     1      -1.619   0.446  -0.211  1.00  0.00    -0.304 OA
BRANCH  10  11
HETATM   11  C6  UNL     1      -1.066   1.619  -0.663  1.00  0.00     0.093 A 
HETATM   12  C7  UNL     1      -1.416   2.014  -1.964  1.00  0.00     0.026 A 
HETATM   13  C8  UNL     1      -0.944   3.179  -2.566  1.00  0.00     0.029 A 
HETATM   14  C9  UNL     1      -0.067   4.018  -1.882  1.00  0.00     0.131 A 
HETATM   15  C10 UNL     1       0.307   3.624  -0.596  1.00  0.00     0.025 A 
HETATM   16  O3  UNL     1       0.403   5.169  -2.430  1.00  0.00    -0.190 OA
HETATM   17  C11 UNL     1      -0.162   2.456   0.024  1.00  0.00     0.003 A 
HETATM   18  C12 UNL     1       0.284   2.213   1.448  1.00  0.00     0.033 C 
ENDBRANCH  10  11
ENDBRANCH   5  10
BRANCH   1  19
HETATM   19  C13 UNL     1       2.529  -1.647  -0.227  1.00  0.00     0.214 C 
HETATM   20  O7  UNL     1       3.171  -0.389  -0.183  1.00  0.00    -0.218 OA
ENDBRANCH   1  19
TORSDOF 3
