REMARK  0 active torsions:
REMARK  status: ('A' for Active; 'I' for Inactive)
ROOT
HETATM    1  C1  UNL     1      -2.266  -2.115  -1.526  1.00  0.00     0.000 C 
HETATM    2  C2  UNL     1      -1.909  -2.530  -2.817  1.00  0.00     0.002 C 
HETATM    3  C3  UNL     1      -0.607  -2.343  -3.281  1.00  0.00     0.019 C 
HETATM    4  C4  UNL     1       0.293  -1.672  -2.448  1.00  0.00     0.085 A 
HETATM    5  C5  UNL     1      -0.088  -1.128  -1.208  1.00  0.00     0.023 A 
HETATM    6  C6  UNL     1      -1.357  -1.443  -0.706  1.00  0.00     0.002 C 
HETATM    7  C7  UNL     1       1.076  -0.460  -0.625  1.00  0.00     0.064 A 
HETATM    8  C8  UNL     1       2.178  -0.790  -1.574  1.00  0.00     0.279 A 
HETATM    9  N1  UNL     1       1.657  -1.446  -2.663  1.00  0.00    -0.208 NA
HETATM   10  O1  UNL     1       3.364  -0.471  -1.532  1.00  0.00    -0.265 OA
HETATM   11  C9  UNL     1       1.192   0.338   0.479  1.00  0.00     0.064 A 
HETATM   12  C10 UNL     1       0.169   1.029   1.268  1.00  0.00     0.023 A 
HETATM   13  C11 UNL     1       0.816   1.726   2.307  1.00  0.00     0.085 A 
HETATM   14  N2  UNL     1       2.198   1.534   2.220  1.00  0.00    -0.208 NA
HETATM   15  C12 UNL     1       2.471   0.745   1.131  1.00  0.00     0.279 A 
HETATM   16  O2  UNL     1       3.618   0.387   0.877  1.00  0.00    -0.265 OA
HETATM   17  C13 UNL     1       0.125   2.510   3.234  1.00  0.00     0.019 A 
HETATM   18  C14 UNL     1      -1.256   2.632   3.086  1.00  0.00     0.002 A 
HETATM   19  C15 UNL     1      -1.906   2.026   2.002  1.00  0.00     0.000 A 
HETATM   20  C16 UNL     1      -1.200   1.256   1.075  1.00  0.00     0.002 A 
ENDROOT
TORSDOF 0
