REMARK  10 active torsions:
REMARK  status: ('A' for Active; 'I' for Inactive)
REMARK    1  A    between atoms: C9_10  and  C20_22 
REMARK    2  A    between atoms: C9_10  and  C22_26 
REMARK    3  A    between atoms: C16_18  and  C18_20 
REMARK    4  A    between atoms: C20_22  and  O1_23 
REMARK    5  A    between atoms: C23_27  and  O8_57 
REMARK    6  A    between atoms: C31_36  and  C44_53 
REMARK    7  A    between atoms: C32_37  and  O3_48 
REMARK    8  A    between atoms: C33_38  and  C40_46 
REMARK    9  A    between atoms: O3_48  and  C42_49 
REMARK   10  A    between atoms: C44_53  and  O7_55 
ROOT
HETATM    1  C22 UNL     1       1.456   1.207   0.333  1.00  0.00     0.013 A 
HETATM    2  C23 UNL     1       2.834   1.115   0.662  1.00  0.00     0.092 A 
HETATM    3  C24 UNL     1       3.434  -0.152   0.666  1.00  0.00     0.040 A 
HETATM    4  C25 UNL     1       2.696  -1.312   0.405  1.00  0.00     0.054 A 
HETATM    5  C26 UNL     1       1.336  -1.229   0.127  1.00  0.00    -0.004 A 
HETATM    6  C27 UNL     1       0.754   0.031   0.024  1.00  0.00    -0.004 A 
HETATM    7  C28 UNL     1       0.696  -2.578  -0.138  1.00  0.00     0.074 A 
HETATM    8  C29 UNL     1       1.931  -3.496   0.055  1.00  0.00     0.126 A 
HETATM    9  N3  UNL     1       3.101  -2.639   0.344  1.00  0.00    -0.345 N 
HETATM   10  C30 UNL     1       4.520  -2.990   0.479  1.00  0.00     0.126 C 
HETATM   11  C31 UNL     1       1.720  -4.595   1.097  1.00  0.00     0.247 C 
HETATM   12  C32 UNL     1       0.296  -5.162   0.993  1.00  0.00     0.169 C 
HETATM   13  C33 UNL     1      -0.827  -4.170   1.385  1.00  0.00     0.077 C 
HETATM   14  C34 UNL     1      -0.546  -2.761   0.784  1.00  0.00     0.231 C 
HETATM   15  N4  UNL     1      -1.610  -2.205  -0.048  1.00  0.00     0.140 N 
HETATM   16  C35 UNL     1      -2.964  -2.472   0.389  1.00  0.00     0.276 C 
HETATM   17  C36 UNL     1      -3.173  -3.950   0.533  1.00  0.00     0.004 C 
HETATM   18  C37 UNL     1      -2.172  -4.733   0.951  1.00  0.00    -0.025 C 
HETATM   19  C38 UNL     1      -1.371  -2.666  -1.403  1.00  0.00     0.251 C 
HETATM   20  C39 UNL     1       0.148  -2.604  -1.582  1.00  0.00     0.043 C 
HETATM   21  O5  UNL     1       2.591  -5.674   0.787  1.00  0.00    -0.211 OA
ENDROOT
BRANCH   1  22
HETATM   22  C9  UNL     1       0.757   2.568   0.076  1.00  0.00     0.133 C 
HETATM   23  C8  UNL     1      -0.707   2.601   0.530  1.00  0.00     0.067 A 
HETATM   24  C7  UNL     1      -1.650   3.624   0.487  1.00  0.00    -0.004 A 
HETATM   25  N1  UNL     1      -1.339   1.541   1.189  1.00  0.00    -0.249 NA
HETATM   26  C5  UNL     1      -2.853   3.139   1.097  1.00  0.00     0.015 A 
HETATM   27  C14 UNL     1      -1.581   5.048  -0.030  1.00  0.00     0.063 C 
HETATM   28  C4  UNL     1      -2.633   1.832   1.529  1.00  0.00     0.081 A 
HETATM   29  C6  UNL     1      -4.117   3.747   1.329  1.00  0.00     0.001 A 
HETATM   30  C3  UNL     1      -3.627   1.072   2.196  1.00  0.00     0.019 A 
HETATM   31  C2  UNL     1      -4.851   1.672   2.396  1.00  0.00     0.002 A 
HETATM   32  C1  UNL     1      -5.092   3.008   1.964  1.00  0.00     0.000 A 
HETATM   33  C13 UNL     1      -2.402   5.315  -1.320  1.00  0.00     0.255 C 
HETATM   34  N2  UNL     1      -1.831   4.907  -2.604  1.00  0.00     0.137 N 
HETATM   35  C12 UNL     1      -1.186   3.613  -2.498  1.00  0.00     0.250 C 
HETATM   36  C15 UNL     1      -0.937   5.917  -3.173  1.00  0.00     0.250 C 
HETATM   37  C11 UNL     1       0.306   3.811  -2.207  1.00  0.00     0.035 C 
HETATM   38  C10 UNL     1       0.945   2.632  -1.479  1.00  0.00     0.021 C 
HETATM   39  C17 UNL     1       0.933   4.221  -3.549  1.00  0.00     0.004 C 
HETATM   40  C16 UNL     1       0.092   5.356  -4.190  1.00  0.00     0.033 C 
BRANCH  40  41
HETATM   41  C18 UNL     1      -0.584   4.968  -5.521  1.00  0.00     0.002 C 
HETATM   42  C19 UNL     1       0.400   4.569  -6.630  1.00  0.00     0.000 C 
ENDBRANCH  40  41
BRANCH  22  43
HETATM   43  C20 UNL     1       1.457   3.749   0.785  1.00  0.00     0.280 C 
HETATM   44  O2  UNL     1       2.022   4.624   0.161  1.00  0.00    -0.264 OA
BRANCH  43  45
HETATM   45  O1  UNL     1       1.391   3.832   2.150  1.00  0.00    -0.298 OA
HETATM   46  C21 UNL     1       0.863   2.836   2.991  1.00  0.00     0.184 C 
ENDBRANCH  43  45
ENDBRANCH  22  43
ENDBRANCH   1  22
BRANCH   2  47
HETATM   47  O8  UNL     1       3.562   2.263   0.848  1.00  0.00    -0.328 OA
HETATM   48  C46 UNL     1       4.966   2.216   0.782  1.00  0.00     0.181 C 
ENDBRANCH   2  47
BRANCH  11  49
HETATM   49  C44 UNL     1       2.151  -4.218   2.514  1.00  0.00     0.304 C 
HETATM   50  O6  UNL     1       2.558  -5.087   3.251  1.00  0.00    -0.261 OA
BRANCH  49  51
HETATM   51  O7  UNL     1       2.050  -2.899   2.822  1.00  0.00    -0.297 OA
HETATM   52  C45 UNL     1       2.429  -2.526   4.125  1.00  0.00     0.185 C 
ENDBRANCH  49  51
ENDBRANCH  11  49
BRANCH  13  53
HETATM   53  C40 UNL     1      -0.988  -4.160   2.941  1.00  0.00     0.008 C 
HETATM   54  C41 UNL     1      -2.089  -3.280   3.554  1.00  0.00     0.001 C 
ENDBRANCH  13  53
BRANCH  12  55
HETATM   55  O3  UNL     1       0.081  -5.559  -0.339  1.00  0.00    -0.301 OA
BRANCH  55  56
HETATM   56  C42 UNL     1      -0.015  -6.849  -0.772  1.00  0.00     0.272 C 
HETATM   57  O4  UNL     1      -0.196  -7.113  -1.942  1.00  0.00    -0.264 OA
HETATM   58  C43 UNL     1       0.089  -7.951   0.268  1.00  0.00     0.106 C 
ENDBRANCH  55  56
ENDBRANCH  12  55
TORSDOF 10
