REMARK  3 active torsions:
REMARK  status: ('A' for Active; 'I' for Inactive)
REMARK    1  A    between atoms: C7_8  and  C10_13 
REMARK    2  A    between atoms: C12_15  and  C16_20 
REMARK    3  A    between atoms: C16_20  and  C17_21 
ROOT
HETATM    1  C1  UNL     1      -4.317   3.872   0.182  1.00  0.00     0.135 A 
HETATM    2  C2  UNL     1      -3.815   5.152  -0.051  1.00  0.00     0.055 A 
HETATM    3  C3  UNL     1      -2.445   5.430  -0.121  1.00  0.00     0.138 A 
HETATM    4  C4  UNL     1      -1.552   4.356   0.053  1.00  0.00     0.089 A 
HETATM    5  C5  UNL     1      -2.008   3.048   0.292  1.00  0.00     0.107 A 
HETATM    6  C6  UNL     1      -3.389   2.842   0.351  1.00  0.00     0.052 A 
HETATM    7  O1  UNL     1      -1.181   1.982   0.484  1.00  0.00    -0.305 OA
HETATM    8  C7  UNL     1       0.160   2.126   0.268  1.00  0.00     0.128 C 
HETATM    9  C8  UNL     1       0.750   3.317   0.008  1.00  0.00     0.192 C 
HETATM   10  C9  UNL     1      -0.083   4.548  -0.024  1.00  0.00     0.227 C 
HETATM   11  O2  UNL     1       0.445   5.646  -0.163  1.00  0.00    -0.284 OA
HETATM   12  O3  UNL     1       2.063   3.460  -0.313  1.00  0.00    -0.185 OA
HETATM   13  O5  UNL     1      -2.054   6.712  -0.363  1.00  0.00    -0.190 OA
HETATM   14  O6  UNL     1      -5.652   3.627   0.246  1.00  0.00    -0.190 OA
ENDROOT
BRANCH   8  15
HETATM   15  C10 UNL     1       0.992   0.893   0.285  1.00  0.00     0.025 A 
HETATM   16  C11 UNL     1       0.450  -0.298  -0.214  1.00  0.00     0.000 A 
HETATM   17  C12 UNL     1       1.127  -1.524  -0.173  1.00  0.00     0.008 A 
HETATM   18  C13 UNL     1       2.401  -1.575   0.416  1.00  0.00     0.127 A 
HETATM   19  C14 UNL     1       2.941  -0.392   0.932  1.00  0.00     0.027 A 
HETATM   20  O4  UNL     1       3.108  -2.729   0.544  1.00  0.00    -0.191 OA
HETATM   21  C15 UNL     1       2.255   0.821   0.882  1.00  0.00     0.004 A 
BRANCH  17  22
HETATM   22  C16 UNL     1       0.403  -2.738  -0.724  1.00  0.00     0.054 C 
BRANCH  22  23
HETATM   23  C17 UNL     1       1.251  -3.948  -1.016  1.00  0.00    -0.030 C 
HETATM   24  C18 UNL     1       1.118  -5.186  -0.506  1.00  0.00    -0.048 C 
HETATM   25  C19 UNL     1       2.063  -6.296  -0.910  1.00  0.00     0.026 C 
HETATM   26  C20 UNL     1       0.061  -5.619   0.482  1.00  0.00     0.026 C 
ENDBRANCH  22  23
ENDBRANCH  17  22
ENDBRANCH   8  15
TORSDOF 3
