REMARK  7 active torsions:
REMARK  status: ('A' for Active; 'I' for Inactive)
REMARK    1  A    between atoms: C1_1  and  O14_37 
REMARK    2  A    between atoms: C4_4  and  C7_8 
REMARK    3  A    between atoms: C8_9  and  O8_25 
REMARK    4  A    between atoms: C12_14  and  O6_22 
REMARK    5  A    between atoms: C14_16  and  O4_19 
REMARK    6  A    between atoms: O8_25  and  C18_26 
REMARK    7  A    between atoms: C19_28  and  C23_35 
ROOT
HETATM    1  C7  UNL     1       1.066  -0.447  -0.609  1.00  0.00     0.126 C 
HETATM    2  C8  UNL     1       0.021  -0.282   0.250  1.00  0.00     0.158 C 
HETATM    3  C9  UNL     1      -0.516  -1.556   0.826  1.00  0.00     0.224 C 
HETATM    4  C10 UNL     1      -0.403  -2.724  -0.089  1.00  0.00     0.093 A 
HETATM    5  C11 UNL     1       0.670  -2.698  -0.978  1.00  0.00     0.130 A 
HETATM    6  O2  UNL     1       1.580  -1.685  -0.883  1.00  0.00    -0.303 OA
HETATM    7  C12 UNL     1       0.840  -3.740  -1.905  1.00  0.00     0.144 A 
HETATM    8  C13 UNL     1      -0.114  -4.783  -1.921  1.00  0.00     0.179 A 
HETATM    9  C14 UNL     1      -1.217  -4.786  -1.039  1.00  0.00     0.147 A 
HETATM   10  C15 UNL     1      -1.344  -3.755  -0.096  1.00  0.00     0.160 A 
HETATM   11  O3  UNL     1      -2.401  -3.755   0.760  1.00  0.00    -0.188 OA
HETATM   12  O5  UNL     1      -0.015  -5.781  -2.836  1.00  0.00    -0.186 OA
HETATM   13  O7  UNL     1      -1.053  -1.624   1.924  1.00  0.00    -0.284 OA
ENDROOT
BRANCH   2  14
HETATM   14  O8  UNL     1      -0.442   0.965   0.585  1.00  0.00    -0.298 OA
BRANCH  14  15
HETATM   15  C18 UNL     1      -1.242   1.183   1.724  1.00  0.00     0.274 C 
HETATM   16  O9  UNL     1      -1.958   2.351   1.365  1.00  0.00    -0.326 OA
HETATM   17  C19 UNL     1      -2.823   2.781   2.384  1.00  0.00     0.184 C 
HETATM   18  C20 UNL     1      -1.995   3.173   3.601  1.00  0.00     0.215 C 
HETATM   19  C21 UNL     1      -1.202   1.973   4.076  1.00  0.00     0.220 C 
HETATM   20  O12 UNL     1      -2.813   3.596   4.664  1.00  0.00    -0.218 OA
HETATM   21  C22 UNL     1      -0.368   1.444   2.930  1.00  0.00     0.241 C 
HETATM   22  O11 UNL     1      -0.365   2.363   5.136  1.00  0.00    -0.218 OA
HETATM   23  O10 UNL     1       0.278   0.263   3.343  1.00  0.00    -0.215 OA
BRANCH  17  24
HETATM   24  C23 UNL     1      -3.663   3.933   1.854  1.00  0.00     0.214 C 
HETATM   25  O13 UNL     1      -4.537   3.456   0.850  1.00  0.00    -0.218 OA
ENDBRANCH  17  24
ENDBRANCH  14  15
ENDBRANCH   2  14
BRANCH   1  26
HETATM   26  C4  UNL     1       1.805   0.735  -1.122  1.00  0.00     0.027 A 
HETATM   27  C3  UNL     1       3.188   0.614  -1.307  1.00  0.00     0.004 A 
HETATM   28  C2  UNL     1       3.947   1.717  -1.683  1.00  0.00     0.026 A 
HETATM   29  C1  UNL     1       3.405   2.991  -1.918  1.00  0.00     0.119 A 
HETATM   30  C6  UNL     1       2.005   3.101  -1.804  1.00  0.00     0.153 A 
HETATM   31  C5  UNL     1       1.249   1.984  -1.421  1.00  0.00     0.032 A 
HETATM   32  O1  UNL     1       1.334   4.264  -2.010  1.00  0.00    -0.188 OA
BRANCH  29  33
HETATM   33  O14 UNL     1       4.308   3.970  -2.259  1.00  0.00    -0.326 OA
HETATM   34  C24 UNL     1       3.904   5.280  -2.564  1.00  0.00     0.181 C 
ENDBRANCH  29  33
ENDBRANCH   1  26
BRANCH   7  35
HETATM   35  O6  UNL     1       1.949  -3.598  -2.711  1.00  0.00    -0.324 OA
HETATM   36  C17 UNL     1       2.260  -4.470  -3.767  1.00  0.00     0.182 C 
ENDBRANCH   7  35
BRANCH   9  37
HETATM   37  O4  UNL     1      -2.178  -5.770  -0.958  1.00  0.00    -0.324 OA
HETATM   38  C16 UNL     1      -1.902  -7.086  -1.375  1.00  0.00     0.182 C 
ENDBRANCH   9  37
TORSDOF 7
