REMARK  2 active torsions:
REMARK  status: ('A' for Active; 'I' for Inactive)
REMARK    1  A    between atoms: C11_11  and  C13_14 
REMARK    2  A    between atoms: C13_14  and  O2_15 
ROOT
HETATM    1  C1  UNL     1      -3.265   1.897   1.791  1.00  0.00     0.005 A 
HETATM    2  C2  UNL     1      -3.350   1.025   0.566  1.00  0.00     0.018 A 
HETATM    3  C3  UNL     1      -2.333  -0.050   0.613  1.00  0.00    -0.052 A 
HETATM    4  C4  UNL     1      -1.081   0.424   0.549  1.00  0.00    -0.048 A 
HETATM    5  C5  UNL     1      -1.036   1.928   0.459  1.00  0.00     0.025 A 
HETATM    6  C6  UNL     1      -2.518   2.290   0.536  1.00  0.00     0.008 A 
HETATM    7  C7  UNL     1      -0.342   2.329  -0.851  1.00  0.00     0.055 C 
HETATM    8  C8  UNL     1       0.922   1.539  -1.011  1.00  0.00     0.074 A 
HETATM    9  C9  UNL     1       1.161   0.350  -0.384  1.00  0.00     0.001 A 
HETATM   10  C10 UNL     1       0.217  -0.334   0.559  1.00  0.00     0.049 C 
HETATM   11  C11 UNL     1       2.450  -0.089  -0.823  1.00  0.00     0.030 A 
HETATM   12  C12 UNL     1       2.893   0.875  -1.679  1.00  0.00     0.120 A 
HETATM   13  O1  UNL     1       1.977   1.877  -1.808  1.00  0.00    -0.310 OA
HETATM   14  C15 UNL     1      -2.764  -1.481   0.753  1.00  0.00     0.026 C 
ENDROOT
BRANCH  11  15
HETATM   15  C13 UNL     1       3.164  -1.345  -0.421  1.00  0.00     0.171 C 
BRANCH  15  16
HETATM   16  O2  UNL     1       2.642  -2.445  -1.142  1.00  0.00    -0.347 OA
HETATM   17  C14 UNL     1       3.282  -3.656  -0.800  1.00  0.00     0.175 C 
ENDBRANCH  15  16
ENDBRANCH  11  15
TORSDOF 2
