REMARK  6 active torsions:
REMARK  status: ('A' for Active; 'I' for Inactive)
REMARK    1  A    between atoms: C5_5  and  C7_7 
REMARK    2  A    between atoms: C7_7  and  C8_9 
REMARK    3  A    between atoms: C8_9  and  C9_10 
REMARK    4  A    between atoms: C10_12  and  C14_16 
REMARK    5  A    between atoms: C14_16  and  C15_17 
REMARK    6  A    between atoms: C15_17  and  C16_19 
ROOT
HETATM    1  C9  UNL     1      -1.794   0.192   0.779  1.00  0.00     0.263 C 
HETATM    2  N1  UNL     1      -1.722  -0.334  -0.585  1.00  0.00     0.336 N 
HETATM    3  C10 UNL     1      -1.236  -1.715  -0.628  1.00  0.00     0.264 C 
HETATM    4  C11 UNL     1      -2.217  -2.619   0.134  1.00  0.00     0.036 C 
HETATM    5  C12 UNL     1      -2.355  -2.137   1.586  1.00  0.00     0.004 C 
HETATM    6  C13 UNL     1      -2.762  -0.657   1.618  1.00  0.00     0.036 C 
ENDROOT
BRANCH   1   7
HETATM    7  C8  UNL     1      -2.199   1.677   0.746  1.00  0.00     0.090 C 
BRANCH   7   8
HETATM    8  C7  UNL     1      -1.704   2.414   1.980  1.00  0.00     0.110 C 
HETATM    9  O1  UNL     1      -2.513   2.863   2.914  1.00  0.00    -0.195 OA
BRANCH   8  10
HETATM   10  C5  UNL     1      -0.194   2.565   2.069  1.00  0.00     0.017 C 
HETATM   11  C4  UNL     1       0.473   1.914   3.053  1.00  0.00    -0.024 C 
HETATM   12  C3  UNL     1       1.969   1.962   3.120  1.00  0.00     0.031 C 
HETATM   13  C2  UNL     1       2.678   2.636   1.968  1.00  0.00     0.031 C 
HETATM   14  C1  UNL     1       1.853   3.412   0.994  1.00  0.00    -0.026 C 
HETATM   15  C6  UNL     1       0.501   3.366   1.049  1.00  0.00    -0.003 C 
ENDBRANCH   8  10
ENDBRANCH   7   8
ENDBRANCH   1   7
BRANCH   3  16
HETATM   16  C14 UNL     1      -1.039  -2.140  -2.088  1.00  0.00     0.105 C 
BRANCH  16  17
HETATM   17  C15 UNL     1      -0.170  -1.228  -2.950  1.00  0.00     0.175 C 
HETATM   18  O2  UNL     1      -0.595  -0.815  -4.019  1.00  0.00    -0.291 OA
BRANCH  17  19
HETATM   19  C16 UNL     1       1.275  -0.998  -2.592  1.00  0.00     0.035 A 
HETATM   20  C17 UNL     1       2.260  -1.389  -3.506  1.00  0.00     0.003 A 
HETATM   21  C18 UNL     1       3.612  -1.189  -3.214  1.00  0.00     0.000 A 
HETATM   22  C19 UNL     1       3.985  -0.587  -2.012  1.00  0.00     0.000 A 
HETATM   23  C20 UNL     1       3.004  -0.165  -1.112  1.00  0.00     0.000 A 
HETATM   24  C21 UNL     1       1.653  -0.358  -1.407  1.00  0.00     0.003 A 
ENDBRANCH  17  19
ENDBRANCH  16  17
ENDBRANCH   3  16
TORSDOF 6
