REMARK  11 active torsions:
REMARK  status: ('A' for Active; 'I' for Inactive)
REMARK    1  A    between atoms: C1_1  and  C25_44 
REMARK    2  A    between atoms: C5_5  and  O2_7 
REMARK    3  A    between atoms: O2_7  and  C6_8 
REMARK    4  A    between atoms: C6_8  and  C7_9 
REMARK    5  A    between atoms: C11_13  and  O4_15 
REMARK    6  A    between atoms: O4_15  and  C12_16 
REMARK    7  A    between atoms: C12_16  and  C24_36 
REMARK    8  A    between atoms: C13_17  and  O8_24 
REMARK    9  A    between atoms: C15_19  and  C16_21 
REMARK   10  A    between atoms: O8_24  and  C17_25 
REMARK   11  A    between atoms: C19_27  and  C23_34 
ROOT
HETATM    1  O4  UNL     1      -0.321  -0.097   1.264  1.00  0.00    -0.304 OA
ENDROOT
BRANCH   1   2
HETATM    2  C11 UNL     1      -1.650   0.352   1.456  1.00  0.00     0.272 C 
HETATM    3  C10 UNL     1      -2.693  -0.699   1.116  1.00  0.00     0.241 C 
HETATM    4  C9  UNL     1      -2.514  -1.152  -0.314  1.00  0.00     0.220 C 
HETATM    5  O14 UNL     1      -2.667  -1.807   1.974  1.00  0.00    -0.215 OA
HETATM    6  C8  UNL     1      -2.731   0.064  -1.190  1.00  0.00     0.215 C 
HETATM    7  O15 UNL     1      -3.461  -2.140  -0.632  1.00  0.00    -0.218 OA
HETATM    8  C7  UNL     1      -1.779   1.184  -0.770  1.00  0.00     0.180 C 
HETATM    9  O16 UNL     1      -2.543  -0.342  -2.527  1.00  0.00    -0.218 OA
HETATM   10  O3  UNL     1      -1.893   1.455   0.606  1.00  0.00    -0.326 OA
BRANCH   8  11
HETATM   11  C6  UNL     1      -2.060   2.482  -1.522  1.00  0.00     0.177 C 
BRANCH  11  12
HETATM   12  O2  UNL     1      -1.740   2.264  -2.869  1.00  0.00    -0.326 OA
BRANCH  12  13
HETATM   13  C5  UNL     1      -2.240   3.219  -3.769  1.00  0.00     0.270 C 
HETATM   14  C4  UNL     1      -2.137   2.632  -5.156  1.00  0.00     0.241 C 
HETATM   15  C3  UNL     1      -0.695   2.493  -5.591  1.00  0.00     0.220 C 
HETATM   16  O17 UNL     1      -2.717   1.346  -5.159  1.00  0.00    -0.215 OA
HETATM   17  C2  UNL     1       0.028   3.809  -5.408  1.00  0.00     0.215 C 
HETATM   18  O18 UNL     1      -0.668   2.131  -6.949  1.00  0.00    -0.218 OA
HETATM   19  C1  UNL     1      -0.155   4.330  -3.989  1.00  0.00     0.184 C 
HETATM   20  O19 UNL     1      -0.482   4.723  -6.348  1.00  0.00    -0.218 OA
HETATM   21  O1  UNL     1      -1.510   4.416  -3.634  1.00  0.00    -0.326 OA
BRANCH  19  22
HETATM   22  C25 UNL     1       0.477   5.702  -3.805  1.00  0.00     0.214 C 
HETATM   23  O20 UNL     1       0.513   6.030  -2.430  1.00  0.00    -0.218 OA
ENDBRANCH  19  22
ENDBRANCH  12  13
ENDBRANCH  11  12
ENDBRANCH   8  11
ENDBRANCH   1   2
BRANCH   1  24
HETATM   24  C12 UNL     1       0.746   0.583   1.909  1.00  0.00     0.249 C 
HETATM   25  C13 UNL     1       1.274  -0.190   3.125  1.00  0.00     0.202 C 
HETATM   26  C14 UNL     1       2.740   0.242   3.157  1.00  0.00     0.214 C 
HETATM   27  C15 UNL     1       3.025   0.595   1.705  1.00  0.00     0.184 C 
HETATM   28  O7  UNL     1       2.942   1.337   4.016  1.00  0.00    -0.218 OA
HETATM   29  O5  UNL     1       1.818   0.502   0.996  1.00  0.00    -0.328 OA
BRANCH  25  30
HETATM   30  O8  UNL     1       1.396  -1.581   2.950  1.00  0.00    -0.349 OA
BRANCH  30  31
HETATM   31  C17 UNL     1       0.246  -2.361   3.061  1.00  0.00     0.149 C 
HETATM   32  C18 UNL     1       0.140  -3.237   1.806  1.00  0.00     0.038 C 
HETATM   33  C19 UNL     1       1.321  -4.218   1.679  1.00  0.00     0.069 C 
HETATM   34  C20 UNL     1       1.395  -5.118   2.913  1.00  0.00     0.188 C 
HETATM   35  C21 UNL     1       1.459  -4.296   4.185  1.00  0.00     0.215 C 
HETATM   36  O11 UNL     1       0.264  -5.952   2.986  1.00  0.00    -0.221 OA
HETATM   37  C22 UNL     1       0.352  -3.263   4.283  1.00  0.00     0.212 C 
HETATM   38  O10 UNL     1       1.335  -5.165   5.285  1.00  0.00    -0.218 OA
HETATM   39  O9  UNL     1       0.606  -2.477   5.423  1.00  0.00    -0.218 OA
BRANCH  33  40
HETATM   40  C23 UNL     1       1.256  -5.029   0.385  1.00  0.00     0.185 C 
HETATM   41  O12 UNL     1       1.417  -4.174  -0.730  1.00  0.00    -0.221 OA
ENDBRANCH  33  40
ENDBRANCH  30  31
ENDBRANCH  25  30
BRANCH  27  42
HETATM   42  C16 UNL     1       4.047  -0.319   1.048  1.00  0.00     0.214 C 
HETATM   43  O6  UNL     1       5.285  -0.190   1.716  1.00  0.00    -0.218 OA
ENDBRANCH  27  42
BRANCH  24  44
HETATM   44  C24 UNL     1       0.507   2.071   2.158  1.00  0.00     0.241 C 
HETATM   45  O13 UNL     1       0.576   2.793   0.940  1.00  0.00    -0.215 OA
ENDBRANCH  24  44
ENDBRANCH   1  24
TORSDOF 11
