REMARK  17 active torsions:
REMARK  status: ('A' for Active; 'I' for Inactive)
REMARK    1  A    between atoms: C2_2  and  C41_61 
REMARK    2  A    between atoms: C6_6  and  O1_7 
REMARK    3  A    between atoms: O1_7  and  C7_8 
REMARK    4  A    between atoms: C12_13  and  C13_14 
REMARK    5  A    between atoms: C13_14  and  O2_15 
REMARK    6  A    between atoms: O2_15  and  C14_16 
REMARK    7  A    between atoms: C15_17  and  O14_52 
REMARK    8  A    between atoms: C16_18  and  O10_41 
REMARK    9  A    between atoms: C17_19  and  O6_27 
REMARK   10  A    between atoms: C18_21  and  C19_22 
REMARK   11  A    between atoms: C19_22  and  O4_23 
REMARK   12  A    between atoms: O4_23  and  C20_24 
REMARK   13  A    between atoms: O6_27  and  C22_28 
REMARK   14  A    between atoms: C26_33  and  C27_34 
REMARK   15  A    between atoms: O10_41  and  C32_42 
REMARK   16  A    between atoms: C32_42  and  C33_44 
REMARK   17  A    between atoms: O14_52  and  C39_53 
ROOT
HETATM    1  C14 UNL     1       1.549  -1.284   0.890  1.00  0.00     0.183 C 
HETATM    2  C15 UNL     1       1.620  -1.062  -0.620  1.00  0.00     0.187 C 
HETATM    3  C16 UNL     1       0.367  -0.324  -1.097  1.00  0.00     0.211 C 
HETATM    4  C17 UNL     1       0.233   0.978  -0.322  1.00  0.00     0.269 C 
HETATM    5  O3  UNL     1       0.247   0.783   1.078  1.00  0.00    -0.326 OA
HETATM    6  C18 UNL     1       1.329   0.056   1.602  1.00  0.00     0.178 C 
ENDROOT
BRANCH   1   7
HETATM    7  O2  UNL     1       0.512  -2.194   1.135  1.00  0.00    -0.306 OA
BRANCH   7   8
HETATM    8  C13 UNL     1       0.324  -2.713   2.377  1.00  0.00     0.230 C 
HETATM    9  O16 UNL     1       1.143  -2.423   3.369  1.00  0.00    -0.163 OA
BRANCH   8  10
HETATM   10  C12 UNL     1      -0.733  -3.785   2.638  1.00  0.00     0.073 C 
HETATM   11  C7  UNL     1      -2.085  -3.570   2.720  1.00  0.00     0.119 C 
HETATM   12  C8  UNL     1      -2.926  -4.806   2.954  1.00  0.00     0.135 C 
HETATM   13  C9  UNL     1      -2.243  -6.008   3.549  1.00  0.00     0.082 C 
HETATM   14  O17 UNL     1      -4.282  -4.725   2.982  1.00  0.00    -0.192 OA
HETATM   15  C10 UNL     1      -0.823  -6.213   3.160  1.00  0.00    -0.019 C 
HETATM   16  C11 UNL     1      -0.126  -5.133   2.745  1.00  0.00     0.002 C 
BRANCH  11  17
HETATM   17  O1  UNL     1      -2.825  -2.418   2.622  1.00  0.00    -0.329 OA
BRANCH  17  18
HETATM   18  C6  UNL     1      -2.275  -1.145   2.522  1.00  0.00     0.154 C 
HETATM   19  C1  UNL     1      -1.712  -0.658   3.859  1.00  0.00     0.038 C 
HETATM   20  C2  UNL     1      -2.764  -0.323   4.932  1.00  0.00     0.069 C 
HETATM   21  C3  UNL     1      -3.850   0.585   4.344  1.00  0.00     0.188 C 
HETATM   22  C4  UNL     1      -4.431   0.071   3.035  1.00  0.00     0.215 C 
HETATM   23  O20 UNL     1      -3.287   1.856   4.101  1.00  0.00    -0.221 OA
HETATM   24  C5  UNL     1      -3.364  -0.216   1.995  1.00  0.00     0.212 C 
HETATM   25  O19 UNL     1      -5.184  -1.101   3.262  1.00  0.00    -0.218 OA
HETATM   26  O18 UNL     1      -2.790   0.990   1.542  1.00  0.00    -0.218 OA
BRANCH  20  27
HETATM   27  C41 UNL     1      -3.334  -1.544   5.662  1.00  0.00     0.185 C 
HETATM   28  O21 UNL     1      -2.297  -2.265   6.296  1.00  0.00    -0.221 OA
ENDBRANCH  20  27
ENDBRANCH  17  18
ENDBRANCH  11  17
ENDBRANCH   8  10
ENDBRANCH   7   8
ENDBRANCH   1   7
BRANCH   2  29
HETATM   29  O14 UNL     1       1.783  -2.288  -1.277  1.00  0.00    -0.299 OA
BRANCH  29  30
HETATM   30  C39 UNL     1       2.330  -2.267  -2.522  1.00  0.00     0.273 C 
HETATM   31  C40 UNL     1       2.472  -3.676  -3.058  1.00  0.00     0.106 C 
HETATM   32  O15 UNL     1       2.649  -1.264  -3.120  1.00  0.00    -0.264 OA
ENDBRANCH  29  30
ENDBRANCH   2  29
BRANCH   6  33
HETATM   33  C19 UNL     1       2.582   0.923   1.755  1.00  0.00     0.184 C 
BRANCH  33  34
HETATM   34  O4  UNL     1       3.507   0.269   2.583  1.00  0.00    -0.299 OA
BRANCH  34  35
HETATM   35  C20 UNL     1       4.646   0.885   3.010  1.00  0.00     0.273 C 
HETATM   36  O5  UNL     1       5.483   0.307   3.673  1.00  0.00    -0.264 OA
HETATM   37  C21 UNL     1       4.808   2.347   2.630  1.00  0.00     0.106 C 
ENDBRANCH  34  35
ENDBRANCH  33  34
ENDBRANCH   6  33
BRANCH   3  38
HETATM   38  O10 UNL     1      -0.771  -1.106  -0.870  1.00  0.00    -0.293 OA
BRANCH  38  39
HETATM   39  C32 UNL     1      -1.831  -1.161  -1.726  1.00  0.00     0.298 C 
HETATM   40  O11 UNL     1      -2.854  -1.722  -1.349  1.00  0.00    -0.259 OA
BRANCH  39  41
HETATM   41  C33 UNL     1      -1.905  -0.619  -3.125  1.00  0.00     0.091 A 
HETATM   42  C34 UNL     1      -0.885  -0.896  -4.042  1.00  0.00     0.007 A 
HETATM   43  C35 UNL     1      -0.966  -0.403  -5.341  1.00  0.00     0.002 A 
HETATM   44  C36 UNL     1      -2.086   0.335  -5.726  1.00  0.00     0.029 A 
HETATM   45  C37 UNL     1      -3.127   0.585  -4.829  1.00  0.00     0.156 A 
HETATM   46  C38 UNL     1      -3.041   0.105  -3.515  1.00  0.00     0.161 A 
HETATM   47  O13 UNL     1      -4.234   1.278  -5.207  1.00  0.00    -0.188 OA
HETATM   48  O12 UNL     1      -4.070   0.351  -2.659  1.00  0.00    -0.188 OA
ENDBRANCH  39  41
ENDBRANCH  38  39
ENDBRANCH   3  38
BRANCH   4  49
HETATM   49  O6  UNL     1       1.288   1.866  -0.607  1.00  0.00    -0.304 OA
BRANCH  49  50
HETATM   50  C22 UNL     1       1.151   2.602  -1.806  1.00  0.00     0.246 C 
HETATM   51  O7  UNL     1       0.905   3.924  -1.378  1.00  0.00    -0.303 OA
HETATM   52  C23 UNL     1       1.233   4.933  -2.240  1.00  0.00     0.120 C 
HETATM   53  C24 UNL     1       1.886   4.747  -3.407  1.00  0.00     0.065 C 
HETATM   54  C25 UNL     1       2.329   3.383  -3.842  1.00  0.00     0.041 C 
HETATM   55  C31 UNL     1       2.224   5.886  -4.297  1.00  0.00     0.294 C 
HETATM   56  C26 UNL     1       2.438   2.476  -2.610  1.00  0.00     0.083 C 
HETATM   57  C29 UNL     1       3.627   3.538  -4.636  1.00  0.00     0.038 C 
HETATM   58  C30 UNL     1       3.404   4.473  -5.822  1.00  0.00     0.152 C 
HETATM   59  O8  UNL     1       2.939   5.746  -5.450  1.00  0.00    -0.299 OA
HETATM   60  O9  UNL     1       1.831   7.008  -3.977  1.00  0.00    -0.259 OA
BRANCH  56  61
HETATM   61  C27 UNL     1       3.657   2.776  -1.766  1.00  0.00    -0.021 C 
HETATM   62  C28 UNL     1       4.645   1.896  -1.545  1.00  0.00    -0.005 C 
ENDBRANCH  56  61
ENDBRANCH  49  50
ENDBRANCH   4  49
TORSDOF 17
