REMARK  3 active torsions:
REMARK  status: ('A' for Active; 'I' for Inactive)
REMARK    1  A    between atoms: C13_15  and  C17_19 
REMARK    2  A    between atoms: C17_19  and  C18_20 
REMARK    3  A    between atoms: C18_20  and  C19_21 
ROOT
HETATM    1  C1  UNL     1       5.564  -0.858   1.173  1.00  0.00    -0.022 A 
HETATM    2  C2  UNL     1       5.619   0.559   1.255  1.00  0.00    -0.003 A 
HETATM    3  C3  UNL     1       4.478   1.339   1.344  1.00  0.00     0.019 A 
HETATM    4  C4  UNL     1       3.235   0.676   1.353  1.00  0.00     0.081 A 
HETATM    5  C5  UNL     1       3.165  -0.721   1.259  1.00  0.00     0.019 A 
HETATM    6  C6  UNL     1       4.334  -1.502   1.170  1.00  0.00    -0.003 A 
HETATM    7  C7  UNL     1       1.771  -1.075   1.295  1.00  0.00     0.019 A 
HETATM    8  C8  UNL     1       1.040   0.111   1.421  1.00  0.00     0.083 A 
HETATM    9  N1  UNL     1       1.939   1.172   1.448  1.00  0.00    -0.245 NA
HETATM   10  C9  UNL     1      -0.372   0.094   1.503  1.00  0.00     0.040 A 
HETATM   11  C10 UNL     1      -1.046  -1.126   1.482  1.00  0.00     0.096 A 
HETATM   12  C11 UNL     1      -0.277  -2.309   1.308  1.00  0.00     0.024 A 
HETATM   13  C12 UNL     1       1.106  -2.315   1.226  1.00  0.00     0.004 A 
HETATM   14  O1  UNL     1      -2.410  -1.218   1.554  1.00  0.00    -0.332 OA
HETATM   15  C13 UNL     1      -3.182  -0.074   1.281  1.00  0.00     0.117 C 
HETATM   16  C14 UNL     1      -2.480   1.227   1.604  1.00  0.00     0.001 C 
HETATM   17  C15 UNL     1      -1.141   1.319   1.679  1.00  0.00     0.001 C 
HETATM   18  C16 UNL     1      -4.434  -0.178   2.167  1.00  0.00     0.035 C 
HETATM   19  C23 UNL     1       6.849  -1.647   1.106  1.00  0.00     0.031 C 
ENDROOT
BRANCH  15  20
HETATM   20  C17 UNL     1      -3.614  -0.085  -0.198  1.00  0.00     0.037 C 
BRANCH  20  21
HETATM   21  C18 UNL     1      -2.468   0.026  -1.220  1.00  0.00     0.028 C 
BRANCH  21  22
HETATM   22  C19 UNL     1      -2.996   0.095  -2.634  1.00  0.00    -0.035 C 
HETATM   23  C20 UNL     1      -2.523   0.858  -3.637  1.00  0.00    -0.048 C 
HETATM   24  C21 UNL     1      -3.186   0.856  -4.996  1.00  0.00     0.026 C 
HETATM   25  C22 UNL     1      -1.331   1.778  -3.529  1.00  0.00     0.026 C 
ENDBRANCH  21  22
ENDBRANCH  20  21
ENDBRANCH  15  20
TORSDOF 3
