REMARK  2 active torsions:
REMARK  status: ('A' for Active; 'I' for Inactive)
REMARK    1  A    between atoms: C10_11  and  C14_17 
REMARK    2  A    between atoms: C15_19  and  C19_26 
ROOT
HETATM    1  C1  UNL     1      -0.233   4.160  -3.842  1.00  0.00     0.156 A 
HETATM    2  C2  UNL     1      -0.293   4.443  -2.472  1.00  0.00     0.158 A 
HETATM    3  C3  UNL     1      -0.284   3.381  -1.561  1.00  0.00     0.054 A 
HETATM    4  C4  UNL     1      -0.219   2.037  -1.941  1.00  0.00     0.105 A 
HETATM    5  C5  UNL     1      -0.165   1.778  -3.314  1.00  0.00     0.064 A 
HETATM    6  C6  UNL     1      -0.169   2.824  -4.246  1.00  0.00     0.035 A 
HETATM    7  C7  UNL     1      -0.094   0.372  -3.771  1.00  0.00     0.201 A 
HETATM    8  C8  UNL     1      -0.011  -0.664  -2.707  1.00  0.00     0.087 A 
HETATM    9  C9  UNL     1      -0.074  -0.247  -1.361  1.00  0.00     0.105 A 
HETATM   10  O1  UNL     1      -0.227   1.061  -0.992  1.00  0.00    -0.307 OA
HETATM   11  C10 UNL     1       0.022  -1.215  -0.343  1.00  0.00     0.056 A 
HETATM   12  C11 UNL     1       0.165  -2.574  -0.664  1.00  0.00     0.133 A 
HETATM   13  C12 UNL     1       0.226  -2.938  -2.007  1.00  0.00     0.055 A 
HETATM   14  C13 UNL     1       0.130  -2.020  -3.054  1.00  0.00     0.138 A 
HETATM   15  O2  UNL     1       0.215  -2.491  -4.328  1.00  0.00    -0.190 OA
HETATM   16  O3  UNL     1       0.277  -3.547   0.280  1.00  0.00    -0.190 OA
HETATM   17  O9  UNL     1      -0.096   0.109  -4.970  1.00  0.00    -0.286 OA
HETATM   18  O10 UNL     1      -0.359   5.726  -2.025  1.00  0.00    -0.188 OA
HETATM   19  O11 UNL     1      -0.239   5.156  -4.768  1.00  0.00    -0.188 OA
ENDROOT
BRANCH  11  20
HETATM   20  C14 UNL     1      -0.038  -0.793   1.124  1.00  0.00     0.174 C 
HETATM   21  O4  UNL     1       1.121  -1.199   1.820  1.00  0.00    -0.347 OA
HETATM   22  C15 UNL     1       1.148  -0.756   3.154  1.00  0.00     0.181 C 
HETATM   23  C16 UNL     1      -0.054  -1.315   3.907  1.00  0.00     0.214 C 
HETATM   24  C17 UNL     1      -1.340  -0.881   3.233  1.00  0.00     0.218 C 
HETATM   25  O7  UNL     1      -0.086  -0.843   5.232  1.00  0.00    -0.218 OA
HETATM   26  C18 UNL     1      -1.292  -1.337   1.792  1.00  0.00     0.216 C 
HETATM   27  O6  UNL     1      -2.432  -1.476   3.888  1.00  0.00    -0.218 OA
HETATM   28  O5  UNL     1      -2.420  -0.856   1.107  1.00  0.00    -0.218 OA
BRANCH  22  29
HETATM   29  C19 UNL     1       2.476  -1.173   3.780  1.00  0.00     0.214 C 
HETATM   30  O8  UNL     1       3.227  -0.026   4.130  1.00  0.00    -0.218 OA
ENDBRANCH  22  29
ENDBRANCH  11  20
TORSDOF 2
