REMARK  4 active torsions:
REMARK  status: ('A' for Active; 'I' for Inactive)
REMARK    1  A    between atoms: C2_2  and  O4_18 
REMARK    2  A    between atoms: C3_3  and  C10_12 
REMARK    3  A    between atoms: C10_12  and  C11_13 
REMARK    4  A    between atoms: C11_13  and  C12_14 
ROOT
HETATM    1  C1  UNL     1       2.786  -1.114   1.403  1.00  0.00     0.024 C 
HETATM    2  C2  UNL     1       1.788  -1.417   0.466  1.00  0.00     0.092 C 
HETATM    3  C3  UNL     1       0.834  -0.420   0.192  1.00  0.00     0.030 C 
HETATM    4  C4  UNL     1       0.964   0.892   0.691  1.00  0.00     0.102 A 
HETATM    5  C5  UNL     1       2.033   1.173   1.558  1.00  0.00     0.023 A 
HETATM    6  C6  UNL     1       2.938   0.167   1.922  1.00  0.00     0.004 C 
HETATM    7  C7  UNL     1       2.172   2.515   2.119  1.00  0.00     0.007 A 
HETATM    8  C8  UNL     1       1.260   3.454   1.791  1.00  0.00     0.069 A 
HETATM    9  C9  UNL     1       0.163   3.085   0.870  1.00  0.00     0.300 A 
HETATM   10  O1  UNL     1       0.040   1.838   0.337  1.00  0.00    -0.273 OA
HETATM   11  O2  UNL     1      -0.654   3.957   0.577  1.00  0.00    -0.259 OA
ENDROOT
BRANCH   3  12
HETATM   12  C10 UNL     1      -0.372  -0.722  -0.681  1.00  0.00     0.095 C 
BRANCH  12  13
HETATM   13  C11 UNL     1      -1.679  -0.617   0.095  1.00  0.00     0.155 C 
HETATM   14  O3  UNL     1      -1.690  -0.735   1.301  1.00  0.00    -0.296 OA
BRANCH  13  15
HETATM   15  C12 UNL     1      -2.969  -0.337  -0.671  1.00  0.00     0.058 C 
HETATM   16  C13 UNL     1      -3.195  -1.339  -1.812  1.00  0.00     0.008 C 
HETATM   17  C14 UNL     1      -3.018   1.113  -1.176  1.00  0.00     0.008 C 
ENDBRANCH  13  15
ENDBRANCH  12  13
ENDBRANCH   3  12
BRANCH   2  18
HETATM   18  O4  UNL     1       1.630  -2.713   0.047  1.00  0.00    -0.328 OA
HETATM   19  C15 UNL     1       2.379  -3.020  -1.107  1.00  0.00     0.181 C 
ENDBRANCH   2  18
TORSDOF 4
