REMARK  4 active torsions:
REMARK  status: ('A' for Active; 'I' for Inactive)
REMARK    1  A    between atoms: C16_19  and  C20_24 
REMARK    2  A    between atoms: C20_24  and  O3_25 
REMARK    3  A    between atoms: O3_25  and  C21_26 
REMARK    4  A    between atoms: C22_28  and  C26_35 
ROOT
HETATM    1  C1  UNL     1      -0.761  -0.331  -3.189  1.00  0.00     0.030 C 
HETATM    2  C2  UNL     1      -0.836  -1.836  -3.087  1.00  0.00     0.032 C 
HETATM    3  C3  UNL     1       0.469  -2.576  -3.125  1.00  0.00    -0.007 C 
HETATM    4  C4  UNL     1       1.593  -1.856  -2.852  1.00  0.00     0.070 C 
HETATM    5  C5  UNL     1       1.603  -0.413  -2.553  1.00  0.00    -0.004 C 
HETATM    6  C6  UNL     1       0.484   0.337  -2.692  1.00  0.00    -0.028 C 
HETATM    7  C7  UNL     1       2.940   0.004  -1.983  1.00  0.00     0.101 C 
HETATM    8  C8  UNL     1       3.760  -1.244  -2.346  1.00  0.00     0.260 C 
HETATM    9  N1  UNL     1       2.935  -2.314  -2.738  1.00  0.00    -0.241 NA
HETATM   10  O1  UNL     1       5.069  -1.315  -2.315  1.00  0.00    -0.196 OA
HETATM   11  C9  UNL     1       2.932   0.179  -0.452  1.00  0.00     0.228 C 
HETATM   12  N2  UNL     1       3.304   1.563  -0.241  1.00  0.00     0.136 N 
HETATM   13  C10 UNL     1       4.291   1.855  -1.260  1.00  0.00     0.251 C 
HETATM   14  C11 UNL     1       3.604   1.284  -2.516  1.00  0.00     0.046 C 
HETATM   15  C12 UNL     1       3.677   1.812   1.139  1.00  0.00     0.253 C 
HETATM   16  C13 UNL     1       2.430   1.558   2.008  1.00  0.00     0.065 C 
HETATM   17  C14 UNL     1       1.815   0.163   1.792  1.00  0.00     0.036 C 
HETATM   18  C15 UNL     1       1.618  -0.091   0.290  1.00  0.00     0.038 C 
HETATM   19  C16 UNL     1       0.522   0.176   2.567  1.00  0.00     0.065 C 
HETATM   20  C17 UNL     1       0.362   0.987   3.624  1.00  0.00     0.117 C 
HETATM   21  O2  UNL     1       1.327   1.819   4.125  1.00  0.00    -0.331 OA
HETATM   22  C18 UNL     1       2.587   1.811   3.507  1.00  0.00     0.124 C 
HETATM   23  C19 UNL     1       3.524   0.852   4.246  1.00  0.00     0.033 C 
ENDROOT
BRANCH  19  24
HETATM   24  C20 UNL     1      -0.677  -0.603   2.089  1.00  0.00     0.296 C 
HETATM   25  O9  UNL     1      -0.539  -1.765   1.736  1.00  0.00    -0.259 OA
BRANCH  24  26
HETATM   26  O3  UNL     1      -1.838   0.056   1.812  1.00  0.00    -0.270 OA
BRANCH  26  27
HETATM   27  C21 UNL     1      -2.664  -0.479   0.795  1.00  0.00     0.277 C 
HETATM   28  O4  UNL     1      -3.233   0.686   0.230  1.00  0.00    -0.326 OA
HETATM   29  C22 UNL     1      -4.159   0.411  -0.788  1.00  0.00     0.184 C 
HETATM   30  C23 UNL     1      -5.315  -0.393  -0.204  1.00  0.00     0.215 C 
HETATM   31  C24 UNL     1      -4.791  -1.689   0.375  1.00  0.00     0.220 C 
HETATM   32  O7  UNL     1      -6.269  -0.709  -1.186  1.00  0.00    -0.218 OA
HETATM   33  C25 UNL     1      -3.720  -1.378   1.399  1.00  0.00     0.241 C 
HETATM   34  O6  UNL     1      -5.851  -2.379   0.987  1.00  0.00    -0.218 OA
HETATM   35  O5  UNL     1      -3.141  -2.596   1.814  1.00  0.00    -0.215 OA
BRANCH  29  36
HETATM   36  C26 UNL     1      -4.623   1.728  -1.404  1.00  0.00     0.214 C 
HETATM   37  O8  UNL     1      -4.517   1.669  -2.813  1.00  0.00    -0.218 OA
ENDBRANCH  29  36
ENDBRANCH  26  27
ENDBRANCH  24  26
ENDBRANCH  19  24
TORSDOF 4
