REMARK  5 active torsions:
REMARK  status: ('A' for Active; 'I' for Inactive)
REMARK    1  A    between atoms: C2_2  and  C17_20 
REMARK    2  A    between atoms: C4_4  and  C8_9 
REMARK    3  A    between atoms: C5_5  and  O1_7 
REMARK    4  A    between atoms: C8_9  and  C9_10 
REMARK    5  A    between atoms: C10_11  and  C11_12 
ROOT
HETATM    1  C1  UNL     1       3.801   1.296  -0.229  1.00  0.00     0.136 A 
HETATM    2  C2  UNL     1       4.114  -0.073  -0.216  1.00  0.00     0.068 A 
HETATM    3  C3  UNL     1       3.202  -0.988   0.320  1.00  0.00     0.011 A 
HETATM    4  C4  UNL     1       1.985  -0.547   0.853  1.00  0.00     0.061 A 
HETATM    5  C5  UNL     1       1.660   0.818   0.919  1.00  0.00     0.099 A 
HETATM    6  C6  UNL     1       2.587   1.698   0.332  1.00  0.00     0.052 A 
HETATM    7  O5  UNL     1       4.651   2.226  -0.743  1.00  0.00    -0.190 OA
ENDROOT
BRANCH   4   8
HETATM    8  C8  UNL     1       1.056  -1.589   1.413  1.00  0.00     0.198 C 
HETATM    9  O3  UNL     1       1.481  -2.426   2.200  1.00  0.00    -0.286 OA
BRANCH   8  10
HETATM   10  C9  UNL     1      -0.382  -1.591   1.030  1.00  0.00     0.042 C 
HETATM   11  C10 UNL     1      -0.893  -0.932  -0.036  1.00  0.00     0.003 C 
BRANCH  11  12
HETATM   12  C11 UNL     1      -2.317  -0.886  -0.401  1.00  0.00     0.000 A 
HETATM   13  C12 UNL     1      -2.735   0.026  -1.385  1.00  0.00     0.002 A 
HETATM   14  C13 UNL     1      -4.076   0.125  -1.754  1.00  0.00     0.027 A 
HETATM   15  C14 UNL     1      -5.055  -0.685  -1.169  1.00  0.00     0.131 A 
HETATM   16  C15 UNL     1      -4.635  -1.613  -0.211  1.00  0.00     0.027 A 
HETATM   17  O2  UNL     1      -6.363  -0.597  -1.526  1.00  0.00    -0.190 OA
HETATM   18  C16 UNL     1      -3.296  -1.716   0.169  1.00  0.00     0.002 A 
ENDBRANCH  11  12
ENDBRANCH   8  10
ENDBRANCH   4   8
BRANCH   5  19
HETATM   19  O1  UNL     1       0.472   1.213   1.483  1.00  0.00    -0.328 OA
HETATM   20  C7  UNL     1       0.013   2.523   1.250  1.00  0.00     0.181 C 
ENDBRANCH   5  19
BRANCH   2  21
HETATM   21  C17 UNL     1       5.400  -0.557  -0.776  1.00  0.00     0.236 C 
HETATM   22  O4  UNL     1       5.722  -1.736  -0.801  1.00  0.00    -0.283 OA
ENDBRANCH   2  21
TORSDOF 5
