REMARK  2 active torsions:
REMARK  status: ('A' for Active; 'I' for Inactive)
REMARK    1  A    between atoms: C11_11  and  O2_19 
REMARK    2  A    between atoms: C12_12  and  C15_16 
ROOT
HETATM    1  C1  UNL     1      -4.131  -0.417  -0.303  1.00  0.00     0.032 C 
HETATM    2  C2  UNL     1      -3.968  -1.888  -0.487  1.00  0.00     0.035 A 
HETATM    3  C3  UNL     1      -2.796  -2.523  -0.615  1.00  0.00    -0.013 A 
HETATM    4  C4  UNL     1      -1.453  -1.851  -0.570  1.00  0.00     0.025 C 
HETATM    5  C5  UNL     1      -1.579  -0.316  -0.754  1.00  0.00     0.023 C 
HETATM    6  C6  UNL     1      -2.782   0.218   0.069  1.00  0.00     0.009 C 
HETATM    7  C7  UNL     1      -0.314   0.426  -0.308  1.00  0.00    -0.022 C 
HETATM    8  C8  UNL     1       0.762  -0.189   0.350  1.00  0.00    -0.004 C 
HETATM    9  C9  UNL     1       0.691  -1.664   0.686  1.00  0.00     0.028 C 
HETATM   10  C10 UNL     1      -0.740  -2.199   0.739  1.00  0.00     0.009 C 
HETATM   11  C11 UNL     1       1.932   0.529   0.688  1.00  0.00     0.088 C 
HETATM   12  C12 UNL     1       1.940   1.933   0.547  1.00  0.00     0.025 C 
HETATM   13  C13 UNL     1       0.871   2.564  -0.112  1.00  0.00     0.129 C 
HETATM   14  C14 UNL     1      -0.215   1.801  -0.533  1.00  0.00     0.023 C 
HETATM   15  O1  UNL     1       0.845   3.907  -0.335  1.00  0.00    -0.190 OA
HETATM   16  C19 UNL     1      -1.810  -0.045  -2.262  1.00  0.00     0.005 C 
HETATM   17  C20 UNL     1      -3.014  -4.002  -0.804  1.00  0.00     0.174 A 
HETATM   18  O3  UNL     1      -4.427  -4.194  -0.800  1.00  0.00    -0.294 OA
HETATM   19  C21 UNL     1      -4.973  -2.957  -0.615  1.00  0.00     0.291 A 
HETATM   20  O4  UNL     1      -6.181  -2.752  -0.562  1.00  0.00    -0.260 OA
ENDROOT
BRANCH  12  21
HETATM   21  C15 UNL     1       3.069   2.841   1.042  1.00  0.00     0.026 C 
HETATM   22  C16 UNL     1       3.791   2.442   2.340  1.00  0.00     0.005 C 
HETATM   23  C17 UNL     1       4.079   3.125  -0.082  1.00  0.00     0.005 C 
ENDBRANCH  12  21
BRANCH  11  24
HETATM   24  O2  UNL     1       2.939  -0.120   1.356  1.00  0.00    -0.329 OA
HETATM   25  C18 UNL     1       3.906  -0.720   0.524  1.00  0.00     0.181 C 
ENDBRANCH  11  24
TORSDOF 2
