REMARK  0 active torsions:
REMARK  status: ('A' for Active; 'I' for Inactive)
ROOT
HETATM    1  C1  UNL     1      -0.801   0.247  -1.824  1.00  0.00     0.022 C 
HETATM    2  C2  UNL     1      -1.897  -0.751  -1.549  1.00  0.00    -0.031 C 
HETATM    3  C3  UNL     1      -2.209  -0.736  -0.249  1.00  0.00    -0.031 C 
HETATM    4  C4  UNL     1      -1.316   0.237   0.500  1.00  0.00     0.019 C 
HETATM    5  C5  UNL     1      -1.043   1.244  -0.657  1.00  0.00     0.007 C 
HETATM    6  C6  UNL     1      -2.288   2.113  -0.974  1.00  0.00     0.001 C 
HETATM    7  C7  UNL     1       0.115   2.234  -0.435  1.00  0.00     0.001 C 
HETATM    8  C8  UNL     1      -0.081  -0.613   0.871  1.00  0.00     0.004 C 
HETATM    9  C9  UNL     1       0.765  -1.137  -0.318  1.00  0.00     0.001 C 
HETATM   10  C10 UNL     1       0.558  -0.455  -1.688  1.00  0.00     0.004 C 
HETATM   11  C11 UNL     1       2.229  -1.092   0.175  1.00  0.00     0.000 C 
HETATM   12  C12 UNL     1       2.134  -0.973   1.705  1.00  0.00     0.000 C 
HETATM   13  C13 UNL     1       0.910  -0.068   1.913  1.00  0.00     0.000 C 
HETATM   14  C14 UNL     1       3.067  -2.289  -0.288  1.00  0.00     0.000 C 
HETATM   15  C15 UNL     1      -2.009   0.819   1.737  1.00  0.00     0.004 C 
ENDROOT
TORSDOF 0
