REMARK  4 active torsions:
REMARK  status: ('A' for Active; 'I' for Inactive)
REMARK    1  A    between atoms: C2_2  and  O4_19 
REMARK    2  A    between atoms: C3_3  and  C11_14 
REMARK    3  A    between atoms: C6_6  and  O1_7 
REMARK    4  A    between atoms: C12_15  and  C13_16 
ROOT
HETATM    1  C1  UNL     1       2.099  -0.568  -0.397  1.00  0.00     0.049 A 
HETATM    2  C2  UNL     1       0.980  -0.992  -1.112  1.00  0.00     0.098 A 
HETATM    3  C3  UNL     1      -0.151  -0.178  -1.180  1.00  0.00     0.045 A 
HETATM    4  C4  UNL     1      -0.165   1.060  -0.534  1.00  0.00     0.107 A 
HETATM    5  C5  UNL     1       0.954   1.490   0.184  1.00  0.00     0.045 A 
HETATM    6  C6  UNL     1       2.087   0.670   0.250  1.00  0.00     0.098 A 
HETATM    7  C8  UNL     1       0.933   2.780   0.854  1.00  0.00     0.009 A 
HETATM    8  C9  UNL     1      -0.178   3.513   0.752  1.00  0.00     0.069 A 
HETATM    9  C10 UNL     1      -1.385   3.064  -0.015  1.00  0.00     0.300 A 
HETATM   10  O2  UNL     1      -1.317   1.785  -0.658  1.00  0.00    -0.273 OA
HETATM   11  O3  UNL     1      -2.375   3.752  -0.087  1.00  0.00    -0.259 OA
ENDROOT
BRANCH   3  12
HETATM   12  C11 UNL     1      -1.224  -0.585  -1.865  1.00  0.00    -0.001 C 
HETATM   13  C12 UNL     1      -2.164  -1.319  -1.261  1.00  0.00    -0.026 C 
BRANCH  13  14
HETATM   14  C13 UNL     1      -2.015  -1.686   0.182  1.00  0.00     0.022 C 
HETATM   15  C14 UNL     1      -1.942  -0.419   1.024  1.00  0.00     0.005 C 
HETATM   16  C15 UNL     1      -3.214  -2.517   0.621  1.00  0.00     0.005 C 
ENDBRANCH  13  14
ENDBRANCH   3  12
BRANCH   2  17
HETATM   17  O4  UNL     1       0.990  -2.193  -1.739  1.00  0.00    -0.328 OA
HETATM   18  C16 UNL     1       2.127  -3.010  -1.670  1.00  0.00     0.181 C 
ENDBRANCH   2  17
BRANCH   6  19
HETATM   19  O1  UNL     1       3.177   1.079   0.944  1.00  0.00    -0.328 OA
HETATM   20  C7  UNL     1       3.168   2.321   1.594  1.00  0.00     0.181 C 
ENDBRANCH   6  19
TORSDOF 4
