REMARK  0 active torsions:
REMARK  status: ('A' for Active; 'I' for Inactive)
ROOT
HETATM    1  C1  UNL     1      -0.402   0.193   0.827  1.00  0.00     0.007 C 
HETATM    2  C2  UNL     1      -0.402  -1.331   0.827  1.00  0.00     0.001 C 
HETATM    3  C3  UNL     1      -0.321  -1.331  -0.694  1.00  0.00     0.007 C 
HETATM    4  C4  UNL     1       1.138  -1.259  -1.124  1.00  0.00     0.065 C 
HETATM    5  C5  UNL     1       1.837  -0.186  -0.093  1.00  0.00     0.150 C 
HETATM    6  C6  UNL     1       1.034   0.700   0.827  1.00  0.00     0.058 C 
HETATM    7  C7  UNL     1       1.606   0.635   2.237  1.00  0.00     0.008 C 
HETATM    8  O1  UNL     1       3.042  -0.104  -0.072  1.00  0.00    -0.296 OA
HETATM    9  C8  UNL     1      -0.940   0.193  -0.598  1.00  0.00     0.001 C 
HETATM   10  C9  UNL     1      -2.456   0.281  -0.714  1.00  0.00     0.000 C 
HETATM   11  C10 UNL     1      -0.606   1.284  -1.606  1.00  0.00     0.000 C 
ENDROOT
TORSDOF 0
