REMARK  7 active torsions:
REMARK  status: ('A' for Active; 'I' for Inactive)
REMARK    1  A    between atoms: C2_2  and  C3_3 
REMARK    2  A    between atoms: C3_3  and  C4_4 
REMARK    3  A    between atoms: C4_4  and  C5_5 
REMARK    4  A    between atoms: C6_6  and  C7_7 
REMARK    5  A    between atoms: C7_7  and  C8_8 
REMARK    6  A    between atoms: C8_8  and  C9_9 
REMARK    7  A    between atoms: C9_9  and  C10_10 
ROOT
HETATM    1  C5  UNL     1      -0.320   1.221  -0.128  1.00  0.00    -0.034 C 
HETATM    2  C6  UNL     1      -1.478   0.552  -0.128  1.00  0.00    -0.048 C 
HETATM    3  C14 UNL     1      -2.775   1.301  -0.128  1.00  0.00     0.026 C 
ENDROOT
BRANCH   2   4
HETATM    4  C7  UNL     1      -1.478  -0.945  -0.128  1.00  0.00     0.026 C 
BRANCH   4   5
HETATM    5  C8  UNL     1      -0.043  -1.453  -0.128  1.00  0.00     0.026 C 
BRANCH   5   6
HETATM    6  C9  UNL     1      -0.043  -2.950  -0.128  1.00  0.00    -0.044 C 
HETATM    7  C13 UNL     1      -1.200  -3.618  -0.128  1.00  0.00    -0.009 C 
BRANCH   6   8
HETATM    8  C10 UNL     1       1.254  -3.698  -0.128  1.00  0.00     0.018 C 
HETATM    9  C11 UNL     1       2.412  -2.709  -0.128  1.00  0.00     0.004 C 
HETATM   10  C12 UNL     1       1.334  -4.573   1.117  1.00  0.00     0.004 C 
ENDBRANCH   6   8
ENDBRANCH   5   6
ENDBRANCH   4   5
ENDBRANCH   2   4
BRANCH   1  11
HETATM   11  C4  UNL     1      -0.320   2.718  -0.128  1.00  0.00     0.033 C 
BRANCH  11  12
HETATM   12  C3  UNL     1       1.115   3.226  -0.128  1.00  0.00     0.069 C 
BRANCH  12  13
HETATM   13  C2  UNL     1       1.115   4.735  -0.128  1.00  0.00     0.151 C 
HETATM   14  C1  UNL     1      -0.192   5.490  -0.128  1.00  0.00     0.072 C 
HETATM   15  O1  UNL     1       2.161   5.339  -0.128  1.00  0.00    -0.296 OA
ENDBRANCH  12  13
ENDBRANCH  11  12
ENDBRANCH   1  11
TORSDOF 7
