REMARK  0 active torsions:
REMARK  status: ('A' for Active; 'I' for Inactive)
ROOT
HETATM    1  O1  UNL     1       1.996  -2.004  -0.268  1.00  0.00    -0.305 OA
HETATM    2  C1  UNL     1       1.849  -0.670  -0.046  1.00  0.00     0.107 A 
HETATM    3  C2  UNL     1       3.071  -0.040  -0.017  1.00  0.00     0.088 A 
HETATM    4  C3  UNL     1       4.049  -1.046  -0.236  1.00  0.00     0.032 A 
HETATM    5  C4  UNL     1       3.336  -2.233  -0.384  1.00  0.00     0.125 A 
HETATM    6  C5  UNL     1       3.923  -3.474  -0.617  1.00  0.00     0.154 A 
HETATM    7  C6  UNL     1       5.319  -3.498  -0.703  1.00  0.00     0.029 A 
HETATM    8  C7  UNL     1       6.072  -2.329  -0.561  1.00  0.00     0.002 A 
HETATM    9  C8  UNL     1       5.452  -1.093  -0.326  1.00  0.00     0.002 A 
HETATM   10  O2  UNL     1       3.182  -4.600  -0.753  1.00  0.00    -0.188 OA
HETATM   11  C9  UNL     1       3.210   1.412   0.210  1.00  0.00     0.302 A 
HETATM   12  O3  UNL     1       1.975   2.142   0.383  1.00  0.00    -0.273 OA
HETATM   13  C10 UNL     1       0.795   1.444   0.348  1.00  0.00     0.107 A 
HETATM   14  C11 UNL     1       0.681   0.059   0.139  1.00  0.00     0.046 A 
HETATM   15  C12 UNL     1      -0.581  -0.563   0.122  1.00  0.00     0.002 A 
HETATM   16  C13 UNL     1      -1.738   0.203   0.318  1.00  0.00     0.000 A 
HETATM   17  C14 UNL     1      -1.619   1.587   0.502  1.00  0.00     0.092 A 
HETATM   18  C15 UNL     1      -0.363   2.200   0.531  1.00  0.00     0.049 A 
HETATM   19  O4  UNL     1      -2.692   2.418   0.697  1.00  0.00    -0.336 OA
HETATM   20  C16 UNL     1      -3.957   1.855   0.338  1.00  0.00     0.099 C 
HETATM   21  C17 UNL     1      -4.139   0.458   0.905  1.00  0.00     0.033 C 
HETATM   22  C18 UNL     1      -3.086  -0.459   0.302  1.00  0.00     0.031 C 
HETATM   23  C19 UNL     1      -5.064   2.751   0.876  1.00  0.00     0.030 C 
HETATM   24  C20 UNL     1      -4.015   1.757  -1.181  1.00  0.00     0.030 C 
HETATM   25  O5  UNL     1       4.288   1.956   0.250  1.00  0.00    -0.259 OA
ENDROOT
TORSDOF 0
