REMARK  1 active torsions:
REMARK  status: ('A' for Active; 'I' for Inactive)
REMARK    1  A    between atoms: C15_16  and  C18_19 
ROOT
HETATM    1  C1  UNL     1      -4.276  -0.567  -0.050  1.00  0.00     0.034 C 
HETATM    2  C2  UNL     1      -4.167  -2.062   0.145  1.00  0.00     0.156 C 
HETATM    3  C3  UNL     1      -3.290  -2.637  -0.960  1.00  0.00     0.055 C 
HETATM    4  C4  UNL     1      -1.959  -1.953  -0.947  1.00  0.00    -0.046 C 
HETATM    5  C5  UNL     1      -1.959  -0.456  -0.947  1.00  0.00     0.015 C 
HETATM    6  C6  UNL     1      -2.897   0.052   0.140  1.00  0.00     0.006 C 
HETATM    7  C7  UNL     1      -0.548   0.052  -0.678  1.00  0.00     0.009 C 
HETATM    8  C8  UNL     1       0.118  -0.831   0.370  1.00  0.00     0.033 C 
HETATM    9  C9  UNL     1       0.471  -2.176  -0.251  1.00  0.00     0.028 C 
HETATM   10  C10 UNL     1      -0.817  -2.649  -0.947  1.00  0.00    -0.035 C 
HETATM   11  C11 UNL     1       1.387  -0.154   0.872  1.00  0.00     0.130 C 
HETATM   12  C12 UNL     1       1.791   0.950  -0.098  1.00  0.00     0.061 C 
HETATM   13  C13 UNL     1       0.883   2.157   0.101  1.00  0.00     0.155 C 
HETATM   14  C14 UNL     1      -0.613   1.485  -0.167  1.00  0.00     0.033 C 
HETATM   15  O1  UNL     1       0.990   2.670   1.401  1.00  0.00    -0.223 OA
HETATM   16  C15 UNL     1       3.210   1.307   0.322  1.00  0.00     0.062 C 
HETATM   17  C16 UNL     1       3.768  -0.259   0.587  1.00  0.00     0.010 C 
HETATM   18  C17 UNL     1       2.546  -1.140   0.811  1.00  0.00     0.031 C 
HETATM   19  C20 UNL     1       1.691   0.525  -1.557  1.00  0.00     0.005 C 
HETATM   20  O3  UNL     1       1.137   0.320   2.167  1.00  0.00    -0.226 OA
HETATM   21  C21 UNL     1      -2.431   0.052  -2.303  1.00  0.00     0.004 C 
HETATM   22  O4  UNL     1      -3.590  -2.334   1.394  1.00  0.00    -0.223 OA
ENDROOT
BRANCH  16  23
HETATM   23  C18 UNL     1       3.243   2.146   1.576  1.00  0.00     0.151 C 
HETATM   24  C19 UNL     1       3.969   3.469   1.580  1.00  0.00     0.072 C 
HETATM   25  O2  UNL     1       2.687   1.759   2.576  1.00  0.00    -0.296 OA
ENDBRANCH  16  23
TORSDOF 1
