REMARK  0 active torsions:
REMARK  status: ('A' for Active; 'I' for Inactive)
ROOT
HETATM    1  C1  UNL     1      -2.101  -1.150  -1.384  1.00  0.00     0.171 A 
HETATM    2  C2  UNL     1      -1.775  -0.090  -2.230  1.00  0.00     0.006 A 
HETATM    3  C3  UNL     1      -0.721   0.763  -1.905  1.00  0.00    -0.004 A 
HETATM    4  C4  UNL     1       0.007   0.557  -0.733  1.00  0.00     0.005 A 
HETATM    5  C5  UNL     1      -0.318  -0.503   0.113  1.00  0.00     0.060 A 
HETATM    6  C6  UNL     1      -1.372  -1.357  -0.213  1.00  0.00     0.069 A 
HETATM    7  O1  UNL     1      -1.689  -2.386   0.609  1.00  0.00     0.000 OA
HETATM    8  C7  UNL     1      -2.830  -3.160   0.356  1.00  0.00    -0.028 A 
HETATM    9  C8  UNL     1       1.018   1.375  -0.422  1.00  0.00     0.121 A 
HETATM   10  C9  UNL     1       1.681   1.131   0.713  1.00  0.00     0.155 A 
HETATM   11  C10 UNL     1       2.826   1.991   1.145  1.00  0.00     0.224 A 
HETATM   12  C11 UNL     1       3.108   3.107   0.177  1.00  0.00     0.089 A 
HETATM   13  C12 UNL     1       2.333   3.252  -0.981  1.00  0.00     0.107 A 
HETATM   14  O2  UNL     1       1.294   2.403  -1.293  1.00  0.00    -0.305 OA
HETATM   15  C13 UNL     1       2.590   4.286  -1.883  1.00  0.00     0.052 A 
HETATM   16  C14 UNL     1       3.627   5.184  -1.633  1.00  0.00     0.135 A 
HETATM   17  C15 UNL     1       4.405   5.049  -0.483  1.00  0.00     0.055 A 
HETATM   18  C16 UNL     1       4.147   4.015   0.420  1.00  0.00     0.138 A 
HETATM   19  O3  UNL     1       4.906   3.889   1.535  1.00  0.00    -0.190 OA
HETATM   20  O4  UNL     1       3.879   6.189  -2.507  1.00  0.00    -0.190 OA
HETATM   21  O5  UNL     1       3.454   1.810   2.161  1.00  0.00    -0.284 OA
HETATM   22  O6  UNL     1       1.310   0.083   1.487  1.00  0.00    -0.325 OA
HETATM   23  C17 UNL     1       0.239  -0.733   1.095  1.00  0.00     0.159 A 
HETATM   24  O7  UNL     1      -0.963  -0.011   1.095  1.00  0.00     0.000 OA
HETATM   25  C18 UNL     1      -1.954  -1.002   1.095  1.00  0.00     0.067 A 
HETATM   26  C19 UNL     1      -1.457  -2.021   2.113  1.00  0.00     0.187 C 
HETATM   27  C20 UNL     1       0.003  -1.841   2.113  1.00  0.00     0.210 C 
HETATM   28  O8  UNL     1       0.649  -3.022   1.722  1.00  0.00    -0.218 OA
HETATM   29  O9  UNL     1      -1.798  -3.323   1.722  1.00  0.00    -0.221 OA
HETATM   30  C21 UNL     1      -2.175  -1.611  -0.283  1.00  0.00     0.141 A 
HETATM   31  C22 UNL     1      -1.892  -3.106  -0.228  1.00  0.00     0.057 A 
HETATM   32  O10 UNL     1      -3.503  -1.399  -0.679  1.00  0.00    -0.225 OA
HETATM   33  O11 UNL     1      -3.124  -1.980  -1.700  1.00  0.00    -0.219 OA
ENDROOT
TORSDOF 0
