REMARK  1 active torsions:
REMARK  status: ('A' for Active; 'I' for Inactive)
REMARK    1  A    between atoms: C15_18  and  O4_20 
ROOT
HETATM    1  O1  UNL     1      -5.348   0.471  -0.078  1.00  0.00    -0.300 OA
HETATM    2  C1  UNL     1      -4.183   0.849  -0.078  1.00  0.00     0.119 A 
HETATM    3  C2  UNL     1      -4.114   2.184  -0.078  1.00  0.00     0.119 A 
HETATM    4  O2  UNL     1      -5.233   2.683  -0.078  1.00  0.00    -0.300 OA
HETATM    5  C3  UNL     1      -6.098   1.670  -0.078  1.00  0.00     0.304 A 
HETATM    6  C4  UNL     1      -2.922   2.791  -0.090  1.00  0.00     0.022 A 
HETATM    7  C5  UNL     1      -1.801   2.063  -0.053  1.00  0.00    -0.020 A 
HETATM    8  C6  UNL     1      -1.871   0.728  -0.078  1.00  0.00     0.005 A 
HETATM    9  C7  UNL     1      -3.062   0.121  -0.090  1.00  0.00     0.024 A 
HETATM   10  C8  UNL     1      -0.636  -0.117  -0.105  1.00  0.00     0.164 C 
HETATM   11  C9  UNL     1       0.589   0.777  -0.244  1.00  0.00     0.132 C 
HETATM   12  N1  UNL     1       0.605   1.368  -1.555  1.00  0.00    -0.362 N 
HETATM   13  C10 UNL     1       0.188   2.708  -1.360  1.00  0.00     0.102 C 
HETATM   14  C11 UNL     1      -0.485   2.774   0.004  1.00  0.00     0.050 C 
HETATM   15  C12 UNL     1       0.967   0.736  -2.795  1.00  0.00     0.121 C 
HETATM   16  C13 UNL     1       1.827  -0.032  -0.012  1.00  0.00     0.003 A 
HETATM   17  C14 UNL     1       1.772  -1.242   0.555  1.00  0.00     0.056 A 
HETATM   18  C15 UNL     1       0.469  -1.849   0.973  1.00  0.00     0.262 C 
HETATM   19  O3  UNL     1      -0.516  -0.811   1.107  1.00  0.00    -0.323 OA
HETATM   20  C17 UNL     1       2.896  -1.940   0.750  1.00  0.00     0.120 A 
HETATM   21  C18 UNL     1       4.074  -1.429   0.377  1.00  0.00     0.119 A 
HETATM   22  C19 UNL     1       4.128  -0.219  -0.190  1.00  0.00     0.026 A 
HETATM   23  C20 UNL     1       3.006   0.484  -0.374  1.00  0.00    -0.000 A 
HETATM   24  O5  UNL     1       4.987  -2.208   0.621  1.00  0.00    -0.300 OA
HETATM   25  C21 UNL     1       4.433  -3.270   1.205  1.00  0.00     0.304 A 
HETATM   26  O6  UNL     1       3.035  -3.055   1.238  1.00  0.00    -0.300 OA
ENDROOT
BRANCH  18  27
HETATM   27  O4  UNL     1       0.631  -2.503   2.202  1.00  0.00    -0.325 OA
HETATM   28  C16 UNL     1       0.376  -3.878   2.303  1.00  0.00     0.177 C 
ENDBRANCH  18  27
TORSDOF 1
