REMARK  5 active torsions:
REMARK  status: ('A' for Active; 'I' for Inactive)
REMARK    1  A    between atoms: C12_14  and  C16_19 
REMARK    2  A    between atoms: C18_21  and  C19_22 
REMARK    3  A    between atoms: C19_22  and  C20_23 
REMARK    4  A    between atoms: C19_22  and  O4_27 
REMARK    5  A    between atoms: C20_23  and  O3_25 
ROOT
HETATM    1  C1  UNL     1      -2.036  -1.529  -0.804  1.00  0.00    -0.000 C 
HETATM    2  C2  UNL     1      -2.043  -2.866  -0.631  1.00  0.00     0.002 C 
HETATM    3  C3  UNL     1      -0.885  -3.535  -0.631  1.00  0.00     0.019 C 
HETATM    4  C4  UNL     1       0.273  -2.866  -0.631  1.00  0.00     0.081 A 
HETATM    5  C5  UNL     1       0.273  -1.529  -0.631  1.00  0.00     0.005 A 
HETATM    6  C6  UNL     1      -0.882  -0.861  -0.718  1.00  0.00    -0.002 C 
HETATM    7  C7  UNL     1       1.665  -0.993  -0.512  1.00  0.00     0.125 A 
HETATM    8  C8  UNL     1       2.536  -2.224  -0.559  1.00  0.00     0.261 A 
HETATM    9  N1  UNL     1       1.455  -3.320  -0.642  1.00  0.00    -0.212 NA
HETATM   10  O1  UNL     1       3.740  -2.323  -0.538  1.00  0.00    -0.270 OA
HETATM   11  C9  UNL     1       1.845  -0.348   0.856  1.00  0.00     0.231 C 
HETATM   12  C10 UNL     1       0.621  -0.631   1.716  1.00  0.00     0.035 C 
HETATM   13  C11 UNL     1      -0.471   0.380   1.394  1.00  0.00     0.012 C 
HETATM   14  C12 UNL     1       0.251   1.034   2.325  1.00  0.00     0.032 C 
HETATM   15  C13 UNL     1       0.679   1.655   1.002  1.00  0.00     0.225 C 
HETATM   16  N2  UNL     1       1.915   1.060   0.571  1.00  0.00     0.134 N 
HETATM   17  C14 UNL     1       1.952   1.122  -0.866  1.00  0.00     0.251 C 
HETATM   18  C15 UNL     1       1.990  -0.146  -1.735  1.00  0.00     0.050 C 
HETATM   19  C18 UNL     1      -0.465   0.958   0.013  1.00  0.00     0.082 C 
ENDROOT
BRANCH  14  20
HETATM   20  C16 UNL     1       1.297   0.228   3.085  1.00  0.00     0.002 C 
HETATM   21  C17 UNL     1       1.233   0.580   4.565  1.00  0.00     0.000 C 
ENDBRANCH  14  20
BRANCH  19  22
HETATM   22  C19 UNL     1      -1.608   1.064  -0.673  1.00  0.00     0.136 C 
BRANCH  22  23
HETATM   23  C20 UNL     1      -1.602   1.585  -1.919  1.00  0.00     0.314 C 
HETATM   24  O2  UNL     1      -2.635   1.681  -2.539  1.00  0.00    -0.257 OA
BRANCH  23  25
HETATM   25  O3  UNL     1      -0.452   1.994  -2.468  1.00  0.00    -0.294 OA
HETATM   26  C21 UNL     1      -0.446   2.535  -3.761  1.00  0.00     0.185 C 
ENDBRANCH  23  25
ENDBRANCH  22  23
BRANCH  22  27
HETATM   27  O4  UNL     1      -2.772   0.649  -0.117  1.00  0.00    -0.327 OA
HETATM   28  C22 UNL     1      -3.970   0.760  -0.837  1.00  0.00     0.181 C 
ENDBRANCH  22  27
ENDBRANCH  19  22
TORSDOF 5
