REMARK  5 active torsions:
REMARK  status: ('A' for Active; 'I' for Inactive)
REMARK    1  A    between atoms: C3_3  and  C8_9 
REMARK    2  A    between atoms: C6_6  and  O1_7 
REMARK    3  A    between atoms: C16_19  and  O4_20 
REMARK    4  A    between atoms: O4_20  and  C17_21 
REMARK    5  A    between atoms: C18_23  and  C22_30 
ROOT
HETATM    1  C8  UNL     1       1.012  -1.478  -0.919  1.00  0.00     0.103 A 
HETATM    2  O2  UNL     1       1.039  -0.466   0.012  1.00  0.00    -0.305 OA
HETATM    3  C9  UNL     1       1.853  -0.622   1.113  1.00  0.00     0.129 A 
HETATM    4  C10 UNL     1       2.643  -1.761   1.314  1.00  0.00     0.089 A 
HETATM    5  C11 UNL     1       2.631  -2.882   0.311  1.00  0.00     0.202 A 
HETATM    6  C12 UNL     1       1.717  -2.612  -0.842  1.00  0.00     0.067 A 
HETATM    7  O3  UNL     1       3.287  -3.890   0.424  1.00  0.00    -0.286 OA
HETATM    8  C13 UNL     1       3.444  -1.841   2.461  1.00  0.00     0.138 A 
HETATM    9  C14 UNL     1       3.451  -0.798   3.389  1.00  0.00     0.057 A 
HETATM   10  C15 UNL     1       2.661   0.332   3.179  1.00  0.00     0.157 A 
HETATM   11  C16 UNL     1       1.861   0.420   2.040  1.00  0.00     0.145 A 
HETATM   12  O11 UNL     1       2.670   1.343   4.081  1.00  0.00    -0.188 OA
HETATM   13  O12 UNL     1       4.214  -2.936   2.671  1.00  0.00    -0.190 OA
ENDROOT
BRANCH  11  14
HETATM   14  O4  UNL     1       1.092   1.517   1.834  1.00  0.00    -0.299 OA
BRANCH  14  15
HETATM   15  C17 UNL     1       0.289   1.605   0.689  1.00  0.00     0.275 C 
HETATM   16  O5  UNL     1      -0.412   2.820   0.689  1.00  0.00    -0.318 OA
HETATM   17  C18 UNL     1      -0.953   2.975   1.973  1.00  0.00     0.237 C 
HETATM   18  C19 UNL     1      -2.111   1.996   2.105  1.00  0.00     0.223 C 
HETATM   19  C20 UNL     1      -1.593   0.576   1.947  1.00  0.00     0.221 C 
HETATM   20  O8  UNL     1      -3.062   2.260   1.109  1.00  0.00    -0.217 OA
HETATM   21  C21 UNL     1      -0.740   0.482   0.689  1.00  0.00     0.241 C 
HETATM   22  O7  UNL     1      -0.817   0.235   3.064  1.00  0.00    -0.218 OA
HETATM   23  O6  UNL     1      -1.561   0.602  -0.442  1.00  0.00    -0.215 OA
BRANCH  17  24
HETATM   24  C22 UNL     1      -1.451   4.388   2.154  1.00  0.00     0.217 C 
HETATM   25  O9  UNL     1      -1.000   5.080   3.036  1.00  0.00    -0.646 OA
HETATM   26  O10 UNL     1      -2.392   4.875   1.337  1.00  0.00    -0.646 OA
ENDBRANCH  17  24
ENDBRANCH  14  15
ENDBRANCH  11  14
BRANCH   1  27
HETATM   27  C3  UNL     1       0.219  -1.316  -1.983  1.00  0.00     0.023 A 
HETATM   28  C2  UNL     1      -0.540  -0.153  -2.117  1.00  0.00     0.004 A 
HETATM   29  C1  UNL     1      -1.367   0.015  -3.227  1.00  0.00     0.024 A 
HETATM   30  C6  UNL     1      -1.435  -0.978  -4.204  1.00  0.00     0.094 A 
HETATM   31  C5  UNL     1      -0.676  -2.141  -4.070  1.00  0.00     0.024 A 
HETATM   32  C4  UNL     1       0.151  -2.310  -2.959  1.00  0.00     0.004 A 
BRANCH  30  33
HETATM   33  O1  UNL     1      -2.239  -0.814  -5.282  1.00  0.00    -0.328 OA
HETATM   34  C7  UNL     1      -2.331  -1.826  -6.248  1.00  0.00     0.181 C 
ENDBRANCH  30  33
ENDBRANCH   1  27
TORSDOF 5
