REMARK  2 active torsions:
REMARK  status: ('A' for Active; 'I' for Inactive)
REMARK    1  A    between atoms: C7_7  and  C15_16 
REMARK    2  A    between atoms: C18_20  and  C19_21 
ROOT
HETATM    1  C1  UNL     1      -4.795   0.230  -0.011  1.00  0.00    -0.000 C 
HETATM    2  C2  UNL     1      -4.871  -1.107  -0.623  1.00  0.00     0.002 C 
HETATM    3  C3  UNL     1      -3.713  -1.776  -0.611  1.00  0.00     0.017 C 
HETATM    4  C4  UNL     1      -2.555  -1.107  -0.598  1.00  0.00     0.058 C 
HETATM    5  C5  UNL     1      -2.555   0.230  -0.598  1.00  0.00    -0.003 C 
HETATM    6  C6  UNL     1      -3.675   0.898  -0.304  1.00  0.00    -0.003 C 
HETATM    7  C7  UNL     1      -1.171   0.763  -0.946  1.00  0.00     0.069 C 
HETATM    8  C8  UNL     1      -0.507  -0.572  -1.256  1.00  0.00     0.097 C 
HETATM    9  N1  UNL     1      -1.374  -1.561  -0.598  1.00  0.00    -0.301 N 
HETATM   10  C9  UNL     1      -0.655  -2.546  -0.259  1.00  0.00     0.237 C 
HETATM   11  C10 UNL     1       0.866  -3.071  -0.745  1.00  0.00     0.088 C 
HETATM   12  C11 UNL     1       1.497  -1.753  -0.418  1.00  0.00     0.016 C 
HETATM   13  C12 UNL     1       0.863  -0.600  -0.654  1.00  0.00     0.077 A 
HETATM   14  C13 UNL     1       1.499   0.718  -0.339  1.00  0.00     0.191 A 
HETATM   15  C14 UNL     1      -0.214   2.837   0.040  1.00  0.00     0.065 C 
HETATM   16  C15 UNL     1      -0.534   1.370   0.298  1.00  0.00     0.201 C 
HETATM   17  N2  UNL     1       0.690   0.633   0.457  1.00  0.00     0.008 N 
HETATM   18  C16 UNL     1       1.619   1.474   1.161  1.00  0.00     0.185 C 
HETATM   19  C17 UNL     1       2.384   0.572   0.859  1.00  0.00     0.028 C 
HETATM   20  C18 UNL     1       3.416  -0.137   1.328  1.00  0.00     0.008 C 
HETATM   21  C20 UNL     1       1.177   0.473  -0.887  1.00  0.00     0.199 A 
HETATM   22  C21 UNL     1      -1.253   1.597  -2.217  1.00  0.00     0.040 C 
HETATM   23  O2  UNL     1      -1.163  -3.249   0.581  1.00  0.00    -0.272 OA
ENDROOT
BRANCH  20  24
HETATM   24  C19 UNL     1       3.957   0.142   2.696  1.00  0.00     0.208 C 
HETATM   25  O1  UNL     1       5.028  -0.722   2.961  1.00  0.00    -0.215 OA
ENDBRANCH  20  24
TORSDOF 2
