REMARK  7 active torsions:
REMARK  status: ('A' for Active; 'I' for Inactive)
REMARK    1  A    between atoms: C19_27  and  O15_42 
REMARK    2  A    between atoms: C20_28  and  O10_30 
REMARK    3  A    between atoms: O10_30  and  C21_31 
REMARK    4  A    between atoms: C21_31  and  C22_32 
REMARK    5  A    between atoms: O15_42  and  C28_43 
REMARK    6  A    between atoms: C28_43  and  C29_45 
REMARK    7  A    between atoms: C35_55  and  C36_56 
ROOT
HETATM    1  C1  UNL     1      -2.687   5.090   2.505  1.00  0.00     0.332 C 
HETATM    2  C2  UNL     1      -2.490   3.772   3.291  1.00  0.00     0.313 C 
HETATM    3  C3  UNL     1      -1.503   3.078   2.362  1.00  0.00     0.115 C 
HETATM    4  C4  UNL     1      -0.206   3.826   2.362  1.00  0.00     0.053 C 
HETATM    5  C5  UNL     1      -0.174   5.163   2.362  1.00  0.00     0.044 C 
HETATM    6  C6  UNL     1      -1.405   5.810   2.166  1.00  0.00     0.232 C 
HETATM    7  O1  UNL     1      -1.438   6.935   1.728  1.00  0.00    -0.286 OA
HETATM    8  C7  UNL     1       0.970   3.161   2.351  1.00  0.00     0.292 C 
HETATM    9  O2  UNL     1       1.756   3.421   1.471  1.00  0.00    -0.259 OA
HETATM   10  O3  UNL     1       1.320   2.234   3.249  1.00  0.00    -0.296 OA
HETATM   11  C8  UNL     1       2.488   1.581   2.837  1.00  0.00     0.184 C 
HETATM   12  C9  UNL     1       2.133   0.681   1.661  1.00  0.00     0.176 C 
HETATM   13  C10 UNL     1       0.735   0.111   1.863  1.00  0.00     0.154 C 
HETATM   14  O4  UNL     1      -0.172   1.175   1.764  1.00  0.00    -0.329 OA
HETATM   15  C11 UNL     1      -0.725   1.190   0.545  1.00  0.00     0.116 C 
HETATM   16  C12 UNL     1      -1.622   2.110   0.128  1.00  0.00     0.025 A 
HETATM   17  C13 UNL     1      -2.061   3.047   0.974  1.00  0.00     0.013 A 
HETATM   18  C14 UNL     1      -2.972   3.939   0.570  1.00  0.00     0.121 A 
HETATM   19  C15 UNL     1      -3.452   3.886  -0.677  1.00  0.00     0.178 A 
HETATM   20  C16 UNL     1      -2.975   2.980  -1.538  1.00  0.00     0.158 A 
HETATM   21  C17 UNL     1      -2.079   2.076  -1.128  1.00  0.00     0.031 A 
HETATM   22  O5  UNL     1      -3.400   2.978  -2.825  1.00  0.00    -0.188 OA
HETATM   23  O6  UNL     1      -4.421   4.749  -1.068  1.00  0.00    -0.186 OA
HETATM   24  O7  UNL     1      -3.460   4.938   1.345  1.00  0.00    -0.296 OA
HETATM   25  O8  UNL     1      -0.401   0.325  -0.233  1.00  0.00     0.000 OA
HETATM   26  C18 UNL     1       0.419  -0.867   0.738  1.00  0.00     0.068 C 
HETATM   27  C19 UNL     1       1.559  -1.867   0.600  1.00  0.00     0.184 C 
HETATM   28  C20 UNL     1       2.843  -1.089   0.464  1.00  0.00     0.271 C 
HETATM   29  O9  UNL     1       3.032  -0.395   1.668  1.00  0.00    -0.326 OA
HETATM   30  O20 UNL     1       0.268  -0.162  -0.464  1.00  0.00     0.000 OA
HETATM   31  C35 UNL     1      -0.891  -0.219  -1.131  1.00  0.00     0.234 A 
HETATM   32  O24 UNL     1      -1.021   0.388  -2.167  1.00  0.00    -0.283 OA
HETATM   33  O25 UNL     1      -3.687   3.053   3.416  1.00  0.00    -0.186 OA
HETATM   34  O26 UNL     1      -2.061   3.924   4.617  1.00  0.00    -0.186 OA
HETATM   35  O27 UNL     1      -3.396   5.893   3.409  1.00  0.00    -0.181 OA
ENDROOT
BRANCH  27  36
HETATM   36  O15 UNL     1       1.616  -2.685   1.738  1.00  0.00    -0.296 OA
BRANCH  36  37
HETATM   37  C28 UNL     1       1.486  -4.011   1.615  1.00  0.00     0.296 C 
HETATM   38  O16 UNL     1       1.535  -4.715   2.596  1.00  0.00    -0.259 OA
BRANCH  37  39
HETATM   39  C29 UNL     1       1.300  -4.562   0.396  1.00  0.00     0.067 A 
HETATM   40  C30 UNL     1       2.348  -4.590  -0.524  1.00  0.00     0.035 A 
HETATM   41  C31 UNL     1       2.155  -5.159  -1.783  1.00  0.00     0.158 A 
HETATM   42  C32 UNL     1       0.915  -5.700  -2.122  1.00  0.00     0.181 A 
HETATM   43  O19 UNL     1       3.173  -5.187  -2.676  1.00  0.00    -0.188 OA
HETATM   44  C33 UNL     1      -0.133  -5.671  -1.202  1.00  0.00     0.158 A 
HETATM   45  O18 UNL     1       0.728  -6.253  -3.344  1.00  0.00    -0.186 OA
HETATM   46  C34 UNL     1       0.059  -5.102   0.057  1.00  0.00     0.035 A 
HETATM   47  O17 UNL     1      -1.338  -6.197  -1.531  1.00  0.00    -0.188 OA
ENDBRANCH  37  39
ENDBRANCH  36  37
ENDBRANCH  27  36
BRANCH  28  48
HETATM   48  O10 UNL     1       3.914  -1.964   0.240  1.00  0.00    -0.270 OA
BRANCH  48  49
HETATM   49  C21 UNL     1       4.655  -1.845  -0.868  1.00  0.00     0.298 C 
HETATM   50  O14 UNL     1       5.579  -2.599  -1.061  1.00  0.00    -0.259 OA
BRANCH  49  51
HETATM   51  C22 UNL     1       4.370  -0.881  -1.770  1.00  0.00     0.068 A 
HETATM   52  C23 UNL     1       3.114  -0.276  -1.771  1.00  0.00     0.035 A 
HETATM   53  C24 UNL     1       2.820   0.720  -2.703  1.00  0.00     0.158 A 
HETATM   54  C25 UNL     1       3.782   1.110  -3.634  1.00  0.00     0.181 A 
HETATM   55  O13 UNL     1       1.599   1.308  -2.704  1.00  0.00    -0.188 OA
HETATM   56  C26 UNL     1       5.039   0.504  -3.634  1.00  0.00     0.158 A 
HETATM   57  O12 UNL     1       3.497   2.076  -4.540  1.00  0.00    -0.186 OA
HETATM   58  C27 UNL     1       5.333  -0.491  -2.701  1.00  0.00     0.035 A 
HETATM   59  O11 UNL     1       5.974   0.883  -4.538  1.00  0.00    -0.188 OA
ENDBRANCH  49  51
ENDBRANCH  48  49
ENDBRANCH  28  48
BRANCH  31  60
HETATM   60  C36 UNL     1      -1.915  -0.955  -0.646  1.00  0.00     0.046 A 
HETATM   61  C37 UNL     1      -2.884  -0.356   0.159  1.00  0.00     0.033 A 
HETATM   62  C38 UNL     1      -3.941  -1.116   0.660  1.00  0.00     0.158 A 
HETATM   63  C39 UNL     1      -4.028  -2.475   0.356  1.00  0.00     0.181 A 
HETATM   64  O23 UNL     1      -4.882  -0.535   1.442  1.00  0.00    -0.188 OA
HETATM   65  C40 UNL     1      -3.059  -3.073  -0.449  1.00  0.00     0.158 A 
HETATM   66  O22 UNL     1      -5.055  -3.213   0.842  1.00  0.00    -0.186 OA
HETATM   67  C41 UNL     1      -2.002  -2.313  -0.950  1.00  0.00     0.033 A 
HETATM   68  O21 UNL     1      -3.144  -4.393  -0.745  1.00  0.00    -0.188 OA
ENDBRANCH  31  60
TORSDOF 7
