REMARK  1 active torsions:
REMARK  status: ('A' for Active; 'I' for Inactive)
REMARK    1  A    between atoms: C15_16  and  O2_19 
ROOT
HETATM    1  C1  UNL     1      -2.725  -0.894  -0.317  1.00  0.00     0.096 A 
HETATM    2  C2  UNL     1      -4.049  -0.442  -0.350  1.00  0.00     0.024 A 
HETATM    3  C3  UNL     1      -4.328   0.905  -0.175  1.00  0.00     0.002 A 
HETATM    4  C4  UNL     1      -3.284   1.797   0.035  1.00  0.00    -0.004 A 
HETATM    5  C5  UNL     1      -1.951   1.344   0.055  1.00  0.00    -0.018 A 
HETATM    6  C6  UNL     1      -1.627  -0.022  -0.118  1.00  0.00     0.017 A 
HETATM    7  C7  UNL     1      -0.255  -0.451  -0.076  1.00  0.00     0.012 A 
HETATM    8  C8  UNL     1       0.802   0.497  -0.108  1.00  0.00    -0.007 A 
HETATM    9  C9  UNL     1       0.459   1.966  -0.328  1.00  0.00     0.104 C 
HETATM   10  C10 UNL     1      -0.853   2.333   0.379  1.00  0.00     0.053 C 
HETATM   11  N1  UNL     1       1.525   2.888   0.116  1.00  0.00    -0.364 N 
HETATM   12  C11 UNL     1       2.788   2.508  -0.523  1.00  0.00     0.102 C 
HETATM   13  C12 UNL     1       3.263   1.129  -0.060  1.00  0.00     0.050 C 
HETATM   14  C13 UNL     1       2.160   0.099  -0.062  1.00  0.00    -0.021 A 
HETATM   15  C14 UNL     1       2.484  -1.254   0.037  1.00  0.00     0.018 A 
HETATM   16  C15 UNL     1       1.475  -2.206   0.059  1.00  0.00     0.105 A 
HETATM   17  C16 UNL     1       0.135  -1.809  -0.001  1.00  0.00     0.205 A 
HETATM   18  O1  UNL     1      -0.828  -2.763   0.013  1.00  0.00    -0.318 OA
HETATM   19  C18 UNL     1       1.351   3.984   1.031  1.00  0.00     0.121 C 
HETATM   20  O3  UNL     1      -2.484  -2.218  -0.480  1.00  0.00    -0.303 OA
HETATM   21  C19 UNL     1      -1.168  -2.700  -0.451  1.00  0.00     0.276 A 
ENDROOT
BRANCH  16  22
HETATM   22  O2  UNL     1       1.788  -3.522   0.137  1.00  0.00    -0.330 OA
HETATM   23  C17 UNL     1       0.769  -4.484   0.159  1.00  0.00     0.181 C 
ENDBRANCH  16  22
TORSDOF 1
