REMARK  4 active torsions:
REMARK  status: ('A' for Active; 'I' for Inactive)
REMARK    1  A    between atoms: C11_12  and  O2_19 
REMARK    2  A    between atoms: O2_19  and  C18_20 
REMARK    3  A    between atoms: C18_20  and  C19_21 
REMARK    4  A    between atoms: C19_21  and  C20_22 
ROOT
HETATM    1  C1  UNL     1      -2.496   4.038  -0.746  1.00  0.00     0.134 A 
HETATM    2  C2  UNL     1      -3.881   3.876  -0.764  1.00  0.00     0.030 A 
HETATM    3  C3  UNL     1      -4.431   2.598  -0.787  1.00  0.00     0.030 A 
HETATM    4  C4  UNL     1      -3.596   1.480  -0.793  1.00  0.00     0.133 A 
HETATM    5  C5  UNL     1      -2.200   1.629  -0.775  1.00  0.00     0.053 A 
HETATM    6  C6  UNL     1      -1.644   2.922  -0.751  1.00  0.00     0.068 A 
HETATM    7  C7  UNL     1      -0.148   3.141  -0.732  1.00  0.00     0.198 A 
HETATM    8  C8  UNL     1       0.675   1.887  -0.739  1.00  0.00     0.042 A 
HETATM    9  C9  UNL     1       0.146   0.656  -0.762  1.00  0.00     0.029 A 
HETATM   10  C10 UNL     1      -1.331   0.392  -0.782  1.00  0.00     0.100 A 
HETATM   11  O1  UNL     1      -1.791  -0.725  -0.802  1.00  0.00    -0.312 OA
HETATM   12  C11 UNL     1       1.076  -0.516  -0.767  1.00  0.00     0.128 A 
HETATM   13  C12 UNL     1       0.267  -1.806  -0.793  1.00  0.00     0.083 A 
HETATM   14  C13 UNL     1      -1.194  -1.480  -0.805  1.00  0.00     0.072 A 
HETATM   15  C14 UNL     1      -2.099  -2.463  -0.829  1.00  0.00    -0.025 C 
HETATM   16  C15 UNL     1      -3.560  -2.137  -0.841  1.00  0.00     0.028 C 
HETATM   17  C16 UNL     1      -1.651  -3.892  -0.843  1.00  0.00     0.028 C 
HETATM   18  C17 UNL     1       1.969  -0.451  -1.999  1.00  0.00     0.035 C 
HETATM   19  O4  UNL     1       0.346   4.243  -0.711  1.00  0.00    -0.286 OA
HETATM   20  O5  UNL     1      -4.138   0.239  -0.816  1.00  0.00    -0.190 OA
HETATM   21  O6  UNL     1      -1.967   5.285  -0.723  1.00  0.00    -0.190 OA
ENDROOT
BRANCH  12  22
HETATM   22  O2  UNL     1       1.872  -0.488   0.387  1.00  0.00    -0.302 OA
BRANCH  22  23
HETATM   23  C18 UNL     1       2.672   0.558   0.623  1.00  0.00     0.272 C 
HETATM   24  O3  UNL     1       2.710   1.478  -0.159  1.00  0.00    -0.264 OA
BRANCH  23  25
HETATM   25  C19 UNL     1       3.529   0.588   1.865  1.00  0.00     0.096 C 
BRANCH  25  26
HETATM   26  C20 UNL     1       3.296  -0.681   2.674  1.00  0.00     0.010 C 
HETATM   27  C21 UNL     1       3.666  -1.895   1.833  1.00  0.00     0.001 C 
HETATM   28  C22 UNL     1       4.161  -0.649   3.927  1.00  0.00     0.001 C 
ENDBRANCH  25  26
ENDBRANCH  23  25
ENDBRANCH  22  23
ENDBRANCH  12  22
TORSDOF 4
