REMARK  5 active torsions:
REMARK  status: ('A' for Active; 'I' for Inactive)
REMARK    1  A    between atoms: C9_11  and  C22_26 
REMARK    2  A    between atoms: C16_18  and  C18_22 
REMARK    3  A    between atoms: C18_22  and  C19_23 
REMARK    4  A    between atoms: C19_23  and  C20_24 
REMARK    5  A    between atoms: C22_26  and  C23_27 
ROOT
HETATM    1  C1  UNL     1      -5.282   0.777  -0.679  1.00  0.00     0.005 C 
HETATM    2  C2  UNL     1      -5.038   1.278  -2.111  1.00  0.00     0.005 C 
HETATM    3  C3  UNL     1      -3.919   0.472  -2.792  1.00  0.00     0.031 C 
HETATM    4  C4  UNL     1      -2.759   0.303  -1.860  1.00  0.00     0.035 A 
HETATM    5  C5  UNL     1      -2.810   0.510  -0.540  1.00  0.00    -0.018 A 
HETATM    6  C6  UNL     1      -4.031   0.978   0.192  1.00  0.00     0.024 C 
HETATM    7  C7  UNL     1      -1.458   0.243   0.053  1.00  0.00     0.120 A 
HETATM    8  O1  UNL     1      -0.660  -0.131  -1.042  1.00  0.00    -0.299 OA
HETATM    9  C8  UNL     1      -1.490  -0.080  -2.128  1.00  0.00     0.291 A 
HETATM   10  O2  UNL     1      -1.113  -0.358  -3.246  1.00  0.00    -0.260 OA
HETATM   11  C9  UNL     1      -1.398  -0.761   1.220  1.00  0.00     0.030 A 
HETATM   12  C10 UNL     1      -0.697   0.342   2.062  1.00  0.00     0.010 A 
HETATM   13  C11 UNL     1      -0.830   1.363   0.902  1.00  0.00     0.057 A 
HETATM   14  C12 UNL     1       0.472   1.876   0.382  1.00  0.00     0.042 A 
HETATM   15  C13 UNL     1       1.683   1.370   0.644  1.00  0.00     0.002 A 
HETATM   16  C14 UNL     1       1.867   0.219   1.588  1.00  0.00     0.028 C 
HETATM   17  C15 UNL     1       0.720   0.142   2.606  1.00  0.00     0.005 C 
HETATM   18  C16 UNL     1       2.583   2.054  -0.090  1.00  0.00     0.095 A 
HETATM   19  O3  UNL     1       2.045   2.954  -0.742  1.00  0.00    -0.274 OA
HETATM   20  C17 UNL     1       0.655   2.864  -0.518  1.00  0.00     0.296 A 
HETATM   21  O4  UNL     1      -0.197   3.534  -1.049  1.00  0.00    -0.259 OA
ENDROOT
BRANCH  11  22
HETATM   22  C22 UNL     1      -0.686  -2.098   1.009  1.00  0.00     0.003 C 
BRANCH  22  23
HETATM   23  C23 UNL     1      -1.545  -3.076   0.191  1.00  0.00     0.000 C 
HETATM   24  C24 UNL     1      -0.808  -4.396  -0.075  1.00  0.00     0.000 C 
ENDBRANCH  22  23
ENDBRANCH  11  22
BRANCH  18  25
HETATM   25  C18 UNL     1       3.911   1.879  -0.205  1.00  0.00    -0.002 C 
BRANCH  25  26
HETATM   26  C19 UNL     1       4.766   0.829   0.457  1.00  0.00     0.028 C 
BRANCH  26  27
HETATM   27  C20 UNL     1       6.145   0.686  -0.208  1.00  0.00     0.005 C 
HETATM   28  C21 UNL     1       6.990  -0.406   0.465  1.00  0.00     0.000 C 
ENDBRANCH  26  27
ENDBRANCH  25  26
ENDBRANCH  18  25
TORSDOF 5
