REMARK  0 active torsions:
REMARK  status: ('A' for Active; 'I' for Inactive)
ROOT
HETATM    1  C1  UNL     1       3.042  -1.003  -0.285  1.00  0.00     0.156 C 
HETATM    2  C2  UNL     1       2.967  -0.108   0.943  1.00  0.00     0.055 C 
HETATM    3  C3  UNL     1       1.792   0.842   0.894  1.00  0.00    -0.042 C 
HETATM    4  C4  UNL     1       0.672   0.500  -0.079  1.00  0.00     0.019 C 
HETATM    5  C5  UNL     1       0.433  -1.030  -0.117  1.00  0.00     0.008 C 
HETATM    6  C6  UNL     1       1.741  -1.774  -0.518  1.00  0.00     0.034 C 
HETATM    7  C7  UNL     1      -0.641  -1.345  -1.185  1.00  0.00     0.031 C 
HETATM    8  C8  UNL     1      -1.943  -0.555  -1.100  1.00  0.00     0.129 C 
HETATM    9  C9  UNL     1      -1.755   0.947  -0.844  1.00  0.00     0.056 C 
HETATM   10  C10 UNL     1      -0.633   1.281   0.153  1.00  0.00     0.011 C 
HETATM   11  C11 UNL     1      -3.077   1.275  -0.207  1.00  0.00     0.043 C 
HETATM   12  C12 UNL     1      -3.561  -0.016   0.313  1.00  0.00     0.292 C 
HETATM   13  O1  UNL     1      -2.848  -1.075  -0.156  1.00  0.00    -0.301 OA
HETATM   14  O2  UNL     1      -4.488  -0.130   1.109  1.00  0.00    -0.260 OA
HETATM   15  C13 UNL     1      -3.689   2.463  -0.080  1.00  0.00     0.001 C 
HETATM   16  C14 UNL     1      -0.039  -1.569   1.254  1.00  0.00     0.001 C 
HETATM   17  C15 UNL     1       1.799   1.923   1.692  1.00  0.00    -0.009 C 
HETATM   18  O3  UNL     1       3.355  -0.221  -1.416  1.00  0.00    -0.223 OA
ENDROOT
TORSDOF 0
