REMARK  3 active torsions:
REMARK  status: ('A' for Active; 'I' for Inactive)
REMARK    1  A    between atoms: C2_2  and  C7_9 
REMARK    2  A    between atoms: C7_9  and  C8_10 
REMARK    3  A    between atoms: C8_10  and  O3_11 
ROOT
HETATM    1  C1  UNL     1      -1.256  -0.080  -0.976  1.00  0.00     0.011 A 
HETATM    2  C2  UNL     1       0.174  -0.483  -1.301  1.00  0.00     0.173 A 
HETATM    3  C3  UNL     1       1.154   0.681  -1.310  1.00  0.00     0.011 A 
HETATM    4  C4  UNL     1       0.773   1.951  -1.060  1.00  0.00     0.040 A 
HETATM    5  C5  UNL     1      -0.625   2.281  -0.758  1.00  0.00     0.195 A 
HETATM    6  C6  UNL     1      -1.613   1.195  -0.728  1.00  0.00     0.040 A 
HETATM    7  O1  UNL     1      -0.955   3.422  -0.539  1.00  0.00    -0.287 OA
HETATM    8  O2  UNL     1       0.182  -1.069  -2.584  1.00  0.00    -0.216 OA
ENDROOT
BRANCH   2   9
HETATM    9  C7  UNL     1       0.650  -1.559  -0.324  1.00  0.00     0.135 C 
BRANCH   9  10
HETATM   10  C8  UNL     1       0.703  -1.063   1.096  1.00  0.00     0.275 C 
HETATM   11  O4  UNL     1       1.697  -0.535   1.535  1.00  0.00    -0.264 OA
BRANCH  10  12
HETATM   12  O3  UNL     1      -0.408  -1.250   1.801  1.00  0.00    -0.299 OA
HETATM   13  C9  UNL     1      -0.293  -0.766   3.131  1.00  0.00     0.184 C 
ENDBRANCH  10  12
ENDBRANCH   9  10
ENDBRANCH   2   9
TORSDOF 3
