REMARK  0 active torsions:
REMARK  status: ('A' for Active; 'I' for Inactive)
ROOT
HETATM    1  C1  UNL     1      -2.498   0.361   1.012  1.00  0.00     0.268 A 
HETATM    2  C2  UNL     1      -2.570   1.385  -0.098  1.00  0.00     0.017 A 
HETATM    3  C3  UNL     1      -3.830   1.590  -0.486  1.00  0.00     0.005 A 
HETATM    4  C4  UNL     1      -4.767   0.756   0.328  1.00  0.00     0.276 A 
HETATM    5  N1  UNL     1      -3.902  -0.060   1.205  1.00  0.00     0.146 N 
HETATM    6  C5  UNL     1      -3.939  -1.498   0.916  1.00  0.00     0.254 C 
HETATM    7  C6  UNL     1      -2.730  -1.807   0.045  1.00  0.00     0.068 C 
HETATM    8  C7  UNL     1      -1.703  -0.928   0.754  1.00  0.00     0.162 C 
HETATM    9  O1  UNL     1      -0.529  -0.711  -0.033  1.00  0.00    -0.300 OA
HETATM   10  C8  UNL     1       0.320  -1.746  -0.162  1.00  0.00     0.299 C 
HETATM   11  C9  UNL     1       1.662  -1.486  -0.844  1.00  0.00     0.195 A 
HETATM   12  C10 UNL     1       2.166  -0.043  -0.963  1.00  0.00     0.043 C 
HETATM   13  C11 UNL     1       2.328   0.676   0.402  1.00  0.00     0.040 C 
HETATM   14  C12 UNL     1       2.211   2.221   0.295  1.00  0.00     0.203 C 
HETATM   15  C13 UNL     1       0.877   2.623  -0.314  1.00  0.00     0.300 C 
HETATM   16  O2  UNL     1      -0.217   1.961   0.100  1.00  0.00    -0.295 OA
HETATM   17  C14 UNL     1      -1.389   2.108  -0.701  1.00  0.00     0.176 C 
HETATM   18  O3  UNL     1       0.838   3.504  -1.146  1.00  0.00    -0.262 OA
HETATM   19  O4  UNL     1       3.285   2.693  -0.500  1.00  0.00    -0.216 OA
HETATM   20  C15 UNL     1       2.358   2.897   1.660  1.00  0.00     0.043 C 
HETATM   21  C16 UNL     1       3.625   0.242   1.106  1.00  0.00     0.003 C 
HETATM   22  C17 UNL     1       2.389  -2.619  -1.656  1.00  0.00     0.150 A 
HETATM   23  O5  UNL     1       2.670  -2.303  -0.332  1.00  0.00    -0.347 OA
HETATM   24  C18 UNL     1       1.889  -4.057  -1.707  1.00  0.00     0.035 C 
HETATM   25  O6  UNL     1       0.059  -2.859   0.240  1.00  0.00    -0.262 OA
ENDROOT
TORSDOF 0
