REMARK  3 active torsions:
REMARK  status: ('A' for Active; 'I' for Inactive)
REMARK    1  A    between atoms: C1_1  and  O3_21 
REMARK    2  A    between atoms: C2_2  and  C12_15 
REMARK    3  A    between atoms: C7_9  and  O2_12 
ROOT
HETATM    1  C1  UNL     1       1.182  -1.270  -0.033  1.00  0.00     0.149 A 
HETATM    2  C2  UNL     1       1.062   0.065  -0.252  1.00  0.00     0.086 A 
HETATM    3  N1  UNL     1      -0.178   0.703  -0.272  1.00  0.00    -0.324 N 
HETATM    4  C3  UNL     1      -1.348   0.018  -0.066  1.00  0.00     0.063 A 
HETATM    5  C4  UNL     1      -1.320  -1.391   0.172  1.00  0.00     0.059 A 
HETATM    6  C5  UNL     1      -0.018  -2.107   0.195  1.00  0.00     0.221 A 
HETATM    7  O1  UNL     1       0.160  -3.291   0.379  1.00  0.00    -0.284 OA
HETATM    8  C6  UNL     1      -2.522  -2.113   0.387  1.00  0.00     0.029 A 
HETATM    9  C7  UNL     1      -3.764  -1.439   0.367  1.00  0.00     0.094 A 
HETATM   10  C8  UNL     1      -3.809  -0.049   0.133  1.00  0.00     0.026 A 
HETATM   11  C9  UNL     1      -2.613   0.674  -0.084  1.00  0.00     0.019 A 
HETATM   12  C11 UNL     1      -0.211   2.168  -0.520  1.00  0.00     0.131 C 
ENDROOT
BRANCH   2  13
HETATM   13  C12 UNL     1       2.309   0.856  -0.477  1.00  0.00     0.018 A 
HETATM   14  C13 UNL     1       3.166   0.531  -1.545  1.00  0.00     0.002 A 
HETATM   15  C14 UNL     1       4.340   1.275  -1.756  1.00  0.00     0.000 A 
HETATM   16  C15 UNL     1       4.656   2.346  -0.900  1.00  0.00     0.000 A 
HETATM   17  C16 UNL     1       3.803   2.670   0.166  1.00  0.00     0.000 A 
HETATM   18  C17 UNL     1       2.629   1.926   0.379  1.00  0.00     0.002 A 
ENDBRANCH   2  13
BRANCH   1  19
HETATM   19  O3  UNL     1       2.379  -1.859  -0.018  1.00  0.00    -0.324 OA
HETATM   20  C18 UNL     1       2.842  -2.109   1.301  1.00  0.00     0.182 C 
ENDBRANCH   1  19
BRANCH   9  21
HETATM   21  O2  UNL     1      -4.899  -2.123   0.572  1.00  0.00    -0.328 OA
HETATM   22  C10 UNL     1      -6.123  -1.404   0.545  1.00  0.00     0.181 C 
ENDBRANCH   9  21
TORSDOF 3
