REMARK  1 active torsions:
REMARK  status: ('A' for Active; 'I' for Inactive)
REMARK    1  A    between atoms: C9_9  and  C11_11 
ROOT
HETATM    1  C1  UNL     1      -3.408   1.080  -0.900  1.00  0.00     0.004 C 
HETATM    2  C2  UNL     1      -3.389  -0.445  -0.705  1.00  0.00     0.001 C 
HETATM    3  C3  UNL     1      -2.049  -0.998  -0.164  1.00  0.00     0.003 C 
HETATM    4  C4  UNL     1      -0.840  -0.070  -0.447  1.00  0.00     0.015 C 
HETATM    5  C5  UNL     1      -1.121   1.295   0.176  1.00  0.00    -0.049 C 
HETATM    6  C6  UNL     1      -2.541   1.822   0.121  1.00  0.00     0.022 C 
HETATM    7  C7  UNL     1      -0.162   2.035   0.776  1.00  0.00    -0.035 C 
HETATM    8  C8  UNL     1       1.266   1.561   0.942  1.00  0.00     0.028 C 
HETATM    9  C9  UNL     1       1.619   0.328   0.098  1.00  0.00     0.033 C 
HETATM   10  C10 UNL     1       0.459  -0.678   0.133  1.00  0.00     0.006 C 
HETATM   11  C14 UNL     1      -0.662   0.117  -1.961  1.00  0.00     0.004 C 
HETATM   12  C15 UNL     1      -1.818  -2.434  -0.654  1.00  0.00     0.000 C 
ENDROOT
BRANCH   9  13
HETATM   13  C11 UNL     1       2.932  -0.309   0.561  1.00  0.00     0.127 C 
HETATM   14  C12 UNL     1       4.063   0.711   0.707  1.00  0.00     0.033 C 
HETATM   15  O1  UNL     1       3.236  -1.150  -0.527  1.00  0.00    -0.226 OA
HETATM   16  C13 UNL     1       2.760  -1.178   1.807  1.00  0.00     0.033 C 
ENDBRANCH   9  13
TORSDOF 1
