REMARK  0 active torsions:
REMARK  status: ('A' for Active; 'I' for Inactive)
ROOT
HETATM    1  C1  UNL     1      -2.131   0.143  -0.852  1.00  0.00     0.000 C 
HETATM    2  C2  UNL     1      -2.592  -0.574   0.412  1.00  0.00     0.000 C 
HETATM    3  C3  UNL     1      -1.650  -1.769   0.449  1.00  0.00     0.000 C 
HETATM    4  C4  UNL     1      -0.291  -1.148   0.092  1.00  0.00     0.000 C 
HETATM    5  C5  UNL     1      -0.598   0.096  -0.789  1.00  0.00     0.002 C 
HETATM    6  C6  UNL     1       0.076   1.401  -0.289  1.00  0.00     0.026 C 
HETATM    7  C7  UNL     1       1.596   1.114  -0.008  1.00  0.00     0.127 C 
HETATM    8  C8  UNL     1       1.873  -0.334   0.502  1.00  0.00     0.028 C 
HETATM    9  C9  UNL     1       0.656  -0.853   1.269  1.00  0.00     0.002 C 
HETATM   10  C10 UNL     1       1.986  -1.420  -0.590  1.00  0.00     0.002 C 
HETATM   11  C11 UNL     1       0.629  -2.117  -0.656  1.00  0.00     0.000 C 
HETATM   12  C12 UNL     1       2.502   1.403  -1.215  1.00  0.00     0.033 C 
HETATM   13  O1  UNL     1       2.059   2.016   0.982  1.00  0.00    -0.226 OA
HETATM   14  C13 UNL     1      -0.693   1.901   0.949  1.00  0.00     0.002 C 
HETATM   15  C14 UNL     1      -0.115   2.448  -1.399  1.00  0.00     0.002 C 
HETATM   16  C15 UNL     1      -1.717  -2.482   1.799  1.00  0.00     0.000 C 
ENDROOT
TORSDOF 0
