REMARK  2 active torsions:
REMARK  status: ('A' for Active; 'I' for Inactive)
REMARK    1  A    between atoms: C7_8  and  C8_9 
REMARK    2  A    between atoms: C8_9  and  C9_10 
ROOT
HETATM    1  C1  UNL     1      -0.830   0.113   0.420  1.00  0.00     0.005 A 
HETATM    2  C2  UNL     1      -0.863   1.467   0.367  1.00  0.00     0.033 A 
HETATM    3  C3  UNL     1      -2.205   1.852   0.408  1.00  0.00     0.121 A 
HETATM    4  O1  UNL     1      -3.014   0.740   0.488  1.00  0.00    -0.304 OA
HETATM    5  C4  UNL     1      -2.148  -0.332   0.494  1.00  0.00     0.118 A 
HETATM    6  C5  UNL     1       0.498   2.088   0.279  1.00  0.00     0.207 C 
HETATM    7  C6  UNL     1       1.439   0.842   0.506  1.00  0.00     0.191 C 
HETATM    8  C7  UNL     1       0.559  -0.453   0.379  1.00  0.00     0.060 C 
HETATM    9  O3  UNL     1       2.045   0.842   1.791  1.00  0.00    -0.220 OA
HETATM   10  O4  UNL     1       0.645   3.131   1.229  1.00  0.00    -0.216 OA
ENDROOT
BRANCH   8  11
HETATM   11  C8  UNL     1       0.811  -1.154  -0.951  1.00  0.00     0.043 C 
BRANCH  11  12
HETATM   12  C9  UNL     1       0.014  -2.457  -1.000  1.00  0.00     0.183 C 
HETATM   13  O2  UNL     1       0.357  -3.141  -2.184  1.00  0.00    -0.221 OA
ENDBRANCH  11  12
ENDBRANCH   8  11
TORSDOF 2
