REMARK  5 active torsions:
REMARK  status: ('A' for Active; 'I' for Inactive)
REMARK    1  A    between atoms: C7_8  and  C10_12 
REMARK    2  A    between atoms: C10_12  and  O3_13 
REMARK    3  A    between atoms: O3_13  and  C11_14 
REMARK    4  A    between atoms: C11_14  and  C12_16 
REMARK    5  A    between atoms: C17_22  and  C18_24 
ROOT
HETATM    1  C1  UNL     1       2.287  -0.238   0.217  1.00  0.00     0.094 A 
HETATM    2  C2  UNL     1       2.580  -1.202   1.088  1.00  0.00     0.028 A 
HETATM    3  C3  UNL     1       1.642  -1.984   1.645  1.00  0.00     0.134 A 
HETATM    4  C4  UNL     1       0.355  -1.763   1.277  1.00  0.00     0.087 A 
HETATM    5  C5  UNL     1       0.035  -0.784   0.393  1.00  0.00     0.107 A 
HETATM    6  C6  UNL     1       1.016  -0.022  -0.127  1.00  0.00     0.049 A 
HETATM    7  O1  UNL     1      -1.242  -0.516  -0.017  1.00  0.00    -0.308 OA
HETATM    8  C7  UNL     1      -2.214  -1.276   0.546  1.00  0.00     0.111 A 
HETATM    9  C8  UNL     1      -1.933  -2.251   1.422  1.00  0.00     0.065 A 
HETATM   10  C9  UNL     1      -0.657  -2.515   1.800  1.00  0.00     0.201 A 
HETATM   11  O2  UNL     1      -0.501  -3.411   2.598  1.00  0.00    -0.286 OA
HETATM   12  O5  UNL     1       2.065  -2.950   2.510  1.00  0.00    -0.190 OA
HETATM   13  C16 UNL     1       4.061  -1.250   1.325  1.00  0.00     0.063 C 
HETATM   14  C17 UNL     1       4.479  -0.201   0.270  1.00  0.00     0.154 C 
HETATM   15  O6  UNL     1       3.260   0.381  -0.204  1.00  0.00    -0.331 OA
ENDROOT
BRANCH   8  16
HETATM   16  C10 UNL     1      -3.638  -0.978   0.126  1.00  0.00     0.203 C 
BRANCH  16  17
HETATM   17  O3  UNL     1      -3.826   0.420   0.043  1.00  0.00    -0.292 OA
BRANCH  17  18
HETATM   18  C11 UNL     1      -5.082   0.893  -0.213  1.00  0.00     0.292 C 
HETATM   19  O4  UNL     1      -6.008   0.112  -0.266  1.00  0.00    -0.260 OA
BRANCH  18  20
HETATM   20  C12 UNL     1      -5.349   2.210  -0.446  1.00  0.00     0.037 C 
HETATM   21  C13 UNL     1      -6.779   2.627  -0.721  1.00  0.00     0.036 C 
HETATM   22  C14 UNL     1      -4.367   3.134  -0.434  1.00  0.00    -0.025 C 
HETATM   23  C15 UNL     1      -2.892   2.849  -0.179  1.00  0.00     0.030 C 
ENDBRANCH  18  20
ENDBRANCH  17  18
ENDBRANCH  16  17
ENDBRANCH   8  16
BRANCH  14  24
HETATM   24  C18 UNL     1       5.272  -0.774  -0.915  1.00  0.00     0.152 C 
HETATM   25  C19 UNL     1       6.662  -1.248  -0.482  1.00  0.00     0.036 C 
HETATM   26  C20 UNL     1       5.408   0.254  -2.042  1.00  0.00     0.036 C 
HETATM   27  O7  UNL     1       4.568  -1.874  -1.431  1.00  0.00    -0.224 OA
ENDBRANCH  14  24
TORSDOF 5
