REMARK  1 active torsions:
REMARK  status: ('A' for Active; 'I' for Inactive)
REMARK    1  A    between atoms: C7_7  and  O3_12 
ROOT
HETATM    1  C1  UNL     1       0.422   2.276  -0.115  1.00  0.00     0.170 C 
HETATM    2  C2  UNL     1      -1.127   2.365  -0.139  1.00  0.00     0.141 C 
HETATM    3  C3  UNL     1      -1.686   0.994   0.349  1.00  0.00     0.175 C 
HETATM    4  C4  UNL     1      -0.440   0.332   0.924  1.00  0.00     0.091 C 
HETATM    5  C5  UNL     1       0.619   0.766  -0.096  1.00  0.00     0.044 C 
HETATM    6  C6  UNL     1       1.906   0.045   0.299  1.00  0.00     0.064 C 
HETATM    7  C7  UNL     1       1.644  -1.486   0.199  1.00  0.00     0.237 C 
HETATM    8  O1  UNL     1       0.525  -1.896   0.996  1.00  0.00    -0.306 OA
HETATM    9  C8  UNL     1      -0.693  -1.162   0.844  1.00  0.00     0.240 C 
HETATM   10  O2  UNL     1      -1.381  -1.275  -0.379  1.00  0.00    -0.328 OA
HETATM   11  C9  UNL     1      -2.199  -0.137  -0.596  1.00  0.00     0.177 C 
HETATM   12  O4  UNL     1      -2.629   1.199   1.389  1.00  0.00    -0.222 OA
HETATM   13 CL1  UNL     1      -1.729   2.819  -1.764  1.00  0.00    -0.110 Cl
HETATM   14  O5  UNL     1       0.947   2.867   1.060  1.00  0.00    -0.222 OA
ENDROOT
BRANCH   7  15
HETATM   15  O3  UNL     1       1.500  -1.883  -1.151  1.00  0.00    -0.328 OA
HETATM   16  C10 UNL     1       1.408  -3.279  -1.313  1.00  0.00     0.177 C 
ENDBRANCH   7  15
TORSDOF 1
