REMARK  3 active torsions:
REMARK  status: ('A' for Active; 'I' for Inactive)
REMARK    1  A    between atoms: C3_3  and  C11_15 
REMARK    2  A    between atoms: C7_7  and  O3_12 
REMARK    3  A    between atoms: C8_9  and  O2_10 
ROOT
HETATM    1  C1  UNL     1      -1.604   2.231  -0.160  1.00  0.00     0.182 C 
HETATM    2  C2  UNL     1      -2.791   1.256  -0.121  1.00  0.00     0.173 A 
HETATM    3  C3  UNL     1      -2.243  -0.135   0.303  1.00  0.00     0.155 A 
HETATM    4  C4  UNL     1      -0.750   0.078   0.572  1.00  0.00     0.089 C 
HETATM    5  C5  UNL     1      -0.362   1.318  -0.264  1.00  0.00     0.045 C 
HETATM    6  C6  UNL     1       0.998   1.785   0.254  1.00  0.00     0.064 C 
HETATM    7  C7  UNL     1       1.996   0.619   0.035  1.00  0.00     0.237 C 
HETATM    8  O1  UNL     1       1.564  -0.570   0.701  1.00  0.00    -0.306 OA
HETATM    9  C8  UNL     1       0.267  -1.051   0.347  1.00  0.00     0.240 C 
HETATM   10  O4  UNL     1      -2.666   0.168  -0.994  1.00  0.00    -0.351 OA
HETATM   11  O6  UNL     1      -1.698   3.092  -1.278  1.00  0.00    -0.221 OA
ENDROOT
BRANCH   3  12
HETATM   12  C11 UNL     1      -3.108  -1.232   0.904  1.00  0.00     0.212 C 
HETATM   13  O5  UNL     1      -2.680  -2.469   0.381  1.00  0.00    -0.218 OA
ENDBRANCH   3  12
BRANCH   9  14
HETATM   14  O2  UNL     1       0.213  -1.535  -0.981  1.00  0.00    -0.328 OA
HETATM   15  C9  UNL     1       1.070  -2.631  -1.207  1.00  0.00     0.177 C 
ENDBRANCH   9  14
BRANCH   7  16
HETATM   16  O3  UNL     1       3.259   0.998   0.533  1.00  0.00    -0.328 OA
HETATM   17  C10 UNL     1       4.283   0.084   0.205  1.00  0.00     0.177 C 
ENDBRANCH   7  16
TORSDOF 3
