REMARK  7 active torsions:
REMARK  status: ('A' for Active; 'I' for Inactive)
REMARK    1  A    between atoms: C6_6  and  C21_32 
REMARK    2  A    between atoms: C8_9  and  O2_10 
REMARK    3  A    between atoms: O2_10  and  C9_11 
REMARK    4  A    between atoms: C10_13  and  C14_20 
REMARK    5  A    between atoms: C14_20  and  O7_21 
REMARK    6  A    between atoms: O7_21  and  C15_22 
REMARK    7  A    between atoms: C21_32  and  O12_33 
ROOT
HETATM    1  C9  UNL     1       1.107  -2.141   1.481  1.00  0.00     0.272 C 
HETATM    2  O3  UNL     1       0.658  -1.935   0.147  1.00  0.00    -0.326 OA
HETATM    3  C10 UNL     1       1.687  -1.893  -0.832  1.00  0.00     0.180 C 
HETATM    4  C11 UNL     1       2.432  -3.246  -0.855  1.00  0.00     0.215 C 
HETATM    5  C12 UNL     1       2.967  -3.617   0.547  1.00  0.00     0.220 C 
HETATM    6  C13 UNL     1       1.830  -3.506   1.588  1.00  0.00     0.241 C 
HETATM    7  O4  UNL     1       2.373  -3.646   2.891  1.00  0.00    -0.215 OA
HETATM    8  O5  UNL     1       3.476  -4.941   0.531  1.00  0.00    -0.218 OA
HETATM    9  O6  UNL     1       3.510  -3.156  -1.771  1.00  0.00    -0.218 OA
ENDROOT
BRANCH   1  10
HETATM   10  O2  UNL     1      -0.018  -2.105   2.338  1.00  0.00    -0.304 OA
BRANCH  10  11
HETATM   11  C8  UNL     1      -0.586  -0.818   2.457  1.00  0.00     0.246 C 
HETATM   12  C4  UNL     1      -1.860  -0.881   3.319  1.00  0.00     0.080 C 
HETATM   13  C3  UNL     1      -3.008  -1.594   2.654  1.00  0.00    -0.039 C 
HETATM   14  C5  UNL     1      -2.403   0.547   3.481  1.00  0.00     0.038 C 
HETATM   15  C2  UNL     1      -4.012  -0.621   2.113  1.00  0.00     0.022 C 
HETATM   16  C23 UNL     1      -3.127  -2.930   2.563  1.00  0.00    -0.009 C 
HETATM   17  C1  UNL     1      -3.315   0.733   2.254  1.00  0.00     0.009 C 
HETATM   18  C6  UNL     1      -1.328   1.606   3.617  1.00  0.00     0.065 C 
HETATM   19  C7  UNL     1      -0.035   1.281   3.408  1.00  0.00     0.120 C 
HETATM   20  O1  UNL     1       0.383   0.061   3.033  1.00  0.00    -0.303 OA
BRANCH  18  21
HETATM   21  C21 UNL     1      -1.723   2.973   3.992  1.00  0.00     0.294 C 
HETATM   22  O13 UNL     1      -2.862   3.213   4.320  1.00  0.00    -0.259 OA
BRANCH  21  23
HETATM   23  O12 UNL     1      -0.758   3.887   3.944  1.00  0.00    -0.296 OA
HETATM   24  C22 UNL     1      -1.219   5.178   4.313  1.00  0.00     0.185 C 
ENDBRANCH  21  23
ENDBRANCH  18  21
ENDBRANCH  10  11
ENDBRANCH   1  10
BRANCH   3  25
HETATM   25  C14 UNL     1       1.012  -1.560  -2.166  1.00  0.00     0.177 C 
BRANCH  25  26
HETATM   26  O7  UNL     1       0.484  -0.256  -2.082  1.00  0.00    -0.326 OA
BRANCH  26  27
HETATM   27  C15 UNL     1      -0.221   0.137  -3.244  1.00  0.00     0.270 C 
HETATM   28  O8  UNL     1       0.631   0.180  -4.391  1.00  0.00    -0.329 OA
HETATM   29  C16 UNL     1       1.666   1.160  -4.367  1.00  0.00     0.151 C 
HETATM   30  C17 UNL     1       1.053   2.574  -4.225  1.00  0.00     0.212 C 
HETATM   31  C20 UNL     1       2.463   0.988  -5.664  1.00  0.00     0.035 C 
HETATM   32  C18 UNL     1       0.133   2.658  -2.986  1.00  0.00     0.220 C 
HETATM   33  O11 UNL     1       2.105   3.516  -4.107  1.00  0.00    -0.218 OA
HETATM   34  C19 UNL     1      -0.904   1.508  -3.008  1.00  0.00     0.241 C 
HETATM   35  O10 UNL     1      -0.510   3.920  -2.908  1.00  0.00    -0.218 OA
HETATM   36  O9  UNL     1      -1.861   1.711  -4.037  1.00  0.00    -0.215 OA
ENDBRANCH  26  27
ENDBRANCH  25  26
ENDBRANCH   3  25
TORSDOF 7
