REMARK  11 active torsions:
REMARK  status: ('A' for Active; 'I' for Inactive)
REMARK    1  A    between atoms: C1_2  and  C29_41 
REMARK    2  A    between atoms: C2_3  and  O9_28 
REMARK    3  A    between atoms: C3_4  and  O4_17 
REMARK    4  A    between atoms: C5_6  and  O2_7 
REMARK    5  A    between atoms: O2_7  and  C6_8 
REMARK    6  A    between atoms: C6_8  and  C7_9 
REMARK    7  A    between atoms: C7_9  and  C8_10 
REMARK    8  A    between atoms: O4_17  and  C14_18 
REMARK    9  A    between atoms: O9_28  and  C20_29 
REMARK   10  A    between atoms: C20_29  and  C21_30 
REMARK   11  A    between atoms: C22_31  and  C23_32 
ROOT
HETATM    1  O1  UNL     1       1.065   2.244  -1.538  1.00  0.00    -0.326 OA
HETATM    2  C1  UNL     1       1.770   1.378  -0.684  1.00  0.00     0.181 C 
HETATM    3  C2  UNL     1       1.186  -0.043  -0.718  1.00  0.00     0.184 C 
HETATM    4  C3  UNL     1      -0.323  -0.033  -0.457  1.00  0.00     0.183 C 
HETATM    5  C4  UNL     1      -0.927   0.943  -1.455  1.00  0.00     0.238 C 
HETATM    6  C5  UNL     1      -0.310   2.302  -1.244  1.00  0.00     0.270 C 
HETATM    7  O3  UNL     1      -2.318   1.063  -1.291  1.00  0.00    -0.215 OA
ENDROOT
BRANCH   3   8
HETATM    8  O9  UNL     1       1.788  -0.840   0.268  1.00  0.00    -0.296 OA
BRANCH   8   9
HETATM    9  C20 UNL     1       2.614  -1.868  -0.094  1.00  0.00     0.296 C 
HETATM   10  O12 UNL     1       2.786  -2.166  -1.274  1.00  0.00    -0.259 OA
BRANCH   9  11
HETATM   11  C21 UNL     1       3.389  -2.595   0.941  1.00  0.00     0.068 C 
HETATM   12  C22 UNL     1       4.186  -3.655   0.658  1.00  0.00     0.005 C 
BRANCH  12  13
HETATM   13  C23 UNL     1       4.980  -4.418   1.633  1.00  0.00     0.002 A 
HETATM   14  C24 UNL     1       5.608  -5.601   1.209  1.00  0.00     0.002 A 
HETATM   15  C25 UNL     1       6.388  -6.349   2.088  1.00  0.00     0.029 A 
HETATM   16  C26 UNL     1       6.576  -5.943   3.412  1.00  0.00     0.156 A 
HETATM   17  C27 UNL     1       5.970  -4.760   3.849  1.00  0.00     0.156 A 
HETATM   18  O11 UNL     1       7.337  -6.660   4.281  1.00  0.00    -0.188 OA
HETATM   19  C28 UNL     1       5.188  -4.015   2.961  1.00  0.00     0.029 A 
HETATM   20  O10 UNL     1       6.156  -4.348   5.130  1.00  0.00    -0.188 OA
ENDBRANCH  12  13
ENDBRANCH   9  11
ENDBRANCH   8   9
ENDBRANCH   3   8
BRANCH   2  21
HETATM   21  C29 UNL     1       3.228   1.425  -1.137  1.00  0.00     0.214 C 
HETATM   22  O13 UNL     1       4.071   0.771  -0.211  1.00  0.00    -0.218 OA
ENDBRANCH   2  21
BRANCH   4  23
HETATM   23  O4  UNL     1      -0.836  -1.319  -0.672  1.00  0.00    -0.326 OA
BRANCH  23  24
HETATM   24  C14 UNL     1      -2.031  -1.594   0.033  1.00  0.00     0.270 C 
HETATM   25  O5  UNL     1      -1.631  -2.318   1.173  1.00  0.00    -0.329 OA
HETATM   26  C15 UNL     1      -2.704  -2.677   2.002  1.00  0.00     0.151 C 
HETATM   27  C16 UNL     1      -3.790  -3.449   1.253  1.00  0.00     0.212 C 
HETATM   28  C19 UNL     1      -3.224  -1.479   2.802  1.00  0.00     0.035 C 
HETATM   29  C17 UNL     1      -4.161  -2.857  -0.096  1.00  0.00     0.220 C 
HETATM   30  O8  UNL     1      -3.345  -4.769   1.035  1.00  0.00    -0.218 OA
HETATM   31  C18 UNL     1      -2.917  -2.440  -0.848  1.00  0.00     0.241 C 
HETATM   32  O7  UNL     1      -4.972  -1.720   0.075  1.00  0.00    -0.218 OA
HETATM   33  O6  UNL     1      -3.306  -1.676  -1.964  1.00  0.00    -0.215 OA
ENDBRANCH  23  24
ENDBRANCH   4  23
BRANCH   6  34
HETATM   34  O2  UNL     1      -0.875   3.178  -2.197  1.00  0.00    -0.329 OA
BRANCH  34  35
HETATM   35  C6  UNL     1      -1.165   4.454  -1.684  1.00  0.00     0.150 C 
BRANCH  35  36
HETATM   36  C7  UNL     1      -1.818   5.282  -2.791  1.00  0.00     0.059 C 
BRANCH  36  37
HETATM   37  C8  UNL     1      -2.445   6.594  -2.368  1.00  0.00    -0.020 A 
HETATM   38  C9  UNL     1      -3.328   7.237  -3.246  1.00  0.00    -0.004 A 
HETATM   39  C10 UNL     1      -3.954   8.436  -2.901  1.00  0.00    -0.000 A 
HETATM   40  C11 UNL     1      -3.704   9.019  -1.659  1.00  0.00    -0.000 A 
HETATM   41  C12 UNL     1      -2.824   8.396  -0.773  1.00  0.00    -0.000 A 
HETATM   42  C13 UNL     1      -2.201   7.197  -1.127  1.00  0.00    -0.004 A 
ENDBRANCH  36  37
ENDBRANCH  35  36
ENDBRANCH  34  35
ENDBRANCH   6  34
TORSDOF 11
