REMARK  0 active torsions:
REMARK  status: ('A' for Active; 'I' for Inactive)
ROOT
HETATM    1  C1  UNL     1       2.988   1.209   0.762  1.00  0.00     0.003 C 
HETATM    2  C2  UNL     1       3.158   0.051  -0.223  1.00  0.00     0.030 C 
HETATM    3  C3  UNL     1       1.957  -0.924  -0.180  1.00  0.00     0.127 C 
HETATM    4  C4  UNL     1       0.625  -0.219   0.242  1.00  0.00     0.032 C 
HETATM    5  C5  UNL     1       0.572   1.270  -0.207  1.00  0.00     0.003 C 
HETATM    6  C6  UNL     1       1.750   2.061   0.430  1.00  0.00     0.000 C 
HETATM    7  C7  UNL     1      -0.758   1.920   0.240  1.00  0.00     0.004 C 
HETATM    8  C8  UNL     1      -2.006   1.156  -0.221  1.00  0.00     0.021 C 
HETATM    9  C9  UNL     1      -1.918  -0.301   0.162  1.00  0.00    -0.052 C 
HETATM   10  C10 UNL     1      -0.633  -1.016  -0.184  1.00  0.00     0.024 C 
HETATM   11  C11 UNL     1      -2.930  -0.930   0.785  1.00  0.00    -0.051 C 
HETATM   12  C12 UNL     1      -2.705  -2.330   1.287  1.00  0.00     0.026 C 
HETATM   13  C13 UNL     1      -4.236  -0.201   0.947  1.00  0.00     0.026 C 
HETATM   14  C14 UNL     1       0.674   1.346  -1.740  1.00  0.00     0.000 C 
HETATM   15  C15 UNL     1       1.857  -1.670  -1.518  1.00  0.00     0.033 C 
HETATM   16  O1  UNL     1       2.238  -1.922   0.785  1.00  0.00    -0.226 OA
ENDROOT
TORSDOF 0
