REMARK  2 active torsions:
REMARK  status: ('A' for Active; 'I' for Inactive)
REMARK    1  A    between atoms: C7_7  and  C14_17 
REMARK    2  A    between atoms: C10_10  and  O1_11 
ROOT
HETATM    1  C1  UNL     1       2.875   0.902   0.842  1.00  0.00     0.119 A 
HETATM    2  C2  UNL     1       2.615   2.096   1.518  1.00  0.00     0.119 A 
HETATM    3  C3  UNL     1       1.273   2.490   1.746  1.00  0.00     0.028 A 
HETATM    4  C4  UNL     1       0.176   1.707   1.301  1.00  0.00     0.025 A 
HETATM    5  C5  UNL     1       0.443   0.488   0.605  1.00  0.00     0.004 A 
HETATM    6  C6  UNL     1       1.795   0.105   0.389  1.00  0.00     0.026 A 
HETATM    7  C7  UNL     1      -0.648  -0.307   0.150  1.00  0.00    -0.001 A 
HETATM    8  C8  UNL     1      -1.980   0.109   0.387  1.00  0.00     0.015 A 
HETATM    9  C9  UNL     1      -2.207   1.293   1.064  1.00  0.00     0.084 A 
HETATM   10  C10 UNL     1      -1.166   2.129   1.543  1.00  0.00     0.099 A 
HETATM   11  C12 UNL     1      -3.637   1.516   1.193  1.00  0.00     0.298 A 
HETATM   12  O2  UNL     1      -4.293   0.488   0.603  1.00  0.00    -0.293 OA
HETATM   13  C13 UNL     1      -3.342  -0.471   0.051  1.00  0.00     0.179 A 
HETATM   14  O3  UNL     1      -4.127   2.475   1.744  1.00  0.00    -0.259 OA
HETATM   15  O6  UNL     1       3.772   2.672   1.844  1.00  0.00    -0.300 OA
HETATM   16  C21 UNL     1       4.861   1.850   1.373  1.00  0.00     0.304 A 
HETATM   17  O7  UNL     1       4.193   0.734   0.744  1.00  0.00    -0.300 OA
ENDROOT
BRANCH   7  18
HETATM   18  C14 UNL     1      -0.453  -1.565  -0.567  1.00  0.00     0.002 A 
HETATM   19  C15 UNL     1      -0.709  -2.793   0.076  1.00  0.00     0.002 A 
HETATM   20  C16 UNL     1      -0.512  -3.992  -0.641  1.00  0.00     0.026 A 
HETATM   21  C17 UNL     1      -0.063  -3.985  -1.986  1.00  0.00     0.119 A 
HETATM   22  C18 UNL     1       0.188  -2.764  -2.621  1.00  0.00     0.119 A 
HETATM   23  O5  UNL     1       0.189  -4.977  -2.840  1.00  0.00    -0.300 OA
HETATM   24  C19 UNL     1      -0.010  -1.553  -1.908  1.00  0.00     0.026 A 
HETATM   25  O4  UNL     1       0.596  -2.996  -3.869  1.00  0.00    -0.300 OA
HETATM   26  C20 UNL     1       0.631  -4.422  -4.100  1.00  0.00     0.304 A 
ENDBRANCH   7  18
BRANCH  10  27
HETATM   27  O1  UNL     1      -1.326   3.285   2.207  1.00  0.00    -0.328 OA
HETATM   28  C11 UNL     1      -1.516   4.469   1.445  1.00  0.00     0.181 C 
ENDBRANCH  10  27
TORSDOF 2
