REMARK  2 active torsions:
REMARK  status: ('A' for Active; 'I' for Inactive)
REMARK    1  A    between atoms: C13_14  and  C16_18 
REMARK    2  A    between atoms: C14_15  and  O2_16 
ROOT
HETATM    1  C1  UNL     1       4.477   0.174   0.664  1.00  0.00     0.002 A 
HETATM    2  C2  UNL     1       4.428  -1.228   0.793  1.00  0.00     0.028 A 
HETATM    3  C3  UNL     1       3.188  -1.904   0.727  1.00  0.00     0.134 A 
HETATM    4  C4  UNL     1       1.977  -1.178   0.524  1.00  0.00     0.067 A 
HETATM    5  C5  UNL     1       2.031   0.242   0.393  1.00  0.00     0.044 A 
HETATM    6  C6  UNL     1       3.287   0.902   0.465  1.00  0.00     0.003 A 
HETATM    7  C7  UNL     1       0.801   1.066   0.182  1.00  0.00     0.198 A 
HETATM    8  C8  UNL     1      -0.500   0.322   0.096  1.00  0.00     0.065 A 
HETATM    9  C9  UNL     1      -0.553  -1.098   0.225  1.00  0.00     0.046 A 
HETATM   10  C10 UNL     1       0.676  -1.920   0.453  1.00  0.00     0.198 A 
HETATM   11  O1  UNL     1       0.615  -3.125   0.572  1.00  0.00    -0.286 OA
HETATM   12  C11 UNL     1      -1.805  -1.762   0.137  1.00  0.00     0.031 A 
HETATM   13  C12 UNL     1      -2.996  -1.039  -0.078  1.00  0.00     0.136 A 
HETATM   14  C13 UNL     1      -2.947   0.367  -0.207  1.00  0.00     0.090 A 
HETATM   15  C14 UNL     1      -1.709   1.049  -0.119  1.00  0.00     0.102 A 
HETATM   16  O4  UNL     1      -4.164  -1.693  -0.160  1.00  0.00    -0.190 OA
HETATM   17  O5  UNL     1       0.859   2.272   0.084  1.00  0.00    -0.286 OA
HETATM   18  O6  UNL     1       3.184  -3.238   0.856  1.00  0.00    -0.190 OA
ENDROOT
BRANCH  14  19
HETATM   19  C16 UNL     1      -4.195   1.131  -0.434  1.00  0.00     0.238 C 
HETATM   20  O3  UNL     1      -5.244   0.746  -0.894  1.00  0.00    -0.283 OA
ENDBRANCH  14  19
BRANCH  15  21
HETATM   21  O2  UNL     1      -1.691   2.385  -0.244  1.00  0.00    -0.328 OA
HETATM   22  C15 UNL     1      -1.723   2.934  -1.553  1.00  0.00     0.181 C 
ENDBRANCH  15  21
TORSDOF 2
