REMARK  4 active torsions:
REMARK  status: ('A' for Active; 'I' for Inactive)
REMARK    1  A    between atoms: C2_2  and  C13_16 
REMARK    2  A    between atoms: C5_5  and  C10_12 
REMARK    3  A    between atoms: C7_7  and  O1_8 
REMARK    4  A    between atoms: C10_12  and  C11_13 
ROOT
HETATM    1  C1  UNL     1      -0.109  -1.303   0.201  1.00  0.00     0.036 C 
HETATM    2  C2  UNL     1       0.564   0.033   0.600  1.00  0.00     0.035 C 
HETATM    3  C3  UNL     1      -0.055   1.090  -0.350  1.00  0.00     0.099 C 
HETATM    4  C4  UNL     1      -1.258   1.736   0.312  1.00  0.00     0.172 C 
HETATM    5  C5  UNL     1      -2.469   0.898   0.445  1.00  0.00     0.015 C 
HETATM    6  C6  UNL     1      -2.475  -0.352  -0.061  1.00  0.00     0.002 C 
HETATM    7  C7  UNL     1      -1.233  -0.875  -0.772  1.00  0.00     0.140 C 
HETATM    8  C9  UNL     1      -0.545   0.268  -1.553  1.00  0.00     0.188 C 
HETATM    9  O2  UNL     1       0.543  -0.160  -2.361  1.00  0.00    -0.220 OA
HETATM   10  O3  UNL     1      -1.229   2.877   0.711  1.00  0.00    -0.292 OA
HETATM   11  C20 UNL     1      -0.615  -2.078   1.416  1.00  0.00     0.003 C 
ENDROOT
BRANCH   2  12
HETATM   12  C13 UNL     1       2.039  -0.023   0.514  1.00  0.00    -0.020 A 
HETATM   13  C14 UNL     1       2.787  -0.682   1.514  1.00  0.00     0.022 A 
HETATM   14  C15 UNL     1       4.203  -0.744   1.451  1.00  0.00     0.119 A 
HETATM   15  C16 UNL     1       4.871  -0.146   0.377  1.00  0.00     0.119 A 
HETATM   16  O5  UNL     1       5.100  -1.301   2.266  1.00  0.00    -0.300 OA
HETATM   17  C17 UNL     1       4.121   0.514  -0.629  1.00  0.00     0.026 A 
HETATM   18  O4  UNL     1       6.184  -0.330   0.525  1.00  0.00    -0.300 OA
HETATM   19  C18 UNL     1       2.711   0.580  -0.568  1.00  0.00    -0.002 A 
HETATM   20  C19 UNL     1       6.426  -1.072   1.740  1.00  0.00     0.304 A 
ENDBRANCH   2  12
BRANCH   7  21
HETATM   21  O1  UNL     1      -1.594  -1.945  -1.627  1.00  0.00    -0.350 OA
HETATM   22  C8  UNL     1      -2.516  -1.570  -2.627  1.00  0.00     0.175 C 
ENDBRANCH   7  21
BRANCH   5  23
HETATM   23  C10 UNL     1      -3.693   1.436   1.143  1.00  0.00     0.055 C 
BRANCH  23  24
HETATM   24  C11 UNL     1      -4.727   1.867   0.135  1.00  0.00    -0.021 C 
HETATM   25  C12 UNL     1      -4.633   3.100  -0.391  1.00  0.00    -0.005 C 
ENDBRANCH  23  24
ENDBRANCH   5  23
TORSDOF 4
