REMARK  6 active torsions:
REMARK  status: ('A' for Active; 'I' for Inactive)
REMARK    1  A    between atoms: C2_2  and  O5_25 
REMARK    2  A    between atoms: C4_4  and  C7_8 
REMARK    3  A    between atoms: C7_8  and  C8_9 
REMARK    4  A    between atoms: C11_12  and  C12_14 
REMARK    5  A    between atoms: C14_16  and  O4_22 
REMARK    6  A    between atoms: C15_17  and  O3_20 
ROOT
HETATM    1  C1  UNL     1      -0.859  -1.074  -1.426  1.00  0.00     0.103 C 
HETATM    2  C2  UNL     1      -1.020   0.381  -1.076  1.00  0.00     0.153 C 
HETATM    3  C3  UNL     1      -2.367   0.951  -1.484  1.00  0.00     0.006 C 
HETATM    4  C4  UNL     1      -3.438   0.141  -1.631  1.00  0.00     0.020 C 
HETATM    5  C5  UNL     1      -3.285  -1.324  -1.498  1.00  0.00     0.194 C 
HETATM    6  C6  UNL     1      -1.926  -1.889  -1.537  1.00  0.00     0.064 C 
HETATM    7  O1  UNL     1      -4.248  -2.045  -1.379  1.00  0.00    -0.287 OA
HETATM    8  C10 UNL     1       0.256   0.947  -1.721  1.00  0.00     0.067 C 
HETATM    9  C11 UNL     1       1.211  -0.273  -1.619  1.00  0.00     0.146 C 
HETATM   10  O2  UNL     1       0.398  -1.451  -1.637  1.00  0.00    -0.330 OA
HETATM   11  C20 UNL     1       0.023   1.260  -3.201  1.00  0.00     0.006 C 
ENDROOT
BRANCH   9  12
HETATM   12  C12 UNL     1       2.041  -0.266  -0.379  1.00  0.00     0.007 A 
HETATM   13  C13 UNL     1       1.732  -1.137   0.680  1.00  0.00     0.024 A 
HETATM   14  C14 UNL     1       2.514  -1.135   1.850  1.00  0.00     0.116 A 
HETATM   15  C15 UNL     1       3.607  -0.256   1.959  1.00  0.00     0.116 A 
HETATM   16  C16 UNL     1       3.914   0.615   0.898  1.00  0.00     0.026 A 
HETATM   17  C17 UNL     1       3.135   0.611  -0.270  1.00  0.00     0.000 A 
BRANCH  14  18
HETATM   18  O4  UNL     1       2.219  -1.955   2.838  1.00  0.00    -0.326 OA
HETATM   19  C19 UNL     1       3.289  -2.602   3.510  1.00  0.00     0.181 C 
ENDBRANCH  14  18
BRANCH  15  20
HETATM   20  O3  UNL     1       4.346  -0.246   3.051  1.00  0.00    -0.326 OA
HETATM   21  C18 UNL     1       5.410   0.689   3.129  1.00  0.00     0.181 C 
ENDBRANCH  15  20
ENDBRANCH   9  12
BRANCH   2  22
HETATM   22  O5  UNL     1      -0.922   0.520   0.330  1.00  0.00    -0.346 OA
HETATM   23  C21 UNL     1      -1.951  -0.146   1.027  1.00  0.00     0.175 C 
ENDBRANCH   2  22
BRANCH   4  24
HETATM   24  C7  UNL     1      -4.787   0.732  -1.940  1.00  0.00     0.055 C 
BRANCH  24  25
HETATM   25  C8  UNL     1      -5.568   0.955  -0.672  1.00  0.00    -0.021 C 
HETATM   26  C9  UNL     1      -5.279   2.031   0.078  1.00  0.00    -0.005 C 
ENDBRANCH  24  25
ENDBRANCH   4  24
TORSDOF 6
