REMARK  1 active torsions:
REMARK  status: ('A' for Active; 'I' for Inactive)
REMARK    1  A    between atoms: C9_10  and  C10_12 
ROOT
HETATM    1  C1  UNL     1      -4.082  -1.875   0.830  1.00  0.00     0.055 A 
HETATM    2  C2  UNL     1      -4.238  -0.572   0.301  1.00  0.00     0.135 A 
HETATM    3  C3  UNL     1      -3.100   0.197  -0.037  1.00  0.00     0.052 A 
HETATM    4  C4  UNL     1      -1.803  -0.334   0.157  1.00  0.00     0.107 A 
HETATM    5  C5  UNL     1      -1.648  -1.641   0.686  1.00  0.00     0.089 A 
HETATM    6  C6  UNL     1      -2.789  -2.416   1.024  1.00  0.00     0.138 A 
HETATM    7  O1  UNL     1      -2.660  -3.652   1.528  1.00  0.00    -0.190 OA
HETATM    8  C7  UNL     1      -0.271  -2.174   0.873  1.00  0.00     0.227 A 
HETATM    9  C8  UNL     1       0.832  -1.264   0.483  1.00  0.00     0.192 A 
HETATM   10  C9  UNL     1       0.553  -0.031  -0.011  1.00  0.00     0.128 A 
HETATM   11  O2  UNL     1      -0.717   0.401  -0.166  1.00  0.00    -0.305 OA
HETATM   12  O4  UNL     1       2.092  -1.680   0.629  1.00  0.00    -0.185 OA
HETATM   13  O5  UNL     1       0.039  -3.260   1.307  1.00  0.00    -0.284 OA
HETATM   14  O6  UNL     1      -5.465  -0.066   0.117  1.00  0.00    -0.190 OA
ENDROOT
BRANCH  10  15
HETATM   15  C10 UNL     1       1.678   0.877  -0.400  1.00  0.00     0.025 A 
HETATM   16  C11 UNL     1       1.676   1.500  -1.660  1.00  0.00     0.004 A 
HETATM   17  C12 UNL     1       2.733   2.352  -2.025  1.00  0.00     0.028 A 
HETATM   18  C13 UNL     1       3.793   2.584  -1.133  1.00  0.00     0.131 A 
HETATM   19  C14 UNL     1       3.793   1.959   0.127  1.00  0.00     0.028 A 
HETATM   20  O3  UNL     1       4.785   3.385  -1.474  1.00  0.00    -0.190 OA
HETATM   21  C15 UNL     1       2.738   1.108   0.494  1.00  0.00     0.004 A 
ENDBRANCH  10  15
TORSDOF 1
