REMARK  2 active torsions:
REMARK  status: ('A' for Active; 'I' for Inactive)
REMARK    1  A    between atoms: C8_9  and  O4_19 
REMARK    2  A    between atoms: C9_10  and  C10_12 
ROOT
HETATM    1  C1  UNL     1      -4.283  -1.754   0.584  1.00  0.00     0.055 A 
HETATM    2  C2  UNL     1      -4.440  -0.451   0.055  1.00  0.00     0.135 A 
HETATM    3  C3  UNL     1      -3.301   0.318  -0.281  1.00  0.00     0.052 A 
HETATM    4  C4  UNL     1      -2.004  -0.213  -0.090  1.00  0.00     0.107 A 
HETATM    5  C5  UNL     1      -1.850  -1.522   0.440  1.00  0.00     0.089 A 
HETATM    6  C6  UNL     1      -2.991  -2.295   0.779  1.00  0.00     0.138 A 
HETATM    7  O1  UNL     1      -2.862  -3.531   1.283  1.00  0.00    -0.190 OA
HETATM    8  C7  UNL     1      -0.473  -2.053   0.629  1.00  0.00     0.224 A 
HETATM    9  C8  UNL     1       0.631  -1.143   0.238  1.00  0.00     0.156 A 
HETATM   10  C9  UNL     1       0.351   0.090  -0.258  1.00  0.00     0.125 A 
HETATM   11  O2  UNL     1      -0.918   0.521  -0.410  1.00  0.00    -0.305 OA
HETATM   12  O5  UNL     1      -0.164  -3.139   1.063  1.00  0.00    -0.284 OA
HETATM   13  O6  UNL     1      -5.666   0.055  -0.127  1.00  0.00    -0.190 OA
ENDROOT
BRANCH  10  14
HETATM   14  C10 UNL     1       1.472   0.996  -0.644  1.00  0.00     0.025 A 
HETATM   15  C11 UNL     1       2.607   0.475  -1.293  1.00  0.00     0.004 A 
HETATM   16  C12 UNL     1       3.662   1.328  -1.658  1.00  0.00     0.028 A 
HETATM   17  C13 UNL     1       3.590   2.703  -1.377  1.00  0.00     0.131 A 
HETATM   18  C14 UNL     1       2.455   3.223  -0.727  1.00  0.00     0.028 A 
HETATM   19  O3  UNL     1       4.580   3.504  -1.719  1.00  0.00    -0.190 OA
HETATM   20  C15 UNL     1       1.398   2.371  -0.361  1.00  0.00     0.004 A 
ENDBRANCH  10  14
BRANCH   9  21
HETATM   21  O4  UNL     1       1.888  -1.559   0.385  1.00  0.00    -0.323 OA
HETATM   22  C16 UNL     1       2.340  -1.459   1.729  1.00  0.00     0.182 C 
ENDBRANCH   9  21
TORSDOF 2
