REMARK  2 active torsions:
REMARK  status: ('A' for Active; 'I' for Inactive)
REMARK    1  A    between atoms: N1_14  and  C13_15 
REMARK    2  A    between atoms: C17_19  and  O3_24 
ROOT
HETATM    1  C1  UNL     1      -2.804   1.417   1.829  1.00  0.00     0.033 C 
HETATM    2  C2  UNL     1      -3.150   0.050   2.433  1.00  0.00     0.005 C 
HETATM    3  C3  UNL     1      -2.183  -1.088   2.015  1.00  0.00     0.032 C 
HETATM    4  C4  UNL     1      -0.755  -0.507   1.912  1.00  0.00     0.009 C 
HETATM    5  C5  UNL     1      -0.729   0.445   0.688  1.00  0.00     0.084 C 
HETATM    6  C6  UNL     1      -1.975   1.347   0.552  1.00  0.00     0.156 C 
HETATM    7  O1  UNL     1      -2.777   1.021  -0.555  1.00  0.00    -0.223 OA
HETATM    8  C7  UNL     1       0.513   1.385   0.722  1.00  0.00     0.136 C 
HETATM    9  C8  UNL     1       1.882   0.720   0.906  1.00  0.00     0.087 C 
HETATM   10  C9  UNL     1       1.991  -0.509  -0.004  1.00  0.00     0.136 C 
HETATM   11  C10 UNL     1       0.713  -1.352   0.140  1.00  0.00     0.060 C 
HETATM   12  C11 UNL     1       0.314  -1.588   1.611  1.00  0.00     0.005 C 
HETATM   13  C12 UNL     1      -0.580  -0.667  -0.374  1.00  0.00     0.226 C 
HETATM   14  N1  UNL     1      -1.587  -1.736  -0.381  1.00  0.00     0.135 N 
HETATM   15  C15 UNL     1      -2.623  -1.660   0.642  1.00  0.00     0.250 C 
HETATM   16  C16 UNL     1       2.295  -0.223  -1.490  1.00  0.00     0.060 C 
HETATM   17  C17 UNL     1       2.691   1.208  -1.876  1.00  0.00     0.120 C 
HETATM   18  C18 UNL     1       2.276   2.232  -0.815  1.00  0.00     0.060 C 
HETATM   19  C19 UNL     1       0.754   2.245  -0.536  1.00  0.00     0.036 C 
HETATM   20  C20 UNL     1       2.862   1.826   0.530  1.00  0.00     0.159 C 
HETATM   21  O2  UNL     1       4.193   1.384   0.462  1.00  0.00    -0.223 OA
HETATM   22  O4  UNL     1       3.048  -1.298   0.490  1.00  0.00    -0.226 OA
HETATM   23  O5  UNL     1       0.334   2.258   1.814  1.00  0.00    -0.226 OA
HETATM   24  C22 UNL     1      -2.294  -2.173   3.114  1.00  0.00     0.002 C 
ENDROOT
BRANCH  14  25
HETATM   25  C13 UNL     1      -2.160  -2.005  -1.698  1.00  0.00     0.250 C 
HETATM   26  C14 UNL     1      -1.127  -2.412  -2.763  1.00  0.00     0.037 C 
ENDBRANCH  14  25
BRANCH  17  27
HETATM   27  O3  UNL     1       2.129   1.593  -3.104  1.00  0.00    -0.354 OA
HETATM   28  C21 UNL     1       2.750   0.990  -4.221  1.00  0.00     0.174 C 
ENDBRANCH  17  27
TORSDOF 2
