REMARK  5 active torsions:
REMARK  status: ('A' for Active; 'I' for Inactive)
REMARK    1  A    between atoms: C3_3  and  C35_40 
REMARK    2  A    between atoms: C16_16  and  C30_34 
REMARK    3  A    between atoms: C19_20  and  O3_27 
REMARK    4  A    between atoms: O3_27  and  C25_28 
REMARK    5  A    between atoms: C25_28  and  C26_29 
ROOT
HETATM    1  C1  UNL     1      -6.202  -1.226   0.985  1.00  0.00     0.033 C 
HETATM    2  C2  UNL     1      -6.028  -2.739   0.986  1.00  0.00     0.154 C 
HETATM    3  C3  UNL     1      -5.283  -3.269  -0.253  1.00  0.00     0.059 C 
HETATM    4  C4  UNL     1      -3.915  -2.504  -0.394  1.00  0.00     0.005 C 
HETATM    5  C5  UNL     1      -3.945  -0.943  -0.269  1.00  0.00     0.001 C 
HETATM    6  C6  UNL     1      -4.842  -0.519   0.917  1.00  0.00     0.003 C 
HETATM    7  C7  UNL     1      -2.502  -0.306  -0.194  1.00  0.00     0.005 C 
HETATM    8  C8  UNL     1      -1.323  -1.028   0.519  1.00  0.00     0.004 C 
HETATM    9  C9  UNL     1      -1.435  -2.536   0.230  1.00  0.00     0.000 C 
HETATM   10  C10 UNL     1      -2.828  -3.100   0.527  1.00  0.00     0.000 C 
HETATM   11  C11 UNL     1       0.061  -0.439  -0.008  1.00  0.00     0.017 C 
HETATM   12  C12 UNL     1       0.090   1.074   0.215  1.00  0.00    -0.049 C 
HETATM   13  C13 UNL     1      -1.065   1.760   0.300  1.00  0.00    -0.035 C 
HETATM   14  C14 UNL     1      -2.454   1.177   0.224  1.00  0.00     0.025 C 
HETATM   15  C15 UNL     1       1.452   1.776   0.182  1.00  0.00     0.025 C 
HETATM   16  C16 UNL     1       2.469   1.112   1.145  1.00  0.00     0.090 C 
HETATM   17  C17 UNL     1       2.597  -0.375   0.700  1.00  0.00     0.158 C 
HETATM   18  C18 UNL     1       1.259  -1.126   0.709  1.00  0.00     0.037 C 
HETATM   19  O1  UNL     1       3.160  -0.547  -0.582  1.00  0.00    -0.223 OA
HETATM   20  C19 UNL     1       3.843   1.849   1.140  1.00  0.00     0.160 C 
HETATM   21  C20 UNL     1       3.751   3.374   1.201  1.00  0.00     0.180 C 
HETATM   22  C21 UNL     1       2.788   4.012   0.188  1.00  0.00     0.031 C 
HETATM   23  C22 UNL     1       1.416   3.312   0.304  1.00  0.00     0.007 C 
HETATM   24  C23 UNL     1       2.607   5.509   0.543  1.00  0.00     0.003 C 
HETATM   25  C24 UNL     1       3.296   3.960  -1.271  1.00  0.00     0.003 C 
HETATM   26  O2  UNL     1       5.043   3.921   1.073  1.00  0.00    -0.221 OA
HETATM   27  C31 UNL     1       0.266  -0.629  -1.540  1.00  0.00     0.004 C 
HETATM   28  C32 UNL     1      -1.441  -0.849   2.059  1.00  0.00     0.000 C 
HETATM   29  C33 UNL     1      -4.582  -0.331  -1.556  1.00  0.00     0.000 C 
HETATM   30  C34 UNL     1      -5.079  -4.797  -0.047  1.00  0.00     0.005 C 
HETATM   31  O7  UNL     1      -7.298  -3.339   1.104  1.00  0.00    -0.223 OA
ENDROOT
BRANCH  20  32
HETATM   32  O3  UNL     1       4.581   1.533  -0.005  1.00  0.00    -0.298 OA
BRANCH  32  33
HETATM   33  C25 UNL     1       5.817   0.950   0.070  1.00  0.00     0.291 C 
HETATM   34  O4  UNL     1       6.347   0.769   1.145  1.00  0.00    -0.260 OA
BRANCH  33  35
HETATM   35  C26 UNL     1       6.454   0.481  -1.043  1.00  0.00     0.037 C 
HETATM   36  C27 UNL     1       7.799  -0.191  -0.865  1.00  0.00     0.036 C 
HETATM   37  C28 UNL     1       5.856   0.623  -2.243  1.00  0.00    -0.025 C 
HETATM   38  C29 UNL     1       6.402   0.203  -3.584  1.00  0.00     0.030 C 
ENDBRANCH  33  35
ENDBRANCH  32  33
ENDBRANCH  20  32
BRANCH  16  39
HETATM   39  C30 UNL     1       1.933   1.062   2.601  1.00  0.00     0.187 C 
HETATM   40  O5  UNL     1       1.887   2.311   3.252  1.00  0.00    -0.221 OA
ENDBRANCH  16  39
BRANCH   3  41
HETATM   41  C35 UNL     1      -6.178  -3.184  -1.511  1.00  0.00     0.185 C 
HETATM   42  O6  UNL     1      -5.460  -3.521  -2.682  1.00  0.00    -0.221 OA
ENDBRANCH   3  41
TORSDOF 5
