REMARK  2 active torsions:
REMARK  status: ('A' for Active; 'I' for Inactive)
REMARK    1  A    between atoms: C1_1  and  C13_17 
REMARK    2  A    between atoms: C9_10  and  O2_11 
ROOT
HETATM    1  C1  UNL     1       1.909   2.055   0.141  1.00  0.00     0.114 A 
HETATM    2  C2  UNL     1       2.439   0.832   0.265  1.00  0.00     0.065 A 
HETATM    3  C3  UNL     1       1.669  -0.285   0.221  1.00  0.00     0.201 A 
HETATM    4  C4  UNL     1       0.318  -0.157   0.041  1.00  0.00     0.084 A 
HETATM    5  C5  UNL     1      -0.181   1.099  -0.082  1.00  0.00     0.107 A 
HETATM    6  O1  UNL     1       0.576   2.237  -0.032  1.00  0.00    -0.308 OA
HETATM    7  C6  UNL     1      -1.503   1.259  -0.264  1.00  0.00     0.050 A 
HETATM    8  C7  UNL     1      -2.293   0.186  -0.320  1.00  0.00     0.104 A 
HETATM    9  C8  UNL     1      -1.787  -1.049  -0.192  1.00  0.00     0.047 A 
HETATM   10  C9  UNL     1      -0.468  -1.272  -0.008  1.00  0.00     0.101 A 
HETATM   11  C11 UNL     1      -2.886  -1.815  -0.298  1.00  0.00     0.031 A 
HETATM   12  C12 UNL     1      -3.901  -0.960  -0.477  1.00  0.00     0.123 A 
HETATM   13  O3  UNL     1      -3.512   0.204  -0.483  1.00  0.00    -0.305 OA
HETATM   14  O4  UNL     1       2.259  -1.336   0.346  1.00  0.00    -0.286 OA
ENDROOT
BRANCH   1  15
HETATM   15  C13 UNL     1       2.741   3.317   0.189  1.00  0.00     0.233 C 
HETATM   16  O5  UNL     1       4.132   3.078   0.349  1.00  0.00    -0.213 OA
ENDBRANCH   1  15
BRANCH  10  17
HETATM   17  O2  UNL     1       0.121  -2.509   0.128  1.00  0.00    -0.328 OA
HETATM   18  C10 UNL     1      -0.617  -3.702   0.075  1.00  0.00     0.181 C 
ENDBRANCH  10  17
TORSDOF 2
