REMARK  5 active torsions:
REMARK  status: ('A' for Active; 'I' for Inactive)
REMARK    1  A    between atoms: C6_7  and  O9_23 
REMARK    2  A    between atoms: C8_10  and  O3_11 
REMARK    3  A    between atoms: O3_11  and  C9_12 
REMARK    4  A    between atoms: C10_14  and  C14_21 
REMARK    5  A    between atoms: O9_23  and  C15_24 
ROOT
HETATM    1  C1  UNL     1      -3.205   2.389   1.900  1.00  0.00     0.272 C 
HETATM    2  O1  UNL     1      -3.142   1.082   2.270  1.00  0.00    -0.304 OA
HETATM    3  C2  UNL     1      -2.202   0.228   1.682  1.00  0.00     0.130 C 
HETATM    4  C3  UNL     1      -0.760   0.775   1.754  1.00  0.00     0.091 C 
HETATM    5  C4  UNL     1      -0.735   2.301   1.901  1.00  0.00     0.065 C 
HETATM    6  C5  UNL     1      -1.956   2.903   1.207  1.00  0.00     0.102 C 
HETATM    7  C6  UNL     1       0.581   2.917   1.493  1.00  0.00     0.105 C 
HETATM    8  C7  UNL     1       1.568   2.152   1.001  1.00  0.00     0.139 C 
HETATM    9  O2  UNL     1       1.451   0.824   0.733  1.00  0.00    -0.302 OA
HETATM   10  C8  UNL     1       0.143   0.310   0.617  1.00  0.00     0.244 C 
HETATM   11  C17 UNL     1      -2.730  -0.183   0.301  1.00  0.00     0.033 C 
HETATM   12  O11 UNL     1      -4.133   3.114   2.189  1.00  0.00    -0.264 OA
ENDROOT
BRANCH  10  13
HETATM   13  O3  UNL     1       0.340  -1.085   0.731  1.00  0.00    -0.304 OA
BRANCH  13  14
HETATM   14  C9  UNL     1       0.957  -1.687  -0.389  1.00  0.00     0.272 C 
HETATM   15  O4  UNL     1      -0.094  -2.150  -1.209  1.00  0.00    -0.326 OA
HETATM   16  C10 UNL     1       0.367  -2.843  -2.340  1.00  0.00     0.184 C 
HETATM   17  C11 UNL     1       1.177  -4.061  -1.908  1.00  0.00     0.215 C 
HETATM   18  C12 UNL     1       2.336  -3.628  -1.036  1.00  0.00     0.220 C 
HETATM   19  O7  UNL     1       1.712  -4.739  -3.018  1.00  0.00    -0.218 OA
HETATM   20  C13 UNL     1       1.777  -2.846   0.128  1.00  0.00     0.241 C 
HETATM   21  O6  UNL     1       3.021  -4.759  -0.564  1.00  0.00    -0.218 OA
HETATM   22  O5  UNL     1       2.841  -2.346   0.899  1.00  0.00    -0.215 OA
BRANCH  16  23
HETATM   23  C14 UNL     1      -0.832  -3.244  -3.187  1.00  0.00     0.214 C 
HETATM   24  O8  UNL     1      -1.459  -2.089  -3.706  1.00  0.00    -0.218 OA
ENDBRANCH  16  23
ENDBRANCH  13  14
ENDBRANCH  10  13
BRANCH   7  25
HETATM   25  O9  UNL     1       0.746   4.251   1.740  1.00  0.00    -0.279 OA
BRANCH  25  26
HETATM   26  C15 UNL     1       0.674   5.055   0.643  1.00  0.00     0.277 C 
HETATM   27  C16 UNL     1       0.941   6.495   1.027  1.00  0.00     0.107 C 
HETATM   28  O10 UNL     1       0.415   4.669  -0.475  1.00  0.00    -0.264 OA
ENDBRANCH  25  26
ENDBRANCH   7  25
TORSDOF 5
