REMARK  2 active torsions:
REMARK  status: ('A' for Active; 'I' for Inactive)
REMARK    1  A    between atoms: C1_1  and  O3_23 
REMARK    2  A    between atoms: C2_2  and  O2_21 
ROOT
HETATM    1  C1  UNL     1       4.070  -0.353  -0.029  1.00  0.00     0.116 A 
HETATM    2  C2  UNL     1       4.097   1.008  -0.070  1.00  0.00     0.118 A 
HETATM    3  C3  UNL     1       2.932   1.693  -0.056  1.00  0.00     0.045 A 
HETATM    4  C4  UNL     1       1.770   1.039   0.003  1.00  0.00     0.084 A 
HETATM    5  C5  UNL     1       1.742  -0.295   0.045  1.00  0.00     0.021 A 
HETATM    6  C6  UNL     1       2.881  -0.993   0.028  1.00  0.00     0.028 A 
HETATM    7  C7  UNL     1       0.448  -0.636   0.104  1.00  0.00     0.019 A 
HETATM    8  C8  UNL     1      -0.253   0.506   0.100  1.00  0.00     0.083 A 
HETATM    9  N1  UNL     1       0.576   1.466   0.034  1.00  0.00    -0.245 NA
HETATM   10  C9  UNL     1      -1.593   0.506   0.156  1.00  0.00     0.039 A 
HETATM   11  C10 UNL     1      -2.244  -0.676   0.250  1.00  0.00     0.092 A 
HETATM   12  C11 UNL     1      -1.525  -1.825   0.231  1.00  0.00     0.001 A 
HETATM   13  C12 UNL     1      -0.180  -1.813   0.160  1.00  0.00    -0.001 A 
HETATM   14  C13 UNL     1      -2.247  -3.155   0.312  1.00  0.00     0.033 C 
HETATM   15  O1  UNL     1      -3.612  -0.760   0.344  1.00  0.00    -0.332 OA
HETATM   16  C14 UNL     1      -4.379   0.355  -0.022  1.00  0.00     0.117 C 
HETATM   17  C15 UNL     1      -3.613   1.645   0.124  1.00  0.00     0.001 C 
HETATM   18  C16 UNL     1      -2.276   1.661   0.157  1.00  0.00     0.001 C 
HETATM   19  C17 UNL     1      -5.617   0.383   0.881  1.00  0.00     0.035 C 
HETATM   20  C18 UNL     1      -4.796   0.195  -1.489  1.00  0.00     0.035 C 
ENDROOT
BRANCH   1  21
HETATM   21  O3  UNL     1       5.284  -1.007  -0.040  1.00  0.00    -0.326 OA
HETATM   22  C20 UNL     1       5.309  -2.413   0.054  1.00  0.00     0.181 C 
ENDBRANCH   1  21
BRANCH   2  23
HETATM   23  O2  UNL     1       5.333   1.617  -0.124  1.00  0.00    -0.326 OA
HETATM   24  C19 UNL     1       5.409   3.023  -0.164  1.00  0.00     0.181 C 
ENDBRANCH   2  23
TORSDOF 2
