REMARK  11 active torsions:
REMARK  status: ('A' for Active; 'I' for Inactive)
REMARK    1  A    between atoms: C5_5  and  C7_7 
REMARK    2  A    between atoms: C7_7  and  C8_8 
REMARK    3  A    between atoms: C10_11  and  C19_22 
REMARK    4  A    between atoms: C10_11  and  C29_32 
REMARK    5  A    between atoms: C12_13  and  C14_16 
REMARK    6  A    between atoms: C14_16  and  C15_17 
REMARK    7  A    between atoms: C19_22  and  C20_23 
REMARK    8  A    between atoms: C21_24  and  C22_25 
REMARK    9  A    between atoms: C22_25  and  C23_26 
REMARK   10  A    between atoms: C23_26  and  C24_27 
REMARK   11  A    between atoms: C29_32  and  C30_33 
ROOT
HETATM    1  C8  UNL     1      -1.288   2.833   0.407  1.00  0.00     0.099 C 
HETATM    2  C9  UNL     1      -1.021   1.598   0.924  1.00  0.00     0.184 C 
HETATM    3  O1  UNL     1      -1.884   0.993   1.522  1.00  0.00    -0.291 OA
HETATM    4  C10 UNL     1       0.360   0.957   0.776  1.00  0.00     0.106 C 
HETATM    5  C11 UNL     1       1.382   2.060   0.607  1.00  0.00     0.114 C 
HETATM    6  C12 UNL     1       1.024   3.265   0.134  1.00  0.00     0.029 C 
HETATM    7  C13 UNL     1      -0.270   3.635   0.012  1.00  0.00     0.135 C 
HETATM    8  O2  UNL     1      -0.496   4.880  -0.508  1.00  0.00    -0.190 OA
HETATM    9  O3  UNL     1       2.683   1.728   0.822  1.00  0.00    -0.195 OA
ENDROOT
BRANCH   4  10
HETATM   10  C19 UNL     1       0.339   0.148  -0.550  1.00  0.00     0.039 C 
BRANCH  10  11
HETATM   11  C20 UNL     1      -0.241  -1.242  -0.442  1.00  0.00    -0.034 C 
HETATM   12  C21 UNL     1       0.247  -2.344  -1.041  1.00  0.00    -0.048 C 
HETATM   13  C28 UNL     1       1.411  -2.339  -2.007  1.00  0.00     0.026 C 
BRANCH  12  14
HETATM   14  C22 UNL     1      -0.325  -3.717  -0.754  1.00  0.00     0.026 C 
BRANCH  14  15
HETATM   15  C23 UNL     1      -1.324  -4.177  -1.827  1.00  0.00     0.030 C 
BRANCH  15  16
HETATM   16  C24 UNL     1      -1.692  -5.625  -1.604  1.00  0.00    -0.034 C 
HETATM   17  C25 UNL     1      -1.265  -6.693  -2.303  1.00  0.00    -0.048 C 
HETATM   18  C26 UNL     1      -1.704  -8.092  -1.931  1.00  0.00     0.026 C 
HETATM   19  C27 UNL     1      -0.326  -6.642  -3.486  1.00  0.00     0.026 C 
ENDBRANCH  15  16
ENDBRANCH  14  15
ENDBRANCH  12  14
ENDBRANCH  10  11
ENDBRANCH   4  10
BRANCH   4  20
HETATM   20  C29 UNL     1       0.685   0.088   2.020  1.00  0.00     0.039 C 
BRANCH  20  21
HETATM   21  C30 UNL     1       1.743  -0.973   1.823  1.00  0.00    -0.034 C 
HETATM   22  C31 UNL     1       1.857  -2.114   2.527  1.00  0.00    -0.048 C 
HETATM   23  C32 UNL     1       2.913  -3.139   2.186  1.00  0.00     0.026 C 
HETATM   24  C33 UNL     1       0.966  -2.498   3.685  1.00  0.00     0.026 C 
ENDBRANCH  20  21
ENDBRANCH   4  20
BRANCH   1  25
HETATM   25  C7  UNL     1      -2.572   3.316   0.442  1.00  0.00     0.200 C 
HETATM   26  O4  UNL     1      -2.729   4.505   0.618  1.00  0.00    -0.286 OA
BRANCH  25  27
HETATM   27  C5  UNL     1      -3.688   2.577   0.152  1.00  0.00     0.039 A 
HETATM   28  C4  UNL     1      -4.907   3.121   0.360  1.00  0.00     0.003 A 
HETATM   29  C3  UNL     1      -6.038   2.450   0.090  1.00  0.00     0.000 A 
HETATM   30  C2  UNL     1      -5.982   1.212  -0.417  1.00  0.00     0.000 A 
HETATM   31  C1  UNL     1      -4.784   0.664  -0.665  1.00  0.00     0.000 A 
HETATM   32  C6  UNL     1      -3.658   1.343  -0.393  1.00  0.00     0.003 A 
ENDBRANCH  25  27
ENDBRANCH   1  25
BRANCH   6  33
HETATM   33  C14 UNL     1       2.119   4.253  -0.248  1.00  0.00     0.056 C 
BRANCH  33  34
HETATM   34  C15 UNL     1       2.430   5.192   0.888  1.00  0.00    -0.030 C 
HETATM   35  C16 UNL     1       3.374   6.149   0.868  1.00  0.00    -0.048 C 
HETATM   36  C17 UNL     1       3.576   7.078   2.042  1.00  0.00     0.026 C 
HETATM   37  C18 UNL     1       4.291   6.407  -0.304  1.00  0.00     0.026 C 
ENDBRANCH  33  34
ENDBRANCH   6  33
TORSDOF 11
