REMARK  12 active torsions:
REMARK  status: ('A' for Active; 'I' for Inactive)
REMARK    1  A    between atoms: C6_7  and  C7_8 
REMARK    2  A    between atoms: C7_8  and  C8_9 
REMARK    3  A    between atoms: C12_14  and  C31_45 
REMARK    4  A    between atoms: C13_15  and  O4_18 
REMARK    5  A    between atoms: O4_18  and  C15_19 
REMARK    6  A    between atoms: C17_22  and  O13_40 
REMARK    7  A    between atoms: C18_23  and  O7_26 
REMARK    8  A    between atoms: O7_26  and  C20_27 
REMARK    9  A    between atoms: C21_29  and  C25_36 
REMARK   10  A    between atoms: C25_36  and  C26_37 
REMARK   11  A    between atoms: O13_40  and  C28_41 
REMARK   12  A    between atoms: C34_48  and  O15_51 
ROOT
HETATM    1  O4  UNL     1       1.493   3.313  -0.501  1.00  0.00    -0.298 OA
ENDROOT
BRANCH   1   2
HETATM    2  C13 UNL     1       2.087   2.105  -0.809  1.00  0.00     0.158 C 
HETATM    3  C12 UNL     1       2.421   1.123   0.066  1.00  0.00     0.125 C 
HETATM    4  O2  UNL     1       2.826  -0.086  -0.430  1.00  0.00    -0.305 OA
HETATM    5  C5  UNL     1       3.258  -0.164  -1.716  1.00  0.00     0.103 A 
HETATM    6  C4  UNL     1       3.013   0.829  -2.590  1.00  0.00     0.089 A 
HETATM    7  C6  UNL     1       3.903  -1.278  -2.127  1.00  0.00     0.030 A 
HETATM    8  C3  UNL     1       3.392   0.720  -3.881  1.00  0.00     0.138 A 
HETATM    9  C14 UNL     1       2.373   1.942  -2.138  1.00  0.00     0.224 C 
HETATM   10  C2  UNL     1       4.039  -0.396  -4.252  1.00  0.00     0.055 A 
HETATM   11  O16 UNL     1       3.175   1.679  -4.825  1.00  0.00    -0.190 OA
HETATM   12  C1  UNL     1       4.314  -1.397  -3.404  1.00  0.00     0.131 A 
HETATM   13  O1  UNL     1       4.958  -2.512  -3.846  1.00  0.00    -0.190 OA
HETATM   14  O3  UNL     1       2.030   2.830  -2.889  1.00  0.00    -0.284 OA
BRANCH   3  15
HETATM   15  C31 UNL     1       2.235   1.184   1.412  1.00  0.00     0.025 C 
HETATM   16  C32 UNL     1       2.248   0.038   2.129  1.00  0.00     0.004 C 
HETATM   17  C33 UNL     1       1.977  -0.003   3.443  1.00  0.00     0.024 C 
HETATM   18  C34 UNL     1       1.666   1.104   4.138  1.00  0.00     0.094 C 
HETATM   19  C35 UNL     1       1.804   2.261   3.470  1.00  0.00     0.024 C 
HETATM   20  C36 UNL     1       2.067   2.296   2.154  1.00  0.00     0.004 C 
BRANCH  18  21
HETATM   21  O15 UNL     1       1.424   1.070   5.486  1.00  0.00    -0.328 OA
HETATM   22  C37 UNL     1       0.050   1.013   5.798  1.00  0.00     0.181 C 
ENDBRANCH  18  21
ENDBRANCH   3  15
BRANCH   7  23
HETATM   23  C7  UNL     1       4.176  -2.421  -1.161  1.00  0.00     0.056 C 
BRANCH  23  24
HETATM   24  C8  UNL     1       3.347  -3.637  -1.491  1.00  0.00    -0.030 C 
HETATM   25  C9  UNL     1       3.313  -4.773  -0.773  1.00  0.00    -0.048 C 
HETATM   26  C10 UNL     1       2.474  -5.952  -1.205  1.00  0.00     0.026 C 
HETATM   27  C11 UNL     1       4.094  -4.989   0.502  1.00  0.00     0.026 C 
ENDBRANCH  23  24
ENDBRANCH   7  23
ENDBRANCH   1   2
BRANCH   1  28
HETATM   28  C15 UNL     1       0.135   3.253  -0.104  1.00  0.00     0.274 C 
HETATM   29  O5  UNL     1      -0.411   4.484  -0.522  1.00  0.00    -0.329 OA
HETATM   30  C16 UNL     1      -1.706   4.682  -0.018  1.00  0.00     0.148 C 
HETATM   31  C17 UNL     1      -2.676   3.584  -0.473  1.00  0.00     0.181 C 
HETATM   32  C30 UNL     1      -2.173   6.069  -0.465  1.00  0.00     0.035 C 
HETATM   33  C18 UNL     1      -2.069   2.196  -0.258  1.00  0.00     0.183 C 
HETATM   34  C19 UNL     1      -0.635   2.132  -0.754  1.00  0.00     0.238 C 
HETATM   35  O6  UNL     1      -0.568   2.268  -2.156  1.00  0.00    -0.215 OA
BRANCH  31  36
HETATM   36  O13 UNL     1      -3.849   3.713   0.288  1.00  0.00    -0.299 OA
BRANCH  36  37
HETATM   37  C28 UNL     1      -5.004   3.102  -0.100  1.00  0.00     0.273 C 
HETATM   38  C29 UNL     1      -6.042   3.244   0.996  1.00  0.00     0.106 C 
HETATM   39  O14 UNL     1      -5.187   2.498  -1.133  1.00  0.00    -0.264 OA
ENDBRANCH  36  37
ENDBRANCH  31  36
BRANCH  33  40
HETATM   40  O7  UNL     1      -2.895   1.262  -0.884  1.00  0.00    -0.326 OA
BRANCH  40  41
HETATM   41  C20 UNL     1      -2.621  -0.098  -0.655  1.00  0.00     0.270 C 
HETATM   42  O8  UNL     1      -2.736  -0.282   0.736  1.00  0.00    -0.328 OA
HETATM   43  C21 UNL     1      -2.567  -1.608   1.150  1.00  0.00     0.158 C 
HETATM   44  C22 UNL     1      -3.604  -2.499   0.478  1.00  0.00     0.212 C 
HETATM   45  C23 UNL     1      -3.644  -2.324  -1.027  1.00  0.00     0.220 C 
HETATM   46  O11 UNL     1      -3.345  -3.854   0.749  1.00  0.00    -0.218 OA
HETATM   47  C24 UNL     1      -3.685  -0.862  -1.405  1.00  0.00     0.241 C 
HETATM   48  O10 UNL     1      -4.799  -2.954  -1.526  1.00  0.00    -0.218 OA
HETATM   49  O9  UNL     1      -4.952  -0.335  -1.079  1.00  0.00    -0.215 OA
BRANCH  43  50
HETATM   50  C25 UNL     1      -1.107  -2.055   0.988  1.00  0.00     0.097 C 
BRANCH  50  51
HETATM   51  C26 UNL     1      -0.641  -3.115   1.978  1.00  0.00     0.154 C 
HETATM   52  C27 UNL     1       0.496  -4.009   1.522  1.00  0.00     0.072 C 
HETATM   53  O12 UNL     1      -1.104  -3.208   3.092  1.00  0.00    -0.296 OA
ENDBRANCH  50  51
ENDBRANCH  43  50
ENDBRANCH  40  41
ENDBRANCH  33  40
ENDBRANCH   1  28
TORSDOF 12
