REMARK  2 active torsions:
REMARK  status: ('A' for Active; 'I' for Inactive)
REMARK    1  A    between atoms: C15_16  and  C18_19 
REMARK    2  A    between atoms: C18_19  and  C20_21 
ROOT
HETATM    1  C1  UNL     1      -2.391  -3.410  -3.744  1.00  0.00     0.033 C 
HETATM    2  C2  UNL     1      -2.951  -4.649  -3.058  1.00  0.00     0.153 C 
HETATM    3  C3  UNL     1      -2.095  -5.077  -1.863  1.00  0.00     0.040 C 
HETATM    4  C4  UNL     1      -1.025  -4.037  -1.478  1.00  0.00     0.060 C 
HETATM    5  C5  UNL     1      -1.577  -2.592  -1.394  1.00  0.00     0.007 C 
HETATM    6  C6  UNL     1      -2.186  -2.229  -2.778  1.00  0.00     0.003 C 
HETATM    7  C7  UNL     1      -0.407  -1.620  -1.034  1.00  0.00     0.001 C 
HETATM    8  C8  UNL     1       0.356  -2.034   0.250  1.00  0.00     0.007 C 
HETATM    9  C9  UNL     1       0.870  -3.477   0.157  1.00  0.00     0.065 C 
HETATM   10  C10 UNL     1      -0.252  -4.422  -0.226  1.00  0.00     0.150 C 
HETATM   11  O1  UNL     1      -0.469  -5.439   0.394  1.00  0.00    -0.296 OA
HETATM   12  C11 UNL     1       1.501  -1.039   0.495  1.00  0.00     0.000 C 
HETATM   13  C12 UNL     1       1.025   0.416   0.726  1.00  0.00     0.000 C 
HETATM   14  C13 UNL     1       0.386   0.801  -0.624  1.00  0.00     0.000 C 
HETATM   15  C14 UNL     1      -0.794  -0.122  -0.989  1.00  0.00     0.000 C 
HETATM   16  C15 UNL     1       2.354   1.145   1.073  1.00  0.00     0.005 C 
HETATM   17  C16 UNL     1       3.244   0.029   1.696  1.00  0.00     0.000 C 
HETATM   18  C17 UNL     1       2.463  -1.295   1.651  1.00  0.00     0.000 C 
HETATM   19  C26 UNL     1       0.027   0.579   1.892  1.00  0.00     0.000 C 
HETATM   20  C27 UNL     1      -2.678  -2.525  -0.308  1.00  0.00     0.000 C 
HETATM   21  O3  UNL     1      -4.275  -4.391  -2.652  1.00  0.00    -0.223 OA
ENDROOT
BRANCH  16  22
HETATM   22  C18 UNL     1       2.363   2.392   1.990  1.00  0.00     0.038 C 
HETATM   23  C19 UNL     1       3.777   3.017   2.022  1.00  0.00     0.006 C 
BRANCH  22  24
HETATM   24  C20 UNL     1       1.419   3.531   1.706  1.00  0.00     0.061 C 
HETATM   25  N1  UNL     1       1.118   4.332   2.640  1.00  0.00    -0.250 NA
HETATM   26  C21 UNL     1       0.632   5.544   1.924  1.00  0.00     0.219 C 
HETATM   27  C22 UNL     1      -0.792   5.271   1.436  1.00  0.00     0.054 C 
HETATM   28  O2  UNL     1       1.388   5.545   0.732  1.00  0.00    -0.332 OA
HETATM   29  C23 UNL     1      -0.458   4.296   0.287  1.00  0.00     0.040 C 
HETATM   30  C25 UNL     1      -1.510   6.541   0.966  1.00  0.00     0.005 C 
HETATM   31  C24 UNL     1       1.074   4.212   0.407  1.00  0.00     0.153 C 
ENDBRANCH  22  24
ENDBRANCH  16  22
TORSDOF 2
