REMARK  19 active torsions:
REMARK  status: ('A' for Active; 'I' for Inactive)
REMARK    1  A    between atoms: C4_6  and  C7_9 
REMARK    2  A    between atoms: C7_9  and  C8_10 
REMARK    3  A    between atoms: C8_10  and  C9_11 
REMARK       I    between atoms: C9_11  and  N1_12 
REMARK    4  A    between atoms: N1_12  and  C10_13 
REMARK    5  A    between atoms: C10_13  and  C11_14 
REMARK    6  A    between atoms: C11_14  and  C12_15 
REMARK    7  A    between atoms: C12_15  and  N2_16 
REMARK    8  A    between atoms: N2_16  and  C13_17 
REMARK    9  A    between atoms: C13_17  and  C14_18 
REMARK   10  A    between atoms: C14_18  and  C15_19 
REMARK   11  A    between atoms: C15_19  and  C16_20 
REMARK   12  A    between atoms: C16_20  and  N3_21 
REMARK   13  A    between atoms: N3_21  and  C17_22 
REMARK   14  A    between atoms: C17_22  and  C18_23 
REMARK   15  A    between atoms: C18_23  and  C19_24 
REMARK   16  A    between atoms: C19_24  and  N4_25 
REMARK       I    between atoms: N4_25  and  C20_26 
REMARK   17  A    between atoms: C20_26  and  C21_27 
REMARK   18  A    between atoms: C21_27  and  C22_28 
REMARK   19  A    between atoms: C22_28  and  C23_29 
ROOT
HETATM    1  C14 UNL     1       1.061   1.594   5.461  1.00  0.00     0.040 C 
ENDROOT
BRANCH   1   2
HETATM    2  C13 UNL     1       1.676   0.205   5.276  1.00  0.00     0.290 C 
BRANCH   2   3
HETATM    3  N2  UNL     1       0.654  -0.760   4.910  1.00  0.00     0.339 N 
BRANCH   3   4
HETATM    4  C12 UNL     1       1.217  -2.098   4.846  1.00  0.00     0.292 C 
BRANCH   4   5
HETATM    5  C11 UNL     1       0.137  -3.115   4.479  1.00  0.00     0.065 C 
BRANCH   5   6
HETATM    6  C10 UNL     1       0.664  -4.551   4.449  1.00  0.00     0.131 C 
BRANCH   6   7
HETATM    7  N1  UNL     1       1.590  -4.748   3.324  1.00  0.00    -0.238 NA
HETATM    8  C9  UNL     1       1.088  -4.894   2.061  1.00  0.00     0.252 C 
HETATM    9  O6  UNL     1      -0.105  -4.863   1.871  1.00  0.00    -0.271 OA
BRANCH   8  10
HETATM   10  C8  UNL     1       2.051  -5.096   0.922  1.00  0.00     0.094 C 
BRANCH  10  11
HETATM   11  C7  UNL     1       1.338  -5.355  -0.406  1.00  0.00     0.036 C 
BRANCH  11  12
HETATM   12  C4  UNL     1       0.643  -6.670  -0.406  1.00  0.00    -0.019 A 
HETATM   13  C3  UNL     1      -0.762  -6.723  -0.406  1.00  0.00     0.025 A 
HETATM   14  C2  UNL     1      -1.424  -7.963  -0.406  1.00  0.00     0.156 A 
HETATM   15  C1  UNL     1      -0.678  -9.156  -0.406  1.00  0.00     0.156 A 
HETATM   16  O2  UNL     1      -2.742  -8.006  -0.406  1.00  0.00    -0.188 OA
HETATM   17  O1  UNL     1      -1.289 -10.322  -0.406  1.00  0.00    -0.188 OA
HETATM   18  C6  UNL     1       0.729  -9.102  -0.406  1.00  0.00     0.029 A 
HETATM   19  C5  UNL     1       1.389  -7.861  -0.406  1.00  0.00    -0.002 A 
ENDBRANCH  11  12
ENDBRANCH  10  11
ENDBRANCH   8  10
ENDBRANCH   6   7
ENDBRANCH   5   6
ENDBRANCH   4   5
ENDBRANCH   3   4
ENDBRANCH   2   3
ENDBRANCH   1   2
BRANCH   1  20
HETATM   20  C15 UNL     1       0.650   2.238   4.137  1.00  0.00     0.040 C 
BRANCH  20  21
HETATM   21  C16 UNL     1       0.123   3.662   4.313  1.00  0.00     0.290 C 
BRANCH  21  22
HETATM   22  N3  UNL     1      -0.156   4.266   3.022  1.00  0.00     0.339 N 
BRANCH  22  23
HETATM   23  C17 UNL     1      -1.449   3.826   2.524  1.00  0.00     0.292 C 
BRANCH  23  24
HETATM   24  C18 UNL     1      -1.746   4.463   1.166  1.00  0.00     0.065 C 
BRANCH  24  25
HETATM   25  C19 UNL     1      -0.801   3.975   0.067  1.00  0.00     0.131 C 
BRANCH  25  26
HETATM   26  N4  UNL     1      -1.137   4.588  -1.226  1.00  0.00    -0.238 NA
HETATM   27  C20 UNL     1      -0.398   4.270  -2.330  1.00  0.00     0.252 C 
HETATM   28  O5  UNL     1       0.523   3.492  -2.246  1.00  0.00    -0.271 OA
BRANCH  27  29
HETATM   29  C21 UNL     1      -0.756   4.905  -3.646  1.00  0.00     0.094 C 
BRANCH  29  30
HETATM   30  C22 UNL     1       0.131   4.414  -4.793  1.00  0.00     0.036 C 
BRANCH  30  31
HETATM   31  C23 UNL     1      -0.246   5.047  -6.084  1.00  0.00    -0.019 A 
HETATM   32  C24 UNL     1       0.313   6.285  -6.445  1.00  0.00    -0.002 A 
HETATM   33  C25 UNL     1      -0.045   6.887  -7.664  1.00  0.00     0.029 A 
HETATM   34  C26 UNL     1      -0.961   6.254  -8.523  1.00  0.00     0.156 A 
HETATM   35  C27 UNL     1      -1.521   5.014  -8.160  1.00  0.00     0.156 A 
HETATM   36  O4  UNL     1      -1.293   6.824  -9.664  1.00  0.00    -0.188 OA
HETATM   37  C28 UNL     1      -1.162   4.414  -6.941  1.00  0.00     0.025 A 
HETATM   38  O3  UNL     1      -2.381   4.414  -8.961  1.00  0.00    -0.188 OA
ENDBRANCH  30  31
ENDBRANCH  29  30
ENDBRANCH  27  29
ENDBRANCH  25  26
ENDBRANCH  24  25
ENDBRANCH  23  24
ENDBRANCH  22  23
ENDBRANCH  21  22
ENDBRANCH  20  21
ENDBRANCH   1  20
TORSDOF 19
