REMARK  4 active torsions:
REMARK  status: ('A' for Active; 'I' for Inactive)
REMARK    1  A    between atoms: C4_4  and  C7_7 
REMARK    2  A    between atoms: C7_7  and  C8_9 
REMARK    3  A    between atoms: C8_9  and  C10_11 
REMARK    4  A    between atoms: C13_14  and  O2_17 
ROOT
HETATM    1  C7  UNL     1      -0.839   0.325  -2.225  1.00  0.00     0.194 C 
HETATM    2  O1  UNL     1      -1.761   0.543  -2.986  1.00  0.00    -0.287 OA
ENDROOT
BRANCH   1   3
HETATM    3  C4  UNL     1       0.071   1.312  -1.962  1.00  0.00     0.064 A 
HETATM    4  C3  UNL     1       1.152   1.207  -1.153  1.00  0.00     0.136 A 
HETATM    5  C2  UNL     1       1.953   2.280  -1.002  1.00  0.00     0.055 A 
HETATM    6  O3  UNL     1       1.532   0.082  -0.492  1.00  0.00    -0.190 OA
HETATM    7  C1  UNL     1       1.747   3.465  -1.595  1.00  0.00     0.133 A 
HETATM    8  C6  UNL     1       0.672   3.558  -2.389  1.00  0.00     0.028 A 
HETATM    9  O4  UNL     1       2.583   4.521  -1.412  1.00  0.00    -0.190 OA
HETATM   10  C5  UNL     1      -0.138   2.505  -2.563  1.00  0.00     0.007 A 
ENDBRANCH   1   3
BRANCH   1  11
HETATM   11  C8  UNL     1      -0.862  -1.102  -1.657  1.00  0.00     0.017 C 
HETATM   12  C9  UNL     1       0.106  -2.012  -2.435  1.00  0.00     0.034 C 
BRANCH  11  13
HETATM   13  C10 UNL     1      -0.892  -1.191  -0.141  1.00  0.00    -0.001 A 
HETATM   14  C11 UNL     1      -0.225  -2.137   0.542  1.00  0.00     0.002 A 
HETATM   15  C12 UNL     1      -0.267  -2.194   1.883  1.00  0.00     0.024 A 
HETATM   16  C13 UNL     1      -0.963  -1.305   2.619  1.00  0.00     0.094 A 
HETATM   17  C14 UNL     1      -1.638  -0.373   1.919  1.00  0.00     0.024 A 
HETATM   18  C15 UNL     1      -1.606  -0.309   0.580  1.00  0.00     0.002 A 
BRANCH  16  19
HETATM   19  O2  UNL     1      -1.068  -1.313   3.989  1.00  0.00    -0.328 OA
HETATM   20  C16 UNL     1      -0.587  -2.434   4.695  1.00  0.00     0.181 C 
ENDBRANCH  16  19
ENDBRANCH  11  13
ENDBRANCH   1  11
TORSDOF 4
