REMARK  3 active torsions:
REMARK  status: ('A' for Active; 'I' for Inactive)
REMARK    1  A    between atoms: C4_4  and  C5_5 
REMARK    2  A    between atoms: C5_5  and  C6_6 
REMARK    3  A    between atoms: C6_6  and  C7_7 
ROOT
HETATM    1  C7  UNL     1       3.117  -0.311   0.178  1.00  0.00     0.089 C 
HETATM    2  C8  UNL     1       3.731  -0.256   1.564  1.00  0.00     0.271 C 
HETATM    3  O1  UNL     1       2.842   0.055   2.514  1.00  0.00    -0.304 OA
HETATM    4  C9  UNL     1       1.606  -0.027   1.826  1.00  0.00     0.125 C 
HETATM    5  C10 UNL     1       0.414   0.750   2.373  1.00  0.00     0.034 C 
HETATM    6  C11 UNL     1      -0.225   1.293   1.061  1.00  0.00     0.017 C 
HETATM    7  C12 UNL     1       0.451   0.514  -0.107  1.00  0.00     0.006 C 
HETATM    8  C13 UNL     1       1.881   0.549   0.439  1.00  0.00     0.038 C 
HETATM    9  C14 UNL     1       0.123   1.264  -1.400  1.00  0.00     0.001 C 
HETATM   10  C15 UNL     1      -1.393   1.125  -1.682  1.00  0.00     0.004 C 
HETATM   11  C16 UNL     1      -2.367   1.238  -0.459  1.00  0.00     0.018 C 
HETATM   12  C17 UNL     1      -1.728   1.305   0.924  1.00  0.00    -0.049 C 
HETATM   13  C18 UNL     1      -2.541   1.418   1.992  1.00  0.00    -0.035 C 
HETATM   14  C19 UNL     1      -4.025   1.518   1.750  1.00  0.00     0.026 C 
HETATM   15  C20 UNL     1      -4.525   0.434   0.768  1.00  0.00     0.011 C 
HETATM   16  C21 UNL     1      -3.564   0.227  -0.473  1.00  0.00     0.004 C 
HETATM   17  C22 UNL     1      -3.074  -1.244  -0.512  1.00  0.00     0.008 C 
HETATM   18  C23 UNL     1      -4.236  -2.246  -0.523  1.00  0.00     0.065 C 
HETATM   19  C24 UNL     1      -5.230  -1.998   0.582  1.00  0.00     0.150 C 
HETATM   20  C25 UNL     1      -4.928  -0.865   1.539  1.00  0.00     0.052 C 
HETATM   21  C26 UNL     1      -3.814  -1.342   2.482  1.00  0.00     0.007 C 
HETATM   22  C27 UNL     1      -6.170  -0.588   2.400  1.00  0.00     0.007 C 
HETATM   23  O2  UNL     1      -6.221  -2.686   0.684  1.00  0.00    -0.296 OA
HETATM   24  C28 UNL     1      -4.357   0.478  -1.770  1.00  0.00     0.000 C 
HETATM   25  C29 UNL     1       0.024  -0.955  -0.254  1.00  0.00     0.000 C 
HETATM   26  C30 UNL     1       0.160   2.783   1.072  1.00  0.00     0.004 C 
HETATM   27  O3  UNL     1       4.906  -0.459   1.762  1.00  0.00    -0.264 OA
ENDROOT
BRANCH   1  28
HETATM   28  C6  UNL     1       3.981   0.291  -0.924  1.00  0.00     0.015 C 
BRANCH  28  29
HETATM   29  C5  UNL     1       5.104  -0.684  -1.279  1.00  0.00     0.026 C 
BRANCH  29  30
HETATM   30  C4  UNL     1       6.014  -0.145  -2.350  1.00  0.00    -0.035 C 
HETATM   31  C2  UNL     1       7.248  -0.660  -2.463  1.00  0.00    -0.048 C 
HETATM   32  C1  UNL     1       7.656  -1.758  -1.518  1.00  0.00     0.026 C 
HETATM   33  C3  UNL     1       8.160  -0.115  -3.529  1.00  0.00     0.026 C 
ENDBRANCH  29  30
ENDBRANCH  28  29
ENDBRANCH   1  28
TORSDOF 3
