REMARK  4 active torsions:
REMARK  status: ('A' for Active; 'I' for Inactive)
REMARK    1  A    between atoms: C15_15  and  C18_19 
REMARK    2  A    between atoms: C18_19  and  C20_21 
REMARK    3  A    between atoms: C20_21  and  C21_22 
REMARK    4  A    between atoms: C21_22  and  C22_23 
ROOT
HETATM    1  C1  UNL     1      -4.481   0.496  -0.160  1.00  0.00     0.065 C 
HETATM    2  C2  UNL     1      -5.006  -0.789  -0.756  1.00  0.00     0.150 C 
HETATM    3  C3  UNL     1      -4.256  -2.072  -0.441  1.00  0.00     0.052 C 
HETATM    4  C4  UNL     1      -3.842  -2.137   1.060  1.00  0.00     0.011 C 
HETATM    5  C5  UNL     1      -3.203  -0.840   1.627  1.00  0.00     0.004 C 
HETATM    6  C6  UNL     1      -4.145   0.348   1.328  1.00  0.00     0.008 C 
HETATM    7  C7  UNL     1      -1.787  -0.635   1.016  1.00  0.00     0.018 C 
HETATM    8  C8  UNL     1      -0.938  -1.902   1.043  1.00  0.00    -0.049 C 
HETATM    9  C9  UNL     1      -1.477  -3.133   1.185  1.00  0.00    -0.035 C 
HETATM   10  C10 UNL     1      -2.957  -3.359   1.383  1.00  0.00     0.026 C 
HETATM   11  C11 UNL     1       0.562  -1.719   0.912  1.00  0.00     0.017 C 
HETATM   12  C12 UNL     1       0.900  -0.412   0.166  1.00  0.00     0.006 C 
HETATM   13  C13 UNL     1       0.396   0.791   0.984  1.00  0.00     0.001 C 
HETATM   14  C14 UNL     1      -0.990   0.543   1.633  1.00  0.00     0.004 C 
HETATM   15  C15 UNL     1       2.424  -0.529   0.016  1.00  0.00     0.031 C 
HETATM   16  C16 UNL     1       2.604  -2.006  -0.387  1.00  0.00     0.152 C 
HETATM   17  C17 UNL     1       1.332  -2.746   0.070  1.00  0.00     0.037 C 
HETATM   18  O1  UNL     1       3.750  -2.549   0.238  1.00  0.00    -0.224 OA
HETATM   19  C26 UNL     1       0.285  -0.400  -1.244  1.00  0.00     0.000 C 
HETATM   20  C27 UNL     1       1.170  -1.752   2.320  1.00  0.00     0.004 C 
HETATM   21  C28 UNL     1      -3.082  -0.969   3.156  1.00  0.00     0.000 C 
HETATM   22  C29 UNL     1      -3.053  -2.154  -1.389  1.00  0.00     0.007 C 
HETATM   23  C30 UNL     1      -5.170  -3.266  -0.758  1.00  0.00     0.007 C 
HETATM   24  O2  UNL     1      -5.992  -0.779  -1.455  1.00  0.00    -0.296 OA
ENDROOT
BRANCH  15  25
HETATM   25  C18 UNL     1       3.033   0.436  -1.002  1.00  0.00     0.003 C 
HETATM   26  C19 UNL     1       4.369  -0.119  -1.494  1.00  0.00     0.000 C 
BRANCH  25  27
HETATM   27  C20 UNL     1       3.164   1.822  -0.371  1.00  0.00     0.005 C 
BRANCH  27  28
HETATM   28  C21 UNL     1       3.254   2.938  -1.414  1.00  0.00     0.025 C 
BRANCH  28  29
HETATM   29  C22 UNL     1       3.375   4.301  -0.787  1.00  0.00    -0.035 C 
HETATM   30  C23 UNL     1       3.854   5.309  -1.533  1.00  0.00    -0.048 C 
HETATM   31  C24 UNL     1       4.082   6.717  -1.051  1.00  0.00     0.026 C 
HETATM   32  C25 UNL     1       4.199   5.035  -2.973  1.00  0.00     0.026 C 
ENDBRANCH  28  29
ENDBRANCH  27  28
ENDBRANCH  25  27
ENDBRANCH  15  25
TORSDOF 4
