REMARK  3 active torsions:
REMARK  status: ('A' for Active; 'I' for Inactive)
REMARK    1  A    between atoms: C1_2  and  O1_3 
REMARK    2  A    between atoms: C4_7  and  C5_8 
REMARK    3  A    between atoms: C7_11  and  O2_12 
ROOT
HETATM    1 CL1  UNL     1       6.849   0.956   0.217  1.00  0.00     0.000 Cl
ENDROOT
TORSDOF 3
