REMARK  12 active torsions:
REMARK  status: ('A' for Active; 'I' for Inactive)
REMARK    1  A    between atoms: C2_2  and  O1_3 
REMARK    2  A    between atoms: O1_3  and  C3_4 
REMARK    3  A    between atoms: C4_5  and  O2_6 
REMARK    4  A    between atoms: O2_6  and  C5_7 
REMARK    5  A    between atoms: C5_7  and  C6_9 
REMARK    6  A    between atoms: C12_15  and  C28_36 
REMARK    7  A    between atoms: C13_16  and  O4_17 
REMARK    8  A    between atoms: O4_17  and  C14_18 
REMARK    9  A    between atoms: C16_21  and  O6_22 
REMARK   10  A    between atoms: O6_22  and  C17_23 
REMARK   11  A    between atoms: C28_36  and  O9_37 
REMARK   12  A    between atoms: O9_37  and  C29_38 
ROOT
HETATM    1  C3  UNL     1      -2.000   0.076   0.126  1.00  0.00     0.152 C 
HETATM    2  C4  UNL     1      -2.445   1.512   0.847  1.00  0.00     0.159 C 
HETATM    3  C12 UNL     1      -1.679   2.827  -0.013  1.00  0.00     0.107 C 
HETATM    4  C13 UNL     1      -1.690   4.394   1.006  1.00  0.00     0.159 C 
HETATM    5  C16 UNL     1      -0.381   5.414   0.685  1.00  0.00     0.154 C 
HETATM    6  C19 UNL     1       0.442   4.349   0.168  1.00  0.00     0.058 C 
HETATM    7  C20 UNL     1       0.515   2.888   1.111  1.00  0.00     0.032 C 
HETATM    8  C21 UNL     1       0.175   2.335  -0.090  1.00  0.00     0.100 C 
HETATM    9  C22 UNL     1       0.418   0.867  -0.472  1.00  0.00     0.028 C 
HETATM   10  C23 UNL     1      -0.456  -0.101   0.322  1.00  0.00     0.035 C 
HETATM   11  C24 UNL     1       0.262   0.649  -1.999  1.00  0.00     0.003 C 
HETATM   12  O8  UNL     1       1.317   3.051  -0.923  1.00  0.00    -0.363 OA
HETATM   13  C25 UNL     1       1.705   4.339  -0.345  1.00  0.00     0.095 C 
HETATM   14  C26 UNL     1       2.079   5.340  -1.468  1.00  0.00     0.030 C 
HETATM   15  C27 UNL     1       2.761   4.345   0.782  1.00  0.00     0.030 C 
ENDROOT
BRANCH   2  16
HETATM   16  O2  UNL     1      -3.941   1.428   0.962  1.00  0.00    -0.298 OA
BRANCH  16  17
HETATM   17  C5  UNL     1      -4.357   0.223   1.776  1.00  0.00     0.296 C 
HETATM   18  O3  UNL     1      -3.502  -0.401   2.434  1.00  0.00    -0.259 OA
BRANCH  17  19
HETATM   19  C6  UNL     1      -5.636  -0.521   1.503  1.00  0.00     0.063 A 
HETATM   20  C7  UNL     1      -6.741   0.069   1.020  1.00  0.00     0.005 A 
HETATM   21  C8  UNL     1      -7.879  -0.771   0.573  1.00  0.00     0.000 A 
HETATM   22  C9  UNL     1      -7.786  -2.103   0.574  1.00  0.00     0.000 A 
HETATM   23  C10 UNL     1      -6.576  -2.746   1.083  1.00  0.00     0.000 A 
HETATM   24  C11 UNL     1      -5.576  -2.000   1.548  1.00  0.00     0.005 A 
ENDBRANCH  17  19
ENDBRANCH  16  17
ENDBRANCH   2  16
BRANCH   1  25
HETATM   25  O1  UNL     1      -2.267  -0.184  -1.341  1.00  0.00    -0.302 OA
BRANCH  25  26
HETATM   26  C2  UNL     1      -3.494  -0.232  -2.099  1.00  0.00     0.272 C 
HETATM   27  C1  UNL     1      -4.829   0.046  -1.611  1.00  0.00     0.106 C 
HETATM   28  O11 UNL     1      -3.398  -0.514  -3.295  1.00  0.00    -0.264 OA
ENDBRANCH  25  26
ENDBRANCH   1  25
BRANCH   3  29
HETATM   29  C28 UNL     1      -2.195   2.917  -1.562  1.00  0.00     0.159 C 
BRANCH  29  30
HETATM   30  O9  UNL     1      -3.480   3.461  -2.178  1.00  0.00    -0.301 OA
BRANCH  30  31
HETATM   31  C29 UNL     1      -4.840   3.622  -1.678  1.00  0.00     0.272 C 
HETATM   32  C30 UNL     1      -5.335   3.397  -0.299  1.00  0.00     0.106 C 
HETATM   33  O10 UNL     1      -5.674   4.036  -2.489  1.00  0.00    -0.264 OA
ENDBRANCH  30  31
ENDBRANCH  29  30
ENDBRANCH   3  29
BRANCH   4  34
HETATM   34  O4  UNL     1      -2.902   5.157   1.339  1.00  0.00    -0.301 OA
BRANCH  34  35
HETATM   35  C14 UNL     1      -3.439   5.983   0.334  1.00  0.00     0.272 C 
HETATM   36  C15 UNL     1      -4.591   6.896   0.670  1.00  0.00     0.106 C 
HETATM   37  O5  UNL     1      -2.964   6.000  -0.805  1.00  0.00    -0.264 OA
ENDBRANCH  34  35
ENDBRANCH   4  34
BRANCH   5  38
HETATM   38  O6  UNL     1      -0.415   6.326  -0.486  1.00  0.00    -0.302 OA
BRANCH  38  39
HETATM   39  C17 UNL     1      -0.737   7.714  -0.322  1.00  0.00     0.272 C 
HETATM   40  C18 UNL     1      -0.941   8.361   1.025  1.00  0.00     0.106 C 
HETATM   41  O7  UNL     1      -0.778   8.425  -1.334  1.00  0.00    -0.264 OA
ENDBRANCH  38  39
ENDBRANCH   5  38
TORSDOF 12
