REMARK  10 active torsions:
REMARK  status: ('A' for Active; 'I' for Inactive)
REMARK    1  A    between atoms: C2_2  and  C3_3 
REMARK    2  A    between atoms: C3_3  and  O1_4 
REMARK    3  A    between atoms: O1_4  and  C4_5 
REMARK    4  A    between atoms: C5_6  and  C22_28 
REMARK    5  A    between atoms: C6_7  and  O2_8 
REMARK    6  A    between atoms: O2_8  and  C7_9 
REMARK    7  A    between atoms: C9_12  and  O4_13 
REMARK    8  A    between atoms: O4_13  and  C10_14 
REMARK    9  A    between atoms: C22_28  and  O7_29 
REMARK   10  A    between atoms: O7_29  and  C23_30 
ROOT
HETATM    1  C4  UNL     1      -1.465   0.164   0.402  1.00  0.00     0.131 C 
HETATM    2  C5  UNL     1      -0.144   0.664   1.055  1.00  0.00     0.104 C 
HETATM    3  C6  UNL     1       0.977  -0.416   1.068  1.00  0.00     0.159 C 
HETATM    4  C9  UNL     1       1.908  -0.420  -0.162  1.00  0.00     0.154 C 
HETATM    5  C12 UNL     1       2.233   1.004  -0.650  1.00  0.00     0.058 C 
HETATM    6  C13 UNL     1       0.926   1.691  -1.049  1.00  0.00     0.032 C 
HETATM    7  C14 UNL     1       0.356   1.975   0.352  1.00  0.00     0.099 C 
HETATM    8  C15 UNL     1      -0.728   3.078   0.315  1.00  0.00     0.025 C 
HETATM    9  C16 UNL     1      -1.976   2.529  -0.402  1.00  0.00     0.005 C 
HETATM   10  C17 UNL     1      -2.523   1.270   0.279  1.00  0.00     0.031 C 
HETATM   11  C18 UNL     1      -0.238   4.375  -0.346  1.00  0.00     0.002 C 
HETATM   12  O6  UNL     1       1.506   2.455   1.039  1.00  0.00    -0.363 OA
HETATM   13  C19 UNL     1       2.701   1.988   0.440  1.00  0.00     0.095 C 
HETATM   14  C20 UNL     1       3.598   1.377   1.512  1.00  0.00     0.030 C 
HETATM   15  C21 UNL     1       3.377   3.195  -0.205  1.00  0.00     0.030 C 
ENDROOT
BRANCH   1  16
HETATM   16  O1  UNL     1      -1.228  -0.396  -0.881  1.00  0.00    -0.301 OA
BRANCH  16  17
HETATM   17  C3  UNL     1      -2.268  -1.102  -1.322  1.00  0.00     0.296 C 
HETATM   18  O9  UNL     1      -3.201  -1.432  -0.631  1.00  0.00    -0.259 OA
BRANCH  17  19
HETATM   19  C2  UNL     1      -2.213  -1.475  -2.768  1.00  0.00     0.063 A 
HETATM   20  C1  UNL     1      -1.154  -1.019  -3.574  1.00  0.00     0.005 A 
HETATM   21  C28 UNL     1      -1.103  -1.371  -4.934  1.00  0.00     0.000 A 
HETATM   22  C27 UNL     1      -2.109  -2.180  -5.490  1.00  0.00     0.000 A 
HETATM   23  C26 UNL     1      -3.168  -2.635  -4.686  1.00  0.00     0.000 A 
HETATM   24  C25 UNL     1      -3.221  -2.283  -3.324  1.00  0.00     0.005 A 
ENDBRANCH  17  19
ENDBRANCH  16  17
ENDBRANCH   1  16
BRANCH   2  25
HETATM   25  C22 UNL     1      -0.476   1.029   2.516  1.00  0.00     0.159 C 
BRANCH  25  26
HETATM   26  O7  UNL     1      -0.883  -0.139   3.215  1.00  0.00    -0.301 OA
BRANCH  26  27
HETATM   27  C23 UNL     1      -1.141   0.102   4.496  1.00  0.00     0.272 C 
HETATM   28  C24 UNL     1      -1.557  -1.100   5.303  1.00  0.00     0.106 C 
HETATM   29  O8  UNL     1      -1.055   1.195   5.006  1.00  0.00    -0.264 OA
ENDBRANCH  26  27
ENDBRANCH  25  26
ENDBRANCH   2  25
BRANCH   3  30
HETATM   30  O2  UNL     1       0.422  -1.711   1.256  1.00  0.00    -0.301 OA
BRANCH  30  31
HETATM   31  C7  UNL     1       1.266  -2.541   1.863  1.00  0.00     0.272 C 
HETATM   32  C8  UNL     1       0.707  -3.902   2.180  1.00  0.00     0.106 C 
HETATM   33  O3  UNL     1       2.402  -2.252   2.152  1.00  0.00    -0.264 OA
ENDBRANCH  30  31
ENDBRANCH   3  30
BRANCH   4  34
HETATM   34  O4  UNL     1       1.318  -1.158  -1.223  1.00  0.00    -0.302 OA
BRANCH  34  35
HETATM   35  C10 UNL     1       1.617  -2.453  -1.166  1.00  0.00     0.272 C 
HETATM   36  C11 UNL     1       0.692  -3.359  -1.932  1.00  0.00     0.106 C 
HETATM   37  O5  UNL     1       2.557  -2.900  -0.551  1.00  0.00    -0.264 OA
ENDBRANCH  34  35
ENDBRANCH   4  34
TORSDOF 10
