REMARK  2 active torsions:
REMARK  status: ('A' for Active; 'I' for Inactive)
REMARK    1  A    between atoms: N1_2  and  C2_3 
REMARK    2  A    between atoms: C18_20  and  C19_21 
ROOT
HETATM    1  C2  UNL     1       4.145  -0.322  -0.148  1.00  0.00     0.291 C 
HETATM    2  C3  UNL     1       3.281   0.846   0.412  1.00  0.00     0.187 C 
HETATM    3  O1  UNL     1       2.467   1.383  -0.615  1.00  0.00    -0.221 OA
HETATM    4  C4  UNL     1       2.373   0.387   1.574  1.00  0.00     0.039 C 
HETATM    5  C5  UNL     1       1.379  -0.774   1.221  1.00  0.00     0.017 C 
HETATM    6  C6  UNL     1       2.002  -1.586   0.084  1.00  0.00    -0.047 C 
HETATM    7  C7  UNL     1       3.508  -1.709   0.105  1.00  0.00     0.060 C 
HETATM    8  C8  UNL     1       1.287  -2.139  -0.918  1.00  0.00    -0.035 C 
HETATM    9  C9  UNL     1      -0.191  -1.887  -1.047  1.00  0.00     0.025 C 
HETATM   10  C10 UNL     1      -0.508  -0.467  -0.559  1.00  0.00     0.005 C 
HETATM   11  C11 UNL     1      -0.102  -0.322   0.920  1.00  0.00     0.004 C 
HETATM   12  C12 UNL     1      -0.504   1.066   1.451  1.00  0.00     0.000 C 
HETATM   13  C13 UNL     1      -2.004   1.336   1.266  1.00  0.00     0.000 C 
HETATM   14  C14 UNL     1      -2.414   1.240  -0.217  1.00  0.00     0.007 C 
HETATM   15  C15 UNL     1      -1.986  -0.123  -0.813  1.00  0.00     0.008 C 
HETATM   16  C16 UNL     1      -3.027  -1.106  -0.258  1.00  0.00     0.065 C 
HETATM   17  C17 UNL     1      -4.270  -0.275  -0.135  1.00  0.00     0.150 C 
HETATM   18  C18 UNL     1      -3.955   1.182  -0.322  1.00  0.00     0.058 C 
HETATM   19  O2  UNL     1      -5.371  -0.719   0.086  1.00  0.00    -0.296 OA
HETATM   20  C21 UNL     1      -1.811   2.391  -1.027  1.00  0.00     0.000 C 
HETATM   21  C22 UNL     1       1.334  -1.723   2.432  1.00  0.00     0.004 C 
ENDROOT
BRANCH   1  22
HETATM   22  N1  UNL     1       5.477  -0.293   0.447  1.00  0.00     0.342 N 
HETATM   23  C1  UNL     1       6.371  -1.193  -0.260  1.00  0.00     0.328 C 
ENDBRANCH   1  22
BRANCH  18  24
HETATM   24  C19 UNL     1      -4.482   1.652  -1.676  1.00  0.00     0.007 C 
HETATM   25  C20 UNL     1      -6.010   1.557  -1.688  1.00  0.00     0.000 C 
ENDBRANCH  18  24
TORSDOF 2
