REMARK  9 active torsions:
REMARK  status: ('A' for Active; 'I' for Inactive)
REMARK    1  A    between atoms: C7_10  and  O4_14 
REMARK    2  A    between atoms: C8_11  and  C9_12 
REMARK    3  A    between atoms: O4_14  and  C11_15 
REMARK    4  A    between atoms: C12_17  and  C26_37 
REMARK    5  A    between atoms: C13_18  and  O8_23 
REMARK    6  A    between atoms: O8_23  and  C16_24 
REMARK    7  A    between atoms: C16_24  and  C17_25 
REMARK    8  A    between atoms: C18_26  and  C19_27 
REMARK    9  A    between atoms: C23_31  and  O9_33 
ROOT
HETATM    1  C11 UNL     1       2.141  -0.455   1.661  1.00  0.00     0.272 C 
HETATM    2  O5  UNL     1       3.081  -0.388   0.606  1.00  0.00    -0.326 OA
HETATM    3  C12 UNL     1       2.616  -0.887  -0.626  1.00  0.00     0.181 C 
HETATM    4  C13 UNL     1       2.128  -2.333  -0.511  1.00  0.00     0.187 C 
HETATM    5  C14 UNL     1       1.141  -2.466   0.642  1.00  0.00     0.217 C 
HETATM    6  C15 UNL     1       1.746  -1.893   1.900  1.00  0.00     0.241 C 
HETATM    7  O6  UNL     1       0.810  -1.991   2.946  1.00  0.00    -0.215 OA
HETATM    8  O7  UNL     1       0.827  -3.819   0.863  1.00  0.00    -0.218 OA
ENDROOT
BRANCH   1   9
HETATM    9  O4  UNL     1       1.039   0.342   1.274  1.00  0.00    -0.303 OA
BRANCH   9  10
HETATM   10  C7  UNL     1       0.893   1.560   1.970  1.00  0.00     0.248 C 
HETATM   11  O3  UNL     1       2.108   2.262   1.867  1.00  0.00    -0.303 OA
HETATM   12  C6  UNL     1       2.076   3.621   2.016  1.00  0.00     0.122 C 
HETATM   13  C4  UNL     1       0.951   4.353   2.125  1.00  0.00     0.093 C 
HETATM   14  C3  UNL     1      -0.389   3.675   2.083  1.00  0.00     0.163 C 
HETATM   15  C5  UNL     1       0.991   5.707   2.280  1.00  0.00     0.296 C 
HETATM   16  C2  UNL     1      -1.395   4.639   1.469  1.00  0.00     0.068 C 
HETATM   17  C8  UNL     1      -0.258   2.341   1.345  1.00  0.00     0.111 C 
HETATM   18  O13 UNL     1      -0.769   3.409   3.417  1.00  0.00    -0.221 OA
HETATM   19  C1  UNL     1      -1.400   5.954   2.241  1.00  0.00     0.155 C 
HETATM   20  O1  UNL     1      -0.117   6.507   2.371  1.00  0.00    -0.298 OA
HETATM   21  O2  UNL     1       2.077   6.246   2.352  1.00  0.00    -0.259 OA
BRANCH  17  22
HETATM   22  C9  UNL     1      -0.058   2.535  -0.144  1.00  0.00    -0.019 C 
HETATM   23  C10 UNL     1      -1.051   2.493  -1.044  1.00  0.00    -0.005 C 
ENDBRANCH  17  22
ENDBRANCH   9  10
ENDBRANCH   1   9
BRANCH   3  24
HETATM   24  C26 UNL     1       3.746  -0.772  -1.642  1.00  0.00     0.214 C 
HETATM   25  O12 UNL     1       4.035   0.591  -1.885  1.00  0.00    -0.218 OA
ENDBRANCH   3  24
BRANCH   4  26
HETATM   26  O8  UNL     1       1.419  -2.674  -1.665  1.00  0.00    -0.296 OA
BRANCH  26  27
HETATM   27  C16 UNL     1       1.639  -3.847  -2.318  1.00  0.00     0.296 C 
HETATM   28  O11 UNL     1       2.755  -4.324  -2.336  1.00  0.00    -0.259 OA
BRANCH  27  29
HETATM   29  C17 UNL     1       0.620  -4.621  -2.790  1.00  0.00     0.068 C 
HETATM   30  C18 UNL     1      -0.702  -4.356  -2.776  1.00  0.00     0.005 C 
BRANCH  30  31
HETATM   31  C19 UNL     1      -1.397  -3.231  -2.503  1.00  0.00     0.002 A 
HETATM   32  C20 UNL     1      -0.930  -1.990  -2.719  1.00  0.00     0.002 A 
HETATM   33  C21 UNL     1      -1.649  -0.911  -2.384  1.00  0.00     0.029 A 
HETATM   34  C22 UNL     1      -2.875  -1.030  -1.855  1.00  0.00     0.153 A 
HETATM   35  C23 UNL     1      -3.420  -2.256  -1.711  1.00  0.00     0.119 A 
HETATM   36  O10 UNL     1      -3.588   0.076  -1.506  1.00  0.00    -0.188 OA
HETATM   37  C24 UNL     1      -2.664  -3.322  -2.050  1.00  0.00     0.026 A 
BRANCH  35  38
HETATM   38  O9  UNL     1      -4.682  -2.327  -1.169  1.00  0.00    -0.326 OA
HETATM   39  C25 UNL     1      -5.140  -3.557  -0.660  1.00  0.00     0.181 C 
ENDBRANCH  35  38
ENDBRANCH  30  31
ENDBRANCH  27  29
ENDBRANCH  26  27
ENDBRANCH   4  26
TORSDOF 9
