REMARK  2 active torsions:
REMARK  status: ('A' for Active; 'I' for Inactive)
REMARK    1  A    between atoms: N1_2  and  C2_3 
REMARK    2  A    between atoms: C18_20  and  C19_21 
ROOT
HETATM    1  C2  UNL     1       3.838  -0.377  -0.148  1.00  0.00     0.253 C 
HETATM    2  C3  UNL     1       2.973   0.791   0.412  1.00  0.00     0.184 C 
HETATM    3  O1  UNL     1       2.158   1.328  -0.613  1.00  0.00    -0.221 OA
HETATM    4  C4  UNL     1       2.066   0.332   1.574  1.00  0.00     0.039 C 
HETATM    5  C5  UNL     1       1.070  -0.828   1.221  1.00  0.00     0.017 C 
HETATM    6  C6  UNL     1       1.695  -1.641   0.084  1.00  0.00    -0.047 C 
HETATM    7  C7  UNL     1       3.201  -1.762   0.105  1.00  0.00     0.058 C 
HETATM    8  C8  UNL     1       0.980  -2.193  -0.918  1.00  0.00    -0.035 C 
HETATM    9  C9  UNL     1      -0.498  -1.941  -1.047  1.00  0.00     0.025 C 
HETATM   10  C10 UNL     1      -0.814  -0.521  -0.559  1.00  0.00     0.005 C 
HETATM   11  C11 UNL     1      -0.408  -0.377   0.922  1.00  0.00     0.004 C 
HETATM   12  C12 UNL     1      -0.811   1.012   1.451  1.00  0.00     0.000 C 
HETATM   13  C13 UNL     1      -2.311   1.281   1.266  1.00  0.00     0.000 C 
HETATM   14  C14 UNL     1      -2.721   1.186  -0.217  1.00  0.00     0.007 C 
HETATM   15  C15 UNL     1      -2.295  -0.178  -0.813  1.00  0.00     0.008 C 
HETATM   16  C16 UNL     1      -3.334  -1.158  -0.258  1.00  0.00     0.065 C 
HETATM   17  C17 UNL     1      -4.576  -0.330  -0.135  1.00  0.00     0.150 C 
HETATM   18  C18 UNL     1      -4.262   1.127  -0.322  1.00  0.00     0.058 C 
HETATM   19  O2  UNL     1      -5.680  -0.773   0.086  1.00  0.00    -0.296 OA
HETATM   20  C21 UNL     1      -2.119   2.336  -1.027  1.00  0.00     0.000 C 
HETATM   21  C22 UNL     1       1.027  -1.777   2.432  1.00  0.00     0.004 C 
ENDROOT
BRANCH   1  22
HETATM   22  N1  UNL     1       5.170  -0.346   0.447  1.00  0.00     0.142 N 
HETATM   23  C1  UNL     1       5.889  -1.572   0.145  1.00  0.00     0.285 C 
HETATM   24  C23 UNL     1       5.912   0.811  -0.025  1.00  0.00     0.285 C 
ENDBRANCH   1  22
BRANCH  18  25
HETATM   25  C19 UNL     1      -4.791   1.598  -1.676  1.00  0.00     0.007 C 
HETATM   26  C20 UNL     1      -6.317   1.494  -1.691  1.00  0.00     0.000 C 
ENDBRANCH  18  25
TORSDOF 2
