REMARK  6 active torsions:
REMARK  status: ('A' for Active; 'I' for Inactive)
REMARK    1  A    between atoms: C4_4  and  C5_5 
REMARK    2  A    between atoms: C5_5  and  C6_6 
REMARK    3  A    between atoms: C6_6  and  C7_7 
REMARK    4  A    between atoms: C6_6  and  C23_28 
REMARK    5  A    between atoms: C7_7  and  C8_8 
REMARK    6  A    between atoms: C14_16  and  C17_20 
ROOT
HETATM    1  C8  UNL     1      -1.225   0.816   1.604  1.00  0.00     0.026 A 
HETATM    2  C9  UNL     1      -2.385   1.529   1.996  1.00  0.00     0.131 A 
HETATM    3  O1  UNL     1      -3.600   0.986   1.838  1.00  0.00    -0.190 OA
HETATM    4  C10 UNL     1      -2.266   2.820   2.563  1.00  0.00     0.055 A 
HETATM    5  C11 UNL     1      -0.992   3.412   2.723  1.00  0.00     0.138 A 
HETATM    6  C12 UNL     1       0.172   2.709   2.315  1.00  0.00     0.082 A 
HETATM    7  C13 UNL     1       0.057   1.395   1.779  1.00  0.00     0.097 A 
HETATM    8  O2  UNL     1       1.152   0.684   1.432  1.00  0.00    -0.329 OA
HETATM    9  C14 UNL     1       2.441   1.037   1.947  1.00  0.00     0.153 C 
HETATM   10  C15 UNL     1       2.670   2.555   1.834  1.00  0.00     0.104 C 
HETATM   11  C16 UNL     1       1.520   3.338   2.428  1.00  0.00     0.180 C 
HETATM   12  O3  UNL     1       1.781   4.404   2.940  1.00  0.00    -0.291 OA
HETATM   13  O5  UNL     1      -0.904   4.641   3.256  1.00  0.00    -0.190 OA
ENDROOT
BRANCH   1  14
HETATM   14  C7  UNL     1      -1.354  -0.531   1.020  1.00  0.00     0.035 C 
BRANCH  14  15
HETATM   15  C6  UNL     1      -1.869  -0.473  -0.418  1.00  0.00     0.027 C 
BRANCH  15  16
HETATM   16  C5  UNL     1      -2.289  -1.844  -0.949  1.00  0.00     0.030 C 
BRANCH  16  17
HETATM   17  C4  UNL     1      -2.904  -1.764  -2.320  1.00  0.00    -0.034 C 
HETATM   18  C2  UNL     1      -2.922  -2.871  -3.082  1.00  0.00    -0.048 C 
HETATM   19  C1  UNL     1      -3.471  -2.773  -4.479  1.00  0.00     0.026 C 
HETATM   20  C3  UNL     1      -2.393  -4.152  -2.496  1.00  0.00     0.026 C 
ENDBRANCH  16  17
ENDBRANCH  15  16
BRANCH  15  21
HETATM   21  C23 UNL     1      -0.916   0.234  -1.344  1.00  0.00    -0.044 C 
HETATM   22  C24 UNL     1      -0.168  -0.504  -2.180  1.00  0.00    -0.009 C 
HETATM   23  C25 UNL     1      -0.760   1.730  -1.373  1.00  0.00     0.026 C 
ENDBRANCH  15  21
ENDBRANCH  14  15
ENDBRANCH   1  14
BRANCH   9  24
HETATM   24  C17 UNL     1       3.482   0.252   1.233  1.00  0.00     0.031 A 
HETATM   25  C18 UNL     1       3.428  -1.156   1.219  1.00  0.00     0.129 A 
HETATM   26  O4  UNL     1       2.457  -1.797   1.840  1.00  0.00    -0.190 OA
HETATM   27  C19 UNL     1       4.420  -1.885   0.537  1.00  0.00     0.027 A 
HETATM   28  C20 UNL     1       5.461  -1.213  -0.127  1.00  0.00     0.002 A 
HETATM   29  C21 UNL     1       5.512   0.191  -0.113  1.00  0.00    -0.000 A 
HETATM   30  C22 UNL     1       4.524   0.924   0.566  1.00  0.00     0.000 A 
ENDBRANCH   9  24
TORSDOF 6
