REMARK  6 active torsions:
REMARK  status: ('A' for Active; 'I' for Inactive)
REMARK    1  A    between atoms: C2_2  and  C3_3 
REMARK    2  A    between atoms: C3_3  and  C4_4 
REMARK    3  A    between atoms: C3_3  and  C9_9 
REMARK    4  A    between atoms: C4_4  and  C5_5 
REMARK    5  A    between atoms: C9_9  and  C10_10 
REMARK    6  A    between atoms: C18_20  and  C19_22 
ROOT
HETATM    1  C10 UNL     1      -1.730   0.365  -0.535  1.00  0.00     0.029 A 
HETATM    2  C11 UNL     1      -0.900   0.737  -1.622  1.00  0.00     0.131 A 
HETATM    3  O1  UNL     1      -1.071   1.919  -2.232  1.00  0.00    -0.190 OA
HETATM    4  C12 UNL     1       0.118  -0.137  -2.070  1.00  0.00     0.052 A 
HETATM    5  C13 UNL     1       0.311  -1.387  -1.437  1.00  0.00     0.107 A 
HETATM    6  C14 UNL     1      -0.522  -1.760  -0.349  1.00  0.00     0.087 A 
HETATM    7  C15 UNL     1      -1.544  -0.886   0.104  1.00  0.00     0.134 A 
HETATM    8  O2  UNL     1      -2.333  -1.234   1.132  1.00  0.00    -0.190 OA
HETATM    9  C16 UNL     1      -0.297  -3.083   0.297  1.00  0.00     0.202 A 
HETATM   10  C17 UNL     1       0.803  -3.887  -0.277  1.00  0.00     0.067 A 
HETATM   11  C18 UNL     1       1.534  -3.425  -1.317  1.00  0.00     0.105 A 
HETATM   12  O3  UNL     1       1.286  -2.218  -1.868  1.00  0.00    -0.307 OA
HETATM   13  O6  UNL     1      -0.905  -3.564   1.226  1.00  0.00    -0.286 OA
ENDROOT
BRANCH   1  14
HETATM   14  C9  UNL     1      -2.789   1.279  -0.071  1.00  0.00     0.035 C 
BRANCH  14  15
HETATM   15  C3  UNL     1      -2.341   2.085   1.149  1.00  0.00     0.027 C 
BRANCH  15  16
HETATM   16  C2  UNL     1      -3.482   2.812   1.808  1.00  0.00    -0.044 C 
HETATM   17  C1  UNL     1      -4.511   2.120   2.662  1.00  0.00     0.026 C 
HETATM   18  C25 UNL     1      -3.588   4.138   1.625  1.00  0.00    -0.009 C 
ENDBRANCH  15  16
BRANCH  15  19
HETATM   19  C4  UNL     1      -1.160   3.007   0.845  1.00  0.00     0.030 C 
BRANCH  19  20
HETATM   20  C5  UNL     1      -0.648   3.709   2.075  1.00  0.00    -0.034 C 
HETATM   21  C6  UNL     1       0.539   4.333   2.009  1.00  0.00    -0.048 C 
HETATM   22  C7  UNL     1       1.051   5.035   3.239  1.00  0.00     0.026 C 
HETATM   23  C8  UNL     1       1.298   4.299   0.710  1.00  0.00     0.026 C 
ENDBRANCH  19  20
ENDBRANCH  15  19
ENDBRANCH  14  15
ENDBRANCH   1  14
BRANCH  11  24
HETATM   24  C19 UNL     1       2.635  -4.280  -1.858  1.00  0.00     0.048 A 
HETATM   25  C20 UNL     1       2.384  -5.616  -2.228  1.00  0.00     0.135 A 
HETATM   26  O4  UNL     1       1.178  -6.134  -2.104  1.00  0.00    -0.190 OA
HETATM   27  C21 UNL     1       3.432  -6.406  -2.734  1.00  0.00     0.055 A 
HETATM   28  C22 UNL     1       4.725  -5.871  -2.873  1.00  0.00     0.133 A 
HETATM   29  C23 UNL     1       4.969  -4.538  -2.503  1.00  0.00     0.028 A 
HETATM   30  O5  UNL     1       5.702  -6.616  -3.348  1.00  0.00    -0.190 OA
HETATM   31  C24 UNL     1       3.927  -3.743  -1.996  1.00  0.00     0.006 A 
ENDBRANCH  11  24
TORSDOF 6
