REMARK  0 active torsions:
REMARK  status: ('A' for Active; 'I' for Inactive)
ROOT
HETATM    1  C1  UNL     1      -5.405   1.204  -0.223  1.00  0.00     0.000 A 
HETATM    2  C2  UNL     1      -5.476  -0.131  -0.058  1.00  0.00     0.002 A 
HETATM    3  C3  UNL     1      -4.362  -0.877   0.032  1.00  0.00     0.019 A 
HETATM    4  C4  UNL     1      -3.184  -0.249  -0.057  1.00  0.00     0.081 A 
HETATM    5  C5  UNL     1      -3.114   1.077  -0.232  1.00  0.00     0.015 A 
HETATM    6  C6  UNL     1      -4.218   1.829  -0.311  1.00  0.00     0.001 A 
HETATM    7  C7  UNL     1      -1.809   1.375  -0.275  1.00  0.00     0.000 A 
HETATM    8  C8  UNL     1      -1.139   0.224  -0.133  1.00  0.00     0.093 A 
HETATM    9  N1  UNL     1      -2.001  -0.701   0.004  1.00  0.00    -0.244 NA
HETATM   10  C9  UNL     1       0.201   0.153  -0.112  1.00  0.00     0.080 A 
HETATM   11  N2  UNL     1       0.947   1.252  -0.385  1.00  0.00    -0.294 N 
HETATM   12  C10 UNL     1       0.312   2.497  -0.851  1.00  0.00     0.114 C 
HETATM   13  C11 UNL     1      -1.133   2.700  -0.374  1.00  0.00     0.053 C 
HETATM   14  C12 UNL     1       2.322   1.210  -0.365  1.00  0.00     0.262 A 
HETATM   15  C13 UNL     1       2.909   0.028  -0.038  1.00  0.00     0.075 A 
HETATM   16  C14 UNL     1       2.165  -1.059   0.228  1.00  0.00     0.009 A 
HETATM   17  C15 UNL     1       0.825  -1.000   0.182  1.00  0.00     0.019 A 
HETATM   18  C16 UNL     1       2.816  -2.193   0.543  1.00  0.00     0.015 A 
HETATM   19  C17 UNL     1       4.159  -2.208   0.580  1.00  0.00     0.059 A 
HETATM   20  N3  UNL     1       4.846  -1.176   0.322  1.00  0.00    -0.248 NA
HETATM   21  C18 UNL     1       4.247  -0.101   0.025  1.00  0.00     0.103 A 
HETATM   22  C19 UNL     1       4.956  -3.440   0.930  1.00  0.00     0.052 C 
HETATM   23  O1  UNL     1       2.990   2.183  -0.633  1.00  0.00    -0.267 OA
ENDROOT
TORSDOF 0
