REMARK  5 active torsions:
REMARK  status: ('A' for Active; 'I' for Inactive)
REMARK    1  A    between atoms: O1_2  and  C2_3 
REMARK    2  A    between atoms: C15_18  and  O7_26 
REMARK    3  A    between atoms: C16_19  and  O5_22 
REMARK    4  A    between atoms: O5_22  and  C18_23 
REMARK    5  A    between atoms: O7_26  and  C20_27 
ROOT
HETATM    1  C2  UNL     1       3.709   1.563   1.199  1.00  0.00     0.124 C 
HETATM    2  C3  UNL     1       4.439   0.434   1.246  1.00  0.00     0.001 C 
HETATM    3  C4  UNL     1       3.885  -0.887   0.771  1.00  0.00     0.025 C 
HETATM    4  C5  UNL     1       2.340  -0.904   0.857  1.00  0.00     0.013 C 
HETATM    5  C6  UNL     1       1.689   0.303   0.111  1.00  0.00     0.060 C 
HETATM    6  C7  UNL     1       2.332   1.580   0.658  1.00  0.00     0.194 C 
HETATM    7  O2  UNL     1       1.762   2.643   0.658  1.00  0.00    -0.289 OA
HETATM    8  C8  UNL     1       0.111   0.221   0.232  1.00  0.00     0.042 C 
HETATM    9  C9  UNL     1      -0.457  -1.172  -0.231  1.00  0.00     0.031 C 
HETATM   10  C10 UNL     1       0.254  -2.307   0.545  1.00  0.00     0.124 C 
HETATM   11  C11 UNL     1       1.773  -2.252   0.387  1.00  0.00     0.031 C 
HETATM   12  O3  UNL     1      -0.061  -2.221   1.941  1.00  0.00    -0.304 OA
HETATM   13  C12 UNL     1      -1.363  -2.205   2.254  1.00  0.00     0.272 C 
HETATM   14  C13 UNL     1      -2.387  -2.258   1.146  1.00  0.00     0.098 C 
HETATM   15  C14 UNL     1      -2.008  -1.311  -0.014  1.00  0.00     0.040 C 
HETATM   16  C15 UNL     1      -2.762   0.041   0.053  1.00  0.00     0.130 C 
HETATM   17  C16 UNL     1      -2.108   1.064  -0.889  1.00  0.00     0.180 C 
HETATM   18  C17 UNL     1      -0.668   1.408  -0.441  1.00  0.00     0.182 C 
HETATM   19  O4  UNL     1      -0.801   2.482   0.473  1.00  0.00    -0.221 OA
HETATM   20  C22 UNL     1      -2.860   0.590   1.484  1.00  0.00     0.033 C 
HETATM   21  O9  UNL     1      -1.744  -2.139   3.398  1.00  0.00    -0.264 OA
HETATM   22  C23 UNL     1      -0.164  -1.385  -1.729  1.00  0.00     0.003 C 
HETATM   23  C24 UNL     1       2.100   0.287  -1.369  1.00  0.00     0.008 C 
HETATM   24  C25 UNL     1       4.523  -2.022   1.580  1.00  0.00     0.005 C 
ENDROOT
BRANCH  16  25
HETATM   25  O7  UNL     1      -4.094  -0.176  -0.397  1.00  0.00    -0.304 OA
BRANCH  25  26
HETATM   26  C20 UNL     1      -4.836   0.926  -0.332  1.00  0.00     0.272 C 
HETATM   27  C21 UNL     1      -6.174   0.838  -1.016  1.00  0.00     0.106 C 
HETATM   28  O8  UNL     1      -4.488   1.939   0.228  1.00  0.00    -0.264 OA
ENDBRANCH  25  26
ENDBRANCH  16  25
BRANCH  17  29
HETATM   29  O5  UNL     1      -2.082   0.541  -2.209  1.00  0.00    -0.299 OA
BRANCH  29  30
HETATM   30  C18 UNL     1      -1.686   1.443  -3.104  1.00  0.00     0.273 C 
HETATM   31  C19 UNL     1      -1.553   0.932  -4.514  1.00  0.00     0.106 C 
HETATM   32  O6  UNL     1      -1.443   2.596  -2.834  1.00  0.00    -0.264 OA
ENDBRANCH  29  30
ENDBRANCH  17  29
BRANCH   1  33
HETATM   33  O1  UNL     1       4.248   2.693   1.650  1.00  0.00    -0.326 OA
HETATM   34  C1  UNL     1       4.719   2.572   2.984  1.00  0.00     0.181 C 
ENDBRANCH   1  33
TORSDOF 5
