REMARK  16 active torsions:
REMARK  status: ('A' for Active; 'I' for Inactive)
REMARK    1  A    between atoms: C4_4  and  C7_9 
REMARK    2  A    between atoms: C7_9  and  C8_10 
REMARK    3  A    between atoms: C8_10  and  C9_11 
REMARK    4  A    between atoms: C9_11  and  C10_12 
REMARK    5  A    between atoms: C10_12  and  C11_13 
REMARK    6  A    between atoms: C11_13  and  C12_14 
REMARK    7  A    between atoms: C12_14  and  C13_15 
REMARK    8  A    between atoms: C13_15  and  C14_16 
REMARK    9  A    between atoms: C14_16  and  C15_17 
REMARK   10  A    between atoms: C15_17  and  C16_18 
REMARK   11  A    between atoms: C16_18  and  C17_19 
REMARK   12  A    between atoms: C17_19  and  C18_20 
REMARK   13  A    between atoms: C18_20  and  C19_21 
REMARK   14  A    between atoms: C19_21  and  C20_22 
REMARK   15  A    between atoms: C20_22  and  C21_23 
REMARK   16  A    between atoms: C21_23  and  C22_24 
ROOT
HETATM    1  C11 UNL     1       0.837  -0.950  -1.139  1.00  0.00     0.000 C 
ENDROOT
BRANCH   1   2
HETATM    2  C10 UNL     1       1.676   0.271  -1.544  1.00  0.00     0.000 C 
BRANCH   2   3
HETATM    3  C9  UNL     1       2.716  -0.067  -2.624  1.00  0.00     0.000 C 
BRANCH   3   4
HETATM    4  C8  UNL     1       3.679   1.108  -2.862  1.00  0.00     0.005 C 
BRANCH   4   5
HETATM    5  C7  UNL     1       4.556   0.894  -4.106  1.00  0.00     0.029 C 
BRANCH   5   6
HETATM    6  C4  UNL     1       5.535   2.031  -4.316  1.00  0.00     0.005 A 
HETATM    7  C3  UNL     1       6.904   1.825  -4.111  1.00  0.00    -0.002 A 
HETATM    8  C2  UNL     1       7.819   2.858  -4.310  1.00  0.00     0.002 A 
HETATM    9  C1  UNL     1       7.361   4.112  -4.711  1.00  0.00     0.029 A 
HETATM   10  C6  UNL     1       5.999   4.340  -4.918  1.00  0.00     0.156 A 
HETATM   11  C5  UNL     1       5.085   3.295  -4.726  1.00  0.00     0.152 A 
HETATM   12  O1  UNL     1       5.553   5.562  -5.309  1.00  0.00    -0.188 OA
HETATM   13  O2  UNL     1       3.768   3.549  -4.952  1.00  0.00    -0.188 OA
ENDBRANCH   5   6
ENDBRANCH   4   5
ENDBRANCH   3   4
ENDBRANCH   2   3
ENDBRANCH   1   2
BRANCH   1  14
HETATM   14  C12 UNL     1      -0.177  -0.597  -0.039  1.00  0.00     0.000 C 
BRANCH  14  15
HETATM   15  C13 UNL     1      -0.873  -1.844   0.531  1.00  0.00     0.000 C 
BRANCH  15  16
HETATM   16  C14 UNL     1      -1.727  -1.509   1.766  1.00  0.00     0.000 C 
BRANCH  16  17
HETATM   17  C15 UNL     1      -2.181  -2.767   2.528  1.00  0.00     0.000 C 
BRANCH  17  18
HETATM   18  C16 UNL     1      -2.587  -2.494   3.987  1.00  0.00     0.000 C 
BRANCH  18  19
HETATM   19  C17 UNL     1      -1.458  -2.593   5.037  1.00  0.00     0.000 C 
BRANCH  19  20
HETATM   20  C18 UNL     1      -0.369  -1.506   4.972  1.00  0.00     0.000 C 
BRANCH  20  21
HETATM   21  C19 UNL     1       0.831  -1.881   4.082  1.00  0.00     0.000 C 
BRANCH  21  22
HETATM   22  C20 UNL     1       1.670  -0.655   3.682  1.00  0.00     0.000 C 
BRANCH  22  23
HETATM   23  C21 UNL     1       2.765  -1.012   2.663  1.00  0.00     0.000 C 
BRANCH  23  24
HETATM   24  C22 UNL     1       3.511   0.233   2.158  1.00  0.00     0.000 C 
HETATM   25  C23 UNL     1       4.577  -0.123   1.114  1.00  0.00     0.000 C 
ENDBRANCH  23  24
ENDBRANCH  22  23
ENDBRANCH  21  22
ENDBRANCH  20  21
ENDBRANCH  19  20
ENDBRANCH  18  19
ENDBRANCH  17  18
ENDBRANCH  16  17
ENDBRANCH  15  16
ENDBRANCH  14  15
ENDBRANCH   1  14
TORSDOF 16
