REMARK  7 active torsions:
REMARK  status: ('A' for Active; 'I' for Inactive)
REMARK    1  A    between atoms: C2_2  and  C3_3 
REMARK    2  A    between atoms: C3_3  and  C4_4 
REMARK    3  A    between atoms: C5_5  and  C6_6 
REMARK    4  A    between atoms: C7_7  and  C8_8 
REMARK    5  A    between atoms: C9_9  and  C10_10 
REMARK    6  A    between atoms: C10_10  and  O1_11 
REMARK    7  A    between atoms: O1_11  and  C11_12 
ROOT
HETATM    1  C6  UNL     1       3.578   1.696  -0.002  1.00  0.00    -0.009 C 
HETATM    2  C7  UNL     1       4.620   1.077  -0.003  1.00  0.00    -0.051 C 
ENDROOT
BRANCH   2   3
HETATM    3  C8  UNL     1       5.880   0.313  -0.003  1.00  0.00     0.048 C 
HETATM    4  C9  UNL     1       5.867  -1.028  -0.002  1.00  0.00     0.015 C 
BRANCH   4   5
HETATM    5  C10 UNL     1       7.128  -1.857  -0.001  1.00  0.00     0.179 C 
BRANCH   5   6
HETATM    6  O1  UNL     1       6.824  -3.238  -0.008  1.00  0.00    -0.297 OA
BRANCH   6   7
HETATM    7  C11 UNL     1       7.884  -4.090  -0.000  1.00  0.00     0.273 C 
HETATM    8  C12 UNL     1       7.425  -5.535  -0.004  1.00  0.00     0.106 C 
HETATM    9  O2  UNL     1       9.045  -3.747   0.010  1.00  0.00    -0.264 OA
ENDBRANCH   6   7
ENDBRANCH   5   6
ENDBRANCH   4   5
ENDBRANCH   2   3
BRANCH   1  10
HETATM   10  C5  UNL     1       2.323   2.424  -0.001  1.00  0.00    -0.014 C 
HETATM   11  C4  UNL     1       1.266   3.018   0.000  1.00  0.00    -0.078 C 
BRANCH  11  12
HETATM   12  C3  UNL     1      -0.044   3.693   0.001  1.00  0.00     0.077 C 
BRANCH  12  13
HETATM   13  C2  UNL     1      -1.179   2.659   0.000  1.00  0.00     0.014 C 
HETATM   14  C1  UNL     1      -2.559   3.329   0.000  1.00  0.00     0.001 C 
ENDBRANCH  12  13
ENDBRANCH  11  12
ENDBRANCH   1  10
TORSDOF 7
