REMARK  1 active torsions:
REMARK  status: ('A' for Active; 'I' for Inactive)
REMARK    1  A    between atoms: C1_2  and  C3_4 
ROOT
HETATM    1  O1  UNL     1      -1.896  -1.691   0.502  1.00  0.00    -0.212 OA
HETATM    2  C1  UNL     1      -1.897  -0.272   0.510  1.00  0.00     0.238 C 
HETATM    3  C2  UNL     1      -0.462   0.240   0.502  1.00  0.00     0.047 C 
ENDROOT
BRANCH   2   4
HETATM    4  C3  UNL     1      -2.722   0.154  -0.685  1.00  0.00     0.217 C 
HETATM    5  O2  UNL     1      -2.691   1.473  -0.930  1.00  0.00    -0.646 OA
HETATM    6  O3  UNL     1      -3.377  -0.632  -1.326  1.00  0.00    -0.646 OA
ENDBRANCH   2   4
TORSDOF 1
