REMARK  7 active torsions:
REMARK  status: ('A' for Active; 'I' for Inactive)
REMARK    1  A    between atoms: C2_2  and  C4_4 
REMARK    2  A    between atoms: C4_4  and  C5_5 
REMARK    3  A    between atoms: C5_5  and  O1_6 
REMARK    4  A    between atoms: O1_6  and  C6_7 
REMARK    5  A    between atoms: C12_14  and  O4_18 
REMARK    6  A    between atoms: O4_18  and  C15_19 
REMARK    7  A    between atoms: C16_20  and  C17_21 
ROOT
HETATM    1  C17 UNL     1      10.761   2.669  -0.207  1.00  0.00    -0.012 C 
HETATM    2  C18 UNL     1      11.771   3.314  -0.389  1.00  0.00    -0.077 C 
HETATM    3  C19 UNL     1      13.010   4.084  -0.580  1.00  0.00     0.091 C 
ENDROOT
BRANCH   1   4
HETATM    4  C16 UNL     1       9.561   1.889   0.030  1.00  0.00     0.016 C 
HETATM    5  C15 UNL     1       8.570   1.227   0.253  1.00  0.00     0.074 C 
BRANCH   5   6
HETATM    6  O4  UNL     1       7.436   0.441   0.547  1.00  0.00    -0.261 OA
BRANCH   6   7
HETATM    7  C12 UNL     1       6.257   1.091   0.344  1.00  0.00     0.116 A 
HETATM    8  C11 UNL     1       5.109   0.498  -0.011  1.00  0.00     0.026 A 
HETATM    9  C9  UNL     1       3.967   1.478  -0.122  1.00  0.00     0.141 A 
HETATM   10  C8  UNL     1       3.293   1.489  -1.493  1.00  0.00     0.037 C 
HETATM   11  O2  UNL     1       3.004   1.287   0.896  1.00  0.00    -0.350 OA
HETATM   12  C14 UNL     1       4.730   2.773   0.201  1.00  0.00     0.178 A 
HETATM   13  C7  UNL     1       2.444   0.230  -1.707  1.00  0.00     0.036 C 
HETATM   14  C6  UNL     1       1.482   0.067  -0.532  1.00  0.00     0.154 C 
HETATM   15  C10 UNL     1       2.264   0.098   0.773  1.00  0.00     0.173 C 
HETATM   16  C13 UNL     1       6.077   2.525   0.500  1.00  0.00     0.190 A 
HETATM   17  O3  UNL     1       5.766   3.118  -0.887  1.00  0.00    -0.344 OA
BRANCH  14  18
HETATM   18  O1  UNL     1       0.810  -1.153  -0.674  1.00  0.00    -0.302 OA
BRANCH  18  19
HETATM   19  C5  UNL     1      -0.378  -1.309  -0.028  1.00  0.00     0.272 C 
HETATM   20  O5  UNL     1      -0.908  -0.462   0.655  1.00  0.00    -0.264 OA
BRANCH  19  21
HETATM   21  C4  UNL     1      -0.935  -2.699  -0.295  1.00  0.00     0.096 C 
BRANCH  21  22
HETATM   22  C2  UNL     1      -2.148  -3.093   0.569  1.00  0.00     0.010 C 
HETATM   23  C1  UNL     1      -2.744  -4.424   0.076  1.00  0.00     0.001 C 
HETATM   24  C3  UNL     1      -1.777  -3.211   2.058  1.00  0.00     0.001 C 
ENDBRANCH  21  22
ENDBRANCH  19  21
ENDBRANCH  18  19
ENDBRANCH  14  18
ENDBRANCH   6   7
ENDBRANCH   5   6
ENDBRANCH   1   4
TORSDOF 7
