REMARK  5 active torsions:
REMARK  status: ('A' for Active; 'I' for Inactive)
REMARK    1  A    between atoms: C2_2  and  C23_29 
REMARK    2  A    between atoms: C9_10  and  O4_18 
REMARK    3  A    between atoms: O4_18  and  C15_19 
REMARK    4  A    between atoms: C15_19  and  C16_21 
REMARK    5  A    between atoms: C16_21  and  C17_22 
ROOT
HETATM    1  C1  UNL     1      -2.050  -0.382   3.203  1.00  0.00     0.036 A 
HETATM    2  C2  UNL     1      -1.550  -1.575   2.841  1.00  0.00    -0.002 A 
HETATM    3  C3  UNL     1      -0.089  -1.520   2.432  1.00  0.00     0.074 A 
HETATM    4  C4  UNL     1       0.221  -0.056   2.669  1.00  0.00     0.015 A 
HETATM    5  C5  UNL     1      -1.004   0.656   3.109  1.00  0.00     0.191 A 
HETATM    6  O1  UNL     1      -1.183   1.843   3.350  1.00  0.00    -0.287 OA
HETATM    7  C6  UNL     1       1.446   0.491   2.533  1.00  0.00    -0.042 C 
HETATM    8  C7  UNL     1       1.803   1.940   2.765  1.00  0.00     0.026 C 
HETATM    9  C8  UNL     1       2.591  -0.367   2.040  1.00  0.00     0.052 C 
HETATM   10  C9  UNL     1       2.359  -0.731   0.571  1.00  0.00     0.135 C 
HETATM   11  C10 UNL     1       1.533  -2.015   0.387  1.00  0.00     0.084 C 
HETATM   12  C11 UNL     1       0.116  -2.023   1.004  1.00  0.00     0.139 C 
HETATM   13  O2  UNL     1      -0.770  -1.403   0.103  1.00  0.00    -0.300 OA
HETATM   14  C12 UNL     1      -0.203  -1.524  -1.127  1.00  0.00     0.292 C 
HETATM   15  C13 UNL     1       1.151  -2.103  -1.071  1.00  0.00     0.045 C 
HETATM   16  C14 UNL     1       1.854  -2.563  -2.118  1.00  0.00     0.001 C 
HETATM   17  O3  UNL     1      -0.747  -1.146  -2.159  1.00  0.00    -0.260 OA
ENDROOT
BRANCH  10  18
HETATM   18  O4  UNL     1       3.607  -0.903  -0.050  1.00  0.00    -0.303 OA
BRANCH  18  19
HETATM   19  C15 UNL     1       4.166  -0.007  -0.918  1.00  0.00     0.276 C 
HETATM   20  O5  UNL     1       5.308  -0.136  -1.307  1.00  0.00    -0.264 OA
BRANCH  19  21
HETATM   21  C16 UNL     1       3.273   1.121  -1.423  1.00  0.00     0.122 C 
BRANCH  21  22
HETATM   22  C17 UNL     1       3.916   1.988  -2.484  1.00  0.00    -0.012 A 
HETATM   23  C18 UNL     1       4.063   3.368  -2.302  1.00  0.00    -0.002 A 
HETATM   24  C19 UNL     1       4.630   4.168  -3.296  1.00  0.00     0.027 A 
HETATM   25  C20 UNL     1       5.071   3.620  -4.505  1.00  0.00     0.131 A 
HETATM   26  C21 UNL     1       4.920   2.242  -4.685  1.00  0.00     0.027 A 
HETATM   27  O6  UNL     1       5.627   4.393  -5.475  1.00  0.00    -0.190 OA
HETATM   28  C22 UNL     1       4.344   1.440  -3.698  1.00  0.00    -0.002 A 
ENDBRANCH  21  22
ENDBRANCH  19  21
ENDBRANCH  18  19
ENDBRANCH  10  18
BRANCH   2  29
HETATM   29  C23 UNL     1      -2.336  -2.855   2.828  1.00  0.00     0.205 C 
HETATM   30  O7  UNL     1      -1.611  -3.896   3.467  1.00  0.00    -0.216 OA
ENDBRANCH   2  29
TORSDOF 5
