REMARK  5 active torsions:
REMARK  status: ('A' for Active; 'I' for Inactive)
REMARK    1  A    between atoms: C2_3  and  O7_18 
REMARK    2  A    between atoms: C5_6  and  C6_7 
REMARK    3  A    between atoms: C6_7  and  O3_9 
REMARK    4  A    between atoms: O7_18  and  C12_19 
REMARK    5  A    between atoms: C13_21  and  C17_28 
ROOT
HETATM    1  C1  UNL     1      -1.818   1.748  -0.193  1.00  0.00     0.122 C 
HETATM    2  O1  UNL     1      -1.363   0.485  -0.420  1.00  0.00    -0.303 OA
HETATM    3  C2  UNL     1       0.010   0.210  -0.345  1.00  0.00     0.247 C 
HETATM    4  C3  UNL     1       0.677   1.018   0.756  1.00  0.00     0.120 C 
HETATM    5  C4  UNL     1       0.344   2.515   0.616  1.00  0.00     0.162 C 
HETATM    6  C5  UNL     1      -1.108   2.800   0.276  1.00  0.00     0.093 C 
HETATM    7  C8  UNL     1       1.328   2.962  -0.471  1.00  0.00     0.071 C 
HETATM    8  C9  UNL     1       2.567   2.081  -0.319  1.00  0.00     0.183 C 
HETATM    9  C10 UNL     1       2.218   0.997   0.695  1.00  0.00     0.162 C 
HETATM   10  O4  UNL     1       2.707   1.407   1.949  1.00  0.00    -0.223 OA
HETATM   11  C11 UNL     1       2.899  -0.333   0.383  1.00  0.00     0.036 C 
HETATM   12  O5  UNL     1       3.663   2.824   0.154  1.00  0.00    -0.221 OA
HETATM   13  O6  UNL     1       0.672   3.106   1.852  1.00  0.00    -0.221 OA
ENDROOT
BRANCH   3  14
HETATM   14  O7  UNL     1       0.051  -1.169  -0.011  1.00  0.00    -0.304 OA
BRANCH  14  15
HETATM   15  C12 UNL     1       0.146  -2.059  -1.102  1.00  0.00     0.272 C 
HETATM   16  O8  UNL     1      -1.071  -2.127  -1.811  1.00  0.00    -0.326 OA
HETATM   17  C13 UNL     1      -2.104  -2.895  -1.254  1.00  0.00     0.184 C 
HETATM   18  C14 UNL     1      -1.644  -4.276  -0.809  1.00  0.00     0.215 C 
HETATM   19  C15 UNL     1      -0.397  -4.246   0.048  1.00  0.00     0.220 C 
HETATM   20  O11 UNL     1      -1.374  -5.063  -1.950  1.00  0.00    -0.218 OA
HETATM   21  C16 UNL     1       0.659  -3.410  -0.645  1.00  0.00     0.241 C 
HETATM   22  O10 UNL     1      -0.682  -3.711   1.317  1.00  0.00    -0.218 OA
HETATM   23  O9  UNL     1       1.120  -4.120  -1.773  1.00  0.00    -0.215 OA
BRANCH  17  24
HETATM   24  C17 UNL     1      -2.929  -2.115  -0.238  1.00  0.00     0.214 C 
HETATM   25  O12 UNL     1      -4.066  -2.863   0.145  1.00  0.00    -0.218 OA
ENDBRANCH  17  24
ENDBRANCH  14  15
ENDBRANCH   3  14
BRANCH   6  26
HETATM   26  C6  UNL     1      -1.784   3.994   0.390  1.00  0.00     0.296 C 
HETATM   27  O2  UNL     1      -2.945   3.969   0.021  1.00  0.00    -0.259 OA
BRANCH  26  28
HETATM   28  O3  UNL     1      -1.419   5.246   0.830  1.00  0.00    -0.296 OA
HETATM   29  C7  UNL     1      -0.191   5.649   1.366  1.00  0.00     0.185 C 
ENDBRANCH  26  28
ENDBRANCH   6  26
TORSDOF 5
