REMARK  2 active torsions:
REMARK  status: ('A' for Active; 'I' for Inactive)
REMARK    1  A    between atoms: C5_6  and  C6_7 
REMARK    2  A    between atoms: C6_7  and  O3_9 
ROOT
HETATM    1  C1  UNL     1      -0.174   0.254   0.346  1.00  0.00     0.070 C 
HETATM    2  C2  UNL     1      -0.119  -1.286   0.464  1.00  0.00     0.094 C 
HETATM    3  C3  UNL     1       1.227  -1.870   0.085  1.00  0.00     0.276 C 
HETATM    4  O1  UNL     1       2.005  -1.101  -0.795  1.00  0.00    -0.302 OA
HETATM    5  C4  UNL     1       2.141   0.215  -0.465  1.00  0.00     0.120 C 
HETATM    6  C5  UNL     1       1.168   0.914   0.145  1.00  0.00     0.068 C 
HETATM    7  O4  UNL     1       2.103  -1.883   1.202  1.00  0.00    -0.190 OA
HETATM    8  C8  UNL     1      -1.332  -1.785  -0.313  1.00  0.00     0.125 A 
HETATM    9  C9  UNL     1      -1.946  -0.727  -1.055  1.00  0.00     0.171 A 
HETATM   10  C10 UNL     1      -1.049   0.488  -0.901  1.00  0.00     0.186 C 
HETATM   11  O5  UNL     1      -1.769   1.701  -0.805  1.00  0.00    -0.220 OA
HETATM   12  O6  UNL     1      -2.666  -1.010   0.120  1.00  0.00    -0.354 OA
HETATM   13  C11 UNL     1      -1.616  -3.244  -0.587  1.00  0.00     0.033 C 
ENDROOT
BRANCH   6  14
HETATM   14  C6  UNL     1       1.352   2.222   0.485  1.00  0.00     0.294 C 
HETATM   15  O2  UNL     1       2.417   2.753   0.251  1.00  0.00    -0.259 OA
BRANCH  14  16
HETATM   16  O3  UNL     1       0.351   2.950   1.066  1.00  0.00    -0.296 OA
HETATM   17  C7  UNL     1       0.569   4.330   1.246  1.00  0.00     0.185 C 
ENDBRANCH  14  16
ENDBRANCH   6  14
TORSDOF 2
