REMARK  2 active torsions:
REMARK  status: ('A' for Active; 'I' for Inactive)
REMARK    1  A    between atoms: C5_6  and  C6_7 
REMARK    2  A    between atoms: C6_7  and  O3_9 
ROOT
HETATM    1  C1  UNL     1      -0.576   0.485   0.688  1.00  0.00     0.190 C 
HETATM    2  C2  UNL     1      -0.870  -1.009   0.444  1.00  0.00     0.122 C 
HETATM    3  C3  UNL     1       0.426  -1.773   0.535  1.00  0.00     0.279 C 
HETATM    4  O1  UNL     1       1.358  -1.309  -0.397  1.00  0.00    -0.301 OA
HETATM    5  C4  UNL     1       1.671   0.011  -0.252  1.00  0.00     0.122 C 
HETATM    6  C5  UNL     1       0.856   0.910   0.333  1.00  0.00     0.095 C 
HETATM    7  O4  UNL     1       0.314  -3.128   0.149  1.00  0.00    -0.190 OA
HETATM    8  C8  UNL     1      -1.673  -1.059  -0.850  1.00  0.00     0.128 A 
HETATM    9  C9  UNL     1      -2.180   0.238  -1.183  1.00  0.00     0.173 A 
HETATM   10  C10 UNL     1      -1.607   1.226  -0.182  1.00  0.00     0.213 C 
HETATM   11  O5  UNL     1      -2.612   1.794   0.639  1.00  0.00    -0.218 OA
HETATM   12  O6  UNL     1      -3.169  -0.559  -0.581  1.00  0.00    -0.354 OA
HETATM   13  C11 UNL     1      -1.650  -2.187  -1.856  1.00  0.00     0.033 C 
HETATM   14  O7  UNL     1      -0.824   0.778   2.045  1.00  0.00    -0.218 OA
ENDROOT
BRANCH   6  15
HETATM   15  C6  UNL     1       1.208   2.205   0.615  1.00  0.00     0.296 C 
HETATM   16  O2  UNL     1       0.312   2.832   1.147  1.00  0.00    -0.259 OA
BRANCH  15  17
HETATM   17  O3  UNL     1       2.372   2.909   0.437  1.00  0.00    -0.296 OA
HETATM   18  C7  UNL     1       3.565   2.388  -0.083  1.00  0.00     0.185 C 
ENDBRANCH  15  17
ENDBRANCH   6  15
TORSDOF 2
