REMARK  5 active torsions:
REMARK  status: ('A' for Active; 'I' for Inactive)
REMARK    1  A    between atoms: C4_4  and  O3_9 
REMARK    2  A    between atoms: C5_6  and  C6_7 
REMARK    3  A    between atoms: O3_9  and  C7_10 
REMARK    4  A    between atoms: C15_19  and  O5_20 
REMARK    5  A    between atoms: O5_20  and  C16_21 
ROOT
HETATM    1  C7  UNL     1       0.048   0.890  -0.773  1.00  0.00     0.247 C 
HETATM    2  C8  UNL     1       1.465   1.421  -0.655  1.00  0.00     0.117 C 
HETATM    3  C9  UNL     1       1.417   2.949  -0.485  1.00  0.00     0.178 C 
HETATM    4  C10 UNL     1       0.327   3.312   0.505  1.00  0.00     0.010 C 
HETATM    5  C11 UNL     1      -0.611   2.420   0.870  1.00  0.00     0.113 C 
HETATM    6  O4  UNL     1      -0.704   1.148   0.383  1.00  0.00    -0.304 OA
HETATM    7  C12 UNL     1       0.245   4.724   1.035  1.00  0.00     0.031 C 
HETATM    8  C13 UNL     1       2.878   3.256  -0.163  1.00  0.00     0.186 C 
HETATM    9  C14 UNL     1       3.522   1.977   0.376  1.00  0.00     0.064 C 
HETATM   10  C15 UNL     1       2.402   0.910   0.468  1.00  0.00     0.111 C 
HETATM   11  C18 UNL     1       3.031  -0.457   0.193  1.00  0.00     0.031 C 
HETATM   12  O7  UNL     1       3.041   4.318   0.736  1.00  0.00    -0.220 OA
HETATM   13  O8  UNL     1       1.078   3.560  -1.711  1.00  0.00    -0.219 OA
ENDROOT
BRANCH   1  14
HETATM   14  O3  UNL     1       0.058  -0.500  -0.997  1.00  0.00    -0.304 OA
BRANCH  14  15
HETATM   15  C4  UNL     1      -1.227  -1.080  -1.111  1.00  0.00     0.272 C 
HETATM   16  C3  UNL     1      -1.183  -2.166  -2.155  1.00  0.00     0.241 C 
HETATM   17  C2  UNL     1      -2.526  -2.862  -2.196  1.00  0.00     0.220 C 
HETATM   18  O9  UNL     1      -0.922  -1.596  -3.413  1.00  0.00    -0.215 OA
HETATM   19  C1  UNL     1      -2.865  -3.381  -0.808  1.00  0.00     0.215 C 
HETATM   20  O10 UNL     1      -2.442  -3.914  -3.126  1.00  0.00    -0.218 OA
HETATM   21  C5  UNL     1      -2.705  -2.293   0.253  1.00  0.00     0.184 C 
HETATM   22  O11 UNL     1      -4.204  -3.824  -0.808  1.00  0.00    -0.218 OA
HETATM   23  O1  UNL     1      -1.461  -1.658   0.152  1.00  0.00    -0.326 OA
BRANCH  21  24
HETATM   24  C6  UNL     1      -2.789  -2.853   1.669  1.00  0.00     0.214 C 
HETATM   25  O2  UNL     1      -3.976  -3.599   1.834  1.00  0.00    -0.218 OA
ENDBRANCH  21  24
ENDBRANCH  14  15
ENDBRANCH   1  14
BRANCH  10  26
HETATM   26  O5  UNL     1       1.835   1.103   1.732  1.00  0.00    -0.306 OA
BRANCH  26  27
HETATM   27  C16 UNL     1       1.460   0.216   2.696  1.00  0.00     0.272 C 
HETATM   28  O6  UNL     1       1.200   0.592   3.821  1.00  0.00    -0.264 OA
HETATM   29  C17 UNL     1       1.222  -1.233   2.333  1.00  0.00     0.106 C 
ENDBRANCH  26  27
ENDBRANCH  10  26
TORSDOF 5
