REMARK  7 active torsions:
REMARK  status: ('A' for Active; 'I' for Inactive)
REMARK    1  A    between atoms: C3_3  and  O4_10 
REMARK    2  A    between atoms: C4_5  and  C6_8 
REMARK    3  A    between atoms: O4_10  and  C7_11 
REMARK    4  A    between atoms: C10_14  and  C14_20 
REMARK    5  A    between atoms: C12_16  and  O5_17 
REMARK    6  A    between atoms: C14_20  and  C15_21 
REMARK    7  A    between atoms: C16_22  and  C17_23 
ROOT
HETATM    1  C7  UNL     1       0.453  -0.993   0.822  1.00  0.00     0.121 A 
HETATM    2  C8  UNL     1       1.674  -0.625   0.400  1.00  0.00     0.026 A 
HETATM    3  C9  UNL     1       2.369   0.348   0.999  1.00  0.00     0.007 A 
HETATM    4  C10 UNL     1       1.855   1.041   2.029  1.00  0.00     0.066 A 
HETATM    5  C11 UNL     1       0.648   0.646   2.498  1.00  0.00     0.158 A 
HETATM    6  C12 UNL     1      -0.031  -0.376   1.925  1.00  0.00     0.142 A 
HETATM    7  O6  UNL     1       0.037   1.290   3.537  1.00  0.00    -0.188 OA
ENDROOT
BRANCH   1   8
HETATM    8  O4  UNL     1      -0.193  -1.988   0.124  1.00  0.00    -0.302 OA
BRANCH   8   9
HETATM    9  C3  UNL     1      -1.544  -1.815  -0.240  1.00  0.00     0.274 C 
HETATM   10  C2  UNL     1      -1.837  -2.641  -1.471  1.00  0.00     0.241 C 
HETATM   11  C1  UNL     1      -3.282  -2.416  -1.861  1.00  0.00     0.220 C 
HETATM   12  O10 UNL     1      -1.640  -4.003  -1.188  1.00  0.00    -0.215 OA
HETATM   13  C5  UNL     1      -3.513  -0.930  -2.061  1.00  0.00     0.215 C 
HETATM   14  O11 UNL     1      -3.566  -3.101  -3.053  1.00  0.00    -0.218 OA
HETATM   15  C4  UNL     1      -3.070  -0.150  -0.828  1.00  0.00     0.184 C 
HETATM   16  O2  UNL     1      -4.883  -0.739  -2.312  1.00  0.00    -0.218 OA
HETATM   17  O1  UNL     1      -1.730  -0.451  -0.541  1.00  0.00    -0.326 OA
BRANCH  15  18
HETATM   18  C6  UNL     1      -3.183   1.354  -1.025  1.00  0.00     0.214 C 
HETATM   19  O3  UNL     1      -2.856   2.016   0.182  1.00  0.00    -0.218 OA
ENDBRANCH  15  18
ENDBRANCH   8   9
ENDBRANCH   1   8
BRANCH   6  20
HETATM   20  O5  UNL     1      -1.272  -0.690   2.422  1.00  0.00    -0.324 OA
HETATM   21  C13 UNL     1      -1.256  -1.733   3.370  1.00  0.00     0.182 C 
ENDBRANCH   6  20
BRANCH   4  22
HETATM   22  C14 UNL     1       2.552   2.055   2.629  1.00  0.00     0.198 C 
HETATM   23  O9  UNL     1       2.272   2.385   3.763  1.00  0.00    -0.286 OA
BRANCH  22  24
HETATM   24  C15 UNL     1       3.625   2.715   2.098  1.00  0.00     0.042 C 
HETATM   25  C16 UNL     1       4.066   2.900   0.831  1.00  0.00     0.003 C 
BRANCH  25  26
HETATM   26  C17 UNL     1       3.483   2.716  -0.408  1.00  0.00     0.002 C 
HETATM   27  C18 UNL     1       4.503   2.715  -1.303  1.00  0.00     0.002 C 
HETATM   28  C19 UNL     1       4.336   2.428  -2.587  1.00  0.00     0.029 C 
HETATM   29  C20 UNL     1       3.084   2.114  -2.892  1.00  0.00     0.156 C 
HETATM   30  C21 UNL     1       2.151   2.219  -1.929  1.00  0.00     0.156 C 
HETATM   31  O8  UNL     1       2.772   1.725  -4.157  1.00  0.00    -0.188 OA
HETATM   32  C22 UNL     1       2.089   2.600  -0.632  1.00  0.00     0.029 C 
HETATM   33  O7  UNL     1       0.890   1.897  -2.363  1.00  0.00    -0.188 OA
ENDBRANCH  25  26
ENDBRANCH  22  24
ENDBRANCH   4  22
TORSDOF 7
