REMARK  1 active torsions:
REMARK  status: ('A' for Active; 'I' for Inactive)
REMARK    1  A    between atoms: C8_8  and  C17_17 
ROOT
HETATM    1  C1  UNL     1      -1.227   1.400  -0.303  1.00  0.00     0.025 C 
HETATM    2  C2  UNL     1      -1.383  -0.130  -0.304  1.00  0.00     0.007 C 
HETATM    3  C3  UNL     1      -0.326  -0.753   0.655  1.00  0.00     0.004 C 
HETATM    4  C4  UNL     1       1.133  -0.406   0.132  1.00  0.00     0.015 C 
HETATM    5  C5  UNL     1       1.275   1.111   0.028  1.00  0.00    -0.049 C 
HETATM    6  C6  UNL     1       0.198   1.879  -0.215  1.00  0.00    -0.035 C 
HETATM    7  C7  UNL     1       2.643   1.776   0.088  1.00  0.00     0.028 C 
HETATM    8  C8  UNL     1       3.585   1.154   1.143  1.00  0.00     0.082 C 
HETATM    9  C9  UNL     1       3.602  -0.379   0.959  1.00  0.00     0.011 C 
HETATM   10  C10 UNL     1       2.203  -0.993   1.087  1.00  0.00     0.004 C 
HETATM   11  C11 UNL     1       5.031   1.689   0.977  1.00  0.00     0.011 C 
HETATM   12  C12 UNL     1       5.090   3.019   0.215  1.00  0.00     0.001 C 
HETATM   13  C13 UNL     1       4.542   2.890  -1.227  1.00  0.00     0.000 C 
HETATM   14  C14 UNL     1       3.342   1.911  -1.275  1.00  0.00     0.004 C 
HETATM   15  C15 UNL     1       4.107   4.288  -1.718  1.00  0.00     0.000 C 
HETATM   16  C16 UNL     1       5.654   2.383  -2.172  1.00  0.00     0.000 C 
HETATM   17  C18 UNL     1       1.434  -0.956  -1.289  1.00  0.00     0.004 C 
HETATM   18  C19 UNL     1      -0.548  -2.282   0.726  1.00  0.00     0.000 C 
HETATM   19  C20 UNL     1      -2.001  -2.673   1.019  1.00  0.00     0.000 C 
HETATM   20  C21 UNL     1      -2.935  -2.175  -0.092  1.00  0.00     0.007 C 
HETATM   21  C22 UNL     1      -2.865  -0.637  -0.275  1.00  0.00     0.028 C 
HETATM   22  C23 UNL     1      -3.525  -0.321  -1.649  1.00  0.00     0.007 C 
HETATM   23  C24 UNL     1      -4.989  -0.781  -1.650  1.00  0.00     0.059 C 
HETATM   24  C25 UNL     1      -5.272  -1.421  -0.305  1.00  0.00     0.219 C 
HETATM   25  C26 UNL     1      -4.413  -2.645   0.026  1.00  0.00     0.050 C 
HETATM   26  C27 UNL     1      -4.788  -3.195   1.424  1.00  0.00     0.005 C 
HETATM   27  C28 UNL     1      -4.675  -3.795  -0.975  1.00  0.00     0.005 C 
HETATM   28  O3  UNL     1      -6.650  -1.697  -0.188  1.00  0.00    -0.196 OA
HETATM   29  O4  UNL     1      -5.119  -0.443   0.681  1.00  0.00    -0.333 OA
HETATM   30  C29 UNL     1      -3.790   0.015   0.768  1.00  0.00     0.145 C 
HETATM   31  C30 UNL     1      -0.509  -0.182   2.090  1.00  0.00     0.000 C 
ENDROOT
BRANCH   8  32
HETATM   32  C17 UNL     1       3.146   1.447   2.583  1.00  0.00     0.184 C 
HETATM   33  O1  UNL     1       2.319   2.500   2.704  1.00  0.00    -0.647 OA
HETATM   34  O2  UNL     1       3.499   0.840   3.566  1.00  0.00    -0.647 OA
ENDBRANCH   8  32
TORSDOF 1
