REMARK  2 active torsions:
REMARK  status: ('A' for Active; 'I' for Inactive)
REMARK    1  A    between atoms: C1_1  and  C2_2 
REMARK    2  A    between atoms: C2_2  and  C3_3 
ROOT
HETATM    1  C3  UNL     1      -0.559   0.273  -0.660  1.00  0.00     0.186 C 
HETATM    2  C4  UNL     1       0.584  -0.723  -0.740  1.00  0.00     0.215 C 
HETATM    3  C5  UNL     1       1.708  -0.014  -0.012  1.00  0.00     0.214 C 
HETATM    4  C6  UNL     1       1.267   1.439   0.026  1.00  0.00     0.178 C 
HETATM    5  O1  UNL     1       0.043   1.536  -0.658  1.00  0.00    -0.348 OA
HETATM    6  O2  UNL     1       1.812  -0.524   1.296  1.00  0.00    -0.218 OA
HETATM    7  O3  UNL     1       0.949  -0.922  -2.085  1.00  0.00    -0.218 OA
ENDROOT
BRANCH   1   8
HETATM    8  C2  UNL     1      -1.438   0.129   0.578  1.00  0.00     0.246 C 
HETATM    9  O4  UNL     1      -2.289   1.259   0.641  1.00  0.00    -0.212 OA
BRANCH   8  10
HETATM   10  C1  UNL     1      -2.284  -1.136   0.603  1.00  0.00     0.243 C 
HETATM   11  O5  UNL     1      -2.198  -1.977  -0.260  1.00  0.00    -0.285 OA
ENDBRANCH   8  10
ENDBRANCH   1   8
TORSDOF 2
