REMARK  2 active torsions:
REMARK  status: ('A' for Active; 'I' for Inactive)
REMARK    1  A    between atoms: C9_9  and  C11_12 
REMARK    2  A    between atoms: C11_12  and  C12_13 
ROOT
HETATM    1  C1  UNL     1      -4.883   0.960  -0.113  1.00  0.00     0.000 A 
HETATM    2  C2  UNL     1      -4.425   2.129   0.356  1.00  0.00     0.000 A 
HETATM    3  C3  UNL     1      -3.110   2.298   0.559  1.00  0.00     0.003 A 
HETATM    4  C4  UNL     1      -2.238   1.304   0.298  1.00  0.00     0.042 A 
HETATM    5  C5  UNL     1      -2.700   0.133  -0.175  1.00  0.00     0.044 A 
HETATM    6  C6  UNL     1      -4.021  -0.033  -0.378  1.00  0.00     0.003 A 
HETATM    7  C7  UNL     1      -1.842  -0.881  -0.454  1.00  0.00     0.221 A 
HETATM    8  C8  UNL     1      -0.513  -0.692  -0.245  1.00  0.00     0.169 A 
HETATM    9  C9  UNL     1      -0.046   0.475   0.238  1.00  0.00     0.050 A 
HETATM   10  C10 UNL     1      -0.907   1.494   0.508  1.00  0.00     0.194 A 
HETATM   11  O1  UNL     1      -0.483   2.551   0.923  1.00  0.00    -0.287 OA
HETATM   12  O2  UNL     1       0.282  -1.747  -0.584  1.00  0.00    -0.187 OA
HETATM   13  O3  UNL     1      -2.192  -1.952  -0.898  1.00  0.00    -0.284 OA
ENDROOT
BRANCH   9  14
HETATM   14  C11 UNL     1       1.440   0.718   0.460  1.00  0.00     0.057 C 
BRANCH  14  15
HETATM   15  C12 UNL     1       2.250  -0.512   0.784  1.00  0.00    -0.030 C 
HETATM   16  C13 UNL     1       3.350  -0.964   0.155  1.00  0.00    -0.048 C 
HETATM   17  C14 UNL     1       4.036  -2.233   0.610  1.00  0.00     0.026 C 
HETATM   18  C15 UNL     1       4.013  -0.305  -1.031  1.00  0.00     0.026 C 
ENDBRANCH  14  15
ENDBRANCH   9  14
TORSDOF 2
