REMARK  0 active torsions:
REMARK  status: ('A' for Active; 'I' for Inactive)
ROOT
HETATM    1  C1  UNL     1       1.504  -0.305  -0.093  1.00  0.00     0.025 A 
HETATM    2  C2  UNL     1       0.181  -0.078  -0.245  1.00  0.00     0.093 A 
HETATM    3  C3  UNL     1      -0.612  -1.134  -0.516  1.00  0.00     0.042 A 
HETATM    4  C4  UNL     1      -0.110  -2.391  -0.635  1.00  0.00     0.232 A 
HETATM    5  C5  UNL     1       1.218  -2.602  -0.491  1.00  0.00     0.234 A 
HETATM    6  C6  UNL     1       2.024  -1.541  -0.218  1.00  0.00     0.044 A 
HETATM    7  C7  UNL     1       3.349  -1.737  -0.072  1.00  0.00     0.003 A 
HETATM    8  C8  UNL     1       4.171  -0.713   0.200  1.00  0.00     0.000 A 
HETATM    9  C9  UNL     1       3.663   0.519   0.331  1.00  0.00     0.000 A 
HETATM   10  C10 UNL     1       2.344   0.714   0.185  1.00  0.00     0.002 A 
HETATM   11  O1  UNL     1       1.674  -3.723  -0.601  1.00  0.00    -0.283 OA
HETATM   12  O2  UNL     1      -0.867  -3.311  -0.873  1.00  0.00    -0.283 OA
HETATM   13  C11 UNL     1      -2.103  -0.953  -0.703  1.00  0.00     0.034 C 
HETATM   14  C12 UNL     1      -2.461   0.527  -0.842  1.00  0.00     0.033 C 
HETATM   15  C13 UNL     1      -1.672   1.358   0.168  1.00  0.00     0.099 C 
HETATM   16  O3  UNL     1      -0.312   1.194  -0.079  1.00  0.00    -0.336 OA
HETATM   17  C14 UNL     1      -1.990   2.846  -0.034  1.00  0.00     0.030 C 
HETATM   18  C15 UNL     1      -1.984   0.982   1.622  1.00  0.00     0.030 C 
ENDROOT
TORSDOF 0
