REMARK  2 active torsions:
REMARK  status: ('A' for Active; 'I' for Inactive)
REMARK    1  A    between atoms: C5_5  and  O1_7 
REMARK    2  A    between atoms: O1_7  and  C7_8 
ROOT
HETATM    1  C1  UNL     1      -2.050  -1.983   2.156  1.00  0.00     0.003 C 
HETATM    2  C2  UNL     1      -1.653  -2.515   0.765  1.00  0.00     0.003 C 
HETATM    3  C3  UNL     1      -0.511  -1.619   0.196  1.00  0.00     0.040 C 
HETATM    4  C4  UNL     1      -0.598  -0.062   0.317  1.00  0.00     0.056 C 
HETATM    5  C5  UNL     1      -1.227   0.347   1.672  1.00  0.00     0.127 C 
HETATM    6  C6  UNL     1      -2.425  -0.501   2.098  1.00  0.00     0.030 C 
HETATM    7  C9  UNL     1       0.870   0.500   0.186  1.00  0.00     0.019 C 
HETATM    8  C10 UNL     1       1.410   0.118  -1.212  1.00  0.00     0.136 C 
HETATM    9  C11 UNL     1       0.342  -0.682  -1.941  1.00  0.00     0.256 C 
HETATM   10  C12 UNL     1      -0.136  -1.941  -1.252  1.00  0.00     0.206 C 
HETATM   11  O3  UNL     1       0.830  -2.965  -1.308  1.00  0.00    -0.218 OA
HETATM   12  O4  UNL     1      -0.760   0.161  -2.127  1.00  0.00    -0.330 OA
HETATM   13  C13 UNL     1      -1.386   0.465  -0.899  1.00  0.00     0.147 C 
HETATM   14  O5  UNL     1       0.771  -1.027  -3.238  1.00  0.00    -0.192 OA
HETATM   15  C14 UNL     1       1.888   1.389  -1.929  1.00  0.00     0.168 C 
HETATM   16  C15 UNL     1       3.126   1.860  -1.112  1.00  0.00     0.056 C 
HETATM   17  C16 UNL     1       2.298   2.706  -0.081  1.00  0.00     0.007 C 
HETATM   18  C17 UNL     1       1.030   2.014   0.477  1.00  0.00     0.001 C 
HETATM   19  C18 UNL     1       3.692   0.439  -1.200  1.00  0.00     0.015 C 
HETATM   20  C19 UNL     1       2.774  -0.558  -1.164  1.00  0.00     0.175 C 
HETATM   21  O6  UNL     1       2.995  -1.744  -1.181  1.00  0.00    -0.291 OA
HETATM   22  C20 UNL     1       5.005   0.181  -1.321  1.00  0.00    -0.002 C 
HETATM   23  O7  UNL     1       2.280   1.108  -3.255  1.00  0.00    -0.223 OA
HETATM   24  C21 UNL     1      -1.132  -3.963   0.957  1.00  0.00     0.000 C 
HETATM   25  C22 UNL     1      -2.924  -2.642  -0.108  1.00  0.00     0.000 C 
ENDROOT
BRANCH   5  26
HETATM   26  O1  UNL     1      -1.638   1.685   1.648  1.00  0.00    -0.304 OA
BRANCH  26  27
HETATM   27  C7  UNL     1      -1.634   2.389   2.813  1.00  0.00     0.272 C 
HETATM   28  C8  UNL     1      -2.050   3.823   2.554  1.00  0.00     0.106 C 
HETATM   29  O2  UNL     1      -1.323   1.949   3.897  1.00  0.00    -0.264 OA
ENDBRANCH  26  27
ENDBRANCH   5  26
TORSDOF 2
