REMARK  1 active torsions:
REMARK  status: ('A' for Active; 'I' for Inactive)
REMARK    1  A    between atoms: C8_9  and  C10_12 
ROOT
HETATM    1  C1  UNL     1      -3.354   0.413  -0.028  1.00  0.00     0.135 A 
HETATM    2  C2  UNL     1      -2.555  -0.663  -0.040  1.00  0.00     0.052 A 
HETATM    3  C3  UNL     1      -1.214  -0.574  -0.021  1.00  0.00     0.107 A 
HETATM    4  C4  UNL     1      -0.646   0.649   0.010  1.00  0.00     0.087 A 
HETATM    5  C5  UNL     1      -1.420   1.759   0.023  1.00  0.00     0.138 A 
HETATM    6  C6  UNL     1      -2.756   1.611   0.003  1.00  0.00     0.055 A 
HETATM    7  O1  UNL     1      -0.924   3.029   0.054  1.00  0.00    -0.190 OA
HETATM    8  C7  UNL     1       0.715   0.743   0.028  1.00  0.00     0.198 A 
HETATM    9  C8  UNL     1       1.468  -0.391   0.014  1.00  0.00     0.042 A 
HETATM   10  C9  UNL     1       0.857  -1.585  -0.018  1.00  0.00     0.121 A 
HETATM   11  O2  UNL     1      -0.491  -1.730  -0.036  1.00  0.00    -0.305 OA
HETATM   12  O3  UNL     1       1.295   1.806   0.057  1.00  0.00    -0.287 OA
HETATM   13  O4  UNL     1      -4.708   0.285  -0.048  1.00  0.00    -0.190 OA
ENDROOT
BRANCH   9  14
HETATM   14  C10 UNL     1       2.983  -0.262   0.033  1.00  0.00     0.032 C 
HETATM   15  C11 UNL     1       3.796  -1.564   0.018  1.00  0.00     0.005 C 
ENDBRANCH   9  14
TORSDOF 1
