REMARK  7 active torsions:
REMARK  status: ('A' for Active; 'I' for Inactive)
REMARK    1  A    between atoms: C17_20  and  O8_37 
REMARK    2  A    between atoms: C18_21  and  C19_22 
REMARK    3  A    between atoms: C19_22  and  O3_23 
REMARK    4  A    between atoms: O3_23  and  C20_24 
REMARK    5  A    between atoms: C20_24  and  C21_25 
REMARK    6  A    between atoms: C21_25  and  C22_26 
REMARK    7  A    between atoms: C22_26  and  O4_27 
ROOT
HETATM    1  C1  UNL     1      -1.701   1.921  -0.981  1.00  0.00     0.119 A 
HETATM    2  C2  UNL     1      -1.601   3.133  -0.434  1.00  0.00     0.119 A 
HETATM    3  O1  UNL     1      -2.661   3.747  -0.511  1.00  0.00    -0.300 OA
HETATM    4  C3  UNL     1      -3.600   2.893  -1.167  1.00  0.00     0.304 A 
HETATM    5  O2  UNL     1      -2.826   1.722  -1.432  1.00  0.00    -0.300 OA
HETATM    6  C4  UNL     1      -0.440   3.547   0.083  1.00  0.00     0.022 A 
HETATM    7  C5  UNL     1       0.631   2.726   0.070  1.00  0.00    -0.024 A 
HETATM    8  C6  UNL     1       0.519   1.479  -0.447  1.00  0.00    -0.021 A 
HETATM    9  C7  UNL     1      -0.649   1.099  -1.003  1.00  0.00     0.022 A 
HETATM   10  C8  UNL     1       1.701   0.532  -0.485  1.00  0.00     0.071 C 
HETATM   11  C9  UNL     1       2.457   0.572  -1.836  1.00  0.00     0.217 C 
HETATM   12  N1  UNL     1       3.607   1.468  -1.970  1.00  0.00     0.137 N 
HETATM   13  C10 UNL     1       3.952   2.400  -0.904  1.00  0.00     0.251 C 
HETATM   14  C11 UNL     1       2.972   3.532  -0.518  1.00  0.00     0.040 C 
HETATM   15  C12 UNL     1       1.949   3.260   0.604  1.00  0.00     0.028 C 
HETATM   16  C13 UNL     1       3.537   2.096  -3.284  1.00  0.00     0.251 C 
HETATM   17  C14 UNL     1       2.657   1.184  -4.146  1.00  0.00     0.038 C 
HETATM   18  C15 UNL     1       1.603   0.800  -3.101  1.00  0.00     0.038 C 
HETATM   19  C16 UNL     1       2.933  -0.867  -1.894  1.00  0.00     0.025 C 
HETATM   20  C17 UNL     1       2.413  -1.696  -0.979  1.00  0.00     0.079 C 
HETATM   21  C18 UNL     1       1.521  -0.943  -0.020  1.00  0.00     0.137 C 
ENDROOT
BRANCH  21  22
HETATM   22  C19 UNL     1       0.129  -1.533   0.140  1.00  0.00     0.280 C 
HETATM   23  O7  UNL     1      -0.280  -2.498  -0.464  1.00  0.00    -0.264 OA
BRANCH  22  24
HETATM   24  O3  UNL     1      -0.536  -0.916   1.154  1.00  0.00    -0.280 OA
BRANCH  24  25
HETATM   25  C20 UNL     1      -1.712  -1.490   1.677  1.00  0.00     0.204 C 
HETATM   26  C24 UNL     1      -1.468  -2.910   2.165  1.00  0.00     0.060 C 
HETATM   27  C25 UNL     1      -2.332  -2.949   3.422  1.00  0.00     0.032 C 
HETATM   28  C26 UNL     1      -2.165  -1.522   3.944  1.00  0.00     0.096 C 
HETATM   29  O6  UNL     1      -1.945  -0.707   2.833  1.00  0.00    -0.339 OA
HETATM   30  C27 UNL     1      -3.428  -1.042   4.667  1.00  0.00     0.030 C 
HETATM   31  C28 UNL     1      -0.962  -1.401   4.886  1.00  0.00     0.030 C 
BRANCH  25  32
HETATM   32  C21 UNL     1      -2.923  -1.296   0.758  1.00  0.00     0.152 C 
BRANCH  32  33
HETATM   33  C22 UNL     1      -3.076  -2.230  -0.432  1.00  0.00     0.277 C 
HETATM   34  O5  UNL     1      -3.418  -3.388  -0.349  1.00  0.00    -0.264 OA
BRANCH  33  35
HETATM   35  O4  UNL     1      -2.800  -1.584  -1.596  1.00  0.00    -0.299 OA
HETATM   36  C23 UNL     1      -2.837  -2.363  -2.768  1.00  0.00     0.184 C 
ENDBRANCH  33  35
ENDBRANCH  32  33
ENDBRANCH  25  32
ENDBRANCH  24  25
ENDBRANCH  22  24
ENDBRANCH  21  22
BRANCH  20  37
HETATM   37  O8  UNL     1       2.741  -3.020  -0.890  1.00  0.00    -0.332 OA
HETATM   38  C29 UNL     1       2.854  -3.556   0.408  1.00  0.00     0.181 C 
ENDBRANCH  20  37
TORSDOF 7
