REMARK  1 active torsions:
REMARK  status: ('A' for Active; 'I' for Inactive)
REMARK    1  A    between atoms: C14_16  and  O2_19 
ROOT
HETATM    1  C1  UNL     1       2.400  -2.251  -1.343  1.00  0.00     0.119 A 
HETATM    2  C2  UNL     1       3.556  -2.923  -1.412  1.00  0.00     0.119 A 
HETATM    3  C3  UNL     1       4.162  -3.445  -0.324  1.00  0.00     0.024 A 
HETATM    4  C4  UNL     1       3.470  -3.299   0.838  1.00  0.00     0.010 A 
HETATM    5  C5  UNL     1       2.305  -2.616   0.918  1.00  0.00    -0.020 A 
HETATM    6  C6  UNL     1       1.764  -2.075  -0.184  1.00  0.00     0.022 A 
HETATM    7  C7  UNL     1       1.546  -2.441   2.216  1.00  0.00     0.064 C 
HETATM    8  C8  UNL     1       2.386  -2.790   3.444  1.00  0.00     0.295 C 
HETATM    9  N1  UNL     1       3.070  -4.044   3.164  1.00  0.00     0.342 N 
HETATM   10  C9  UNL     1       4.059  -3.887   2.102  1.00  0.00     0.283 C 
HETATM   11  C10 UNL     1       4.608  -5.258   1.726  1.00  0.00     0.067 C 
HETATM   12  C11 UNL     1       5.603  -5.009   0.623  1.00  0.00    -0.018 A 
HETATM   13  C12 UNL     1       5.354  -4.106  -0.352  1.00  0.00     0.025 A 
HETATM   14  C13 UNL     1       6.330  -3.913  -1.278  1.00  0.00     0.153 A 
HETATM   15  O1  UNL     1       6.256  -2.932  -2.224  1.00  0.00    -0.188 OA
HETATM   16  C14 UNL     1       7.492  -4.611  -1.264  1.00  0.00     0.119 A 
HETATM   17  C15 UNL     1       7.668  -5.534  -0.304  1.00  0.00     0.026 A 
HETATM   18  C16 UNL     1       6.737  -5.724   0.634  1.00  0.00    -0.002 A 
HETATM   19  O3  UNL     1       3.903  -3.015  -2.590  1.00  0.00    -0.300 OA
HETATM   20  C18 UNL     1       2.976  -2.284  -3.392  1.00  0.00     0.304 A 
HETATM   21  O4  UNL     1       2.014  -1.857  -2.438  1.00  0.00    -0.300 OA
ENDROOT
BRANCH  16  22
HETATM   22  O2  UNL     1       8.431  -4.333  -2.232  1.00  0.00    -0.326 OA
HETATM   23  C17 UNL     1       9.661  -5.021  -2.224  1.00  0.00     0.181 C 
ENDBRANCH  16  22
TORSDOF 1
