REMARK  0 active torsions:
REMARK  status: ('A' for Active; 'I' for Inactive)
ROOT
HETATM    1  C1  UNL     1      -2.639   0.361  -0.027  1.00  0.00     0.000 A 
HETATM    2  C2  UNL     1      -1.838  -0.715  -0.032  1.00  0.00     0.003 A 
HETATM    3  C3  UNL     1      -0.499  -0.576  -0.014  1.00  0.00     0.042 A 
HETATM    4  C4  UNL     1       0.044   0.659   0.011  1.00  0.00     0.044 A 
HETATM    5  C5  UNL     1      -0.768   1.733   0.015  1.00  0.00     0.003 A 
HETATM    6  C6  UNL     1      -2.102   1.589  -0.003  1.00  0.00     0.000 A 
HETATM    7  C7  UNL     1       1.395   0.836   0.032  1.00  0.00     0.221 A 
HETATM    8  C8  UNL     1       2.190  -0.266   0.026  1.00  0.00     0.173 A 
HETATM    9  C9  UNL     1       1.631  -1.485   0.001  1.00  0.00     0.073 A 
HETATM   10  C10 UNL     1       0.291  -1.683  -0.020  1.00  0.00     0.198 A 
HETATM   11  O1  UNL     1      -0.141  -2.814  -0.043  1.00  0.00    -0.286 OA
HETATM   12  O2  UNL     1       3.544  -0.114   0.047  1.00  0.00    -0.187 OA
HETATM   13  O3  UNL     1       1.902   1.937   0.054  1.00  0.00    -0.284 OA
ENDROOT
TORSDOF 0
