REMARK  4 active torsions:
REMARK  status: ('A' for Active; 'I' for Inactive)
REMARK    1  A    between atoms: N5_10  and  C6_11 
REMARK    2  A    between atoms: C6_11  and  C7_12 
REMARK    3  A    between atoms: C7_12  and  C8_13 
REMARK    4  A    between atoms: C8_13  and  C9_14 
ROOT
HETATM    1  N1  UNL     1       2.146  -0.582  -0.755  1.00  0.00    -0.205 NA
HETATM    2  C1  UNL     1       1.549   0.500  -0.499  1.00  0.00     0.168 A 
HETATM    3  C2  UNL     1       2.222   1.604  -0.125  1.00  0.00     0.155 A 
HETATM    4  C3  UNL     1       3.560   1.548  -0.023  1.00  0.00     0.206 A 
HETATM    5  N2  UNL     1       4.126   0.444  -0.288  1.00  0.00    -0.202 NA
HETATM    6  C4  UNL     1       3.406  -0.542  -0.631  1.00  0.00     0.202 A 
HETATM    7  N3  UNL     1       4.191   2.590   0.329  1.00  0.00    -0.125 N 
HETATM    8  N4  UNL     1       1.427   2.572   0.082  1.00  0.00    -0.219 NA
HETATM    9  C5  UNL     1       0.267   2.117  -0.145  1.00  0.00     0.180 A 
HETATM   10  N5  UNL     1       0.351   0.902  -0.486  1.00  0.00    -0.292 N 
ENDROOT
BRANCH  10  11
HETATM   11  C6  UNL     1      -0.801   0.053  -0.822  1.00  0.00     0.145 C 
BRANCH  11  12
HETATM   12  C7  UNL     1      -1.095  -0.959   0.286  1.00  0.00     0.215 C 
HETATM   13  O4  UNL     1      -1.419  -0.287   1.480  1.00  0.00    -0.218 OA
BRANCH  12  14
HETATM   14  C8  UNL     1      -2.227  -1.935   0.001  1.00  0.00     0.270 C 
HETATM   15  O3  UNL     1      -2.259  -2.852   1.086  1.00  0.00    -0.209 OA
BRANCH  14  16
HETATM   16  C9  UNL     1      -3.598  -1.305  -0.193  1.00  0.00     0.220 C 
HETATM   17  O1  UNL     1      -4.515  -1.900   0.590  1.00  0.00    -0.645 OA
HETATM   18  O2  UNL     1      -3.899  -0.412  -0.948  1.00  0.00    -0.645 OA
ENDBRANCH  14  16
ENDBRANCH  12  14
ENDBRANCH  11  12
ENDBRANCH  10  11
TORSDOF 4
