REMARK  9 active torsions:
REMARK  status: ('A' for Active; 'I' for Inactive)
REMARK    1  A    between atoms: C1_1  and  O5_22 
REMARK    2  A    between atoms: C3_3  and  C8_10 
REMARK    3  A    between atoms: C5_5  and  O2_8 
REMARK    4  A    between atoms: C8_10  and  O3_11 
REMARK    5  A    between atoms: O3_11  and  C9_12 
REMARK    6  A    between atoms: C9_12  and  C10_13 
REMARK    7  A    between atoms: C10_13  and  C11_14 
REMARK    8  A    between atoms: C11_14  and  C12_15 
REMARK    9  A    between atoms: C12_15  and  N1_16 
REMARK       I    between atoms: N1_16  and  C13_17 
REMARK       I    between atoms: C13_17  and  N3_19 
ROOT
HETATM    1  C8  UNL     1       2.909  -0.876  -0.123  1.00  0.00     0.296 C 
HETATM    2  O4  UNL     1       4.124  -0.914  -0.049  1.00  0.00    -0.259 OA
ENDROOT
BRANCH   1   3
HETATM    3  C3  UNL     1       2.401   0.283  -0.657  1.00  0.00     0.067 A 
HETATM    4  C2  UNL     1       3.240   1.267  -1.040  1.00  0.00     0.032 A 
HETATM    5  C1  UNL     1       2.822   2.445  -1.535  1.00  0.00     0.121 A 
HETATM    6  C6  UNL     1       1.503   2.640  -1.742  1.00  0.00     0.175 A 
HETATM    7  C5  UNL     1       0.613   1.684  -1.400  1.00  0.00     0.121 A 
HETATM    8  O1  UNL     1       1.128   3.818  -2.311  1.00  0.00    -0.186 OA
HETATM    9  C4  UNL     1       1.100   0.552  -0.854  1.00  0.00     0.032 A 
BRANCH   5  10
HETATM   10  O5  UNL     1       3.727   3.395  -1.941  1.00  0.00    -0.326 OA
HETATM   11  C14 UNL     1       4.222   4.196  -0.891  1.00  0.00     0.181 C 
ENDBRANCH   5  10
BRANCH   7  12
HETATM   12  O2  UNL     1      -0.759   1.774  -1.511  1.00  0.00    -0.326 OA
HETATM   13  C7  UNL     1      -1.387   3.030  -1.588  1.00  0.00     0.181 C 
ENDBRANCH   7  12
ENDBRANCH   1   3
BRANCH   1  14
HETATM   14  O3  UNL     1       2.302  -2.017   0.351  1.00  0.00    -0.298 OA
BRANCH  14  15
HETATM   15  C9  UNL     1       0.929  -2.260   0.455  1.00  0.00     0.152 C 
BRANCH  15  16
HETATM   16  C10 UNL     1       0.312  -1.497   1.632  1.00  0.00     0.035 C 
BRANCH  16  17
HETATM   17  C11 UNL     1      -1.224  -1.440   1.589  1.00  0.00     0.030 C 
BRANCH  17  18
HETATM   18  C12 UNL     1      -1.899  -2.817   1.665  1.00  0.00     0.145 C 
BRANCH  18  19
HETATM   19  N1  UNL     1      -3.369  -2.648   1.678  1.00  0.00    -0.085 NA
HETATM   20  C13 UNL     1      -4.189  -3.615   1.750  1.00  0.00     0.756 C 
HETATM   21  N2  UNL     1      -5.414  -3.291   1.748  1.00  0.00     0.061 N 
HETATM   22  N3  UNL     1      -3.854  -4.832   1.821  1.00  0.00    -0.113 NA
HETATM   23  H1  UNL     1      -4.675  -5.439   1.871  1.00  0.00     0.206 HD
ENDBRANCH  18  19
ENDBRANCH  17  18
ENDBRANCH  16  17
ENDBRANCH  15  16
ENDBRANCH  14  15
ENDBRANCH   1  14
TORSDOF 9
