REMARK  3 active torsions:
REMARK  status: ('A' for Active; 'I' for Inactive)
REMARK    1  A    between atoms: C2_2  and  O4_18 
REMARK    2  A    between atoms: C3_3  and  C13_15 
REMARK    3  A    between atoms: C4_4  and  O2_13 
ROOT
HETATM    1  C1  UNL     1      -0.861  -0.908  -0.965  1.00  0.00     0.048 A 
HETATM    2  C2  UNL     1       0.328  -1.534  -0.974  1.00  0.00     0.096 A 
HETATM    3  C3  UNL     1       1.271  -1.063  -0.127  1.00  0.00     0.052 A 
HETATM    4  C4  UNL     1       1.049   0.035   0.637  1.00  0.00     0.096 A 
HETATM    5  C5  UNL     1      -0.176   0.611   0.616  1.00  0.00     0.044 A 
HETATM    6  C6  UNL     1      -1.153   0.149  -0.190  1.00  0.00     0.098 A 
HETATM    7  O1  UNL     1      -2.414   0.685  -0.265  1.00  0.00    -0.332 OA
HETATM    8  C7  UNL     1      -2.577   2.003   0.173  1.00  0.00     0.117 C 
HETATM    9  C8  UNL     1      -1.633   2.306   1.306  1.00  0.00     0.001 C 
HETATM   10  C9  UNL     1      -0.476   1.645   1.426  1.00  0.00     0.002 C 
HETATM   11  C10 UNL     1      -4.030   2.178   0.621  1.00  0.00     0.035 C 
HETATM   12  C11 UNL     1      -2.264   2.950  -0.992  1.00  0.00     0.035 C 
ENDROOT
BRANCH   3  13
HETATM   13  C13 UNL     1       2.615  -1.785  -0.050  1.00  0.00     0.178 C 
HETATM   14  C14 UNL     1       2.531  -3.079   0.757  1.00  0.00     0.041 C 
HETATM   15  O3  UNL     1       3.107  -2.057  -1.352  1.00  0.00    -0.218 OA
ENDBRANCH   3  13
BRANCH   2  16
HETATM   16  O4  UNL     1       0.574  -2.655  -1.732  1.00  0.00    -0.328 OA
HETATM   17  C15 UNL     1      -0.506  -3.471  -2.119  1.00  0.00     0.181 C 
ENDBRANCH   2  16
BRANCH   4  18
HETATM   18  O2  UNL     1       2.010   0.468   1.522  1.00  0.00    -0.328 OA
HETATM   19  C12 UNL     1       2.829   1.502   1.019  1.00  0.00     0.181 C 
ENDBRANCH   4  18
TORSDOF 3
