REMARK  5 active torsions:
REMARK  status: ('A' for Active; 'I' for Inactive)
REMARK    1  A    between atoms: C3_3  and  O4_10 
REMARK    2  A    between atoms: C4_5  and  C6_8 
REMARK    3  A    between atoms: O4_10  and  C7_11 
REMARK    4  A    between atoms: C12_16  and  O5_17 
REMARK    5  A    between atoms: C16_23  and  C17_24 
ROOT
HETATM    1  C7  UNL     1       1.489   0.532  -0.249  1.00  0.00     0.121 A 
HETATM    2  C8  UNL     1       1.596   1.883  -0.196  1.00  0.00     0.026 A 
HETATM    3  C9  UNL     1       0.625   2.721   0.200  1.00  0.00     0.007 A 
HETATM    4  C10 UNL     1      -0.513   2.134   0.565  1.00  0.00     0.066 A 
HETATM    5  C11 UNL     1      -0.677   0.818   0.489  1.00  0.00     0.127 A 
HETATM    6  C12 UNL     1       0.278  -0.021   0.044  1.00  0.00     0.139 A 
HETATM    7  O6  UNL     1      -1.821   0.527   0.835  1.00  0.00    -0.302 OA
HETATM    8  C14 UNL     1      -2.419   1.538   1.240  1.00  0.00     0.139 A 
HETATM    9  C15 UNL     1      -1.662   2.656   1.042  1.00  0.00     0.220 A 
HETATM   10  O7  UNL     1      -1.879   3.835   1.185  1.00  0.00    -0.284 OA
HETATM   11  C16 UNL     1      -3.662   1.411   1.744  1.00  0.00     0.028 C 
ENDROOT
BRANCH   1  12
HETATM   12  O4  UNL     1       2.653  -0.101  -0.636  1.00  0.00    -0.302 OA
BRANCH  12  13
HETATM   13  C3  UNL     1       2.752  -1.420  -1.122  1.00  0.00     0.274 C 
HETATM   14  C2  UNL     1       3.891  -2.089  -0.391  1.00  0.00     0.241 C 
HETATM   15  C1  UNL     1       4.086  -3.476  -0.956  1.00  0.00     0.220 C 
HETATM   16  O10 UNL     1       3.568  -2.180   0.974  1.00  0.00    -0.215 OA
HETATM   17  C5  UNL     1       4.334  -3.346  -2.444  1.00  0.00     0.215 C 
HETATM   18  O11 UNL     1       5.191  -4.089  -0.344  1.00  0.00    -0.218 OA
HETATM   19  C4  UNL     1       3.200  -2.570  -3.107  1.00  0.00     0.184 C 
HETATM   20  O2  UNL     1       4.430  -4.647  -2.970  1.00  0.00    -0.218 OA
HETATM   21  O1  UNL     1       3.055  -1.311  -2.497  1.00  0.00    -0.326 OA
BRANCH  19  22
HETATM   22  C6  UNL     1       3.453  -2.362  -4.593  1.00  0.00     0.214 C 
HETATM   23  O3  UNL     1       2.297  -1.825  -5.203  1.00  0.00    -0.218 OA
ENDBRANCH  19  22
ENDBRANCH  12  13
ENDBRANCH   1  12
BRANCH   6  24
HETATM   24  O5  UNL     1       0.020  -1.365   0.112  1.00  0.00    -0.324 OA
HETATM   25  C13 UNL     1      -0.735  -1.866  -0.972  1.00  0.00     0.182 C 
ENDBRANCH   6  24
BRANCH  11  26
HETATM   26  C17 UNL     1      -4.545   2.239   2.344  1.00  0.00     0.004 A 
HETATM   27  C18 UNL     1      -5.804   1.796   2.549  1.00  0.00     0.002 A 
HETATM   28  C19 UNL     1      -6.728   2.547   3.166  1.00  0.00     0.029 A 
HETATM   29  C20 UNL     1      -6.433   3.771   3.629  1.00  0.00     0.156 A 
HETATM   30  C21 UNL     1      -5.180   4.226   3.468  1.00  0.00     0.156 A 
HETATM   31  O9  UNL     1      -7.355   4.537   4.271  1.00  0.00    -0.188 OA
HETATM   32  C22 UNL     1      -4.272   3.458   2.840  1.00  0.00     0.030 A 
HETATM   33  O8  UNL     1      -4.835   5.448   3.957  1.00  0.00    -0.188 OA
ENDBRANCH  11  26
TORSDOF 5
