REMARK  8 active torsions:
REMARK  status: ('A' for Active; 'I' for Inactive)
REMARK    1  A    between atoms: C4_4  and  O10_35 
REMARK    2  A    between atoms: C5_5  and  C8_9 
REMARK    3  A    between atoms: C6_6  and  O1_7 
REMARK    4  A    between atoms: C11_12  and  O8_31 
REMARK    5  A    between atoms: C13_15  and  C15_18 
REMARK    6  A    between atoms: C16_19  and  O4_20 
REMARK    7  A    between atoms: C21_25  and  O5_26 
REMARK    8  A    between atoms: O8_31  and  C24_32 
ROOT
HETATM    1  C8  UNL     1      -1.292   1.997   0.774  1.00  0.00     0.146 C 
HETATM    2  C9  UNL     1      -1.151   0.466   0.691  1.00  0.00     0.085 C 
HETATM    3  C10 UNL     1      -1.548  -0.127  -0.672  1.00  0.00     0.008 C 
HETATM    4  C11 UNL     1       0.262   0.168   1.221  1.00  0.00     0.162 C 
HETATM    5  C12 UNL     1       0.471   1.433   2.067  1.00  0.00     0.173 C 
HETATM    6  O2  UNL     1      -0.088   2.484   1.321  1.00  0.00    -0.349 OA
HETATM    7  C13 UNL     1       0.126  -1.104   2.071  1.00  0.00     0.169 C 
HETATM    8  O3  UNL     1      -1.244  -1.443   2.033  1.00  0.00    -0.349 OA
HETATM    9  C14 UNL     1      -1.962  -0.267   1.773  1.00  0.00     0.148 C 
ENDROOT
BRANCH   1  10
HETATM   10  C5  UNL     1      -1.702   2.673  -0.542  1.00  0.00     0.051 A 
HETATM   11  C4  UNL     1      -0.773   2.935  -1.498  1.00  0.00     0.118 A 
HETATM   12  C3  UNL     1      -1.233   3.401  -2.670  1.00  0.00     0.141 A 
HETATM   13  C2  UNL     1      -2.521   3.684  -2.868  1.00  0.00     0.123 A 
HETATM   14  O11 UNL     1      -0.572   3.665  -3.673  1.00  0.00    -0.298 OA
HETATM   15  C1  UNL     1      -3.417   3.470  -1.903  1.00  0.00     0.050 A 
HETATM   16  O12 UNL     1      -2.725   4.118  -3.998  1.00  0.00    -0.299 OA
HETATM   17  C6  UNL     1      -3.022   2.960  -0.718  1.00  0.00     0.096 A 
HETATM   18  C27 UNL     1      -1.469   4.147  -4.674  1.00  0.00     0.304 A 
BRANCH  11  19
HETATM   19  O10 UNL     1       0.542   2.564  -1.391  1.00  0.00    -0.326 OA
HETATM   20  C26 UNL     1       1.438   3.631  -1.171  1.00  0.00     0.181 C 
ENDBRANCH  11  19
BRANCH  17  21
HETATM   21  O1  UNL     1      -3.913   2.653   0.287  1.00  0.00    -0.328 OA
HETATM   22  C7  UNL     1      -5.297   2.697   0.029  1.00  0.00     0.181 C 
ENDBRANCH  17  21
ENDBRANCH   1  10
BRANCH   4  23
HETATM   23  O8  UNL     1       1.288   0.210   0.280  1.00  0.00    -0.301 OA
BRANCH  23  24
HETATM   24  C24 UNL     1       1.521  -0.698  -0.697  1.00  0.00     0.272 C 
HETATM   25  C25 UNL     1       2.786  -0.324  -1.444  1.00  0.00     0.106 C 
HETATM   26  O9  UNL     1       0.863  -1.677  -0.953  1.00  0.00    -0.264 OA
ENDBRANCH  23  24
ENDBRANCH   4  23
BRANCH   7  27
HETATM   27  C15 UNL     1       1.111  -2.249   1.784  1.00  0.00     0.054 A 
HETATM   28  C16 UNL     1       0.713  -3.394   1.162  1.00  0.00     0.118 A 
HETATM   29  C18 UNL     1       1.685  -4.290   0.904  1.00  0.00     0.141 A 
HETATM   30  C19 UNL     1       2.954  -4.086   1.267  1.00  0.00     0.123 A 
HETATM   31  O7  UNL     1       1.587  -5.376   0.335  1.00  0.00    -0.298 OA
HETATM   32  C20 UNL     1       3.317  -2.976   1.910  1.00  0.00     0.050 A 
HETATM   33  O6  UNL     1       3.689  -5.014   0.941  1.00  0.00    -0.299 OA
HETATM   34  C21 UNL     1       2.394  -2.035   2.186  1.00  0.00     0.097 A 
HETATM   35  C23 UNL     1       2.881  -5.974   0.268  1.00  0.00     0.304 A 
BRANCH  28  36
HETATM   36  O4  UNL     1      -0.594  -3.546   0.759  1.00  0.00    -0.326 OA
HETATM   37  C17 UNL     1      -0.946  -4.491  -0.223  1.00  0.00     0.181 C 
ENDBRANCH  28  36
BRANCH  34  38
HETATM   38  O5  UNL     1       2.703  -0.855   2.825  1.00  0.00    -0.328 OA
HETATM   39  C22 UNL     1       4.041  -0.573   3.162  1.00  0.00     0.181 C 
ENDBRANCH  34  38
ENDBRANCH   7  27
TORSDOF 8
