REMARK  3 active torsions:
REMARK  status: ('A' for Active; 'I' for Inactive)
REMARK    1  A    between atoms: C1_2  and  C2_3 
REMARK    2  A    between atoms: C2_3  and  C3_4 
REMARK    3  A    between atoms: C3_4  and  C4_5 
ROOT
HETATM    1  C2  UNL     1       0.186  -0.311  -0.001  1.00  0.00     0.076 C 
ENDROOT
BRANCH   1   2
HETATM    2  C1  UNL     1       1.497   0.460  -0.000  1.00  0.00     0.152 C 
HETATM    3  O1  UNL     1       1.526   1.670   0.000  1.00  0.00    -0.296 OA
HETATM    4  C5  UNL     1       2.773  -0.360  -0.000  1.00  0.00     0.072 C 
ENDBRANCH   1   2
BRANCH   1   5
HETATM    5  C3  UNL     1      -1.064   0.584  -0.001  1.00  0.00     0.105 C 
BRANCH   5   6
HETATM    6  C4  UNL     1      -2.357  -0.210   0.000  1.00  0.00     0.186 C 
HETATM    7  O2  UNL     1      -3.435   0.595  -0.013  1.00  0.00    -0.647 OA
HETATM    8  O3  UNL     1      -2.465  -1.413   0.014  1.00  0.00    -0.647 OA
ENDBRANCH   5   6
ENDBRANCH   1   5
TORSDOF 3
