REMARK  7 active torsions:
REMARK  status: ('A' for Active; 'I' for Inactive)
REMARK    1  A    between atoms: C5_6  and  O2_7 
REMARK    2  A    between atoms: O2_7  and  C6_8 
REMARK    3  A    between atoms: C6_8  and  C7_10 
REMARK    4  A    between atoms: C7_10  and  C8_11 
REMARK    5  A    between atoms: C9_12  and  C10_13 
REMARK    6  A    between atoms: C10_13  and  O4_14 
REMARK    7  A    between atoms: O4_14  and  C11_15 
ROOT
HETATM    1  C1  UNL     1      -2.349  -0.945  -1.172  1.00  0.00     0.152 C 
HETATM    2  O1  UNL     1      -2.899  -1.546  -2.331  1.00  0.00    -0.296 OA
HETATM    3  C2  UNL     1      -1.921  -1.639  -3.264  1.00  0.00     0.292 C 
HETATM    4  C3  UNL     1      -0.747  -1.065  -2.915  1.00  0.00     0.046 C 
HETATM    5  C4  UNL     1      -0.912  -0.433  -1.547  1.00  0.00     0.087 C 
HETATM    6  C5  UNL     1       0.309  -0.681  -0.600  1.00  0.00     0.134 C 
HETATM    7  C13 UNL     1       0.576   0.338   0.567  1.00  0.00     0.062 C 
HETATM    8  C14 UNL     1      -0.710   0.805   1.241  1.00  0.00     0.114 C 
HETATM    9  C15 UNL     1      -0.937   1.191   2.678  1.00  0.00    -0.002 C 
HETATM   10  C16 UNL     1      -2.188   0.785   2.961  1.00  0.00     0.002 C 
HETATM   11  C17 UNL     1      -2.693  -0.124   1.851  1.00  0.00     0.126 C 
HETATM   12  C18 UNL     1      -3.582   0.382   0.725  1.00  0.00    -0.018 C 
HETATM   13  C19 UNL     1      -3.375   0.037  -0.571  1.00  0.00    -0.002 C 
HETATM   14  C20 UNL     1      -4.725   1.274   1.144  1.00  0.00     0.029 C 
HETATM   15  C21 UNL     1      -3.248  -1.429   2.418  1.00  0.00     0.038 C 
HETATM   16  O6  UNL     1      -1.473  -0.365   1.222  1.00  0.00    -0.352 OA
HETATM   17  C22 UNL     1      -1.241   2.068   0.521  1.00  0.00     0.034 C 
HETATM   18  C23 UNL     1       0.324  -1.020  -3.721  1.00  0.00     0.001 C 
HETATM   19  O7  UNL     1      -2.105  -2.180  -4.334  1.00  0.00    -0.259 OA
ENDROOT
BRANCH   6  20
HETATM   20  O2  UNL     1       0.219  -1.971  -0.052  1.00  0.00    -0.303 OA
BRANCH  20  21
HETATM   21  C6  UNL     1       1.186  -2.933  -0.119  1.00  0.00     0.276 C 
HETATM   22  O3  UNL     1       1.174  -3.897   0.618  1.00  0.00    -0.264 OA
BRANCH  21  23
HETATM   23  C7  UNL     1       2.179  -2.865  -1.271  1.00  0.00     0.122 C 
BRANCH  23  24
HETATM   24  C8  UNL     1       3.288  -1.853  -1.152  1.00  0.00    -0.018 C 
HETATM   25  C9  UNL     1       3.686  -1.282  -0.006  1.00  0.00     0.002 C 
BRANCH  25  26
HETATM   26  C10 UNL     1       4.744  -0.208   0.064  1.00  0.00     0.178 C 
BRANCH  26  27
HETATM   27  O4  UNL     1       4.137   1.006   0.456  1.00  0.00    -0.297 OA
BRANCH  27  28
HETATM   28  C11 UNL     1       4.926   2.113   0.467  1.00  0.00     0.273 C 
HETATM   29  C12 UNL     1       4.125   3.321   0.908  1.00  0.00     0.106 C 
HETATM   30  O5  UNL     1       6.098   2.130   0.165  1.00  0.00    -0.264 OA
ENDBRANCH  27  28
ENDBRANCH  26  27
ENDBRANCH  25  26
ENDBRANCH  23  24
ENDBRANCH  21  23
ENDBRANCH  20  21
ENDBRANCH   6  20
TORSDOF 7
