REMARK  6 active torsions:
REMARK  status: ('A' for Active; 'I' for Inactive)
REMARK    1  A    between atoms: C5_6  and  O4_15 
REMARK    2  A    between atoms: O4_15  and  C12_16 
REMARK    3  A    between atoms: C12_16  and  C13_17 
REMARK    4  A    between atoms: C14_18  and  C15_19 
REMARK    5  A    between atoms: C15_19  and  C16_20 
REMARK    6  A    between atoms: C17_21  and  C18_23 
ROOT
HETATM    1  C1  UNL     1      -2.005   0.015   2.607  1.00  0.00     0.031 A 
HETATM    2  C2  UNL     1      -2.484   0.040   3.859  1.00  0.00     0.123 A 
HETATM    3  O1  UNL     1      -2.367  -1.048   4.424  1.00  0.00    -0.305 OA
HETATM    4  C3  UNL     1      -1.836  -1.825   3.631  1.00  0.00     0.104 A 
HETATM    5  C4  UNL     1      -1.567  -1.242   2.461  1.00  0.00     0.047 A 
HETATM    6  C5  UNL     1      -0.976  -1.878   1.438  1.00  0.00     0.098 A 
HETATM    7  C6  UNL     1      -0.730  -3.198   1.633  1.00  0.00     0.045 A 
HETATM    8  C7  UNL     1      -0.976  -3.818   2.814  1.00  0.00     0.107 A 
HETATM    9  C8  UNL     1      -1.532  -3.112   3.819  1.00  0.00     0.050 A 
HETATM   10  O2  UNL     1      -0.704  -5.142   3.037  1.00  0.00    -0.273 OA
HETATM   11  C9  UNL     1      -0.179  -5.840   1.992  1.00  0.00     0.300 A 
HETATM   12  C10 UNL     1       0.064  -5.248   0.798  1.00  0.00     0.069 A 
HETATM   13  C11 UNL     1      -0.214  -3.946   0.638  1.00  0.00     0.009 A 
HETATM   14  O3  UNL     1       0.082  -7.019   2.119  1.00  0.00    -0.259 OA
ENDROOT
BRANCH   6  15
HETATM   15  O4  UNL     1      -0.768  -1.216   0.253  1.00  0.00    -0.326 OA
BRANCH  15  16
HETATM   16  C12 UNL     1       0.581  -0.849   0.015  1.00  0.00     0.174 C 
BRANCH  16  17
HETATM   17  C13 UNL     1       0.725   0.620  -0.303  1.00  0.00    -0.002 C 
HETATM   18  C14 UNL     1       1.794   1.182  -0.897  1.00  0.00    -0.043 C 
HETATM   19  C21 UNL     1       3.005   0.391  -1.339  1.00  0.00     0.026 C 
BRANCH  18  20
HETATM   20  C15 UNL     1       1.904   2.667  -1.186  1.00  0.00     0.054 C 
BRANCH  20  21
HETATM   21  C16 UNL     1       0.745   3.525  -0.693  1.00  0.00     0.151 A 
HETATM   22  C17 UNL     1      -0.221   4.094  -1.535  1.00  0.00     0.161 A 
HETATM   23  O5  UNL     1       0.993   4.968  -1.174  1.00  0.00    -0.349 OA
BRANCH  22  24
HETATM   24  C18 UNL     1      -0.200   3.601  -2.902  1.00  0.00    -0.015 C 
HETATM   25  C19 UNL     1      -1.032   2.370  -3.173  1.00  0.00     0.029 C 
HETATM   26  C20 UNL     1       0.471   4.216  -3.890  1.00  0.00    -0.007 C 
ENDBRANCH  22  24
ENDBRANCH  20  21
ENDBRANCH  18  20
ENDBRANCH  16  17
ENDBRANCH  15  16
ENDBRANCH   6  15
TORSDOF 6
