REMARK  8 active torsions:
REMARK  status: ('A' for Active; 'I' for Inactive)
REMARK    1  A    between atoms: C3_3  and  O3_9 
REMARK    2  A    between atoms: O3_9  and  C7_10 
REMARK    3  A    between atoms: C8_11  and  O9_21 
REMARK    4  A    between atoms: C9_13  and  C12_18 
REMARK    5  A    between atoms: O9_21  and  C13_22 
REMARK    6  A    between atoms: C14_23  and  O15_33 
REMARK    7  A    between atoms: C15_25  and  C18_30 
REMARK    8  A    between atoms: O15_33  and  C19_34 
ROOT
HETATM    1  C13 UNL     1      -3.224  -1.806  -0.098  1.00  0.00     0.207 C 
HETATM    2  C14 UNL     1      -2.131  -0.762   0.078  1.00  0.00     0.267 C 
HETATM    3  O10 UNL     1      -2.184  -0.173   1.361  1.00  0.00    -0.318 OA
HETATM    4  C15 UNL     1      -2.095  -1.059   2.460  1.00  0.00     0.237 C 
HETATM    5  C16 UNL     1      -3.000  -2.280   2.372  1.00  0.00     0.223 C 
HETATM    6  C17 UNL     1      -3.088  -2.873   0.979  1.00  0.00     0.217 C 
HETATM    7  O11 UNL     1      -1.923  -3.633   0.734  1.00  0.00    -0.218 OA
HETATM    8  O12 UNL     1      -4.280  -1.942   2.844  1.00  0.00    -0.217 OA
ENDROOT
BRANCH   2   9
HETATM    9  O15 UNL     1      -0.826  -1.276  -0.093  1.00  0.00    -0.332 OA
BRANCH   9  10
HETATM   10  C19 UNL     1      -0.077  -0.755  -1.166  1.00  0.00     0.118 C 
HETATM   11  C20 UNL     1       1.250  -1.550  -1.303  1.00  0.00     0.025 C 
HETATM   12  C21 UNL     1       2.243  -1.210  -0.137  1.00  0.00     0.002 C 
HETATM   13  C47 UNL     1       1.832  -1.321  -2.719  1.00  0.00     0.002 C 
HETATM   14  C48 UNL     1       0.894  -3.066  -1.275  1.00  0.00     0.002 C 
HETATM   15  C22 UNL     1       2.390   0.267   0.351  1.00  0.00     0.001 C 
HETATM   16  C28 UNL     1       3.628  -1.885  -0.227  1.00  0.00     0.000 C 
HETATM   17  C23 UNL     1       1.019   0.991   0.271  1.00  0.00     0.003 C 
HETATM   18  C25 UNL     1       3.499   1.023  -0.457  1.00  0.00     0.005 C 
HETATM   19  C46 UNL     1       2.695   0.265   1.877  1.00  0.00     0.000 C 
HETATM   20  C24 UNL     1       0.233   0.736  -1.013  1.00  0.00     0.030 C 
HETATM   21  C26 UNL     1       4.917   0.373  -0.542  1.00  0.00     0.004 C 
HETATM   22  C32 UNL     1       3.573   2.538  -0.167  1.00  0.00     0.025 C 
HETATM   23  C27 UNL     1       4.708  -1.097  -0.990  1.00  0.00     0.000 C 
HETATM   24  C29 UNL     1       5.843   1.169  -1.556  1.00  0.00     0.015 C 
HETATM   25  C45 UNL     1       5.612   0.344   0.838  1.00  0.00     0.000 C 
HETATM   26  C30 UNL     1       5.851   2.656  -1.232  1.00  0.00    -0.049 C 
HETATM   27  C36 UNL     1       7.326   0.674  -1.615  1.00  0.00     0.004 C 
HETATM   28  C44 UNL     1       5.303   1.106  -3.018  1.00  0.00     0.004 C 
HETATM   29  C31 UNL     1       4.810   3.249  -0.633  1.00  0.00    -0.035 C 
HETATM   30  C33 UNL     1       7.115   3.395  -1.618  1.00  0.00     0.021 C 
HETATM   31  C34 UNL     1       8.238   2.971  -0.646  1.00  0.00     0.029 C 
HETATM   32  C40 UNL     1       7.086   4.915  -1.851  1.00  0.00     0.014 C 
HETATM   33  C35 UNL     1       8.434   1.443  -0.845  1.00  0.00     0.003 C 
HETATM   34  C37 UNL     1       9.541   3.766  -0.950  1.00  0.00     0.125 C 
HETATM   35  C43 UNL     1       7.814   3.225   0.822  1.00  0.00     0.003 C 
HETATM   36  C38 UNL     1       9.534   4.337  -2.365  1.00  0.00     0.040 C 
HETATM   37  O16 UNL     1       9.634   4.921  -0.160  1.00  0.00    -0.304 OA
HETATM   38  C39 UNL     1       8.510   5.458  -2.127  1.00  0.00     0.081 C 
HETATM   39  C41 UNL     1       9.061   5.971  -0.803  1.00  0.00     0.271 C 
HETATM   40  C42 UNL     1       8.541   6.539  -3.211  1.00  0.00     0.010 C 
HETATM   41  O17 UNL     1       8.993   7.102  -0.375  1.00  0.00    -0.264 OA
ENDBRANCH   9  10
ENDBRANCH   2   9
BRANCH   1  42
HETATM   42  O9  UNL     1      -4.441  -1.114  -0.003  1.00  0.00    -0.324 OA
BRANCH  42  43
HETATM   43  C8  UNL     1      -5.608  -1.799  -0.395  1.00  0.00     0.267 C 
HETATM   44  C7  UNL     1      -6.694  -1.606   0.648  1.00  0.00     0.207 C 
HETATM   45  C11 UNL     1      -7.096  -0.139   0.731  1.00  0.00     0.217 C 
HETATM   46  C10 UNL     1      -7.414   0.427  -0.639  1.00  0.00     0.223 C 
HETATM   47  O5  UNL     1      -6.063   0.613   1.331  1.00  0.00    -0.218 OA
HETATM   48  C9  UNL     1      -6.364   0.068  -1.686  1.00  0.00     0.237 C 
HETATM   49  O6  UNL     1      -8.687  -0.031  -1.041  1.00  0.00    -0.217 OA
HETATM   50  O4  UNL     1      -5.994  -1.296  -1.658  1.00  0.00    -0.318 OA
BRANCH  44  51
HETATM   51  O3  UNL     1      -7.780  -2.430   0.325  1.00  0.00    -0.324 OA
BRANCH  51  52
HETATM   52  C3  UNL     1      -8.632  -2.693   1.420  1.00  0.00     0.270 C 
HETATM   53  C2  UNL     1     -10.036  -2.851   0.900  1.00  0.00     0.241 C 
HETATM   54  C1  UNL     1     -10.963  -3.181   2.050  1.00  0.00     0.220 C 
HETATM   55  O18 UNL     1     -10.429  -1.635   0.309  1.00  0.00    -0.215 OA
HETATM   56  C5  UNL     1     -10.409  -4.353   2.846  1.00  0.00     0.212 C 
HETATM   57  O19 UNL     1     -11.078  -2.041   2.865  1.00  0.00    -0.218 OA
HETATM   58  C4  UNL     1      -8.903  -4.289   3.111  1.00  0.00     0.151 C 
HETATM   59  O2  UNL     1     -10.691  -5.531   2.124  1.00  0.00    -0.218 OA
HETATM   60  O1  UNL     1      -8.175  -3.902   1.976  1.00  0.00    -0.329 OA
HETATM   61  C6  UNL     1      -8.515  -3.461   4.339  1.00  0.00     0.035 C 
ENDBRANCH  51  52
ENDBRANCH  44  51
BRANCH  48  62
HETATM   62  C12 UNL     1      -5.148   0.990  -1.645  1.00  0.00     0.217 C 
HETATM   63  O7  UNL     1      -4.433   0.949  -2.783  1.00  0.00    -0.646 OA
HETATM   64  O8  UNL     1      -4.818   1.680  -0.710  1.00  0.00    -0.646 OA
ENDBRANCH  48  62
ENDBRANCH  42  43
ENDBRANCH   1  42
BRANCH   4  65
HETATM   65  C18 UNL     1      -0.668  -1.484   2.784  1.00  0.00     0.217 C 
HETATM   66  O13 UNL     1      -0.089  -0.678   3.691  1.00  0.00    -0.646 OA
HETATM   67  O14 UNL     1      -0.120  -2.471   2.354  1.00  0.00    -0.646 OA
ENDBRANCH   4  65
TORSDOF 8
