REMARK  5 active torsions:
REMARK  status: ('A' for Active; 'I' for Inactive)
REMARK    1  A    between atoms: C8_9  and  C10_12 
REMARK    2  A    between atoms: C13_15  and  O4_25 
REMARK    3  A    between atoms: C14_16  and  C17_20 
REMARK    4  A    between atoms: C15_17  and  O3_18 
REMARK    5  A    between atoms: C17_20  and  C18_21 
ROOT
HETATM    1  C10 UNL     1       0.206  -1.648  -0.066  1.00  0.00     0.053 C 
HETATM    2  C11 UNL     1       0.934  -2.690  -0.644  1.00  0.00     0.135 C 
HETATM    3  C12 UNL     1       2.297  -2.487  -0.849  1.00  0.00     0.051 C 
HETATM    4  C13 UNL     1       2.967  -1.343  -0.403  1.00  0.00     0.094 C 
HETATM    5  C14 UNL     1       2.188  -0.294   0.123  1.00  0.00     0.027 C 
HETATM    6  C15 UNL     1       0.792  -0.419   0.272  1.00  0.00     0.094 C 
HETATM    7  O5  UNL     1       0.336  -3.843  -1.046  1.00  0.00    -0.190 OA
ENDROOT
BRANCH   1   8
HETATM    8  C8  UNL     1      -1.272  -1.861   0.104  1.00  0.00     0.068 C 
HETATM    9  C7  UNL     1      -1.783  -2.583   1.115  1.00  0.00     0.126 C 
HETATM   10  O1  UNL     1      -3.116  -2.819   1.290  1.00  0.00    -0.305 OA
HETATM   11  C5  UNL     1      -3.994  -2.049   0.580  1.00  0.00     0.105 A 
HETATM   12  C4  UNL     1      -3.610  -1.264  -0.517  1.00  0.00     0.062 A 
HETATM   13  C6  UNL     1      -5.354  -2.046   0.910  1.00  0.00     0.052 A 
HETATM   14  C3  UNL     1      -4.537  -0.497  -1.232  1.00  0.00     0.007 A 
HETATM   15  C9  UNL     1      -2.177  -1.229  -0.886  1.00  0.00     0.200 C 
HETATM   16  C2  UNL     1      -5.881  -0.517  -0.861  1.00  0.00     0.028 A 
HETATM   17  C1  UNL     1      -6.312  -1.295   0.218  1.00  0.00     0.133 A 
HETATM   18  O6  UNL     1      -7.620  -1.330   0.585  1.00  0.00    -0.190 OA
HETATM   19  O2  UNL     1      -1.753  -0.669  -1.892  1.00  0.00    -0.286 OA
ENDBRANCH   1   8
BRANCH   6  20
HETATM   20  O3  UNL     1       0.068   0.540   0.938  1.00  0.00    -0.328 OA
HETATM   21  C16 UNL     1      -0.618   1.472   0.132  1.00  0.00     0.181 C 
ENDBRANCH   6  20
BRANCH   5  22
HETATM   22  C17 UNL     1       2.854   1.014   0.520  1.00  0.00     0.056 C 
BRANCH  22  23
HETATM   23  C18 UNL     1       2.456   2.119  -0.424  1.00  0.00    -0.030 C 
HETATM   24  C19 UNL     1       2.565   3.438  -0.183  1.00  0.00    -0.048 C 
HETATM   25  C20 UNL     1       2.060   4.459  -1.175  1.00  0.00     0.026 C 
HETATM   26  C21 UNL     1       3.181   4.015   1.067  1.00  0.00     0.026 C 
ENDBRANCH  22  23
ENDBRANCH   5  22
BRANCH   4  27
HETATM   27  O4  UNL     1       4.301  -1.191  -0.679  1.00  0.00    -0.328 OA
HETATM   28  C22 UNL     1       5.144  -1.710   0.326  1.00  0.00     0.181 C 
ENDBRANCH   4  27
TORSDOF 5
