REMARK  2 active torsions:
REMARK  status: ('A' for Active; 'I' for Inactive)
REMARK    1  A    between atoms: C2_2  and  C8_9 
REMARK    2  A    between atoms: C5_5  and  O1_7 
ROOT
HETATM    1  C1  UNL     1       1.234   0.670  -0.126  1.00  0.00     0.005 A 
HETATM    2  C2  UNL     1       1.746  -0.544   0.141  1.00  0.00     0.042 A 
HETATM    3  C3  UNL     1       0.892  -1.558   0.362  1.00  0.00     0.005 A 
HETATM    4  C4  UNL     1      -0.432  -1.348   0.314  1.00  0.00     0.024 A 
HETATM    5  C5  UNL     1      -0.972  -0.141   0.054  1.00  0.00     0.094 A 
HETATM    6  C6  UNL     1      -0.095   0.859  -0.168  1.00  0.00     0.024 A 
ENDROOT
BRANCH   2   7
HETATM    7  C8  UNL     1       3.090  -0.739   0.185  1.00  0.00     0.234 C 
HETATM    8  O2  UNL     1       3.620  -1.799   0.418  1.00  0.00    -0.283 OA
ENDBRANCH   2   7
BRANCH   5   9
HETATM    9  O1  UNL     1      -2.341  -0.024   0.022  1.00  0.00    -0.328 OA
HETATM   10  C7  UNL     1      -2.908   1.218  -0.323  1.00  0.00     0.181 C 
ENDBRANCH   5   9
TORSDOF 2
