REMARK  8 active torsions:
REMARK  status: ('A' for Active; 'I' for Inactive)
REMARK    1  A    between atoms: C1_1  and  C28_37 
REMARK    2  A    between atoms: C3_3  and  O7_28 
REMARK    3  A    between atoms: C4_4  and  O5_24 
REMARK    4  A    between atoms: C13_14  and  C14_15 
REMARK    5  A    between atoms: O5_24  and  C20_25 
REMARK    6  A    between atoms: O7_28  and  C22_29 
REMARK    7  A    between atoms: C29_38  and  C30_39 
REMARK    8  A    between atoms: C30_39  and  O11_41 
ROOT
HETATM    1  C1  UNL     1      -1.748  -0.158   0.623  1.00  0.00     0.051 C 
HETATM    2  C2  UNL     1      -1.987  -1.674   0.550  1.00  0.00     0.061 C 
HETATM    3  C3  UNL     1      -1.313  -2.379  -0.637  1.00  0.00     0.154 C 
HETATM    4  C4  UNL     1      -0.032  -1.639  -1.091  1.00  0.00     0.154 C 
HETATM    5  C5  UNL     1       0.747  -0.986   0.089  1.00  0.00     0.054 C 
HETATM    6  C6  UNL     1      -0.215   0.089   0.700  1.00  0.00     0.011 C 
HETATM    7  C7  UNL     1       0.331   0.540   2.054  1.00  0.00     0.001 C 
HETATM    8  C8  UNL     1       1.799   0.997   1.968  1.00  0.00     0.005 C 
HETATM    9  C9  UNL     1       2.511   0.961   0.578  1.00  0.00     0.055 C 
HETATM   10  C10 UNL     1       2.070  -0.244  -0.266  1.00  0.00     0.132 A 
HETATM   11  C11 UNL     1       3.063  -0.913  -1.067  1.00  0.00     0.226 A 
HETATM   12  C12 UNL     1       4.417  -0.355  -1.166  1.00  0.00     0.302 C 
HETATM   13  O1  UNL     1       4.801   0.563  -0.247  1.00  0.00    -0.298 OA
HETATM   14  C13 UNL     1       4.025   0.858   0.881  1.00  0.00     0.151 C 
HETATM   15  O3  UNL     1       5.153  -0.710  -2.063  1.00  0.00    -0.261 OA
HETATM   16  O4  UNL     1       2.268  -0.055  -1.842  1.00  0.00    -0.346 OA
HETATM   17  C18 UNL     1       2.250   2.294  -0.173  1.00  0.00     0.005 C 
HETATM   18  C19 UNL     1       1.219  -2.109   1.057  1.00  0.00     0.005 C 
HETATM   19  C24 UNL     1      -3.433  -1.892   1.034  1.00  0.00     0.096 C 
HETATM   20  O9  UNL     1      -3.793  -0.677   1.635  1.00  0.00    -0.359 OA
HETATM   21  C25 UNL     1      -2.628   0.085   1.854  1.00  0.00     0.146 C 
HETATM   22  C26 UNL     1      -3.506  -3.000   2.100  1.00  0.00     0.030 C 
HETATM   23  C27 UNL     1      -4.498  -2.218  -0.019  1.00  0.00     0.030 C 
ENDROOT
BRANCH   1  24
HETATM   24  C28 UNL     1      -2.416   0.548  -0.554  1.00  0.00    -0.019 C 
HETATM   25  C29 UNL     1      -2.532   1.858  -0.859  1.00  0.00     0.064 C 
BRANCH  25  26
HETATM   26  C30 UNL     1      -2.028   3.045  -0.114  1.00  0.00     0.296 C 
HETATM   27  O10 UNL     1      -2.256   4.141  -0.620  1.00  0.00    -0.259 OA
BRANCH  26  28
HETATM   28  O11 UNL     1      -1.354   2.970   1.064  1.00  0.00    -0.296 OA
HETATM   29  C31 UNL     1      -0.958   4.177   1.670  1.00  0.00     0.185 C 
ENDBRANCH  26  28
ENDBRANCH  25  26
ENDBRANCH   1  24
BRANCH   3  30
HETATM   30  O7  UNL     1      -2.183  -2.538  -1.719  1.00  0.00    -0.302 OA
BRANCH  30  31
HETATM   31  C22 UNL     1      -2.034  -3.626  -2.522  1.00  0.00     0.272 C 
HETATM   32  C23 UNL     1      -2.999  -3.541  -3.687  1.00  0.00     0.106 C 
HETATM   33  O8  UNL     1      -1.241  -4.523  -2.342  1.00  0.00    -0.264 OA
ENDBRANCH  30  31
ENDBRANCH   3  30
BRANCH   4  34
HETATM   34  O5  UNL     1      -0.359  -0.622  -2.002  1.00  0.00    -0.302 OA
BRANCH  34  35
HETATM   35  C20 UNL     1      -0.188  -0.818  -3.337  1.00  0.00     0.272 C 
HETATM   36  C21 UNL     1      -0.447   0.476  -4.080  1.00  0.00     0.106 C 
HETATM   37  O6  UNL     1       0.131  -1.863  -3.857  1.00  0.00    -0.264 OA
ENDBRANCH  34  35
ENDBRANCH   4  34
BRANCH  14  38
HETATM   38  C14 UNL     1       4.588   2.101   1.528  1.00  0.00     0.032 A 
HETATM   39  C15 UNL     1       5.212   3.205   0.859  1.00  0.00     0.027 A 
HETATM   40  C16 UNL     1       5.544   4.102   1.827  1.00  0.00     0.122 A 
HETATM   41  O2  UNL     1       5.183   3.640   3.057  1.00  0.00    -0.303 OA
HETATM   42  C17 UNL     1       4.610   2.419   2.854  1.00  0.00     0.121 A 
ENDBRANCH  14  38
TORSDOF 8
