REMARK  2 active torsions:
REMARK  status: ('A' for Active; 'I' for Inactive)
REMARK    1  A    between atoms: C2_2  and  C8_9 
REMARK    2  A    between atoms: C3_4  and  C5_6 
ROOT
HETATM    1  C1  UNL     1      -0.613   0.128   1.476  1.00  0.00     0.035 C 
HETATM    2  C2  UNL     1      -0.622   0.401  -0.023  1.00  0.00     0.143 C 
HETATM    3  O1  UNL     1       0.421  -0.389  -0.514  1.00  0.00    -0.355 OA
HETATM    4  C3  UNL     1       1.496  -0.307   0.392  1.00  0.00     0.111 C 
HETATM    5  C4  UNL     1       0.895   0.115   1.741  1.00  0.00     0.034 C 
HETATM    6  C7  UNL     1       2.146  -1.693   0.463  1.00  0.00     0.034 C 
ENDROOT
BRANCH   2   7
HETATM    7  C8  UNL     1      -1.930   0.111  -0.757  1.00  0.00     0.152 C 
HETATM    8  C9  UNL     1      -3.022   1.091  -0.323  1.00  0.00     0.035 C 
HETATM    9  O2  UNL     1      -2.367  -1.186  -0.439  1.00  0.00    -0.224 OA
HETATM   10  C10 UNL     1      -1.743   0.182  -2.275  1.00  0.00     0.035 C 
ENDBRANCH   2   7
BRANCH   4  11
HETATM   11  C5  UNL     1       2.524   0.702  -0.090  1.00  0.00     0.000 C 
HETATM   12  C6  UNL     1       3.610   1.058   0.611  1.00  0.00    -0.003 C 
ENDBRANCH   4  11
TORSDOF 2
