REMARK  11 active torsions:
REMARK  status: ('A' for Active; 'I' for Inactive)
REMARK    1  A    between atoms: C2_2  and  O12_40 
REMARK    2  A    between atoms: C4_4  and  O2_8 
REMARK    3  A    between atoms: O2_8  and  C7_9 
REMARK    4  A    between atoms: C7_9  and  C8_10 
REMARK    5  A    between atoms: C12_14  and  O4_16 
REMARK    6  A    between atoms: O4_16  and  C13_17 
REMARK    7  A    between atoms: C21_26  and  C22_28 
REMARK    8  A    between atoms: C25_31  and  O7_34 
REMARK    9  A    between atoms: O12_40  and  C29_41 
REMARK   10  A    between atoms: C29_41  and  C30_42 
REMARK   11  A    between atoms: C30_42  and  C31_43 
ROOT
HETATM    1  C8  UNL     1       0.465   4.000  -1.319  1.00  0.00     0.150 C 
HETATM    2  C9  UNL     1       1.106   5.388  -1.252  1.00  0.00     0.068 C 
HETATM    3  C10 UNL     1       1.034   5.892   0.184  1.00  0.00     0.190 C 
HETATM    4  C11 UNL     1       1.668   4.858   1.087  1.00  0.00     0.239 C 
HETATM    5  C12 UNL     1       1.039   3.495   0.889  1.00  0.00     0.274 C 
HETATM    6  O3  UNL     1       1.136   3.111  -0.465  1.00  0.00    -0.329 OA
HETATM    7  O9  UNL     1       1.500   5.258   2.424  1.00  0.00    -0.215 OA
HETATM    8  O10 UNL     1       1.732   7.106   0.322  1.00  0.00    -0.220 OA
ENDROOT
BRANCH   5   9
HETATM    9  O4  UNL     1       1.819   2.584   1.629  1.00  0.00    -0.303 OA
BRANCH   9  10
HETATM   10  C13 UNL     1       1.398   1.295   1.833  1.00  0.00     0.101 A 
HETATM   11  C14 UNL     1       2.109   0.510   2.752  1.00  0.00     0.049 A 
HETATM   12  C15 UNL     1       1.804  -0.816   3.070  1.00  0.00     0.107 A 
HETATM   13  C16 UNL     1       0.693  -1.377   2.421  1.00  0.00     0.087 A 
HETATM   14  O6  UNL     1       2.581  -1.482   3.976  1.00  0.00    -0.307 OA
HETATM   15  C17 UNL     1      -0.088  -0.637   1.520  1.00  0.00     0.138 A 
HETATM   16  C19 UNL     1       0.360  -2.787   2.732  1.00  0.00     0.202 A 
HETATM   17  C18 UNL     1       0.283   0.684   1.245  1.00  0.00     0.052 A 
HETATM   18  O5  UNL     1      -1.162  -1.179   0.889  1.00  0.00    -0.190 OA
HETATM   19  C20 UNL     1       1.258  -3.441   3.709  1.00  0.00     0.067 A 
HETATM   20  O8  UNL     1      -0.577  -3.416   2.246  1.00  0.00    -0.286 OA
HETATM   21  C21 UNL     1       2.303  -2.789   4.274  1.00  0.00     0.103 A 
BRANCH  21  22
HETATM   22  C22 UNL     1       3.156  -3.488   5.266  1.00  0.00     0.023 A 
HETATM   23  C23 UNL     1       3.060  -4.850   5.593  1.00  0.00     0.004 A 
HETATM   24  C24 UNL     1       3.889  -5.428   6.557  1.00  0.00     0.024 A 
HETATM   25  C25 UNL     1       4.866  -4.705   7.252  1.00  0.00     0.094 A 
HETATM   26  C26 UNL     1       4.971  -3.349   6.907  1.00  0.00     0.024 A 
HETATM   27  C27 UNL     1       4.148  -2.761   5.947  1.00  0.00     0.004 A 
BRANCH  25  28
HETATM   28  O7  UNL     1       5.630  -5.355   8.188  1.00  0.00    -0.328 OA
HETATM   29  C28 UNL     1       6.612  -4.620   8.879  1.00  0.00     0.181 C 
ENDBRANCH  25  28
ENDBRANCH  21  22
ENDBRANCH   9  10
ENDBRANCH   5   9
BRANCH   1  30
HETATM   30  C7  UNL     1       0.483   3.437  -2.737  1.00  0.00     0.175 C 
BRANCH  30  31
HETATM   31  O2  UNL     1      -0.407   2.351  -2.784  1.00  0.00    -0.326 OA
BRANCH  31  32
HETATM   32  C4  UNL     1      -0.575   1.782  -4.063  1.00  0.00     0.270 C 
HETATM   33  C3  UNL     1      -1.308   0.462  -3.932  1.00  0.00     0.238 C 
HETATM   34  C2  UNL     1      -2.738   0.688  -3.454  1.00  0.00     0.192 C 
HETATM   35  O11 UNL     1      -1.316  -0.189  -5.182  1.00  0.00    -0.215 OA
HETATM   36  C1  UNL     1      -3.414   1.667  -4.400  1.00  0.00     0.209 C 
HETATM   37  C5  UNL     1      -2.597   2.949  -4.497  1.00  0.00     0.151 C 
HETATM   38  O14 UNL     1      -4.701   1.971  -3.912  1.00  0.00    -0.218 OA
HETATM   39  O1  UNL     1      -1.276   2.687  -4.888  1.00  0.00    -0.329 OA
HETATM   40  C6  UNL     1      -3.200   3.921  -5.513  1.00  0.00     0.035 C 
BRANCH  34  41
HETATM   41  O12 UNL     1      -3.467  -0.505  -3.402  1.00  0.00    -0.299 OA
BRANCH  41  42
HETATM   42  C29 UNL     1      -3.162  -1.363  -2.392  1.00  0.00     0.272 C 
HETATM   43  O13 UNL     1      -2.307  -1.164  -1.562  1.00  0.00    -0.264 OA
BRANCH  42  44
HETATM   44  C30 UNL     1      -4.067  -2.582  -2.418  1.00  0.00     0.096 C 
BRANCH  44  45
HETATM   45  C31 UNL     1      -4.080  -3.340  -3.758  1.00  0.00     0.010 C 
HETATM   46  C32 UNL     1      -2.665  -3.778  -4.173  1.00  0.00     0.001 C 
HETATM   47  C33 UNL     1      -5.015  -4.559  -3.672  1.00  0.00     0.001 C 
ENDBRANCH  44  45
ENDBRANCH  42  44
ENDBRANCH  41  42
ENDBRANCH  34  41
ENDBRANCH  31  32
ENDBRANCH  30  31
ENDBRANCH   1  30
TORSDOF 11
