REMARK  0 active torsions:
REMARK  status: ('A' for Active; 'I' for Inactive)
ROOT
HETATM    1  C1  UNL     1      -2.865   1.339   1.472  1.00  0.00     0.005 A 
HETATM    2  C2  UNL     1      -2.924   0.384   0.312  1.00  0.00     0.018 A 
HETATM    3  C3  UNL     1      -1.925  -0.704   0.455  1.00  0.00    -0.045 A 
HETATM    4  C4  UNL     1      -0.663  -0.253   0.384  1.00  0.00     0.009 A 
HETATM    5  C5  UNL     1      -0.588   1.242   0.178  1.00  0.00     0.028 A 
HETATM    6  C6  UNL     1      -2.071   1.634   0.217  1.00  0.00     0.008 A 
HETATM    7  C7  UNL     1       0.078   1.467  -1.195  1.00  0.00     0.056 C 
HETATM    8  C8  UNL     1       1.334   0.647  -1.293  1.00  0.00     0.081 A 
HETATM    9  C9  UNL     1       1.556  -0.515  -0.604  1.00  0.00     0.055 A 
HETATM   10  C10 UNL     1       0.556  -1.104   0.315  1.00  0.00     0.192 C 
HETATM   11  O1  UNL     1       0.719  -2.140   0.944  1.00  0.00    -0.287 OA
HETATM   12  C11 UNL     1       2.850  -1.004  -0.977  1.00  0.00     0.007 A 
HETATM   13  C12 UNL     1       3.314  -0.082  -1.869  1.00  0.00     0.118 A 
HETATM   14  O2  UNL     1       2.415   0.926  -2.072  1.00  0.00    -0.310 OA
HETATM   15  C13 UNL     1       3.574  -2.236  -0.531  1.00  0.00     0.033 C 
HETATM   16  C14 UNL     1       0.228   1.939   1.282  1.00  0.00     0.005 C 
HETATM   17  C15 UNL     1      -2.406  -2.123   0.565  1.00  0.00     0.026 C 
ENDROOT
TORSDOF 0
