REMARK  5 active torsions:
REMARK  status: ('A' for Active; 'I' for Inactive)
REMARK    1  A    between atoms: C1_1  and  C2_2 
REMARK    2  A    between atoms: C1_1  and  C11_15 
REMARK    3  A    between atoms: C1_1  and  C12_17 
REMARK    4  A    between atoms: C2_2  and  O2_4 
REMARK    5  A    between atoms: O2_4  and  C3_5 
ROOT
HETATM    1  C2  UNL     1      -0.263   0.260   1.146  1.00  0.00     0.306 C 
HETATM    2  O1  UNL     1      -1.428  -0.073   1.120  1.00  0.00    -0.261 OA
ENDROOT
BRANCH   1   3
HETATM    3  C1  UNL     1       0.645   0.089   2.366  1.00  0.00     0.252 C 
HETATM    4  O5  UNL     1       0.708   1.328   3.055  1.00  0.00    -0.208 OA
BRANCH   3   5
HETATM    5  C11 UNL     1       2.089  -0.244   2.004  1.00  0.00     0.227 C 
HETATM    6  O4  UNL     1       2.810  -0.397   3.210  1.00  0.00    -0.217 OA
ENDBRANCH   3   5
BRANCH   3   7
HETATM    7  C12 UNL     1       0.066  -0.994   3.268  1.00  0.00     0.017 A 
HETATM    8  C13 UNL     1      -0.056  -2.255   2.809  1.00  0.00    -0.001 A 
HETATM    9  C14 UNL     1      -0.569  -3.233   3.572  1.00  0.00    -0.000 A 
HETATM   10  C15 UNL     1      -0.977  -2.963   4.820  1.00  0.00    -0.000 A 
HETATM   11  C16 UNL     1      -0.866  -1.714   5.293  1.00  0.00    -0.000 A 
HETATM   12  C17 UNL     1      -0.350  -0.742   4.523  1.00  0.00    -0.001 A 
ENDBRANCH   3   7
ENDBRANCH   1   3
BRANCH   1  13
HETATM   13  O2  UNL     1       0.401   0.816   0.098  1.00  0.00    -0.302 OA
BRANCH  13  14
HETATM   14  C3  UNL     1      -0.300   0.959  -1.103  1.00  0.00     0.129 C 
HETATM   15  C4  UNL     1      -0.414  -0.394  -1.832  1.00  0.00     0.066 C 
HETATM   16  C5  UNL     1      -0.787  -0.198  -3.321  1.00  0.00     0.251 C 
HETATM   17  N1  UNL     1       0.290   0.611  -3.872  1.00  0.00     0.140 N 
HETATM   18  C9  UNL     1      -2.050   0.656  -3.390  1.00  0.00     0.176 A 
HETATM   19  C6  UNL     1      -0.096   1.947  -3.440  1.00  0.00     0.251 C 
HETATM   20  C10 UNL     1       0.551   0.447  -5.290  1.00  0.00     0.285 C 
HETATM   21  C7  UNL     1       0.380   2.034  -1.970  1.00  0.00     0.066 C 
HETATM   22  C8  UNL     1      -1.622   1.983  -3.464  1.00  0.00     0.176 A 
HETATM   23  O3  UNL     1      -2.252   1.381  -4.728  1.00  0.00    -0.350 OA
ENDBRANCH  13  14
ENDBRANCH   1  13
TORSDOF 5
