REMARK  3 active torsions:
REMARK  status: ('A' for Active; 'I' for Inactive)
REMARK    1  A    between atoms: C9_10  and  C19_22 
REMARK    2  A    between atoms: C14_16  and  C15_17 
REMARK    3  A    between atoms: C19_22  and  O2_23 
ROOT
HETATM    1  C1  UNL     1      -2.621  -2.300   0.618  1.00  0.00     0.077 A 
HETATM    2  C2  UNL     1      -2.742  -0.911   0.784  1.00  0.00     0.002 A 
HETATM    3  C3  UNL     1      -3.997  -0.313   0.846  1.00  0.00    -0.002 A 
HETATM    4  C4  UNL     1      -5.126  -1.132   0.725  1.00  0.00    -0.000 A 
HETATM    5  C5  UNL     1      -5.000  -2.516   0.548  1.00  0.00     0.002 A 
HETATM    6  C6  UNL     1      -3.742  -3.121   0.488  1.00  0.00     0.019 A 
HETATM    7  C7  UNL     1      -1.392  -0.284   0.915  1.00  0.00     0.087 A 
HETATM    8  C8  UNL     1      -0.478  -1.489   0.692  1.00  0.00     0.065 A 
HETATM    9  N1  UNL     1      -1.254  -2.634   0.571  1.00  0.00    -0.250 NA
HETATM   10  C9  UNL     1       0.878  -1.338   0.478  1.00  0.00     0.057 C 
HETATM   11  C10 UNL     1       1.352   0.123   0.660  1.00  0.00     0.061 C 
HETATM   12  C11 UNL     1       0.410   0.450   1.994  1.00  0.00     0.041 C 
HETATM   13  C12 UNL     1      -1.120   1.073   1.516  1.00  0.00     0.229 C 
HETATM   14  N2  UNL     1      -1.040   2.353   0.341  1.00  0.00     0.138 N 
HETATM   15  C13 UNL     1      -0.065   2.249  -1.018  1.00  0.00     0.281 C 
HETATM   16  C14 UNL     1       1.343   1.139  -0.771  1.00  0.00     0.162 C 
HETATM   17  O1  UNL     1       1.427   0.261  -1.875  1.00  0.00    -0.224 OA
HETATM   18  C17 UNL     1       0.178   2.015   0.773  1.00  0.00     0.251 C 
HETATM   19  C18 UNL     1      -0.778   0.589  -0.118  1.00  0.00     0.047 C 
ENDROOT
BRANCH  10  20
HETATM   20  C19 UNL     1       1.661  -2.547   0.121  1.00  0.00     0.293 C 
HETATM   21  O3  UNL     1       1.020  -3.604   0.066  1.00  0.00    -0.259 OA
BRANCH  20  22
HETATM   22  O2  UNL     1       2.997  -2.679  -0.143  1.00  0.00    -0.296 OA
HETATM   23  C20 UNL     1       3.883  -1.596  -0.138  1.00  0.00     0.185 C 
ENDBRANCH  20  22
ENDBRANCH  10  20
BRANCH  16  24
HETATM   24  C15 UNL     1       2.680   1.937  -0.884  1.00  0.00     0.033 C 
HETATM   25  C16 UNL     1       2.945   2.547  -2.273  1.00  0.00     0.003 C 
ENDBRANCH  16  24
TORSDOF 3
