REMARK  3 active torsions:
REMARK  status: ('A' for Active; 'I' for Inactive)
REMARK    1  A    between atoms: O1_2  and  C2_3 
REMARK    2  A    between atoms: C5_6  and  C8_9 
REMARK    3  A    between atoms: C8_9  and  C9_10 
ROOT
HETATM    1  C2  UNL     1       1.832   1.358  -0.409  1.00  0.00     0.094 A 
HETATM    2  C3  UNL     1       2.199   0.105  -0.082  1.00  0.00     0.024 A 
HETATM    3  C4  UNL     1       1.308  -0.864   0.172  1.00  0.00     0.002 A 
HETATM    4  C5  UNL     1      -0.017  -0.637   0.122  1.00  0.00     0.003 A 
HETATM    5  C6  UNL     1      -0.395   0.614  -0.192  1.00  0.00     0.002 A 
HETATM    6  C7  UNL     1       0.503   1.581  -0.446  1.00  0.00     0.024 A 
ENDROOT
BRANCH   4   7
HETATM    7  C8  UNL     1      -0.954  -1.791   0.430  1.00  0.00     0.037 C 
BRANCH   7   8
HETATM    8  C9  UNL     1      -2.470  -1.651   0.380  1.00  0.00     0.173 C 
HETATM    9  O2  UNL     1      -3.069  -0.641   0.091  1.00  0.00    -0.291 OA
HETATM   10  C10 UNL     1      -3.250  -2.910   0.725  1.00  0.00     0.077 C 
ENDBRANCH   7   8
ENDBRANCH   4   7
BRANCH   1  11
HETATM   11  O1  UNL     1       2.807   2.298  -0.642  1.00  0.00    -0.328 OA
HETATM   12  C1  UNL     1       2.423   3.643  -0.809  1.00  0.00     0.181 C 
ENDBRANCH   1  11
TORSDOF 3
