REMARK  0 active torsions:
REMARK  status: ('A' for Active; 'I' for Inactive)
ROOT
HETATM    1  C1  UNL     1      -0.798   0.360  -0.524  1.00  0.00     0.031 C 
HETATM    2  C2  UNL     1      -1.317  -0.635   0.551  1.00  0.00     0.038 C 
HETATM    3  C3  UNL     1      -0.251  -1.722   0.720  1.00  0.00     0.206 C 
HETATM    4  C4  UNL     1       0.936  -1.411  -0.169  1.00  0.00     0.256 C 
HETATM    5  C5  UNL     1       1.615  -0.066   0.045  1.00  0.00     0.136 C 
HETATM    6  C6  UNL     1       0.514   1.021   0.024  1.00  0.00     0.017 C 
HETATM    7  C7  UNL     1       0.965   2.300  -0.717  1.00  0.00     0.001 C 
HETATM    8  C8  UNL     1       2.423   2.707  -0.429  1.00  0.00     0.007 C 
HETATM    9  C9  UNL     1       3.381   1.504  -0.362  1.00  0.00     0.056 C 
HETATM   10  C10 UNL     1       2.712   0.278  -0.986  1.00  0.00     0.168 C 
HETATM   11  O1  UNL     1       3.637  -0.779  -1.077  1.00  0.00    -0.223 OA
HETATM   12  C11 UNL     1       3.498   1.022   1.059  1.00  0.00     0.015 C 
HETATM   13  C12 UNL     1       2.428   0.046   1.339  1.00  0.00     0.175 C 
HETATM   14  O2  UNL     1       2.267  -0.568   2.382  1.00  0.00    -0.291 OA
HETATM   15  C13 UNL     1       4.413   1.405   1.966  1.00  0.00    -0.002 C 
HETATM   16  O3  UNL     1       0.500  -1.472  -1.499  1.00  0.00    -0.330 OA
HETATM   17  C14 UNL     1      -0.403  -0.426  -1.785  1.00  0.00     0.145 C 
HETATM   18  O4  UNL     1       1.877  -2.453  -0.049  1.00  0.00    -0.192 OA
HETATM   19  O5  UNL     1       0.134  -1.829   2.071  1.00  0.00    -0.218 OA
HETATM   20  C15 UNL     1      -2.783  -1.147   0.458  1.00  0.00     0.003 C 
HETATM   21  C16 UNL     1      -3.712   0.063   0.210  1.00  0.00     0.000 C 
HETATM   22  C17 UNL     1      -3.279   0.893  -1.003  1.00  0.00     0.000 C 
HETATM   23  C18 UNL     1      -1.861   1.440  -0.808  1.00  0.00     0.003 C 
HETATM   24  C19 UNL     1      -3.176  -1.781   1.818  1.00  0.00     0.000 C 
HETATM   25  C20 UNL     1      -3.072  -2.226  -0.611  1.00  0.00     0.000 C 
ENDROOT
TORSDOF 0
