REMARK  3 active torsions:
REMARK  status: ('A' for Active; 'I' for Inactive)
REMARK    1  A    between atoms: C3_3  and  C19_24 
REMARK    2  A    between atoms: C19_24  and  O6_25 
REMARK    3  A    between atoms: O6_25  and  C20_26 
ROOT
HETATM    1  C1  UNL     1      -2.870   1.515  -1.017  1.00  0.00     0.000 C 
HETATM    2  C2  UNL     1      -3.339   0.730   0.212  1.00  0.00     0.003 C 
HETATM    3  C3  UNL     1      -2.470  -0.526   0.471  1.00  0.00     0.031 C 
HETATM    4  C4  UNL     1      -0.982  -0.070   0.565  1.00  0.00     0.040 C 
HETATM    5  C5  UNL     1      -0.424   0.952  -0.472  1.00  0.00     0.031 C 
HETATM    6  C6  UNL     1      -1.457   2.055  -0.774  1.00  0.00     0.003 C 
HETATM    7  C7  UNL     1       0.878   1.574   0.139  1.00  0.00     0.017 C 
HETATM    8  C8  UNL     1       1.958   0.467   0.148  1.00  0.00     0.136 C 
HETATM    9  C9  UNL     1       1.270  -0.859  -0.149  1.00  0.00     0.256 C 
HETATM   10  C10 UNL     1       0.047  -1.198   0.681  1.00  0.00     0.206 C 
HETATM   11  O1  UNL     1       0.389  -1.426   2.028  1.00  0.00    -0.218 OA
HETATM   12  O2  UNL     1       0.877  -0.854  -1.494  1.00  0.00    -0.330 OA
HETATM   13  C11 UNL     1       0.006   0.224  -1.758  1.00  0.00     0.145 C 
HETATM   14  O3  UNL     1       2.193  -1.918  -0.049  1.00  0.00    -0.192 OA
HETATM   15  C12 UNL     1       3.097   0.841  -0.829  1.00  0.00     0.168 C 
HETATM   16  C13 UNL     1       3.761   2.023  -0.123  1.00  0.00     0.056 C 
HETATM   17  C14 UNL     1       2.825   3.245  -0.157  1.00  0.00     0.007 C 
HETATM   18  C15 UNL     1       1.374   2.878  -0.527  1.00  0.00     0.001 C 
HETATM   19  C16 UNL     1       3.825   1.466   1.274  1.00  0.00     0.015 C 
HETATM   20  C17 UNL     1       2.721   0.508   1.474  1.00  0.00     0.175 C 
HETATM   21  O4  UNL     1       2.489  -0.133   2.488  1.00  0.00    -0.291 OA
HETATM   22  C18 UNL     1       4.727   1.772   2.223  1.00  0.00    -0.002 C 
HETATM   23  O5  UNL     1       4.010  -0.225  -0.938  1.00  0.00    -0.223 OA
HETATM   24  C22 UNL     1      -2.917  -1.083   1.850  1.00  0.00     0.003 C 
ENDROOT
BRANCH   3  25
HETATM   25  C19 UNL     1      -2.783  -1.583  -0.616  1.00  0.00     0.152 C 
BRANCH  25  26
HETATM   26  O6  UNL     1      -2.704  -2.896  -0.123  1.00  0.00    -0.302 OA
BRANCH  26  27
HETATM   27  C20 UNL     1      -3.077  -3.892  -0.971  1.00  0.00     0.272 C 
HETATM   28  C21 UNL     1      -3.037  -5.232  -0.264  1.00  0.00     0.106 C 
HETATM   29  O7  UNL     1      -3.422  -3.732  -2.121  1.00  0.00    -0.264 OA
ENDBRANCH  26  27
ENDBRANCH  25  26
ENDBRANCH   3  25
TORSDOF 3
