REMARK  1 active torsions:
REMARK  status: ('A' for Active; 'I' for Inactive)
REMARK    1  A    between atoms: C6_6  and  O1_7 
ROOT
HETATM    1  C1  UNL     1      -2.103  -0.113  -0.451  1.00  0.00     0.141 A 
HETATM    2  C2  UNL     1      -0.891  -0.778  -0.267  1.00  0.00     0.119 A 
HETATM    3  C3  UNL     1       0.310  -0.118   0.007  1.00  0.00     0.029 A 
HETATM    4  C4  UNL     1       0.232   1.280   0.000  1.00  0.00    -0.018 A 
HETATM    5  C5  UNL     1      -0.993   1.935  -0.195  1.00  0.00     0.022 A 
HETATM    6  C6  UNL     1      -2.212   1.283  -0.435  1.00  0.00     0.118 A 
HETATM    7  C8  UNL     1       1.490   2.083   0.170  1.00  0.00     0.061 C 
HETATM    8  C9  UNL     1       2.698   1.235  -0.245  1.00  0.00     0.255 C 
HETATM    9  N1  UNL     1       2.738   0.016   0.545  1.00  0.00     0.142 N 
HETATM   10  C10 UNL     1       1.607  -0.874   0.259  1.00  0.00     0.243 C 
HETATM   11  C11 UNL     1       1.430  -1.872   1.422  1.00  0.00     0.040 C 
HETATM   12  C12 UNL     1       4.021  -0.651   0.353  1.00  0.00     0.286 C 
HETATM   13  O2  UNL     1      -1.101  -2.140  -0.392  1.00  0.00    -0.300 OA
HETATM   14  C13 UNL     1      -2.490  -2.356  -0.643  1.00  0.00     0.304 A 
HETATM   15  O3  UNL     1      -3.086  -1.058  -0.687  1.00  0.00    -0.298 OA
ENDROOT
BRANCH   6  16
HETATM   16  O1  UNL     1      -3.359   2.025  -0.559  1.00  0.00    -0.326 OA
HETATM   17  C7  UNL     1      -4.601   1.364  -0.540  1.00  0.00     0.181 C 
ENDBRANCH   6  16
TORSDOF 1
