REMARK  1 active torsions:
REMARK  status: ('A' for Active; 'I' for Inactive)
REMARK    1  A    between atoms: C13_14  and  C15_17 
ROOT
HETATM    1  C1  UNL     1       4.791   0.234   0.447  1.00  0.00     0.000 A 
HETATM    2  C2  UNL     1       4.734  -1.170   0.576  1.00  0.00     0.000 A 
HETATM    3  C3  UNL     1       3.488  -1.832   0.506  1.00  0.00     0.003 A 
HETATM    4  C4  UNL     1       2.287  -1.102   0.305  1.00  0.00     0.042 A 
HETATM    5  C5  UNL     1       2.346   0.316   0.174  1.00  0.00     0.042 A 
HETATM    6  C6  UNL     1       3.606   0.973   0.248  1.00  0.00     0.003 A 
HETATM    7  C7  UNL     1       1.117   1.141  -0.039  1.00  0.00     0.198 A 
HETATM    8  C8  UNL     1      -0.184   0.396  -0.123  1.00  0.00     0.067 A 
HETATM    9  C9  UNL     1      -0.238  -1.024   0.006  1.00  0.00     0.046 A 
HETATM   10  C10 UNL     1       0.992  -1.846   0.232  1.00  0.00     0.196 A 
HETATM   11  O1  UNL     1       0.943  -3.051   0.354  1.00  0.00    -0.287 OA
HETATM   12  C11 UNL     1      -1.490  -1.686  -0.082  1.00  0.00     0.031 A 
HETATM   13  C12 UNL     1      -2.680  -0.959  -0.297  1.00  0.00     0.132 A 
HETATM   14  C13 UNL     1      -2.633   0.447  -0.426  1.00  0.00     0.061 A 
HETATM   15  C14 UNL     1      -1.393   1.123  -0.338  1.00  0.00     0.135 A 
HETATM   16  O2  UNL     1      -1.377   2.459  -0.463  1.00  0.00    -0.190 OA
HETATM   17  O4  UNL     1      -3.850  -1.610  -0.379  1.00  0.00    -0.190 OA
HETATM   18  O5  UNL     1       1.178   2.348  -0.137  1.00  0.00    -0.286 OA
ENDROOT
BRANCH  14  19
HETATM   19  C15 UNL     1      -3.875   1.207  -0.650  1.00  0.00     0.213 C 
HETATM   20  O3  UNL     1      -4.393   1.639   0.588  1.00  0.00    -0.215 OA
ENDBRANCH  14  19
TORSDOF 1
