REMARK  1 active torsions:
REMARK  status: ('A' for Active; 'I' for Inactive)
REMARK    1  A    between atoms: C5_5  and  O2_8 
ROOT
HETATM    1  C1  UNL     1      -1.373   0.840  -0.195  1.00  0.00     0.218 C 
HETATM    2  C2  UNL     1      -0.279   1.830  -0.680  1.00  0.00     0.218 C 
HETATM    3  C3  UNL     1       1.111   1.633  -0.012  1.00  0.00     0.218 C 
HETATM    4  C4  UNL     1       1.584   0.162  -0.082  1.00  0.00     0.214 C 
HETATM    5  C5  UNL     1       0.488  -0.822   0.412  1.00  0.00     0.181 C 
HETATM    6  C6  UNL     1      -0.896  -0.631  -0.268  1.00  0.00     0.214 C 
HETATM    7  O1  UNL     1      -0.855  -1.019  -1.631  1.00  0.00    -0.218 OA
HETATM    8  O3  UNL     1       1.959  -0.121  -1.422  1.00  0.00    -0.218 OA
HETATM    9  O4  UNL     1       1.080   2.022   1.352  1.00  0.00    -0.218 OA
HETATM   10  O5  UNL     1      -0.717   3.174  -0.564  1.00  0.00    -0.218 OA
HETATM   11  O6  UNL     1      -1.756   1.115   1.141  1.00  0.00    -0.218 OA
ENDROOT
BRANCH   5  12
HETATM   12  O2  UNL     1       0.926  -2.168   0.315  1.00  0.00    -0.349 OA
HETATM   13  C7  UNL     1       0.033  -3.086   0.906  1.00  0.00     0.174 C 
ENDBRANCH   5  12
TORSDOF 1
