REMARK  3 active torsions:
REMARK  status: ('A' for Active; 'I' for Inactive)
REMARK    1  A    between atoms: N1_13  and  C13_15 
REMARK    2  A    between atoms: C21_24  and  O3_25 
REMARK    3  A    between atoms: O3_25  and  C22_26 
ROOT
HETATM    1  C1  UNL     1      -2.743  -0.246   2.116  1.00  0.00     0.033 C 
HETATM    2  C2  UNL     1      -3.315  -1.077   1.102  1.00  0.00     0.005 C 
HETATM    3  C3  UNL     1      -2.136  -1.986   0.534  1.00  0.00     0.032 C 
HETATM    4  C4  UNL     1      -0.635  -1.403   0.836  1.00  0.00     0.006 C 
HETATM    5  C5  UNL     1      -0.640   0.034   0.420  1.00  0.00     0.058 C 
HETATM    6  C6  UNL     1      -1.628   0.744   1.511  1.00  0.00     0.154 C 
HETATM    7  O1  UNL     1      -2.126   1.988   0.993  1.00  0.00    -0.223 OA
HETATM    8  C7  UNL     1       0.781   0.713   0.472  1.00  0.00     0.009 C 
HETATM    9  C8  UNL     1       1.488   0.022  -0.757  1.00  0.00     0.032 C 
HETATM   10  C9  UNL     1       0.468  -1.042  -1.237  1.00  0.00     0.034 C 
HETATM   11  C10 UNL     1       0.297  -2.146  -0.117  1.00  0.00     0.002 C 
HETATM   12  C11 UNL     1      -0.879  -0.156  -1.215  1.00  0.00     0.222 C 
HETATM   13  N1  UNL     1      -2.101  -0.854  -1.715  1.00  0.00     0.135 N 
HETATM   14  C12 UNL     1      -2.316  -2.116  -1.002  1.00  0.00     0.250 C 
HETATM   15  C15 UNL     1       1.881   1.153  -1.914  1.00  0.00     0.009 C 
HETATM   16  C16 UNL     1       2.842   2.001  -1.009  1.00  0.00     0.051 C 
HETATM   17  C17 UNL     1       1.950   2.910  -0.140  1.00  0.00     0.156 C 
HETATM   18  C18 UNL     1       0.657   2.162   0.137  1.00  0.00     0.034 C 
HETATM   19  O2  UNL     1       1.495   4.036  -0.881  1.00  0.00    -0.223 OA
HETATM   20  C19 UNL     1       3.504   0.929  -0.211  1.00  0.00    -0.015 C 
HETATM   21  C20 UNL     1       4.410   1.214   0.738  1.00  0.00    -0.007 C 
HETATM   22  C21 UNL     1       2.926  -0.420  -0.455  1.00  0.00     0.142 C 
HETATM   23  C24 UNL     1      -2.208  -3.410   1.119  1.00  0.00     0.002 C 
ENDROOT
BRANCH  22  24
HETATM   24  O3  UNL     1       3.068  -1.407   0.614  1.00  0.00    -0.300 OA
BRANCH  24  25
HETATM   25  C22 UNL     1       4.344  -2.071   0.748  1.00  0.00     0.273 C 
HETATM   26  C23 UNL     1       5.496  -1.876  -0.226  1.00  0.00     0.106 C 
HETATM   27  O4  UNL     1       4.484  -2.892   1.660  1.00  0.00    -0.264 OA
ENDBRANCH  24  25
ENDBRANCH  22  24
BRANCH  13  28
HETATM   28  C13 UNL     1      -3.281   0.074  -1.838  1.00  0.00     0.250 C 
HETATM   29  C14 UNL     1      -4.462  -0.659  -2.510  1.00  0.00     0.037 C 
ENDBRANCH  13  28
TORSDOF 3
