REMARK  5 active torsions:
REMARK  status: ('A' for Active; 'I' for Inactive)
REMARK    1  A    between atoms: C2_2  and  O5_35 
REMARK    2  A    between atoms: C3_3  and  C30_33 
REMARK    3  A    between atoms: C16_16  and  C25_26 
REMARK    4  A    between atoms: O5_35  and  C31_36 
REMARK    5  A    between atoms: C32_38  and  C36_45 
ROOT
HETATM    1  C1  UNL     1      -3.172   1.506  -0.844  1.00  0.00     0.030 C 
HETATM    2  C2  UNL     1      -3.791   0.276  -0.166  1.00  0.00     0.120 C 
HETATM    3  C3  UNL     1      -3.260  -1.051  -0.767  1.00  0.00     0.056 C 
HETATM    4  C4  UNL     1      -1.703  -1.064  -0.701  1.00  0.00     0.005 C 
HETATM    5  C5  UNL     1      -1.014   0.190  -1.320  1.00  0.00     0.001 C 
HETATM    6  C6  UNL     1      -1.645   1.473  -0.728  1.00  0.00     0.003 C 
HETATM    7  C7  UNL     1       0.549   0.152  -1.103  1.00  0.00     0.005 C 
HETATM    8  C8  UNL     1       1.145  -1.246  -0.789  1.00  0.00     0.004 C 
HETATM    9  C9  UNL     1       0.385  -2.299  -1.625  1.00  0.00     0.000 C 
HETATM   10  C10 UNL     1      -1.106  -2.387  -1.248  1.00  0.00     0.000 C 
HETATM   11  C11 UNL     1       2.682  -1.223  -1.100  1.00  0.00     0.015 C 
HETATM   12  C12 UNL     1       3.359   0.010  -0.486  1.00  0.00    -0.049 C 
HETATM   13  C13 UNL     1       2.648   1.061  -0.010  1.00  0.00    -0.035 C 
HETATM   14  C14 UNL     1       1.141   1.156  -0.094  1.00  0.00     0.025 C 
HETATM   15  C15 UNL     1       4.889   0.000  -0.463  1.00  0.00     0.028 C 
HETATM   16  C16 UNL     1       5.451  -1.291   0.186  1.00  0.00     0.084 C 
HETATM   17  C17 UNL     1       4.897  -2.490  -0.607  1.00  0.00     0.011 C 
HETATM   18  C18 UNL     1       3.359  -2.533  -0.607  1.00  0.00     0.004 C 
HETATM   19  C19 UNL     1       7.008  -1.310   0.176  1.00  0.00     0.043 C 
HETATM   20  C20 UNL     1       7.631  -0.117  -0.572  1.00  0.00     0.153 C 
HETATM   21  C21 UNL     1       7.135   1.246  -0.019  1.00  0.00     0.029 C 
HETATM   22  C22 UNL     1       5.584   1.264   0.098  1.00  0.00     0.007 C 
HETATM   23  C23 UNL     1       7.594   2.365  -0.967  1.00  0.00     0.003 C 
HETATM   24  C24 UNL     1       7.742   1.527   1.365  1.00  0.00     0.003 C 
HETATM   25  O1  UNL     1       9.041  -0.209  -0.500  1.00  0.00    -0.223 OA
HETATM   26  C26 UNL     1       2.914  -1.109  -2.615  1.00  0.00     0.004 C 
HETATM   27  C27 UNL     1       0.937  -1.586   0.703  1.00  0.00     0.000 C 
HETATM   28  C28 UNL     1      -1.281   0.195  -2.836  1.00  0.00     0.000 C 
HETATM   29  C29 UNL     1      -3.807  -2.230   0.049  1.00  0.00     0.005 C 
ENDROOT
BRANCH   2  30
HETATM   30  O5  UNL     1      -5.201   0.352  -0.273  1.00  0.00    -0.332 OA
BRANCH  30  31
HETATM   31  C31 UNL     1      -5.785   1.227   0.672  1.00  0.00     0.270 C 
HETATM   32  O6  UNL     1      -5.740   0.600   1.947  1.00  0.00    -0.326 OA
HETATM   33  C32 UNL     1      -6.246   1.383   3.020  1.00  0.00     0.184 C 
HETATM   34  C33 UNL     1      -7.740   1.690   2.768  1.00  0.00     0.215 C 
HETATM   35  C34 UNL     1      -7.953   2.361   1.393  1.00  0.00     0.220 C 
HETATM   36  O9  UNL     1      -8.207   2.545   3.797  1.00  0.00    -0.218 OA
HETATM   37  C35 UNL     1      -7.254   1.535   0.289  1.00  0.00     0.241 C 
HETATM   38  O8  UNL     1      -9.342   2.459   1.115  1.00  0.00    -0.218 OA
HETATM   39  O7  UNL     1      -7.279   2.264  -0.930  1.00  0.00    -0.215 OA
BRANCH  33  40
HETATM   40  C36 UNL     1      -6.010   0.580   4.301  1.00  0.00     0.214 C 
HETATM   41  O10 UNL     1      -4.619   0.500   4.522  1.00  0.00    -0.218 OA
ENDBRANCH  33  40
ENDBRANCH  30  31
ENDBRANCH   2  30
BRANCH   3  42
HETATM   42  C30 UNL     1      -3.750  -1.219  -2.217  1.00  0.00     0.184 C 
HETATM   43  O4  UNL     1      -5.096  -1.637  -2.182  1.00  0.00    -0.221 OA
ENDBRANCH   3  42
BRANCH  16  44
HETATM   44  C25 UNL     1       4.981  -1.383   1.625  1.00  0.00     0.184 C 
HETATM   45  O2  UNL     1       4.152  -0.416   2.012  1.00  0.00    -0.647 OA
HETATM   46  O3  UNL     1       5.350  -2.281   2.344  1.00  0.00    -0.647 OA
ENDBRANCH  16  44
TORSDOF 5
