REMARK  4 active torsions:
REMARK  status: ('A' for Active; 'I' for Inactive)
REMARK    1  A    between atoms: C5_5  and  C6_7 
REMARK    2  A    between atoms: C6_7  and  C7_8 
REMARK    3  A    between atoms: C6_7  and  O2_15 
REMARK    4  A    between atoms: C16_19  and  O3_21 
ROOT
HETATM    1  C1  UNL     1       0.151  -3.555   0.774  1.00  0.00     0.099 A 
HETATM    2  C2  UNL     1       1.316  -3.314   0.158  1.00  0.00     0.021 A 
HETATM    3  C3  UNL     1       1.688  -2.033   0.003  1.00  0.00     0.005 A 
HETATM    4  C4  UNL     1       0.874  -1.073   0.476  1.00  0.00     0.018 A 
HETATM    5  C5  UNL     1      -0.287  -1.427   1.073  1.00  0.00     0.090 A 
HETATM    6  N1  UNL     1      -0.611  -2.645   1.208  1.00  0.00    -0.246 NA
HETATM    7  C14 UNL     1       1.283   0.196   0.310  1.00  0.00     0.031 A 
HETATM    8  C15 UNL     1       2.423   0.540  -0.316  1.00  0.00     0.153 A 
HETATM    9  C16 UNL     1       3.244  -0.428  -0.783  1.00  0.00     0.119 A 
HETATM   10  C17 UNL     1       2.834  -1.700  -0.611  1.00  0.00     0.026 A 
HETATM   11  O4  UNL     1       2.704   1.868  -0.423  1.00  0.00    -0.188 OA
ENDROOT
BRANCH   5  12
HETATM   12  C6  UNL     1      -1.299  -0.424   1.628  1.00  0.00     0.177 C 
BRANCH  12  13
HETATM   13  C7  UNL     1      -1.778   0.598   0.608  1.00  0.00     0.010 A 
HETATM   14  C8  UNL     1      -2.098   1.845   0.996  1.00  0.00     0.001 A 
HETATM   15  C9  UNL     1      -2.506   2.764   0.107  1.00  0.00     0.027 A 
HETATM   16  C10 UNL     1      -2.615   2.471  -1.199  1.00  0.00     0.131 A 
HETATM   17  C11 UNL     1      -2.310   1.220  -1.582  1.00  0.00     0.027 A 
HETATM   18  O1  UNL     1      -3.025   3.409  -2.094  1.00  0.00    -0.190 OA
HETATM   19  C12 UNL     1      -1.903   0.297  -0.697  1.00  0.00     0.001 A 
ENDBRANCH  12  13
BRANCH  12  20
HETATM   20  O2  UNL     1      -2.382  -0.989   2.362  1.00  0.00    -0.344 OA
HETATM   21  C13 UNL     1      -3.436  -1.479   1.560  1.00  0.00     0.175 C 
ENDBRANCH  12  20
ENDBRANCH   5  12
BRANCH   9  22
HETATM   22  O3  UNL     1       4.426  -0.237  -1.463  1.00  0.00    -0.326 OA
HETATM   23  C18 UNL     1       4.682   0.987  -2.109  1.00  0.00     0.181 C 
ENDBRANCH   9  22
TORSDOF 4
