REMARK  4 active torsions:
REMARK  status: ('A' for Active; 'I' for Inactive)
REMARK    1  A    between atoms: C16_16  and  C25_26 
REMARK    2  A    between atoms: C25_26  and  O3_28 
REMARK    3  A    between atoms: O3_28  and  C26_29 
REMARK    4  A    between atoms: C30_33  and  C31_35 
ROOT
HETATM    1  C1  UNL     1      -5.541  -0.787  -2.014  1.00  0.00     0.033 C 
HETATM    2  C2  UNL     1      -6.203  -1.576  -0.875  1.00  0.00     0.152 C 
HETATM    3  C3  UNL     1      -5.551  -1.297   0.502  1.00  0.00     0.028 C 
HETATM    4  C4  UNL     1      -4.020  -1.557   0.404  1.00  0.00     0.002 C 
HETATM    5  C5  UNL     1      -3.313  -0.773  -0.740  1.00  0.00     0.001 C 
HETATM    6  C6  UNL     1      -4.035  -1.070  -2.076  1.00  0.00     0.003 C 
HETATM    7  C7  UNL     1      -1.817  -1.215  -0.822  1.00  0.00     0.005 C 
HETATM    8  C8  UNL     1      -1.033  -1.101   0.516  1.00  0.00     0.004 C 
HETATM    9  C9  UNL     1      -1.828  -1.793   1.654  1.00  0.00     0.000 C 
HETATM   10  C10 UNL     1      -3.289  -1.342   1.740  1.00  0.00     0.000 C 
HETATM   11  C11 UNL     1       0.385  -1.752   0.350  1.00  0.00     0.015 C 
HETATM   12  C12 UNL     1       1.123  -1.254  -0.896  1.00  0.00    -0.049 C 
HETATM   13  C13 UNL     1       0.447  -0.684  -1.922  1.00  0.00    -0.035 C 
HETATM   14  C14 UNL     1      -1.049  -0.476  -1.936  1.00  0.00     0.025 C 
HETATM   15  C15 UNL     1       2.644  -1.457  -0.977  1.00  0.00     0.027 C 
HETATM   16  C16 UNL     1       3.396  -1.205   0.356  1.00  0.00     0.084 C 
HETATM   17  C17 UNL     1       2.687  -1.943   1.502  1.00  0.00     0.010 C 
HETATM   18  C18 UNL     1       1.221  -1.525   1.637  1.00  0.00     0.004 C 
HETATM   19  C19 UNL     1       4.867  -1.707   0.258  1.00  0.00     0.043 C 
HETATM   20  C20 UNL     1       5.391  -1.851  -1.187  1.00  0.00     0.152 C 
HETATM   21  C21 UNL     1       4.896  -0.719  -2.115  1.00  0.00     0.029 C 
HETATM   22  C22 UNL     1       3.346  -0.728  -2.162  1.00  0.00     0.007 C 
HETATM   23  C23 UNL     1       5.443  -0.908  -3.539  1.00  0.00     0.003 C 
HETATM   24  C24 UNL     1       5.398   0.643  -1.605  1.00  0.00     0.003 C 
HETATM   25  O1  UNL     1       6.807  -1.904  -1.162  1.00  0.00    -0.224 OA
HETATM   26  C32 UNL     1       0.258  -3.269   0.131  1.00  0.00     0.004 C 
HETATM   27  C33 UNL     1      -0.875   0.387   0.881  1.00  0.00     0.000 C 
HETATM   28  C34 UNL     1      -3.399   0.740  -0.484  1.00  0.00     0.000 C 
HETATM   29  C35 UNL     1      -6.164  -2.244   1.545  1.00  0.00     0.003 C 
HETATM   30  C36 UNL     1      -5.830   0.145   0.961  1.00  0.00     0.003 C 
HETATM   31  O9  UNL     1      -7.586  -1.268  -0.852  1.00  0.00    -0.224 OA
ENDROOT
BRANCH  16  32
HETATM   32  C25 UNL     1       3.391   0.279   0.660  1.00  0.00     0.273 C 
HETATM   33  O2  UNL     1       4.148   0.750   1.477  1.00  0.00    -0.264 OA
BRANCH  32  34
HETATM   34  O3  UNL     1       2.504   0.994  -0.027  1.00  0.00    -0.273 OA
BRANCH  34  35
HETATM   35  C26 UNL     1       2.410   2.334   0.439  1.00  0.00     0.276 C 
HETATM   36  C27 UNL     1       1.615   3.192  -0.568  1.00  0.00     0.241 C 
HETATM   37  C28 UNL     1       1.381   4.617  -0.025  1.00  0.00     0.220 C 
HETATM   38  O8  UNL     1       2.340   3.248  -1.783  1.00  0.00    -0.215 OA
HETATM   39  C29 UNL     1       0.789   4.541   1.398  1.00  0.00     0.215 C 
HETATM   40  O7  UNL     1       0.490   5.317  -0.881  1.00  0.00    -0.218 OA
HETATM   41  C30 UNL     1       1.629   3.613   2.309  1.00  0.00     0.184 C 
HETATM   42  O6  UNL     1       0.758   5.834   1.977  1.00  0.00    -0.218 OA
HETATM   43  O4  UNL     1       1.750   2.336   1.697  1.00  0.00    -0.326 OA
BRANCH  41  44
HETATM   44  C31 UNL     1       0.990   3.387   3.682  1.00  0.00     0.214 C 
HETATM   45  O5  UNL     1       1.898   2.656   4.475  1.00  0.00    -0.218 OA
ENDBRANCH  41  44
ENDBRANCH  34  35
ENDBRANCH  32  34
ENDBRANCH  16  32
TORSDOF 4
