REMARK  6 active torsions:
REMARK  status: ('A' for Active; 'I' for Inactive)
REMARK    1  A    between atoms: C1_1  and  O8_32 
REMARK    2  A    between atoms: C2_2  and  O6_28 
REMARK    3  A    between atoms: C14_16  and  O3_17 
REMARK    4  A    between atoms: O3_17  and  C15_18 
REMARK    5  A    between atoms: O6_28  and  C23_29 
REMARK    6  A    between atoms: O8_32  and  C25_33 
ROOT
HETATM    1  C1  UNL     1      -2.197   0.508  -0.906  1.00  0.00     0.182 C 
HETATM    2  C2  UNL     1      -2.713  -0.742  -0.189  1.00  0.00     0.155 C 
HETATM    3  C3  UNL     1      -1.740  -1.930  -0.316  1.00  0.00     0.035 C 
HETATM    4  C4  UNL     1      -0.326  -1.502   0.182  1.00  0.00     0.062 C 
HETATM    5  C5  UNL     1       0.260  -0.229  -0.529  1.00  0.00     0.040 C 
HETATM    6  C6  UNL     1      -0.793   0.922  -0.416  1.00  0.00     0.182 C 
HETATM    7  O1  UNL     1      -0.426   2.051  -1.191  1.00  0.00    -0.221 OA
HETATM    8  C7  UNL     1       1.621   0.099   0.187  1.00  0.00     0.038 C 
HETATM    9  C8  UNL     1       2.625  -1.102   0.084  1.00  0.00     0.065 C 
HETATM   10  C9  UNL     1       2.018  -2.438  -0.373  1.00  0.00     0.072 C 
HETATM   11  C10 UNL     1       0.656  -2.662   0.227  1.00  0.00     0.151 C 
HETATM   12  O2  UNL     1       0.375  -3.725   0.732  1.00  0.00    -0.296 OA
HETATM   13  C11 UNL     1       3.779  -0.744  -0.887  1.00  0.00     0.012 C 
HETATM   14  C12 UNL     1       4.592   0.234  -0.022  1.00  0.00     0.028 C 
HETATM   15  C13 UNL     1       3.826   1.564   0.033  1.00  0.00     0.035 C 
HETATM   16  C14 UNL     1       2.301   1.447  -0.225  1.00  0.00     0.125 C 
HETATM   17  C17 UNL     1       4.570  -0.445   1.318  1.00  0.00     0.012 C 
HETATM   18  C18 UNL     1       3.363  -1.244   1.395  1.00  0.00     0.169 C 
HETATM   19  O5  UNL     1       3.008  -1.912   2.340  1.00  0.00    -0.292 OA
HETATM   20  C19 UNL     1       5.518  -0.326   2.264  1.00  0.00    -0.002 C 
HETATM   21  C20 UNL     1       0.518  -0.500  -2.025  1.00  0.00     0.003 C 
HETATM   22  C21 UNL     1      -1.688  -2.410  -1.772  1.00  0.00     0.003 C 
HETATM   23  C22 UNL     1      -2.301  -3.082   0.529  1.00  0.00     0.003 C 
ENDROOT
BRANCH   1  24
HETATM   24  O8  UNL     1      -3.119   1.570  -0.688  1.00  0.00    -0.299 OA
BRANCH  24  25
HETATM   25  C25 UNL     1      -4.235   1.426  -1.397  1.00  0.00     0.273 C 
HETATM   26  C26 UNL     1      -5.311   2.439  -1.109  1.00  0.00     0.106 C 
HETATM   27  O9  UNL     1      -4.402   0.557  -2.219  1.00  0.00    -0.264 OA
ENDBRANCH  24  25
ENDBRANCH   1  24
BRANCH   2  28
HETATM   28  O6  UNL     1      -2.910  -0.430   1.186  1.00  0.00    -0.302 OA
BRANCH  28  29
HETATM   29  C23 UNL     1      -3.992  -1.018   1.687  1.00  0.00     0.272 C 
HETATM   30  C24 UNL     1      -4.016  -1.139   3.188  1.00  0.00     0.106 C 
HETATM   31  O7  UNL     1      -4.906  -1.432   1.016  1.00  0.00    -0.264 OA
ENDBRANCH  28  29
ENDBRANCH   2  28
BRANCH  16  32
HETATM   32  O3  UNL     1       1.670   2.525   0.455  1.00  0.00    -0.304 OA
BRANCH  32  33
HETATM   33  C15 UNL     1       1.959   3.703  -0.090  1.00  0.00     0.272 C 
HETATM   34  O4  UNL     1       2.543   3.834  -1.141  1.00  0.00    -0.264 OA
HETATM   35  C16 UNL     1       1.504   4.902   0.697  1.00  0.00     0.106 C 
ENDBRANCH  32  33
ENDBRANCH  16  32
TORSDOF 6
