REMARK  0 active torsions:
REMARK  status: ('A' for Active; 'I' for Inactive)
ROOT
HETATM    1  C1  UNL     1      -2.051  -0.081   0.112  1.00  0.00    -0.034 C 
HETATM    2  C2  UNL     1      -2.179  -1.520   0.550  1.00  0.00     0.028 C 
HETATM    3  C3  UNL     1      -1.104  -1.897   1.595  1.00  0.00     0.034 C 
HETATM    4  C4  UNL     1       0.341  -2.135   1.139  1.00  0.00     0.118 A 
HETATM    5  C5  UNL     1       1.268  -1.086   0.768  1.00  0.00     0.140 A 
HETATM    6  C6  UNL     1       0.933   0.386   0.990  1.00  0.00     0.039 C 
HETATM    7  C7  UNL     1       0.949   1.296  -0.256  1.00  0.00     0.058 C 
HETATM    8  C8  UNL     1      -0.224   2.307  -0.332  1.00  0.00     0.133 C 
HETATM    9  C9  UNL     1      -1.362   1.861  -1.267  1.00  0.00     0.052 C 
HETATM   10  C10 UNL     1      -1.715   0.394  -1.101  1.00  0.00    -0.046 C 
HETATM   11  C11 UNL     1      -1.562  -0.446  -2.348  1.00  0.00     0.026 C 
HETATM   12  O1  UNL     1       0.270   3.562  -0.742  1.00  0.00    -0.301 OA
HETATM   13  C12 UNL     1       1.626   3.507  -0.731  1.00  0.00     0.292 C 
HETATM   14  C13 UNL     1       2.153   2.184  -0.366  1.00  0.00     0.043 C 
HETATM   15  C14 UNL     1       3.452   1.876  -0.207  1.00  0.00     0.001 C 
HETATM   16  O2  UNL     1       2.335   4.468  -1.012  1.00  0.00    -0.260 OA
HETATM   17  O3  UNL     1       0.588  -1.609  -0.346  1.00  0.00    -0.357 OA
HETATM   18  C15 UNL     1       0.911  -3.528   1.359  1.00  0.00     0.032 C 
ENDROOT
TORSDOF 0
