REMARK  2 active torsions:
REMARK  status: ('A' for Active; 'I' for Inactive)
REMARK    1  A    between atoms: C3_3  and  C8_8 
REMARK    2  A    between atoms: C8_8  and  C10_10 
ROOT
HETATM    1  C1  UNL     1       0.115   1.167  -1.211  1.00  0.00     0.031 C 
HETATM    2  C2  UNL     1      -0.049  -0.364  -1.057  1.00  0.00     0.154 C 
HETATM    3  C3  UNL     1       0.791  -0.994   0.096  1.00  0.00     0.033 C 
HETATM    4  C4  UNL     1       2.252  -0.505  -0.051  1.00  0.00     0.003 C 
HETATM    5  C5  UNL     1       2.339   1.021   0.037  1.00  0.00     0.000 C 
HETATM    6  C6  UNL     1       1.567   1.690  -1.109  1.00  0.00     0.002 C 
HETATM    7  C7  UNL     1       2.333   1.601  -2.444  1.00  0.00     0.000 C 
HETATM    8  C11 UNL     1      -1.513  -0.825  -1.080  1.00  0.00     0.168 A 
HETATM    9  C12 UNL     1      -2.568   0.082  -0.709  1.00  0.00     0.120 A 
HETATM   10  C13 UNL     1      -2.292   1.558  -0.483  1.00  0.00     0.030 C 
HETATM   11  C14 UNL     1      -0.822   1.934  -0.263  1.00  0.00     0.005 C 
HETATM   12  O2  UNL     1      -2.189  -0.332  -2.210  1.00  0.00    -0.354 OA
HETATM   13  C15 UNL     1      -3.948  -0.447  -0.359  1.00  0.00     0.032 C 
HETATM   14  O3  UNL     1       0.484  -0.930  -2.252  1.00  0.00    -0.223 OA
ENDROOT
BRANCH   3  15
HETATM   15  C8  UNL     1       0.264  -0.923   1.566  1.00  0.00     0.035 C 
HETATM   16  C9  UNL     1      -1.002  -1.775   1.800  1.00  0.00     0.003 C 
BRANCH  15  17
HETATM   17  C10 UNL     1       1.321  -1.355   2.600  1.00  0.00     0.182 C 
HETATM   18  O1  UNL     1       0.794  -1.359   3.913  1.00  0.00    -0.221 OA
ENDBRANCH  15  17
ENDBRANCH   3  15
TORSDOF 2
