REMARK  2 active torsions:
REMARK  status: ('A' for Active; 'I' for Inactive)
REMARK    1  A    between atoms: C3_3  and  C8_8 
REMARK    2  A    between atoms: C8_8  and  C10_10 
ROOT
HETATM    1  C1  UNL     1       0.126   1.082  -1.180  1.00  0.00     0.031 C 
HETATM    2  C2  UNL     1      -0.056  -0.415  -0.839  1.00  0.00     0.154 C 
HETATM    3  C3  UNL     1       0.757  -0.909   0.390  1.00  0.00     0.041 C 
HETATM    4  C4  UNL     1       2.222  -0.434   0.250  1.00  0.00     0.003 C 
HETATM    5  C5  UNL     1       2.308   1.092   0.152  1.00  0.00     0.000 C 
HETATM    6  C6  UNL     1       1.574   1.618  -1.089  1.00  0.00     0.003 C 
HETATM    7  C7  UNL     1       2.389   1.383  -2.376  1.00  0.00     0.000 C 
HETATM    8  C11 UNL     1      -1.520  -0.879  -0.817  1.00  0.00     0.168 A 
HETATM    9  C12 UNL     1      -2.583   0.076  -0.643  1.00  0.00     0.120 A 
HETATM   10  C13 UNL     1      -2.306   1.568  -0.640  1.00  0.00     0.030 C 
HETATM   11  C14 UNL     1      -0.848   1.961  -0.377  1.00  0.00     0.005 C 
HETATM   12  O3  UNL     1      -2.142  -0.575  -2.040  1.00  0.00    -0.354 OA
HETATM   13  C15 UNL     1      -3.977  -0.391  -0.264  1.00  0.00     0.032 C 
HETATM   14  O4  UNL     1       0.484  -1.124  -1.949  1.00  0.00    -0.223 OA
ENDROOT
BRANCH   3  15
HETATM   15  C8  UNL     1       0.205  -0.649   1.819  1.00  0.00     0.090 C 
HETATM   16  C9  UNL     1      -1.096  -1.386   2.180  1.00  0.00     0.011 C 
BRANCH  15  17
HETATM   17  C10 UNL     1       1.223  -0.964   2.912  1.00  0.00     0.185 C 
HETATM   18  O1  UNL     1       1.708  -0.176   3.690  1.00  0.00    -0.647 OA
HETATM   19  O2  UNL     1       1.548  -2.270   2.943  1.00  0.00    -0.647 OA
ENDBRANCH  15  17
ENDBRANCH   3  15
TORSDOF 2
