REMARK  4 active torsions:
REMARK  status: ('A' for Active; 'I' for Inactive)
REMARK    1  A    between atoms: C9_10  and  O2_11 
REMARK    2  A    between atoms: C11_13  and  O4_23 
REMARK    3  A    between atoms: C13_15  and  C14_17 
REMARK    4  A    between atoms: O4_23  and  C20_24 
ROOT
HETATM    1  C1  UNL     1      -1.350   0.308  -0.273  1.00  0.00     0.117 C 
HETATM    2  C2  UNL     1      -1.201  -1.171  -0.002  1.00  0.00     0.001 C 
HETATM    3  C3  UNL     1       0.015  -1.738   0.071  1.00  0.00     0.002 C 
HETATM    4  C4  UNL     1       1.193  -0.870  -0.041  1.00  0.00     0.044 C 
HETATM    5  C5  UNL     1       0.964   0.503   0.136  1.00  0.00     0.098 C 
HETATM    6  O1  UNL     1      -0.288   1.038   0.285  1.00  0.00    -0.332 OA
HETATM    7  C6  UNL     1       2.083   1.338   0.096  1.00  0.00     0.048 C 
HETATM    8  C7  UNL     1       3.392   0.869  -0.046  1.00  0.00     0.097 C 
HETATM    9  C8  UNL     1       3.574  -0.520  -0.154  1.00  0.00     0.049 C 
HETATM   10  C9  UNL     1       2.481  -1.400  -0.249  1.00  0.00     0.096 C 
HETATM   11  C11 UNL     1       4.984  -1.084  -0.204  1.00  0.00     0.144 C 
HETATM   12  C12 UNL     1       5.979   0.033  -0.520  1.00  0.00     0.069 C 
HETATM   13  C13 UNL     1       5.686   1.246   0.357  1.00  0.00     0.146 C 
HETATM   14  O3  UNL     1       4.423   1.767   0.031  1.00  0.00    -0.329 OA
HETATM   15  C22 UNL     1      -2.646   0.835   0.354  1.00  0.00     0.035 C 
HETATM   16  C23 UNL     1      -1.372   0.540  -1.789  1.00  0.00     0.035 C 
ENDROOT
BRANCH  13  17
HETATM   17  C14 UNL     1       6.756   2.308   0.182  1.00  0.00     0.005 A 
HETATM   18  C15 UNL     1       7.702   2.548   1.187  1.00  0.00    -0.002 A 
HETATM   19  C16 UNL     1       8.696   3.515   1.023  1.00  0.00    -0.000 A 
HETATM   20  C17 UNL     1       8.761   4.257  -0.158  1.00  0.00    -0.000 A 
HETATM   21  C18 UNL     1       7.829   4.025  -1.170  1.00  0.00    -0.000 A 
HETATM   22  C19 UNL     1       6.838   3.056  -0.998  1.00  0.00    -0.002 A 
ENDBRANCH  13  17
BRANCH  11  23
HETATM   23  O4  UNL     1       5.267  -1.680   1.046  1.00  0.00    -0.352 OA
BRANCH  23  24
HETATM   24  C20 UNL     1       6.228  -2.704   0.986  1.00  0.00     0.143 C 
HETATM   25  C21 UNL     1       6.395  -3.295   2.384  1.00  0.00     0.035 C 
ENDBRANCH  23  24
ENDBRANCH  11  23
BRANCH  10  26
HETATM   26  O2  UNL     1       2.682  -2.756  -0.310  1.00  0.00    -0.328 OA
HETATM   27  C10 UNL     1       2.511  -3.296  -1.602  1.00  0.00     0.181 C 
ENDBRANCH  10  26
TORSDOF 4
