REMARK  0 active torsions:
REMARK  status: ('A' for Active; 'I' for Inactive)
ROOT
HETATM    1  C1  UNL     1      -0.734  -0.515  -0.014  1.00  0.00     0.119 A 
HETATM    2  C2  UNL     1      -0.657  -1.899   0.049  1.00  0.00     0.119 A 
HETATM    3  C3  UNL     1       0.575  -2.541   0.077  1.00  0.00     0.024 A 
HETATM    4  C4  UNL     1       1.735  -1.752   0.053  1.00  0.00     0.009 A 
HETATM    5  C5  UNL     1       1.667  -0.344  -0.003  1.00  0.00    -0.018 A 
HETATM    6  C6  UNL     1       0.408   0.278  -0.037  1.00  0.00     0.022 A 
HETATM    7  C7  UNL     1       2.978   0.446   0.064  1.00  0.00     0.081 C 
HETATM    8  C8  UNL     1       4.064  -0.412  -0.617  1.00  0.00     0.226 C 
HETATM    9  N1  UNL     1       4.182  -1.547   0.285  1.00  0.00     0.140 N 
HETATM   10  C9  UNL     1       3.070  -2.462   0.081  1.00  0.00     0.276 C 
HETATM   11  C10 UNL     1       4.178  -0.974   1.626  1.00  0.00     0.251 C 
HETATM   12  C11 UNL     1       3.419   0.364   1.541  1.00  0.00     0.044 C 
HETATM   13  C12 UNL     1       5.407   0.315  -0.791  1.00  0.00     0.036 C 
HETATM   14  C13 UNL     1       5.203   1.601  -1.598  1.00  0.00     0.038 C 
HETATM   15  C14 UNL     1       4.227   2.526  -0.882  1.00  0.00     0.183 C 
HETATM   16  C15 UNL     1       2.903   1.860  -0.529  1.00  0.00     0.188 C 
HETATM   17  O1  UNL     1       2.254   2.737   0.362  1.00  0.00    -0.220 OA
HETATM   18  O2  UNL     1       4.809   3.025   0.299  1.00  0.00    -0.221 OA
HETATM   19  O3  UNL     1      -1.933  -2.427   0.074  1.00  0.00    -0.300 OA
HETATM   20  C16 UNL     1      -2.854  -1.330   0.040  1.00  0.00     0.304 A 
HETATM   21  O4  UNL     1      -2.063  -0.137  -0.028  1.00  0.00    -0.300 OA
ENDROOT
TORSDOF 0
