REMARK  0 active torsions:
REMARK  status: ('A' for Active; 'I' for Inactive)
ROOT
HETATM    1  C1  UNL     1       4.287  -0.387  -0.613  1.00  0.00     0.000 C 
HETATM    2  C2  UNL     1       3.476  -1.555  -1.187  1.00  0.00     0.000 C 
HETATM    3  C3  UNL     1       2.206  -1.844  -0.365  1.00  0.00     0.000 C 
HETATM    4  C4  UNL     1       1.380  -0.550  -0.186  1.00  0.00     0.001 C 
HETATM    5  C5  UNL     1       2.148   0.691   0.336  1.00  0.00     0.002 C 
HETATM    6  C6  UNL     1       3.426   0.882  -0.517  1.00  0.00     0.000 C 
HETATM    7  C7  UNL     1       1.225   1.918   0.129  1.00  0.00     0.031 C 
HETATM    8  C8  UNL     1      -0.147   1.814   0.813  1.00  0.00     0.129 C 
HETATM    9  C9  UNL     1      -0.847   0.469   0.536  1.00  0.00     0.055 C 
HETATM   10  C10 UNL     1       0.062  -0.764   0.569  1.00  0.00     0.007 C 
HETATM   11  C11 UNL     1      -1.561   0.799  -0.744  1.00  0.00     0.043 C 
HETATM   12  C12 UNL     1      -1.730   2.262  -0.677  1.00  0.00     0.292 C 
HETATM   13  O1  UNL     1      -0.963   2.838   0.287  1.00  0.00    -0.301 OA
HETATM   14  O2  UNL     1      -2.500   2.897  -1.392  1.00  0.00    -0.260 OA
HETATM   15  C13 UNL     1      -1.990   0.006  -1.739  1.00  0.00     0.001 C 
HETATM   16  C14 UNL     1       2.540   0.652   1.829  1.00  0.00     0.000 C 
HETATM   17  C15 UNL     1       2.521  -2.647   0.908  1.00  0.00     0.000 C 
ENDROOT
TORSDOF 0
