REMARK  1 active torsions:
REMARK  status: ('A' for Active; 'I' for Inactive)
REMARK    1  A    between atoms: C15_15  and  C17_17 
ROOT
HETATM    1  C1  UNL     1       4.636  -1.222  -1.929  1.00  0.00     0.003 C 
HETATM    2  C2  UNL     1       5.499  -0.201  -1.181  1.00  0.00     0.030 C 
HETATM    3  C3  UNL     1       4.735   1.075  -0.806  1.00  0.00     0.127 C 
HETATM    4  C4  UNL     1       3.428   0.709  -0.074  1.00  0.00     0.028 C 
HETATM    5  C5  UNL     1       2.483  -0.289  -0.809  1.00  0.00     0.002 C 
HETATM    6  C6  UNL     1       3.342  -1.538  -1.163  1.00  0.00     0.000 C 
HETATM    7  C7  UNL     1       1.329  -0.701   0.173  1.00  0.00     0.000 C 
HETATM    8  C8  UNL     1       0.616   0.432   0.965  1.00  0.00     0.001 C 
HETATM    9  C9  UNL     1       1.626   1.442   1.530  1.00  0.00     0.000 C 
HETATM   10  C10 UNL     1       2.645   1.910   0.484  1.00  0.00     0.002 C 
HETATM   11  C11 UNL     1      -0.491   1.117   0.144  1.00  0.00     0.001 C 
HETATM   12  C12 UNL     1      -1.549   0.009   0.079  1.00  0.00     0.010 C 
HETATM   13  C13 UNL     1      -1.029  -1.094  -0.855  1.00  0.00     0.001 C 
HETATM   14  C14 UNL     1       0.290  -1.713  -0.367  1.00  0.00     0.000 C 
HETATM   15  C15 UNL     1      -1.651  -0.419   1.555  1.00  0.00     0.087 C 
HETATM   16  C16 UNL     1      -0.232  -0.181   2.117  1.00  0.00     0.011 C 
HETATM   17  C18 UNL     1       1.915   0.263  -2.136  1.00  0.00     0.000 C 
HETATM   18  O3  UNL     1       4.452   1.800  -1.973  1.00  0.00    -0.226 OA
HETATM   19  C19 UNL     1       5.673   1.957   0.032  1.00  0.00     0.033 C 
ENDROOT
BRANCH  15  20
HETATM   20  C17 UNL     1      -2.325  -1.761   1.773  1.00  0.00     0.185 C 
HETATM   21  O1  UNL     1      -3.342  -2.131   1.236  1.00  0.00    -0.647 OA
HETATM   22  O2  UNL     1      -1.694  -2.539   2.668  1.00  0.00    -0.647 OA
ENDBRANCH  15  20
TORSDOF 1
