REMARK  3 active torsions:
REMARK  status: ('A' for Active; 'I' for Inactive)
REMARK    1  A    between atoms: C3_3  and  O5_21 
REMARK    2  A    between atoms: C13_14  and  C15_17 
REMARK    3  A    between atoms: C15_17  and  O3_18 
ROOT
HETATM    1  C1  UNL     1      -4.305  -0.748  -0.010  1.00  0.00     0.029 A 
HETATM    2  C2  UNL     1      -3.922  -2.029   0.059  1.00  0.00     0.153 A 
HETATM    3  C3  UNL     1      -2.608  -2.339   0.105  1.00  0.00     0.122 A 
HETATM    4  C4  UNL     1      -1.692  -1.335   0.166  1.00  0.00     0.066 A 
HETATM    5  C5  UNL     1      -2.087  -0.047   0.104  1.00  0.00     0.044 A 
HETATM    6  C6  UNL     1      -3.399   0.235   0.002  1.00  0.00     0.005 A 
HETATM    7  C7  UNL     1      -1.201   0.986   0.151  1.00  0.00     0.198 A 
HETATM    8  C8  UNL     1       0.131   0.724   0.270  1.00  0.00     0.067 A 
HETATM    9  C9  UNL     1       0.526  -0.564   0.323  1.00  0.00     0.044 A 
HETATM   10  C10 UNL     1      -0.359  -1.599   0.273  1.00  0.00     0.198 A 
HETATM   11  O1  UNL     1       0.069  -2.731   0.321  1.00  0.00    -0.286 OA
HETATM   12  C11 UNL     1       1.839  -0.846   0.425  1.00  0.00     0.003 A 
HETATM   13  C12 UNL     1       2.745   0.135   0.479  1.00  0.00     0.000 A 
HETATM   14  C13 UNL     1       2.357   1.417   0.438  1.00  0.00     0.033 A 
HETATM   15  C14 UNL     1       1.047   1.726   0.327  1.00  0.00     0.133 A 
HETATM   16  O2  UNL     1       0.731   3.055   0.319  1.00  0.00    -0.190 OA
HETATM   17  O4  UNL     1      -1.626   2.118   0.082  1.00  0.00    -0.286 OA
HETATM   18  O6  UNL     1      -4.862  -3.015   0.076  1.00  0.00    -0.188 OA
ENDROOT
BRANCH  14  19
HETATM   19  C15 UNL     1       3.407   2.513   0.519  1.00  0.00     0.171 C 
BRANCH  19  20
HETATM   20  O3  UNL     1       3.519   3.175  -0.728  1.00  0.00    -0.347 OA
HETATM   21  C16 UNL     1       4.435   4.248  -0.681  1.00  0.00     0.175 C 
ENDBRANCH  19  20
ENDBRANCH  14  19
BRANCH   3  22
HETATM   22  O5  UNL     1      -2.298  -3.675   0.224  1.00  0.00    -0.326 OA
HETATM   23  C17 UNL     1      -2.082  -4.332  -1.006  1.00  0.00     0.181 C 
ENDBRANCH   3  22
TORSDOF 3
