REMARK  6 active torsions:
REMARK  status: ('A' for Active; 'I' for Inactive)
REMARK    1  A    between atoms: C4_4  and  O3_9 
REMARK    2  A    between atoms: C5_6  and  C6_7 
REMARK    3  A    between atoms: O3_9  and  C7_10 
REMARK    4  A    between atoms: C8_11  and  O7_24 
REMARK    5  A    between atoms: O7_24  and  C18_25 
REMARK    6  A    between atoms: C22_29  and  C23_31 
ROOT
HETATM    1  C7  UNL     1      -0.075   1.015  -0.060  1.00  0.00     0.142 A 
HETATM    2  C8  UNL     1      -0.750  -0.211  -0.026  1.00  0.00     0.123 A 
HETATM    3  C9  UNL     1      -2.141  -0.275   0.143  1.00  0.00     0.048 A 
HETATM    4  C10 UNL     1      -2.902   0.902   0.285  1.00  0.00     0.107 A 
HETATM    5  C11 UNL     1      -2.236   2.143   0.264  1.00  0.00     0.050 A 
HETATM    6  C12 UNL     1      -0.857   2.157   0.090  1.00  0.00     0.126 A 
HETATM    7  O4  UNL     1      -0.391   3.437   0.093  1.00  0.00    -0.303 OA
HETATM    8  C13 UNL     1      -1.466   4.249   0.271  1.00  0.00     0.123 A 
HETATM    9  C14 UNL     1      -2.619   3.508   0.382  1.00  0.00     0.031 A 
HETATM   10  O5  UNL     1      -4.258   0.896   0.482  1.00  0.00    -0.273 OA
HETATM   11  C15 UNL     1      -4.960  -0.319   0.190  1.00  0.00     0.300 C 
HETATM   12  C16 UNL     1      -4.146  -1.576   0.207  1.00  0.00     0.069 C 
HETATM   13  C17 UNL     1      -2.810  -1.568   0.191  1.00  0.00     0.009 C 
HETATM   14  O6  UNL     1      -6.142  -0.329  -0.057  1.00  0.00    -0.259 OA
ENDROOT
BRANCH   1  15
HETATM   15  O3  UNL     1       1.267   1.087  -0.230  1.00  0.00    -0.300 OA
BRANCH  15  16
HETATM   16  C4  UNL     1       1.904   2.335  -0.258  1.00  0.00     0.274 C 
HETATM   17  C3  UNL     1       2.945   2.412   0.852  1.00  0.00     0.241 C 
HETATM   18  C2  UNL     1       3.616   3.779   0.825  1.00  0.00     0.220 C 
HETATM   19  O13 UNL     1       3.910   1.414   0.656  1.00  0.00    -0.215 OA
HETATM   20  C1  UNL     1       4.080   4.088  -0.593  1.00  0.00     0.215 C 
HETATM   21  O14 UNL     1       4.722   3.773   1.687  1.00  0.00    -0.218 OA
HETATM   22  C5  UNL     1       2.931   3.856  -1.565  1.00  0.00     0.184 C 
HETATM   23  O15 UNL     1       4.492   5.426  -0.667  1.00  0.00    -0.218 OA
HETATM   24  O1  UNL     1       2.575   2.503  -1.481  1.00  0.00    -0.326 OA
BRANCH  22  25
HETATM   25  C6  UNL     1       1.744   4.731  -1.183  1.00  0.00     0.214 C 
HETATM   26  O2  UNL     1       1.421   5.576  -2.255  1.00  0.00    -0.218 OA
ENDBRANCH  22  25
ENDBRANCH  15  16
ENDBRANCH   1  15
BRANCH   2  27
HETATM   27  O7  UNL     1      -0.044  -1.360  -0.159  1.00  0.00    -0.301 OA
BRANCH  27  28
HETATM   28  C18 UNL     1      -0.705  -2.596  -0.127  1.00  0.00     0.274 C 
HETATM   29  C19 UNL     1      -0.457  -3.350  -1.426  1.00  0.00     0.241 C 
HETATM   30  C20 UNL     1      -1.196  -4.682  -1.389  1.00  0.00     0.220 C 
HETATM   31  O12 UNL     1       0.917  -3.583  -1.577  1.00  0.00    -0.215 OA
HETATM   32  C21 UNL     1      -0.874  -5.405  -0.088  1.00  0.00     0.215 C 
HETATM   33  O11 UNL     1      -0.790  -5.471  -2.475  1.00  0.00    -0.218 OA
HETATM   34  C22 UNL     1      -1.085  -4.457   1.085  1.00  0.00     0.184 C 
HETATM   35  O10 UNL     1      -1.719  -6.515   0.051  1.00  0.00    -0.218 OA
HETATM   36  O8  UNL     1      -0.200  -3.382   0.923  1.00  0.00    -0.326 OA
BRANCH  34  37
HETATM   37  C23 UNL     1      -0.793  -5.178   2.394  1.00  0.00     0.214 C 
HETATM   38  O9  UNL     1      -1.935  -5.155   3.206  1.00  0.00    -0.218 OA
ENDBRANCH  34  37
ENDBRANCH  27  28
ENDBRANCH   2  27
TORSDOF 6
