REMARK  1 active torsions:
REMARK  status: ('A' for Active; 'I' for Inactive)
REMARK    1  A    between atoms: C7_8  and  C17_21 
ROOT
HETATM    1  C1  UNL     1      -0.695   2.173  -0.864  1.00  0.00     0.277 C 
HETATM    2  C2  UNL     1      -1.875   1.318  -0.472  1.00  0.00     0.104 C 
HETATM    3  C3  UNL     1      -1.336   0.034   0.143  1.00  0.00     0.048 C 
HETATM    4  C4  UNL     1       0.160   0.070   0.143  1.00  0.00     0.009 C 
HETATM    5  C5  UNL     1       0.829   1.228   0.143  1.00  0.00     0.124 C 
HETATM    6  O1  UNL     1       0.241   2.449   0.143  1.00  0.00    -0.275 OA
HETATM    7  C6  UNL     1       2.166   1.228   0.132  1.00  0.00     0.149 C 
HETATM    8  C7  UNL     1       2.789   0.169   0.623  1.00  0.00     0.005 C 
HETATM    9  C8  UNL     1       2.199  -1.004   0.371  1.00  0.00     0.001 C 
HETATM   10  C9  UNL     1       0.885  -1.054   0.131  1.00  0.00     0.039 C 
HETATM   11  C10 UNL     1       0.237  -2.213  -0.116  1.00  0.00     0.217 C 
HETATM   12  C11 UNL     1      -1.040  -2.222  -0.826  1.00  0.00     0.135 A 
HETATM   13  C12 UNL     1      -1.807  -1.139  -0.660  1.00  0.00    -0.006 A 
HETATM   14  C13 UNL     1      -3.113  -1.292  -1.375  1.00  0.00     0.096 A 
HETATM   15  C14 UNL     1      -3.005  -2.638  -2.049  1.00  0.00     0.279 A 
HETATM   16  O2  UNL     1      -1.577  -3.030  -1.575  1.00  0.00    -0.274 OA
HETATM   17  O3  UNL     1      -3.792  -3.232  -2.747  1.00  0.00    -0.264 OA
HETATM   18  C15 UNL     1      -4.274  -1.271  -0.391  1.00  0.00     0.014 C 
HETATM   19  C16 UNL     1      -3.376  -0.162  -2.362  1.00  0.00     0.014 C 
HETATM   20  O4  UNL     1       0.720  -3.257   0.254  1.00  0.00    -0.284 OA
HETATM   21  O5  UNL     1       2.861   2.279  -0.367  1.00  0.00    -0.188 OA
HETATM   22  C20 UNL     1      -1.841  -0.095   1.574  1.00  0.00     0.009 C 
HETATM   23  O6  UNL     1      -0.563   2.597  -1.988  1.00  0.00    -0.264 OA
ENDROOT
BRANCH   8  24
HETATM   24  C17 UNL     1       4.062   0.276   1.403  1.00  0.00     0.024 C 
HETATM   25  C18 UNL     1       3.826   1.130   2.643  1.00  0.00     0.005 C 
HETATM   26  C19 UNL     1       5.135   0.923   0.537  1.00  0.00     0.005 C 
ENDBRANCH   8  24
TORSDOF 1
