REMARK  4 active torsions:
REMARK  status: ('A' for Active; 'I' for Inactive)
REMARK    1  A    between atoms: C7_8  and  C10_12 
REMARK    2  A    between atoms: C12_14  and  C17_21 
REMARK    3  A    between atoms: C14_16  and  O3_18 
REMARK    4  A    between atoms: C17_21  and  C18_22 
ROOT
HETATM    1  C10 UNL     1       2.336  -0.803   0.051  1.00  0.00     0.007 C 
HETATM    2  C11 UNL     1       2.183   0.110  -0.996  1.00  0.00    -0.004 C 
HETATM    3  C12 UNL     1       3.046   1.200  -1.140  1.00  0.00     0.009 C 
HETATM    4  C13 UNL     1       4.071   1.401  -0.205  1.00  0.00     0.149 C 
HETATM    5  C14 UNL     1       4.182   0.561   0.913  1.00  0.00     0.119 C 
HETATM    6  C15 UNL     1       3.355  -0.568   0.977  1.00  0.00     0.024 C 
HETATM    7  O4  UNL     1       4.958   2.422  -0.343  1.00  0.00    -0.188 OA
ENDROOT
BRANCH   1   8
HETATM    8  C7  UNL     1       1.461  -2.040   0.141  1.00  0.00     0.150 C 
HETATM    9  O1  UNL     1       0.895  -2.160   1.423  1.00  0.00    -0.328 OA
HETATM   10  C5  UNL     1       0.087  -3.253   1.597  1.00  0.00     0.097 C 
HETATM   11  C4  UNL     1       0.274  -4.495   0.816  1.00  0.00     0.040 C 
HETATM   12  C6  UNL     1      -1.006  -3.163   2.402  1.00  0.00     0.048 C 
HETATM   13  C3  UNL     1      -0.469  -5.611   1.016  1.00  0.00    -0.015 C 
HETATM   14  C9  UNL     1       1.407  -4.536  -0.182  1.00  0.00     0.113 C 
HETATM   15  C2  UNL     1      -1.531  -5.614   2.063  1.00  0.00     0.080 C 
HETATM   16  C1  UNL     1      -1.995  -4.271   2.559  1.00  0.00     0.115 C 
HETATM   17  O5  UNL     1      -3.048  -4.151   3.407  1.00  0.00    -0.194 OA
HETATM   18  C8  UNL     1       2.264  -3.287  -0.224  1.00  0.00     0.089 C 
HETATM   19  O2  UNL     1       1.661  -5.569  -0.958  1.00  0.00    -0.195 OA
ENDBRANCH   1   8
BRANCH   3  20
HETATM   20  C17 UNL     1       2.893   2.150  -2.309  1.00  0.00     0.054 C 
BRANCH  20  21
HETATM   21  C18 UNL     1       2.547   3.534  -1.818  1.00  0.00    -0.030 C 
HETATM   22  C19 UNL     1       2.979   4.703  -2.324  1.00  0.00    -0.048 C 
HETATM   23  C20 UNL     1       2.563   6.020  -1.708  1.00  0.00     0.026 C 
HETATM   24  C21 UNL     1       3.895   4.839  -3.516  1.00  0.00     0.026 C 
ENDBRANCH  20  21
ENDBRANCH   3  20
BRANCH   5  25
HETATM   25  O3  UNL     1       5.224   0.725   1.786  1.00  0.00    -0.326 OA
HETATM   26  C16 UNL     1       4.907   1.537   2.893  1.00  0.00     0.181 C 
ENDBRANCH   5  25
TORSDOF 4
