REMARK  2 active torsions:
REMARK  status: ('A' for Active; 'I' for Inactive)
REMARK    1  A    between atoms: C1_1  and  O3_12 
REMARK    2  A    between atoms: C5_5  and  C7_7 
ROOT
HETATM    1  C1  UNL     1       0.160   1.205  -0.060  1.00  0.00     0.118 A 
HETATM    2  C2  UNL     1      -1.131   0.832  -0.020  1.00  0.00     0.141 A 
HETATM    3  C3  UNL     1      -1.512  -0.449   0.050  1.00  0.00     0.121 A 
HETATM    4  C4  UNL     1      -0.615  -1.440   0.083  1.00  0.00     0.022 A 
HETATM    5  C5  UNL     1       0.692  -1.121   0.045  1.00  0.00    -0.018 A 
HETATM    6  C6  UNL     1       1.041   0.181  -0.026  1.00  0.00     0.022 A 
HETATM    7  O1  UNL     1      -2.735  -0.555   0.079  1.00  0.00    -0.299 OA
HETATM    8  C9  UNL     1      -3.279   0.763   0.029  1.00  0.00     0.304 A 
HETATM    9  O2  UNL     1      -2.108   1.577  -0.038  1.00  0.00    -0.298 OA
ENDROOT
BRANCH   1  10
HETATM   10  O3  UNL     1       0.477   2.540  -0.133  1.00  0.00    -0.326 OA
HETATM   11  C10 UNL     1       1.835   2.911  -0.200  1.00  0.00     0.181 C 
ENDBRANCH   1  10
BRANCH   5  12
HETATM   12  C7  UNL     1       1.793  -2.165   0.079  1.00  0.00     0.026 C 
HETATM   13  C8  UNL     1       1.365  -3.635   0.177  1.00  0.00     0.005 C 
ENDBRANCH   5  12
TORSDOF 2
