REMARK  2 active torsions:
REMARK  status: ('A' for Active; 'I' for Inactive)
REMARK    1  A    between atoms: C9_9  and  C11_12 
REMARK    2  A    between atoms: C11_12  and  C12_13 
ROOT
HETATM    1  C1  UNL     1       7.325   1.061   0.152  1.00  0.00     0.002 A 
HETATM    2  C2  UNL     1       7.213  -0.319   0.025  1.00  0.00     0.028 A 
HETATM    3  C3  UNL     1       5.970  -0.970  -0.045  1.00  0.00     0.134 A 
HETATM    4  C4  UNL     1       4.807  -0.180   0.015  1.00  0.00     0.068 A 
HETATM    5  C5  UNL     1       4.916   1.218   0.141  1.00  0.00     0.046 A 
HETATM    6  C6  UNL     1       6.166   1.838   0.210  1.00  0.00     0.004 A 
HETATM    7  C7  UNL     1       3.705   2.065   0.202  1.00  0.00     0.221 A 
HETATM    8  C8  UNL     1       2.368   1.424   0.134  1.00  0.00     0.173 A 
HETATM    9  C9  UNL     1       2.233   0.083   0.018  1.00  0.00     0.068 A 
HETATM   10  C10 UNL     1       3.450  -0.787  -0.050  1.00  0.00     0.200 A 
HETATM   11  O1  UNL     1       3.300  -1.999  -0.158  1.00  0.00    -0.286 OA
HETATM   12  O2  UNL     1       1.353   2.327   0.201  1.00  0.00    -0.187 OA
HETATM   13  O3  UNL     1       3.748   3.288   0.307  1.00  0.00    -0.284 OA
HETATM   14  O4  UNL     1       5.976  -2.326  -0.171  1.00  0.00    -0.190 OA
ENDROOT
BRANCH   9  15
HETATM   15  C11 UNL     1       0.922  -0.692  -0.058  1.00  0.00     0.005 C 
BRANCH  15  16
HETATM   16  C12 UNL     1      -0.432  -0.030   0.001  1.00  0.00    -0.008 C 
HETATM   17  C13 UNL     1      -1.612  -0.671  -0.098  1.00  0.00    -0.044 C 
HETATM   18  C14 UNL     1      -2.921   0.082  -0.026  1.00  0.00     0.026 C 
HETATM   19  C15 UNL     1      -1.756  -2.164  -0.280  1.00  0.00     0.026 C 
ENDBRANCH  15  16
ENDBRANCH   9  15
TORSDOF 2
