REMARK  2 active torsions:
REMARK  status: ('A' for Active; 'I' for Inactive)
REMARK    1  A    between atoms: C1_1  and  O6_22 
REMARK    2  A    between atoms: C7_8  and  C10_12 
ROOT
HETATM    1  C1  UNL     1       6.488   2.160   1.335  1.00  0.00     0.080 C 
HETATM    2  C2  UNL     1       7.238   2.059   0.030  1.00  0.00     0.105 C 
HETATM    3  C3  UNL     1       6.880   1.010  -0.974  1.00  0.00     0.118 C 
HETATM    4  C4  UNL     1       5.664   0.413  -0.849  1.00  0.00     0.065 C 
HETATM    5  C5  UNL     1       4.723   0.720   0.253  1.00  0.00     0.099 C 
HETATM    6  C6  UNL     1       5.138   1.516   1.274  1.00  0.00     0.044 C 
HETATM    7  O1  UNL     1       3.483   0.145   0.349  1.00  0.00    -0.328 OA
HETATM    8  C7  UNL     1       3.283  -1.059  -0.346  1.00  0.00     0.150 C 
HETATM    9  C8  UNL     1       3.700  -0.909  -1.806  1.00  0.00     0.089 C 
HETATM   10  C9  UNL     1       5.171  -0.559  -1.900  1.00  0.00     0.115 C 
HETATM   11  O2  UNL     1       5.925  -1.094  -2.835  1.00  0.00    -0.195 OA
HETATM   12  O5  UNL     1       7.733   0.796  -2.013  1.00  0.00    -0.194 OA
ENDROOT
BRANCH   8  13
HETATM   13  C10 UNL     1       1.827  -1.482  -0.247  1.00  0.00     0.008 A 
HETATM   14  C11 UNL     1       0.806  -0.524  -0.351  1.00  0.00     0.024 A 
HETATM   15  C12 UNL     1      -0.513  -0.952  -0.243  1.00  0.00     0.119 A 
HETATM   16  C13 UNL     1      -0.832  -2.292  -0.053  1.00  0.00     0.119 A 
HETATM   17  O4  UNL     1      -1.679  -0.213  -0.300  1.00  0.00    -0.300 OA
HETATM   18  C14 UNL     1       0.160  -3.263   0.038  1.00  0.00     0.026 A 
HETATM   19  O3  UNL     1      -2.205  -2.426   0.014  1.00  0.00    -0.300 OA
HETATM   20  C15 UNL     1       1.489  -2.834  -0.064  1.00  0.00     0.000 A 
HETATM   21  C16 UNL     1      -2.777  -1.119  -0.131  1.00  0.00     0.304 A 
ENDBRANCH   8  13
BRANCH   1  22
HETATM   22  O6  UNL     1       6.846   3.131   2.232  1.00  0.00    -0.332 OA
HETATM   23  C17 UNL     1       5.827   3.709   3.013  1.00  0.00     0.181 C 
ENDBRANCH   1  22
TORSDOF 2
