REMARK  1 active torsions:
REMARK  status: ('A' for Active; 'I' for Inactive)
REMARK    1  A    between atoms: C10_11  and  C15_17 
ROOT
HETATM    1  C1  UNL     1      -2.241   1.259   0.110  1.00  0.00     0.000 A 
HETATM    2  C2  UNL     1      -2.194  -0.148   0.045  1.00  0.00     0.002 A 
HETATM    3  C3  UNL     1      -0.981  -0.830  -0.003  1.00  0.00     0.018 A 
HETATM    4  C4  UNL     1       0.204  -0.078   0.013  1.00  0.00     0.067 A 
HETATM    5  C5  UNL     1       0.147   1.330   0.075  1.00  0.00     0.018 A 
HETATM    6  C6  UNL     1      -1.075   2.016   0.126  1.00  0.00     0.002 A 
HETATM    7  C7  UNL     1       1.506   1.826   0.069  1.00  0.00     0.021 A 
HETATM    8  C8  UNL     1       2.320   0.689   0.003  1.00  0.00     0.085 A 
HETATM    9  N1  UNL     1       1.562  -0.477  -0.028  1.00  0.00    -0.274 N 
HETATM   10  C9  UNL     1       2.207  -1.691  -0.089  1.00  0.00     0.263 A 
HETATM   11  C10 UNL     1       3.698  -1.714  -0.121  1.00  0.00     0.069 A 
HETATM   12  C11 UNL     1       4.390  -0.540  -0.092  1.00  0.00     0.024 A 
HETATM   13  C12 UNL     1       3.714   0.748  -0.026  1.00  0.00     0.098 A 
HETATM   14  N2  UNL     1       4.308   1.955   0.008  1.00  0.00    -0.243 NA
HETATM   15  C13 UNL     1       3.532   3.052   0.073  1.00  0.00     0.099 A 
HETATM   16  C14 UNL     1       2.127   3.072   0.107  1.00  0.00     0.022 A 
HETATM   17  O2  UNL     1       1.572  -2.748  -0.116  1.00  0.00    -0.267 OA
ENDROOT
BRANCH  11  18
HETATM   18  C15 UNL     1       4.380  -3.062  -0.182  1.00  0.00     0.214 C 
HETATM   19  O1  UNL     1       5.799  -2.975  -0.193  1.00  0.00    -0.215 OA
ENDBRANCH  11  18
TORSDOF 1
