REMARK  1 active torsions:
REMARK  status: ('A' for Active; 'I' for Inactive)
REMARK    1  A    between atoms: C13_14  and  O2_15 
ROOT
HETATM    1  C1  UNL     1      -2.670   3.819  -0.952  1.00  0.00     0.002 A 
HETATM    2  C2  UNL     1      -2.728   4.041   0.423  1.00  0.00     0.029 A 
HETATM    3  C3  UNL     1      -2.692   2.976   1.328  1.00  0.00     0.154 A 
HETATM    4  C4  UNL     1      -2.594   1.659   0.852  1.00  0.00     0.128 A 
HETATM    5  C5  UNL     1      -2.536   1.439  -0.527  1.00  0.00     0.064 A 
HETATM    6  C6  UNL     1      -2.574   2.513  -1.429  1.00  0.00     0.005 A 
HETATM    7  C7  UNL     1      -2.434   0.047  -1.033  1.00  0.00     0.201 A 
HETATM    8  C8  UNL     1      -2.397  -1.064  -0.033  1.00  0.00     0.084 A 
HETATM    9  C9  UNL     1      -2.463  -0.644   1.320  1.00  0.00     0.105 A 
HETATM   10  O1  UNL     1      -2.559   0.647   1.755  1.00  0.00    -0.305 OA
HETATM   11  C10 UNL     1      -2.431  -1.601   2.339  1.00  0.00     0.025 A 
HETATM   12  C11 UNL     1      -2.337  -2.957   2.060  1.00  0.00     0.004 A 
HETATM   13  C12 UNL     1      -2.277  -3.340   0.727  1.00  0.00     0.024 A 
HETATM   14  C13 UNL     1      -2.305  -2.449  -0.360  1.00  0.00     0.099 A 
HETATM   15  O3  UNL     1      -2.385  -0.080  -2.248  1.00  0.00    -0.286 OA
HETATM   16  O4  UNL     1      -2.748   3.194   2.669  1.00  0.00    -0.188 OA
ENDROOT
BRANCH  14  17
HETATM   17  O2  UNL     1      -2.231  -3.136  -1.555  1.00  0.00    -0.328 OA
HETATM   18  C14 UNL     1      -2.219  -2.566  -2.833  1.00  0.00     0.181 C 
ENDBRANCH  14  17
TORSDOF 1
