REMARK  6 active torsions:
REMARK  status: ('A' for Active; 'I' for Inactive)
REMARK    1  A    between atoms: C5_5  and  C7_7 
REMARK    2  A    between atoms: C8_8  and  C9_9 
REMARK    3  A    between atoms: C9_9  and  O2_11 
REMARK    4  A    between atoms: O2_11  and  C10_12 
REMARK    5  A    between atoms: C12_14  and  C16_20 
REMARK    6  A    between atoms: C16_20  and  C17_21 
ROOT
HETATM    1  C10 UNL     1      -0.009  -0.755  -2.615  1.00  0.00     0.160 C 
HETATM    2  C11 UNL     1      -1.530  -0.572  -2.607  1.00  0.00     0.064 C 
HETATM    3  C12 UNL     1      -2.247  -1.224  -1.413  1.00  0.00     0.142 C 
HETATM    4  C13 UNL     1      -1.830  -2.696  -1.309  1.00  0.00     0.067 C 
HETATM    5  C14 UNL     1      -0.313  -2.889  -1.301  1.00  0.00     0.187 C 
HETATM    6  C15 UNL     1       0.367  -2.226  -2.485  1.00  0.00     0.210 C 
HETATM    7  O3  UNL     1      -0.007  -2.928  -3.647  1.00  0.00    -0.218 OA
HETATM    8  O4  UNL     1      -0.019  -4.265  -1.361  1.00  0.00    -0.221 OA
HETATM    9  O7  UNL     1      -3.627  -1.185  -1.692  1.00  0.00    -0.225 OA
ENDROOT
BRANCH   1  10
HETATM   10  O2  UNL     1       0.552  -0.057  -1.541  1.00  0.00    -0.298 OA
BRANCH  10  11
HETATM   11  C9  UNL     1       1.283   1.082  -1.728  1.00  0.00     0.296 C 
HETATM   12  O1  UNL     1       1.525   1.487  -2.846  1.00  0.00    -0.259 OA
BRANCH  11  13
HETATM   13  C8  UNL     1       1.740   1.816  -0.674  1.00  0.00     0.068 C 
HETATM   14  C7  UNL     1       1.511   1.461   0.604  1.00  0.00     0.005 C 
BRANCH  14  15
HETATM   15  C5  UNL     1       1.899   2.098   1.729  1.00  0.00     0.000 A 
HETATM   16  C4  UNL     1       1.552   1.575   2.923  1.00  0.00     0.002 A 
HETATM   17  C3  UNL     1       1.903   2.160   4.079  1.00  0.00     0.027 A 
HETATM   18  C2  UNL     1       2.618   3.295   4.097  1.00  0.00     0.131 A 
HETATM   19  C1  UNL     1       2.967   3.819   2.911  1.00  0.00     0.027 A 
HETATM   20  O8  UNL     1       2.970   3.882   5.272  1.00  0.00    -0.190 OA
HETATM   21  C6  UNL     1       2.617   3.237   1.752  1.00  0.00     0.002 A 
ENDBRANCH  14  15
ENDBRANCH  11  13
ENDBRANCH  10  11
ENDBRANCH   1  10
BRANCH   3  22
HETATM   22  C16 UNL     1      -2.048  -0.451  -0.100  1.00  0.00     0.128 C 
BRANCH  22  23
HETATM   23  C17 UNL     1      -3.090  -0.754   0.960  1.00  0.00     0.188 C 
HETATM   24  O5  UNL     1      -2.898  -0.023   2.073  1.00  0.00    -0.647 OA
HETATM   25  O6  UNL     1      -4.005  -1.534   0.851  1.00  0.00    -0.647 OA
ENDBRANCH  22  23
ENDBRANCH   3  22
TORSDOF 6
