REMARK  3 active torsions:
REMARK  status: ('A' for Active; 'I' for Inactive)
REMARK    1  A    between atoms: C5_5  and  C7_7 
REMARK    2  A    between atoms: C7_7  and  C8_8 
REMARK    3  A    between atoms: C8_8  and  C9_9 
ROOT
HETATM    1  C7  UNL     1       0.199   0.250   0.709  1.00  0.00     0.031 C 
ENDROOT
BRANCH   1   2
HETATM    2  C5  UNL     1       0.896   1.563   0.709  1.00  0.00    -0.020 A 
HETATM    3  C4  UNL     1       0.150   2.756   0.709  1.00  0.00     0.023 A 
HETATM    4  C3  UNL     1       0.805   4.000   0.709  1.00  0.00     0.131 A 
HETATM    5  C2  UNL     1       2.211   4.047   0.709  1.00  0.00     0.027 A 
HETATM    6  O2  UNL     1       0.107   5.117   0.709  1.00  0.00    -0.190 OA
HETATM    7  C1  UNL     1       2.957   2.857   0.709  1.00  0.00     0.002 A 
HETATM    8  C6  UNL     1       2.301   1.615   0.709  1.00  0.00    -0.004 A 
ENDBRANCH   1   2
BRANCH   1   9
HETATM    9  C8  UNL     1      -0.068  -0.244  -0.711  1.00  0.00     0.031 C 
BRANCH   9  10
HETATM   10  C9  UNL     1      -0.764  -1.559  -0.711  1.00  0.00    -0.022 A 
HETATM   11  C10 UNL     1      -2.170  -1.611  -0.713  1.00  0.00    -0.002 A 
HETATM   12  C11 UNL     1      -2.826  -2.854  -0.711  1.00  0.00     0.027 A 
HETATM   13  C12 UNL     1      -2.082  -4.047  -0.709  1.00  0.00     0.131 A 
HETATM   14  C13 UNL     1      -0.676  -3.990  -0.707  1.00  0.00     0.027 A 
HETATM   15  O1  UNL     1      -2.697  -5.211  -0.707  1.00  0.00    -0.190 OA
HETATM   16  C14 UNL     1      -0.018  -2.750  -0.709  1.00  0.00    -0.002 A 
ENDBRANCH   9  10
ENDBRANCH   1   9
TORSDOF 3
