REMARK  10 active torsions:
REMARK  status: ('A' for Active; 'I' for Inactive)
REMARK    1  A    between atoms: C6_6  and  C7_7 
REMARK    2  A    between atoms: C8_8  and  C9_9 
REMARK    3  A    between atoms: C10_10  and  C11_11 
REMARK    4  A    between atoms: C12_12  and  C13_13 
REMARK    5  A    between atoms: C14_14  and  C15_15 
REMARK    6  A    between atoms: C16_16  and  C17_17 
REMARK    7  A    between atoms: C18_18  and  C19_19 
REMARK    8  A    between atoms: C20_20  and  C21_21 
REMARK    9  A    between atoms: C22_22  and  C23_23 
REMARK   10  A    between atoms: C24_24  and  C25_25 
ROOT
HETATM    1  C15 UNL     1       0.219   1.727  -0.219  1.00  0.00    -0.000 C 
HETATM    2  C16 UNL     1      -0.299   1.119  -1.297  1.00  0.00    -0.000 C 
ENDROOT
BRANCH   1   3
HETATM    3  C14 UNL     1       1.477   2.477  -0.314  1.00  0.00    -0.004 C 
HETATM    4  C13 UNL     1       1.871   3.285   0.684  1.00  0.00    -0.022 C 
HETATM    5  C36 UNL     1       0.994   3.400   1.902  1.00  0.00     0.031 C 
BRANCH   4   6
HETATM    6  C12 UNL     1       3.127   4.035   0.588  1.00  0.00    -0.004 C 
HETATM    7  C11 UNL     1       4.215   3.643   1.270  1.00  0.00    -0.001 C 
BRANCH   7   8
HETATM    8  C10 UNL     1       4.168   2.453   2.129  1.00  0.00    -0.004 C 
HETATM    9  C9  UNL     1       5.195   2.154   2.941  1.00  0.00    -0.022 C 
HETATM   10  C37 UNL     1       5.098   0.922   3.801  1.00  0.00     0.031 C 
BRANCH   9  11
HETATM   11  C8  UNL     1       6.387   3.012   2.988  1.00  0.00    -0.005 C 
HETATM   12  C7  UNL     1       6.857   3.465   4.162  1.00  0.00    -0.005 C 
BRANCH  12  13
HETATM   13  C6  UNL     1       8.055   4.328   4.209  1.00  0.00    -0.030 C 
HETATM   14  C1  UNL     1       7.856   5.828   4.027  1.00  0.00     0.021 C 
HETATM   15  C2  UNL     1       9.082   6.650   4.473  1.00  0.00     0.037 C 
HETATM   16  C39 UNL     1       6.635   6.299   4.830  1.00  0.00     0.004 C 
HETATM   17  C40 UNL     1       7.588   6.080   2.539  1.00  0.00     0.004 C 
HETATM   18  C3  UNL     1      10.375   6.035   3.934  1.00  0.00     0.157 C 
HETATM   19  C4  UNL     1      10.547   4.615   4.488  1.00  0.00     0.055 C 
HETATM   20  O2  UNL     1      11.479   6.830   4.318  1.00  0.00    -0.223 OA
HETATM   21  C5  UNL     1       9.281   3.785   4.400  1.00  0.00    -0.045 C 
HETATM   22  C38 UNL     1       9.453   2.291   4.543  1.00  0.00     0.026 C 
ENDBRANCH  12  13
ENDBRANCH   9  11
ENDBRANCH   7   8
ENDBRANCH   4   6
ENDBRANCH   1   3
BRANCH   2  23
HETATM   23  C17 UNL     1      -1.557   0.367  -1.201  1.00  0.00    -0.004 C 
HETATM   24  C18 UNL     1      -1.930  -0.473  -2.182  1.00  0.00    -0.022 C 
HETATM   25  C35 UNL     1      -1.029  -0.623  -3.379  1.00  0.00     0.031 C 
BRANCH  24  26
HETATM   26  C19 UNL     1      -3.176  -1.248  -2.137  1.00  0.00    -0.004 C 
HETATM   27  C20 UNL     1      -3.227  -2.488  -2.650  1.00  0.00    -0.001 C 
BRANCH  27  28
HETATM   28  C21 UNL     1      -4.471  -3.266  -2.606  1.00  0.00    -0.004 C 
HETATM   29  C22 UNL     1      -4.463  -4.586  -2.854  1.00  0.00    -0.022 C 
HETATM   30  C34 UNL     1      -3.150  -5.248  -3.174  1.00  0.00     0.031 C 
BRANCH  29  31
HETATM   31  C23 UNL     1      -5.676  -5.412  -2.824  1.00  0.00    -0.009 C 
HETATM   32  C24 UNL     1      -6.871  -4.885  -3.137  1.00  0.00    -0.023 C 
BRANCH  32  33
HETATM   33  C25 UNL     1      -8.088  -5.777  -3.090  1.00  0.00     0.040 C 
HETATM   34  C26 UNL     1      -8.826  -5.850  -4.453  1.00  0.00     0.010 C 
HETATM   35  C27 UNL     1      -9.580  -4.527  -4.682  1.00  0.00     0.038 C 
HETATM   36  C32 UNL     1      -7.838  -6.094  -5.600  1.00  0.00     0.001 C 
HETATM   37  C33 UNL     1      -9.822  -7.020  -4.445  1.00  0.00     0.001 C 
HETATM   38  C28 UNL     1     -10.612  -4.266  -3.566  1.00  0.00     0.174 C 
HETATM   39  C29 UNL     1     -10.112  -4.596  -2.176  1.00  0.00    -0.002 C 
HETATM   40  O1  UNL     1     -11.014  -2.914  -3.619  1.00  0.00    -0.219 OA
HETATM   41  C30 UNL     1      -8.977  -5.297  -1.959  1.00  0.00    -0.042 C 
HETATM   42  C31 UNL     1      -8.559  -5.623  -0.547  1.00  0.00     0.026 C 
ENDBRANCH  32  33
ENDBRANCH  29  31
ENDBRANCH  27  28
ENDBRANCH  24  26
ENDBRANCH   2  23
TORSDOF 10
