REMARK  6 active torsions:
REMARK  status: ('A' for Active; 'I' for Inactive)
REMARK    1  A    between atoms: C3_3  and  O10_40 
REMARK    2  A    between atoms: C7_8  and  C25_32 
REMARK    3  A    between atoms: C9_10  and  C10_11 
REMARK    4  A    between atoms: C16_18  and  C19_22 
REMARK    5  A    between atoms: O10_40  and  C31_41 
REMARK    6  A    between atoms: C32_43  and  C36_50 
ROOT
HETATM    1  C1  UNL     1      -2.871   1.301  -1.408  1.00  0.00     0.135 A 
HETATM    2  C2  UNL     1      -2.838  -0.103  -1.258  1.00  0.00     0.051 A 
HETATM    3  C3  UNL     1      -1.602  -0.775  -1.119  1.00  0.00     0.097 A 
HETATM    4  C4  UNL     1      -0.383  -0.043  -1.123  1.00  0.00     0.027 A 
HETATM    5  C5  UNL     1      -0.422   1.377  -1.271  1.00  0.00     0.095 A 
HETATM    6  C6  UNL     1      -1.664   2.037  -1.416  1.00  0.00     0.051 A 
HETATM    7  O1  UNL     1       0.703   2.125  -1.287  1.00  0.00    -0.329 OA
HETATM    8  C7  UNL     1       1.967   1.566  -0.908  1.00  0.00     0.144 C 
HETATM    9  C8  UNL     1       2.098   0.139  -1.471  1.00  0.00     0.044 C 
HETATM   10  C9  UNL     1       0.926  -0.740  -0.980  1.00  0.00     0.055 C 
HETATM   11  O16 UNL     1      -4.043   1.934  -1.541  1.00  0.00    -0.190 OA
ENDROOT
BRANCH  10  12
HETATM   12  C10 UNL     1       1.111  -1.158   0.426  1.00  0.00     0.030 A 
HETATM   13  C11 UNL     1       1.830  -2.342   0.723  1.00  0.00     0.131 A 
HETATM   14  C12 UNL     1       2.010  -2.744   2.066  1.00  0.00     0.055 A 
HETATM   15  O7  UNL     1       2.348  -3.086  -0.266  1.00  0.00    -0.190 OA
HETATM   16  C13 UNL     1       1.457  -1.978   3.119  1.00  0.00     0.138 A 
HETATM   17  C14 UNL     1       0.721  -0.801   2.824  1.00  0.00     0.082 A 
HETATM   18  O6  UNL     1       1.633  -2.385   4.385  1.00  0.00    -0.190 OA
HETATM   19  C15 UNL     1       0.574  -0.371   1.475  1.00  0.00     0.097 A 
HETATM   20  C18 UNL     1       0.090  -0.008   3.918  1.00  0.00     0.180 C 
HETATM   21  O2  UNL     1      -0.068   0.779   1.170  1.00  0.00    -0.329 OA
HETATM   22  C16 UNL     1      -0.287   1.791   2.166  1.00  0.00     0.151 C 
HETATM   23  C17 UNL     1      -0.777   1.152   3.479  1.00  0.00     0.104 C 
HETATM   24  O3  UNL     1       0.195  -0.203   5.109  1.00  0.00    -0.291 OA
BRANCH  22  25
HETATM   25  C19 UNL     1       0.959   2.594   2.354  1.00  0.00     0.008 A 
HETATM   26  C20 UNL     1       1.467   3.363   1.291  1.00  0.00     0.028 A 
HETATM   27  C21 UNL     1       2.637   4.121   1.463  1.00  0.00     0.156 A 
HETATM   28  C22 UNL     1       3.303   4.111   2.703  1.00  0.00     0.156 A 
HETATM   29  O5  UNL     1       3.107   4.840   0.463  1.00  0.00    -0.188 OA
HETATM   30  C23 UNL     1       2.795   3.342   3.766  1.00  0.00     0.029 A 
HETATM   31  O4  UNL     1       4.402   4.819   2.875  1.00  0.00    -0.188 OA
HETATM   32  C24 UNL     1       1.623   2.584   3.592  1.00  0.00     0.000 A 
ENDBRANCH  22  25
ENDBRANCH  10  12
BRANCH   3  33
HETATM   33  O10 UNL     1      -1.590  -2.109  -0.986  1.00  0.00    -0.304 OA
BRANCH  33  34
HETATM   34  C31 UNL     1      -2.736  -2.834  -1.414  1.00  0.00     0.274 C 
HETATM   35  O11 UNL     1      -3.676  -2.879  -0.348  1.00  0.00    -0.326 OA
HETATM   36  C32 UNL     1      -4.899  -3.541  -0.652  1.00  0.00     0.184 C 
HETATM   37  C33 UNL     1      -4.608  -5.014  -1.018  1.00  0.00     0.215 C 
HETATM   38  C34 UNL     1      -3.576  -5.117  -2.162  1.00  0.00     0.220 C 
HETATM   39  O14 UNL     1      -5.820  -5.633  -1.406  1.00  0.00    -0.218 OA
HETATM   40  C35 UNL     1      -2.334  -4.268  -1.818  1.00  0.00     0.241 C 
HETATM   41  O13 UNL     1      -3.197  -6.473  -2.348  1.00  0.00    -0.218 OA
HETATM   42  O12 UNL     1      -1.469  -4.197  -2.937  1.00  0.00    -0.215 OA
BRANCH  36  43
HETATM   43  C36 UNL     1      -5.801  -3.398   0.578  1.00  0.00     0.214 C 
HETATM   44  O15 UNL     1      -6.139  -2.039   0.725  1.00  0.00    -0.218 OA
ENDBRANCH  36  43
ENDBRANCH  33  34
ENDBRANCH   3  33
BRANCH   8  45
HETATM   45  C25 UNL     1       3.057   2.465  -1.379  1.00  0.00     0.007 A 
HETATM   46  C26 UNL     1       2.853   3.291  -2.498  1.00  0.00     0.028 A 
HETATM   47  C27 UNL     1       3.879   4.141  -2.947  1.00  0.00     0.156 A 
HETATM   48  C28 UNL     1       5.113   4.166  -2.271  1.00  0.00     0.156 A 
HETATM   49  O9  UNL     1       3.682   4.912  -3.998  1.00  0.00    -0.188 OA
HETATM   50  C29 UNL     1       5.314   3.340  -1.150  1.00  0.00     0.029 A 
HETATM   51  O8  UNL     1       6.080   4.961  -2.684  1.00  0.00    -0.188 OA
HETATM   52  C30 UNL     1       4.289   2.490  -0.705  1.00  0.00     0.000 A 
ENDBRANCH   8  45
TORSDOF 6
