REMARK  4 active torsions:
REMARK  status: ('A' for Active; 'I' for Inactive)
REMARK    1  A    between atoms: C2_3  and  O2_4 
REMARK    2  A    between atoms: O2_4  and  C3_5 
REMARK    3  A    between atoms: C4_7  and  C8_14 
REMARK    4  A    between atoms: C11_18  and  C13_20 
ROOT
HETATM    1  O1  UNL     1      -0.750   2.164  -2.668  1.00  0.00    -0.188 OA
HETATM    2  C1  UNL     1      -0.590   1.236  -1.744  1.00  0.00     0.153 A 
HETATM    3  C2  UNL     1       0.648   1.090  -1.094  1.00  0.00     0.122 A 
HETATM    4  C9  UNL     1       0.811   0.100  -0.111  1.00  0.00     0.026 A 
HETATM    5  C10 UNL     1      -0.262  -0.746   0.227  1.00  0.00     0.004 A 
HETATM    6  C11 UNL     1      -1.500  -0.600  -0.424  1.00  0.00     0.025 A 
HETATM    7  C12 UNL     1      -1.662   0.391  -1.406  1.00  0.00     0.031 A 
ENDROOT
BRANCH   6   8
HETATM    8  C13 UNL     1      -2.641  -1.496  -0.068  1.00  0.00     0.103 A 
HETATM    9  O8  UNL     1      -3.908  -1.066  -0.234  1.00  0.00    -0.307 OA
HETATM   10  C14 UNL     1      -4.996  -1.813   0.063  1.00  0.00     0.107 A 
HETATM   11  C15 UNL     1      -4.844  -3.127   0.582  1.00  0.00     0.087 A 
HETATM   12  C21 UNL     1      -6.291  -1.285  -0.142  1.00  0.00     0.052 A 
HETATM   13  C16 UNL     1      -3.467  -3.656   0.785  1.00  0.00     0.202 A 
HETATM   14  C18 UNL     1      -5.984  -3.910   0.895  1.00  0.00     0.138 A 
HETATM   15  C17 UNL     1      -2.373  -2.731   0.416  1.00  0.00     0.067 A 
HETATM   16  O9  UNL     1      -3.150  -4.744   1.211  1.00  0.00    -0.286 OA
HETATM   17  C19 UNL     1      -7.277  -3.373   0.688  1.00  0.00     0.055 A 
HETATM   18  O11 UNL     1      -5.858  -5.151   1.387  1.00  0.00    -0.190 OA
HETATM   19  C20 UNL     1      -7.432  -2.065   0.170  1.00  0.00     0.135 A 
HETATM   20  O10 UNL     1      -8.658  -1.561  -0.025  1.00  0.00    -0.190 OA
ENDBRANCH   6   8
BRANCH   3  21
HETATM   21  O2  UNL     1       1.658   1.879  -1.404  1.00  0.00    -0.301 OA
BRANCH  21  22
HETATM   22  C3  UNL     1       2.947   1.539  -0.906  1.00  0.00     0.274 C 
HETATM   23  O3  UNL     1       3.022   1.910   0.463  1.00  0.00    -0.326 OA
HETATM   24  C4  UNL     1       4.246   1.584   1.106  1.00  0.00     0.184 C 
HETATM   25  C5  UNL     1       5.406   2.332   0.412  1.00  0.00     0.215 C 
HETATM   26  C6  UNL     1       5.438   2.043  -1.105  1.00  0.00     0.220 C 
HETATM   27  O6  UNL     1       6.629   1.924   1.002  1.00  0.00    -0.218 OA
HETATM   28  C7  UNL     1       4.035   2.285  -1.709  1.00  0.00     0.241 C 
HETATM   29  O5  UNL     1       6.385   2.885  -1.740  1.00  0.00    -0.218 OA
HETATM   30  O4  UNL     1       4.000   1.830  -3.049  1.00  0.00    -0.215 OA
BRANCH  24  31
HETATM   31  C8  UNL     1       4.086   1.967   2.580  1.00  0.00     0.214 C 
HETATM   32  O7  UNL     1       3.064   1.168   3.135  1.00  0.00    -0.218 OA
ENDBRANCH  24  31
ENDBRANCH  21  22
ENDBRANCH   3  21
TORSDOF 4
