REMARK  0 active torsions:
REMARK  status: ('A' for Active; 'I' for Inactive)
ROOT
HETATM    1  C1  UNL     1      -2.590   0.543  -1.667  1.00  0.00     0.026 C 
HETATM    2  C2  UNL     1      -2.111  -0.856  -2.070  1.00  0.00     0.120 C 
HETATM    3  N1  UNL     1      -1.254  -1.471  -1.056  1.00  0.00    -0.295 NA
HETATM    4  C3  UNL     1      -0.372  -0.565  -0.305  1.00  0.00     0.099 C 
HETATM    5  C4  UNL     1      -0.124   0.729  -1.099  1.00  0.00     0.025 C 
HETATM    6  C5  UNL     1      -1.387   1.489  -1.545  1.00  0.00     0.004 C 
HETATM    7  C6  UNL     1       0.899   1.573  -0.320  1.00  0.00     0.008 C 
HETATM    8  C7  UNL     1       2.261   0.883  -0.517  1.00  0.00     0.046 C 
HETATM    9  C8  UNL     1       2.160  -0.594  -0.200  1.00  0.00     0.057 A 
HETATM   10  C9  UNL     1       0.983  -1.250  -0.099  1.00  0.00     0.011 A 
HETATM   11  C10 UNL     1       1.034  -2.559   0.207  1.00  0.00     0.000 A 
HETATM   12  C11 UNL     1       2.225  -3.149   0.382  1.00  0.00     0.020 A 
HETATM   13  C12 UNL     1       3.320  -2.389   0.247  1.00  0.00     0.099 A 
HETATM   14  N2  UNL     1       3.283  -1.157  -0.032  1.00  0.00    -0.249 NA
HETATM   15  C13 UNL     1       0.594   1.693   1.190  1.00  0.00     0.001 C 
HETATM   16  C14 UNL     1      -0.787   1.163   1.594  1.00  0.00     0.002 C 
HETATM   17  C15 UNL     1      -0.989  -0.276   1.087  1.00  0.00     0.026 C 
HETATM   18  C16 UNL     1      -1.011   1.257   3.113  1.00  0.00     0.000 C 
ENDROOT
TORSDOF 0
