REMARK  18 active torsions:
REMARK  status: ('A' for Active; 'I' for Inactive)
REMARK    1  A    between atoms: C2_2  and  C3_3 
REMARK    2  A    between atoms: C4_5  and  C5_6 
REMARK    3  A    between atoms: C5_6  and  C6_7 
REMARK    4  A    between atoms: C6_7  and  C7_8 
REMARK    5  A    between atoms: C9_10  and  C10_11 
REMARK    6  A    between atoms: C11_12  and  C12_13 
REMARK    7  A    between atoms: C14_15  and  C15_16 
REMARK    8  A    between atoms: C16_17  and  C17_18 
REMARK    9  A    between atoms: C19_20  and  C20_21 
REMARK   10  A    between atoms: C21_22  and  C22_23 
REMARK   11  A    between atoms: C23_24  and  C24_25 
REMARK   12  A    between atoms: C25_26  and  C26_27 
REMARK   13  A    between atoms: C27_28  and  C28_29 
REMARK   14  A    between atoms: C29_30  and  C30_31 
REMARK   15  A    between atoms: C31_32  and  C32_33 
REMARK   16  A    between atoms: C32_33  and  C33_34 
REMARK   17  A    between atoms: C33_34  and  C34_35 
REMARK   18  A    between atoms: C35_36  and  C37_38 
ROOT
HETATM    1  C20 UNL     1      -3.149  -2.114  -1.406  1.00  0.00    -0.000 C 
HETATM    2  C21 UNL     1      -2.131  -2.932  -1.079  1.00  0.00    -0.000 C 
ENDROOT
BRANCH   1   3
HETATM    3  C19 UNL     1      -4.428  -2.510  -1.522  1.00  0.00    -0.004 C 
HETATM    4  C17 UNL     1      -5.503  -1.746  -1.809  1.00  0.00    -0.022 C 
HETATM    5  C18 UNL     1      -6.709  -2.493  -2.369  1.00  0.00     0.031 C 
BRANCH   4   6
HETATM    6  C16 UNL     1      -5.617  -0.404  -1.730  1.00  0.00    -0.004 C 
HETATM    7  C15 UNL     1      -4.951   0.573  -1.082  1.00  0.00    -0.001 C 
BRANCH   7   8
HETATM    8  C14 UNL     1      -4.049   0.504  -0.084  1.00  0.00    -0.004 C 
HETATM    9  C12 UNL     1      -3.406   1.524   0.529  1.00  0.00    -0.022 C 
HETATM   10  C13 UNL     1      -2.102   1.182   1.239  1.00  0.00     0.031 C 
BRANCH   9  11
HETATM   11  C11 UNL     1      -3.746   2.832   0.530  1.00  0.00    -0.004 C 
HETATM   12  C10 UNL     1      -4.944   3.428   0.371  1.00  0.00    -0.001 C 
BRANCH  12  13
HETATM   13  C9  UNL     1      -6.122   2.796   0.499  1.00  0.00    -0.009 C 
HETATM   14  C7  UNL     1      -7.375   3.270   0.364  1.00  0.00    -0.044 C 
HETATM   15  C8  UNL     1      -7.718   4.698   0.004  1.00  0.00     0.026 C 
BRANCH  14  16
HETATM   16  C6  UNL     1      -8.594   2.367   0.512  1.00  0.00     0.027 C 
BRANCH  16  17
HETATM   17  C5  UNL     1      -8.312   0.902   0.885  1.00  0.00     0.030 C 
BRANCH  17  18
HETATM   18  C4  UNL     1      -9.520   0.004   0.911  1.00  0.00    -0.032 C 
HETATM   19  C2  UNL     1      -9.478  -1.298   1.246  1.00  0.00    -0.015 C 
HETATM   20  C1  UNL     1     -10.705  -2.173   1.160  1.00  0.00     0.029 C 
BRANCH  19  21
HETATM   21  C3  UNL     1      -8.214  -1.998   1.686  1.00  0.00     0.204 C 
HETATM   22  O1  UNL     1      -7.505  -2.486   0.556  1.00  0.00    -0.216 OA
ENDBRANCH  19  21
ENDBRANCH  17  18
ENDBRANCH  16  17
ENDBRANCH  14  16
ENDBRANCH  12  13
ENDBRANCH   9  11
ENDBRANCH   7   8
ENDBRANCH   4   6
ENDBRANCH   1   3
BRANCH   2  23
HETATM   23  C22 UNL     1      -0.870  -2.475  -0.955  1.00  0.00    -0.004 C 
HETATM   24  C23 UNL     1       0.242  -3.160  -0.606  1.00  0.00    -0.022 C 
HETATM   25  C40 UNL     1       0.234  -4.647  -0.302  1.00  0.00     0.031 C 
BRANCH  24  26
HETATM   26  C24 UNL     1       1.397  -2.463  -0.520  1.00  0.00    -0.004 C 
HETATM   27  C25 UNL     1       2.607  -2.950  -0.182  1.00  0.00    -0.001 C 
BRANCH  27  28
HETATM   28  C26 UNL     1       3.700  -2.165  -0.118  1.00  0.00    -0.004 C 
HETATM   29  C27 UNL     1       4.952  -2.560   0.203  1.00  0.00    -0.022 C 
HETATM   30  C39 UNL     1       5.214  -4.022   0.529  1.00  0.00     0.031 C 
BRANCH  29  31
HETATM   31  C28 UNL     1       6.004  -1.712   0.243  1.00  0.00    -0.004 C 
HETATM   32  C29 UNL     1       6.028  -0.386   0.010  1.00  0.00    -0.001 C 
BRANCH  32  33
HETATM   33  C30 UNL     1       7.153   0.351   0.067  1.00  0.00    -0.009 C 
HETATM   34  C31 UNL     1       7.262   1.678  -0.147  1.00  0.00    -0.044 C 
HETATM   35  C38 UNL     1       6.107   2.605  -0.475  1.00  0.00     0.026 C 
BRANCH  34  36
HETATM   36  C32 UNL     1       8.586   2.423  -0.087  1.00  0.00     0.027 C 
BRANCH  36  37
HETATM   37  C33 UNL     1       9.864   1.609   0.175  1.00  0.00     0.030 C 
BRANCH  37  38
HETATM   38  C34 UNL     1      11.102   2.474   0.174  1.00  0.00    -0.032 C 
HETATM   39  C35 UNL     1      12.359   2.032   0.360  1.00  0.00    -0.015 C 
HETATM   40  C36 UNL     1      12.708   0.584   0.605  1.00  0.00     0.029 C 
BRANCH  39  41
HETATM   41  C37 UNL     1      13.534   2.982   0.335  1.00  0.00     0.204 C 
HETATM   42  O2  UNL     1      14.427   2.659  -0.724  1.00  0.00    -0.216 OA
ENDBRANCH  39  41
ENDBRANCH  37  38
ENDBRANCH  36  37
ENDBRANCH  34  36
ENDBRANCH  32  33
ENDBRANCH  29  31
ENDBRANCH  27  28
ENDBRANCH  24  26
ENDBRANCH   2  23
TORSDOF 18
