REMARK  0 active torsions:
REMARK  status: ('A' for Active; 'I' for Inactive)
ROOT
HETATM    1  C1  UNL     1      -2.762   0.947   1.554  1.00  0.00     0.147 A 
HETATM    2  C2  UNL     1      -3.593  -0.175   1.635  1.00  0.00     0.145 A 
HETATM    3  C3  UNL     1      -2.741  -1.445   1.505  1.00  0.00     0.056 C 
HETATM    4  C4  UNL     1      -1.468  -0.905   0.758  1.00  0.00     0.164 C 
HETATM    5  C5  UNL     1      -1.313   0.483   1.405  1.00  0.00     0.088 C 
HETATM    6  C6  UNL     1      -0.316   1.556   0.915  1.00  0.00     0.132 C 
HETATM    7  C7  UNL     1       0.937   1.010   0.188  1.00  0.00     0.031 C 
HETATM    8  C8  UNL     1       0.719   0.315  -1.200  1.00  0.00     0.035 C 
HETATM    9  C9  UNL     1      -0.723  -0.013  -1.628  1.00  0.00     0.185 C 
HETATM   10  C10 UNL     1      -1.600  -0.909  -0.760  1.00  0.00     0.210 C 
HETATM   11  O1  UNL     1      -1.381  -2.241  -1.176  1.00  0.00    -0.218 OA
HETATM   12  O2  UNL     1      -1.440   1.136  -2.028  1.00  0.00    -0.221 OA
HETATM   13  C11 UNL     1       1.378   1.166  -2.317  1.00  0.00     0.005 C 
HETATM   14  C12 UNL     1       2.873   0.973  -2.028  1.00  0.00     0.028 C 
HETATM   15  C13 UNL     1       3.241   1.796  -0.787  1.00  0.00     0.003 C 
HETATM   16  C14 UNL     1       2.033   2.105   0.109  1.00  0.00     0.003 C 
HETATM   17  C15 UNL     1       2.971  -0.549  -1.857  1.00  0.00     0.127 C 
HETATM   18  C16 UNL     1       1.605  -0.964  -1.298  1.00  0.00     0.033 C 
HETATM   19  C17 UNL     1       4.139  -1.081  -1.029  1.00  0.00     0.033 C 
HETATM   20  O3  UNL     1       3.112  -1.105  -3.143  1.00  0.00    -0.226 OA
HETATM   21  C18 UNL     1       0.047   2.404   2.156  1.00  0.00     0.033 C 
HETATM   22  O4  UNL     1      -0.967   2.457   0.063  1.00  0.00    -0.226 OA
HETATM   23  O5  UNL     1      -0.371  -1.718   1.073  1.00  0.00    -0.223 OA
HETATM   24  C19 UNL     1      -3.545  -2.537   0.759  1.00  0.00     0.005 C 
HETATM   25  C20 UNL     1      -2.418  -2.080   2.884  1.00  0.00     0.005 C 
HETATM   26  O6  UNL     1      -3.314   0.588   2.942  1.00  0.00    -0.354 OA
ENDROOT
TORSDOF 0
