REMARK  8 active torsions:
REMARK  status: ('A' for Active; 'I' for Inactive)
REMARK    1  A    between atoms: N1_1  and  C1_2 
REMARK    2  A    between atoms: N1_1  and  C7_11 
REMARK    3  A    between atoms: C1_2  and  C2_3 
REMARK    4  A    between atoms: C1_2  and  C3_6 
REMARK    5  A    between atoms: C3_6  and  C4_7 
REMARK    6  A    between atoms: C4_7  and  C5_8 
REMARK    7  A    between atoms: C5_8  and  C6_9 
REMARK    8  A    between atoms: C7_11  and  C9_13 
ROOT
HETATM    1  C1  UNL     1      -0.486   0.502  -0.271  1.00  0.00     0.185 C 
ENDROOT
BRANCH   1   2
HETATM    2  N1  UNL     1      -0.613   1.908  -0.670  1.00  0.00    -0.278 NA
BRANCH   2   3
HETATM    3  C7  UNL     1      -1.966   2.468  -0.758  1.00  0.00     0.185 C 
HETATM    4  C8  UNL     1      -2.791   2.277   0.523  1.00  0.00     0.037 C 
BRANCH   3   5
HETATM    5  C9  UNL     1      -2.679   1.971  -2.006  1.00  0.00     0.208 C 
HETATM    6  O3  UNL     1      -2.176   2.522  -3.125  1.00  0.00    -0.646 OA
HETATM    7  O4  UNL     1      -3.585   1.173  -2.044  1.00  0.00    -0.646 OA
ENDBRANCH   3   5
ENDBRANCH   2   3
ENDBRANCH   1   2
BRANCH   1   8
HETATM    8  C2  UNL     1      -1.101  -0.407  -1.323  1.00  0.00     0.208 C 
HETATM    9  O1  UNL     1      -2.094  -1.161  -0.819  1.00  0.00    -0.646 OA
HETATM   10  O2  UNL     1      -0.788  -0.469  -2.488  1.00  0.00    -0.646 OA
ENDBRANCH   1   8
BRANCH   1  11
HETATM   11  C3  UNL     1       1.006   0.173  -0.069  1.00  0.00     0.035 C 
BRANCH  11  12
HETATM   12  C4  UNL     1       1.218  -1.216   0.557  1.00  0.00     0.005 C 
BRANCH  12  13
HETATM   13  C5  UNL     1       2.703  -1.517   0.814  1.00  0.00     0.041 C 
BRANCH  13  14
HETATM   14  C6  UNL     1       2.897  -2.856   1.541  1.00  0.00     0.338 C 
HETATM   15  N2  UNL     1       4.327  -3.117   1.779  1.00  0.00     0.618 N 
ENDBRANCH  13  14
ENDBRANCH  12  13
ENDBRANCH  11  12
ENDBRANCH   1  11
TORSDOF 8
