REMARK  3 active torsions:
REMARK  status: ('A' for Active; 'I' for Inactive)
REMARK    1  A    between atoms: C8_9  and  O2_10 
REMARK    2  A    between atoms: C16_18  and  O4_32 
REMARK    3  A    between atoms: O4_32  and  C28_33 
ROOT
HETATM    1  C1  UNL     1      -1.864   4.169   2.028  1.00  0.00    -0.002 A 
HETATM    2  C2  UNL     1      -1.908   3.046   1.294  1.00  0.00    -0.022 A 
HETATM    3  C3  UNL     1      -0.727   2.484   0.983  1.00  0.00    -0.002 A 
HETATM    4  C4  UNL     1       0.477   2.956   1.376  1.00  0.00     0.027 A 
HETATM    5  C5  UNL     1       0.488   4.100   2.097  1.00  0.00     0.131 A 
HETATM    6  C6  UNL     1      -0.686   4.674   2.417  1.00  0.00     0.027 A 
HETATM    7  O1  UNL     1       1.624   4.645   2.613  1.00  0.00    -0.190 OA
HETATM    8  C7  UNL     1       1.594   2.263   1.035  1.00  0.00     0.024 A 
HETATM    9  C8  UNL     1       2.742   2.845   0.605  1.00  0.00     0.094 A 
HETATM   10  C10 UNL     1       3.766   2.029   0.283  1.00  0.00     0.024 A 
HETATM   11  C11 UNL     1       3.709   0.697   0.409  1.00  0.00    -0.002 A 
HETATM   12  C12 UNL     1       2.585   0.110   0.841  1.00  0.00    -0.022 A 
HETATM   13  C13 UNL     1       1.552   0.916   1.136  1.00  0.00    -0.002 A 
HETATM   14  C14 UNL     1       2.491  -1.399   0.976  1.00  0.00     0.029 C 
HETATM   15  C15 UNL     1       1.323  -2.060   0.215  1.00  0.00     0.040 C 
HETATM   16  C16 UNL     1       1.353  -1.894  -1.308  1.00  0.00     0.147 C 
HETATM   17  C17 UNL     1       0.263  -2.633  -2.121  1.00  0.00     0.010 C 
HETATM   18  C18 UNL     1      -1.103  -3.144  -1.572  1.00  0.00     0.014 C 
HETATM   19  N1  UNL     1      -2.093  -2.228  -0.983  1.00  0.00    -0.232 NA
HETATM   20  C19 UNL     1      -2.398  -2.515   0.413  1.00  0.00     0.066 C 
HETATM   21  C20 UNL     1      -2.997  -3.927   0.580  1.00  0.00     0.017 C 
HETATM   22  C21 UNL     1      -2.378  -4.955  -0.376  1.00  0.00     0.007 C 
HETATM   23  C22 UNL     1      -0.989  -4.483  -0.812  1.00  0.00     0.038 C 
HETATM   24  C23 UNL     1      -3.352  -1.463   1.015  1.00  0.00     0.046 C 
HETATM   25  C24 UNL     1      -2.813  -0.069   0.715  1.00  0.00     0.119 C 
HETATM   26  O3  UNL     1      -2.751   0.057  -0.677  1.00  0.00    -0.340 OA
HETATM   27  C25 UNL     1      -1.800  -0.828  -1.228  1.00  0.00     0.224 C 
HETATM   28  C26 UNL     1      -3.639   1.084   1.288  1.00  0.00     0.034 C 
HETATM   29  C27 UNL     1      -3.235   2.493   0.800  1.00  0.00     0.029 C 
ENDROOT
BRANCH  16  30
HETATM   30  O4  UNL     1       1.338  -0.528  -1.627  1.00  0.00    -0.300 OA
BRANCH  30  31
HETATM   31  C28 UNL     1       2.158   0.063  -2.542  1.00  0.00     0.273 C 
HETATM   32  O5  UNL     1       2.160   1.263  -2.718  1.00  0.00    -0.264 OA
HETATM   33  C29 UNL     1       3.051  -0.851  -3.361  1.00  0.00     0.106 C 
ENDBRANCH  30  31
ENDBRANCH  16  30
BRANCH   9  34
HETATM   34  O2  UNL     1       2.796   4.203   0.388  1.00  0.00    -0.328 OA
HETATM   35  C9  UNL     1       3.690   4.707  -0.577  1.00  0.00     0.181 C 
ENDBRANCH   9  34
TORSDOF 3
