REMARK  0 active torsions:
REMARK  status: ('A' for Active; 'I' for Inactive)
ROOT
HETATM    1  C1  UNL     1      -0.415   1.354  -0.205  1.00  0.00     0.002 C 
HETATM    2  C2  UNL     1      -1.896   1.785  -0.330  1.00  0.00     0.000 C 
HETATM    3  C3  UNL     1      -2.657   1.052  -1.444  1.00  0.00     0.003 C 
HETATM    4  C4  UNL     1      -2.563  -0.469  -1.259  1.00  0.00     0.030 C 
HETATM    5  C5  UNL     1      -1.111  -0.964  -1.230  1.00  0.00     0.127 C 
HETATM    6  C6  UNL     1      -0.317  -0.191  -0.155  1.00  0.00     0.028 C 
HETATM    7  C7  UNL     1       1.112  -0.692   0.058  1.00  0.00     0.002 A 
HETATM    8  C8  UNL     1       2.067   0.103   0.928  1.00  0.00     0.000 A 
HETATM    9  C9  UNL     1       1.579   1.458   1.423  1.00  0.00     0.000 C 
HETATM   10  C10 UNL     1       0.123   1.868   1.155  1.00  0.00     0.000 C 
HETATM   11  C11 UNL     1       1.541  -1.230   1.413  1.00  0.00     0.000 A 
HETATM   12  C12 UNL     1       2.488  -2.425   1.350  1.00  0.00     0.000 C 
HETATM   13  C13 UNL     1       0.615  -1.274   2.619  1.00  0.00     0.000 C 
HETATM   14  C14 UNL     1      -0.526  -0.975  -2.647  1.00  0.00     0.033 C 
HETATM   15  O1  UNL     1      -1.139  -2.313  -0.825  1.00  0.00    -0.226 OA
HETATM   16  C15 UNL     1       0.417   1.996  -1.333  1.00  0.00     0.000 C 
ENDROOT
TORSDOF 0
