REMARK  9 active torsions:
REMARK  status: ('A' for Active; 'I' for Inactive)
REMARK    1  A    between atoms: C1_1  and  C2_2 
REMARK    2  A    between atoms: C2_2  and  O1_3 
REMARK    3  A    between atoms: O1_3  and  C3_4 
REMARK    4  A    between atoms: C5_6  and  O2_7 
REMARK    5  A    between atoms: O2_7  and  C6_8 
REMARK    6  A    between atoms: C7_9  and  O3_10 
REMARK    7  A    between atoms: O3_10  and  C8_11 
REMARK    8  A    between atoms: C18_28  and  C19_30 
REMARK    9  A    between atoms: C39_54  and  C41_56 
ROOT
HETATM    1  C1  UNL     1       1.405   0.633  -3.426  1.00  0.00     0.056 C 
HETATM    2  C20 UNL     1       0.865   1.088  -4.802  1.00  0.00     0.154 C 
HETATM    3  O15 UNL     1       1.676   0.629  -5.859  1.00  0.00    -0.223 OA
HETATM    4  C21 UNL     1       0.696   2.595  -4.932  1.00  0.00     0.033 C 
HETATM    5  C22 UNL     1      -0.318   3.085  -3.890  1.00  0.00     0.003 C 
HETATM    6  C23 UNL     1       0.120   2.817  -2.432  1.00  0.00     0.001 C 
HETATM    7  C24 UNL     1       0.562   1.329  -2.303  1.00  0.00     0.005 C 
HETATM    8  C25 UNL     1       1.038   1.055  -0.869  1.00  0.00     0.000 C 
HETATM    9  C26 UNL     1       0.143   1.651   0.230  1.00  0.00     0.000 C 
HETATM   10  C27 UNL     1      -1.250   2.139  -0.230  1.00  0.00     0.004 C 
HETATM   11  C28 UNL     1      -1.024   3.148  -1.391  1.00  0.00     0.005 C 
HETATM   12  C29 UNL     1      -2.396   3.596  -1.929  1.00  0.00     0.025 C 
HETATM   13  C30 UNL     1      -3.481   3.681  -0.881  1.00  0.00    -0.035 C 
HETATM   14  C31 UNL     1      -3.380   3.316   0.412  1.00  0.00    -0.049 C 
HETATM   15  C32 UNL     1      -2.027   2.848   0.954  1.00  0.00     0.015 C 
HETATM   16  C33 UNL     1      -2.156   1.856   2.141  1.00  0.00     0.004 C 
HETATM   17  C34 UNL     1      -3.279   2.171   3.131  1.00  0.00     0.001 C 
HETATM   18  C35 UNL     1      -4.608   2.321   2.380  1.00  0.00     0.004 C 
HETATM   19  C36 UNL     1      -4.528   3.509   1.404  1.00  0.00     0.018 C 
HETATM   20  C37 UNL     1      -5.914   3.736   0.765  1.00  0.00     0.004 C 
HETATM   21  C38 UNL     1      -7.098   3.873   1.753  1.00  0.00     0.010 C 
HETATM   22  C39 UNL     1      -7.111   2.649   2.698  1.00  0.00     0.087 C 
HETATM   23  C40 UNL     1      -5.754   2.469   3.393  1.00  0.00     0.011 C 
HETATM   24  C42 UNL     1      -8.409   3.905   0.932  1.00  0.00     0.001 C 
HETATM   25  C43 UNL     1      -7.002   5.213   2.516  1.00  0.00     0.001 C 
HETATM   26  C44 UNL     1      -1.358   4.127   1.526  1.00  0.00     0.004 C 
HETATM   27  C45 UNL     1      -2.105   0.931  -0.724  1.00  0.00     0.000 C 
HETATM   28  C46 UNL     1       1.292   3.796  -2.137  1.00  0.00     0.000 C 
HETATM   29  C47 UNL     1       1.169  -0.906  -3.377  1.00  0.00     0.005 C 
ENDROOT
BRANCH   1  30
HETATM   30  C2  UNL     1       2.928   0.860  -3.313  1.00  0.00     0.147 C 
BRANCH  30  31
HETATM   31  O1  UNL     1       3.489   0.099  -2.267  1.00  0.00    -0.329 OA
BRANCH  31  32
HETATM   32  C3  UNL     1       4.844   0.382  -2.014  1.00  0.00     0.270 C 
HETATM   33  C4  UNL     1       5.264  -0.066  -0.629  1.00  0.00     0.238 C 
HETATM   34  C5  UNL     1       5.566  -1.551  -0.487  1.00  0.00     0.186 C 
HETATM   35  O14 UNL     1       6.442   0.642  -0.303  1.00  0.00    -0.215 OA
HETATM   36  C17 UNL     1       6.401  -2.000  -1.677  1.00  0.00     0.211 C 
HETATM   37  C18 UNL     1       5.848  -1.539  -3.017  1.00  0.00     0.184 C 
HETATM   38  O13 UNL     1       7.701  -1.466  -1.527  1.00  0.00    -0.218 OA
HETATM   39  O11 UNL     1       5.648  -0.153  -3.041  1.00  0.00    -0.326 OA
BRANCH  34  40
HETATM   40  O2  UNL     1       4.393  -2.322  -0.379  1.00  0.00    -0.326 OA
BRANCH  40  41
HETATM   41  C6  UNL     1       4.282  -3.041   0.839  1.00  0.00     0.267 C 
HETATM   42  C7  UNL     1       2.998  -3.854   0.867  1.00  0.00     0.207 C 
HETATM   43  C13 UNL     1       2.997  -4.764   2.092  1.00  0.00     0.217 C 
HETATM   44  C14 UNL     1       4.306  -5.508   2.283  1.00  0.00     0.212 C 
HETATM   45  O10 UNL     1       2.707  -3.993   3.233  1.00  0.00    -0.218 OA
HETATM   46  C15 UNL     1       5.532  -4.648   2.023  1.00  0.00     0.151 C 
HETATM   47  O9  UNL     1       4.311  -6.606   1.396  1.00  0.00    -0.218 OA
HETATM   48  O8  UNL     1       5.388  -3.919   0.839  1.00  0.00    -0.329 OA
HETATM   49  C16 UNL     1       5.945  -3.767   3.204  1.00  0.00     0.035 C 
BRANCH  42  50
HETATM   50  O3  UNL     1       1.889  -2.996   0.952  1.00  0.00    -0.324 OA
BRANCH  50  51
HETATM   51  C8  UNL     1       0.853  -3.254   0.028  1.00  0.00     0.270 C 
HETATM   52  O4  UNL     1      -0.011  -2.138   0.127  1.00  0.00    -0.326 OA
HETATM   53  C9  UNL     1      -0.736  -2.090   1.330  1.00  0.00     0.181 C 
HETATM   54  C10 UNL     1      -1.641  -3.299   1.461  1.00  0.00     0.215 C 
HETATM   55  C11 UNL     1      -0.805  -4.559   1.446  1.00  0.00     0.220 C 
HETATM   56  O7  UNL     1      -2.332  -3.250   2.686  1.00  0.00    -0.218 OA
HETATM   57  C12 UNL     1       0.110  -4.561   0.233  1.00  0.00     0.241 C 
HETATM   58  O6  UNL     1      -0.067  -4.583   2.643  1.00  0.00    -0.218 OA
HETATM   59  O5  UNL     1      -0.687  -4.792  -0.908  1.00  0.00    -0.215 OA
ENDBRANCH  50  51
ENDBRANCH  42  50
ENDBRANCH  40  41
ENDBRANCH  34  40
BRANCH  37  60
HETATM   60  C19 UNL     1       4.646  -2.315  -3.540  1.00  0.00     0.214 C 
HETATM   61  O12 UNL     1       5.038  -3.624  -3.904  1.00  0.00    -0.218 OA
ENDBRANCH  37  60
ENDBRANCH  31  32
ENDBRANCH  30  31
ENDBRANCH   1  30
BRANCH  22  62
HETATM   62  C41 UNL     1      -8.229   2.684   3.732  1.00  0.00     0.185 C 
HETATM   63  O16 UNL     1      -9.280   1.923   3.371  1.00  0.00    -0.647 OA
HETATM   64  O17 UNL     1      -8.220   3.274   4.785  1.00  0.00    -0.647 OA
ENDBRANCH  22  62
TORSDOF 9
