REMARK  5 active torsions:
REMARK  status: ('A' for Active; 'I' for Inactive)
REMARK    1  A    between atoms: C1_1  and  C2_3 
REMARK    2  A    between atoms: C13_14  and  C37_42 
REMARK    3  A    between atoms: C15_16  and  C17_18 
REMARK    4  A    between atoms: C21_22  and  C23_25 
REMARK    5  A    between atoms: C34_36  and  C36_38 
ROOT
HETATM    1  C2  UNL     1      -5.263  -0.931   1.349  1.00  0.00     0.079 A 
HETATM    2  C3  UNL     1      -5.415  -1.210  -0.097  1.00  0.00     0.017 A 
HETATM    3  C4  UNL     1      -3.798  -0.476  -0.718  1.00  0.00     0.020 C 
HETATM    4  C5  UNL     1      -4.020  -0.809  -2.138  1.00  0.00     0.004 C 
HETATM    5  C6  UNL     1      -4.130  -2.037  -1.248  1.00  0.00     0.001 C 
HETATM    6  C7  UNL     1      -4.063  -1.685   0.752  1.00  0.00     0.011 A 
HETATM    7  C8  UNL     1      -3.585   1.044  -0.636  1.00  0.00     0.004 C 
HETATM    8  C9  UNL     1      -2.331  -1.500  -0.442  1.00  0.00    -0.023 A 
HETATM    9  C10 UNL     1      -2.387  -2.869  -0.118  1.00  0.00    -0.010 A 
HETATM   10  C11 UNL     1      -3.868  -3.791   0.016  1.00  0.00    -0.027 C 
HETATM   11  C12 UNL     1      -5.426  -3.039   0.041  1.00  0.00     0.027 C 
HETATM   12  C13 UNL     1      -1.204  -3.490   0.121  1.00  0.00     0.002 A 
HETATM   13  C14 UNL     1      -0.034  -2.808   0.067  1.00  0.00     0.127 A 
HETATM   14  C15 UNL     1       0.032  -1.508  -0.306  1.00  0.00     0.027 A 
HETATM   15  C16 UNL     1      -1.141  -0.896  -0.546  1.00  0.00    -0.002 A 
HETATM   16  O5  UNL     1       1.100  -3.439   0.472  1.00  0.00    -0.191 OA
HETATM   17  C40 UNL     1      -5.155   0.517   1.841  1.00  0.00     0.011 C 
ENDROOT
BRANCH  14  18
HETATM   18  C17 UNL     1       1.180  -0.788  -0.442  1.00  0.00     0.027 A 
HETATM   19  C18 UNL     1       1.183   0.517  -0.112  1.00  0.00    -0.003 A 
HETATM   20  C19 UNL     1       2.239   1.340  -0.220  1.00  0.00    -0.027 A 
HETATM   21  C20 UNL     1       3.393   0.815  -0.679  1.00  0.00    -0.028 A 
HETATM   22  C29 UNL     1       2.051   2.827   0.151  1.00  0.00     0.019 C 
HETATM   23  C21 UNL     1       3.454  -0.502  -0.996  1.00  0.00    -0.001 A 
HETATM   24  C26 UNL     1       4.607   1.708  -0.863  1.00  0.00     0.026 C 
HETATM   25  C22 UNL     1       2.349  -1.280  -0.910  1.00  0.00     0.127 A 
HETATM   26  O2  UNL     1       2.404  -2.551  -1.391  1.00  0.00    -0.191 OA
HETATM   27  C27 UNL     1       4.320   3.211  -0.878  1.00  0.00     0.005 C 
HETATM   28  C28 UNL     1       3.403   3.567   0.293  1.00  0.00     0.014 C 
HETATM   29  C34 UNL     1       3.332   5.089   0.616  1.00  0.00     0.079 C 
HETATM   30  C33 UNL     1       2.078   5.397   1.473  1.00  0.00     0.010 C 
HETATM   31  C35 UNL     1       4.575   5.490   1.455  1.00  0.00     0.011 C 
HETATM   32  C32 UNL     1       1.694   4.200   2.349  1.00  0.00     0.001 C 
HETATM   33  C31 UNL     1       1.299   2.975   1.504  1.00  0.00     0.004 C 
HETATM   34  C30 UNL     1       1.178   3.386  -1.002  1.00  0.00     0.004 C 
BRANCH  23  35
HETATM   35  C23 UNL     1       4.772  -1.127  -1.485  1.00  0.00     0.024 C 
HETATM   36  C24 UNL     1       5.183  -2.428  -0.766  1.00  0.00     0.005 C 
HETATM   37  C25 UNL     1       4.796  -1.286  -3.014  1.00  0.00     0.005 C 
ENDBRANCH  23  35
BRANCH  29  38
HETATM   38  C36 UNL     1       3.296   5.956  -0.650  1.00  0.00     0.184 C 
HETATM   39  O3  UNL     1       4.518   6.272  -1.122  1.00  0.00    -0.647 OA
HETATM   40  O4  UNL     1       2.317   6.369  -1.224  1.00  0.00    -0.647 OA
ENDBRANCH  29  38
ENDBRANCH  14  18
BRANCH  12  41
HETATM   41  C37 UNL     1      -1.182  -4.981   0.493  1.00  0.00     0.024 C 
HETATM   42  C38 UNL     1      -0.156  -5.850  -0.262  1.00  0.00     0.005 C 
HETATM   43  C39 UNL     1      -1.082  -5.172   2.015  1.00  0.00     0.005 C 
ENDBRANCH  12  41
BRANCH   1  44
HETATM   44  C1  UNL     1      -6.168  -1.660   2.326  1.00  0.00     0.184 C 
HETATM   45  O1  UNL     1      -5.793  -2.281   3.295  1.00  0.00    -0.647 OA
HETATM   46  O6  UNL     1      -7.462  -1.478   1.991  1.00  0.00    -0.647 OA
ENDBRANCH   1  44
TORSDOF 5
