REMARK  13 active torsions:
REMARK  status: ('A' for Active; 'I' for Inactive)
REMARK    1  A    between atoms: C3_3  and  O4_10 
REMARK    2  A    between atoms: C4_5  and  C6_8 
REMARK    3  A    between atoms: O4_10  and  C7_11 
REMARK    4  A    between atoms: C8_12  and  O9_21 
REMARK    5  A    between atoms: C9_14  and  C12_19 
REMARK    6  A    between atoms: O9_21  and  C13_22 
REMARK    7  A    between atoms: C32_42  and  C35_46 
REMARK    8  A    between atoms: C35_46  and  C36_47 
REMARK    9  A    between atoms: C36_47  and  C37_48 
REMARK   10  A    between atoms: C37_48  and  C38_49 
REMARK   11  A    between atoms: C38_49  and  O12_50 
REMARK   12  A    between atoms: O12_50  and  C39_51 
REMARK   13  A    between atoms: C41_53  and  C45_60 
ROOT
HETATM    1  C13 UNL     1      -5.581   0.731  -0.995  1.00  0.00     0.118 C 
HETATM    2  C14 UNL     1      -4.799  -0.193  -0.047  1.00  0.00     0.030 C 
HETATM    3  C15 UNL     1      -3.330   0.213   0.194  1.00  0.00     0.002 C 
HETATM    4  C16 UNL     1      -3.123   1.744   0.325  1.00  0.00     0.000 C 
HETATM    5  C17 UNL     1      -3.648   2.432  -0.968  1.00  0.00     0.003 C 
HETATM    6  C18 UNL     1      -4.642   1.618  -1.813  1.00  0.00     0.030 C 
HETATM    7  C19 UNL     1      -1.611   2.095   0.571  1.00  0.00     0.003 C 
HETATM    8  C20 UNL     1      -0.651   0.939   0.228  1.00  0.00     0.000 C 
HETATM    9  C21 UNL     1      -1.090   0.263  -1.075  1.00  0.00     0.000 C 
HETATM   10  C22 UNL     1      -2.409  -0.480  -0.836  1.00  0.00     0.000 C 
HETATM   11  C23 UNL     1       0.843   1.335   0.263  1.00  0.00     0.002 C 
HETATM   12  C24 UNL     1       1.287   1.930   1.641  1.00  0.00     0.028 C 
HETATM   13  C25 UNL     1       0.260   3.021   2.024  1.00  0.00     0.152 C 
HETATM   14  C26 UNL     1      -1.210   2.594   1.973  1.00  0.00     0.033 C 
HETATM   15  O10 UNL     1       0.519   3.527   3.310  1.00  0.00    -0.224 OA
HETATM   16  C27 UNL     1       2.714   2.563   1.508  1.00  0.00     0.005 C 
HETATM   17  C28 UNL     1       3.483   2.006   0.298  1.00  0.00     0.003 C 
HETATM   18  C29 UNL     1       2.801   2.327  -1.035  1.00  0.00     0.000 C 
HETATM   19  C30 UNL     1       1.271   2.239  -0.909  1.00  0.00     0.000 C 
HETATM   20  C31 UNL     1       4.886   2.603   0.448  1.00  0.00     0.030 C 
HETATM   21  C32 UNL     1       5.161   2.548   1.958  1.00  0.00     0.127 C 
HETATM   22  C33 UNL     1       3.774   2.393   2.626  1.00  0.00     0.028 C 
HETATM   23  C34 UNL     1       3.575   3.301   3.847  1.00  0.00     0.003 C 
HETATM   24  O11 UNL     1       5.766   3.761   2.324  1.00  0.00    -0.226 OA
HETATM   25  C47 UNL     1       1.280   0.796   2.695  1.00  0.00     0.003 C 
HETATM   26  C48 UNL     1      -3.998   2.255   1.500  1.00  0.00     0.000 C 
ENDROOT
BRANCH   1  27
HETATM   27  O9  UNL     1      -6.357  -0.085  -1.835  1.00  0.00    -0.332 OA
BRANCH  27  28
HETATM   28  C8  UNL     1      -7.453   0.563  -2.451  1.00  0.00     0.267 C 
HETATM   29  C7  UNL     1      -7.770  -0.106  -3.786  1.00  0.00     0.207 C 
HETATM   30  C11 UNL     1      -9.095   0.462  -4.297  1.00  0.00     0.217 C 
HETATM   31  C10 UNL     1     -10.162   0.455  -3.213  1.00  0.00     0.215 C 
HETATM   32  O6  UNL     1      -9.629  -0.308  -5.349  1.00  0.00    -0.218 OA
HETATM   33  C9  UNL     1      -9.665   1.042  -1.903  1.00  0.00     0.184 C 
HETATM   34  O7  UNL     1     -10.576  -0.879  -3.027  1.00  0.00    -0.218 OA
HETATM   35  O5  UNL     1      -8.491   0.392  -1.512  1.00  0.00    -0.326 OA
BRANCH  29  36
HETATM   36  O4  UNL     1      -6.682   0.202  -4.625  1.00  0.00    -0.324 OA
BRANCH  36  37
HETATM   37  C3  UNL     1      -6.600  -0.469  -5.860  1.00  0.00     0.270 C 
HETATM   38  C2  UNL     1      -5.644   0.237  -6.796  1.00  0.00     0.241 C 
HETATM   39  C1  UNL     1      -4.186   0.021  -6.448  1.00  0.00     0.220 C 
HETATM   40  O17 UNL     1      -5.878  -0.238  -8.104  1.00  0.00    -0.215 OA
HETATM   41  C5  UNL     1      -3.923  -1.458  -6.247  1.00  0.00     0.215 C 
HETATM   42  O18 UNL     1      -3.857   0.744  -5.286  1.00  0.00    -0.218 OA
HETATM   43  C4  UNL     1      -4.951  -2.141  -5.352  1.00  0.00     0.184 C 
HETATM   44  O2  UNL     1      -3.937  -2.082  -7.513  1.00  0.00    -0.218 OA
HETATM   45  O1  UNL     1      -6.277  -1.830  -5.689  1.00  0.00    -0.326 OA
BRANCH  43  46
HETATM   46  C6  UNL     1      -4.691  -2.012  -3.860  1.00  0.00     0.214 C 
HETATM   47  O3  UNL     1      -3.474  -2.648  -3.522  1.00  0.00    -0.218 OA
ENDBRANCH  43  46
ENDBRANCH  36  37
ENDBRANCH  29  36
BRANCH  33  48
HETATM   48  C12 UNL     1     -10.694   0.911  -0.790  1.00  0.00     0.214 C 
HETATM   49  O8  UNL     1     -10.295   1.689   0.322  1.00  0.00    -0.218 OA
ENDBRANCH  33  48
ENDBRANCH  27  28
ENDBRANCH   1  27
BRANCH  21  50
HETATM   50  C35 UNL     1       6.141   1.409   2.286  1.00  0.00     0.035 C 
BRANCH  50  51
HETATM   51  C36 UNL     1       6.359   1.129   3.783  1.00  0.00     0.027 C 
BRANCH  51  52
HETATM   52  C37 UNL     1       7.450   0.123   4.096  1.00  0.00    -0.015 C 
HETATM   53  C46 UNL     1       8.157   0.231   5.235  1.00  0.00    -0.007 C 
BRANCH  52  54
HETATM   54  C38 UNL     1       7.649  -1.026   3.129  1.00  0.00     0.165 C 
BRANCH  54  55
HETATM   55  O12 UNL     1       8.664  -1.910   3.557  1.00  0.00    -0.350 OA
BRANCH  55  56
HETATM   56  C39 UNL     1       8.975  -2.938   2.659  1.00  0.00     0.149 C 
HETATM   57  C40 UNL     1       7.951  -4.076   2.712  1.00  0.00     0.038 C 
HETATM   58  C41 UNL     1       7.935  -4.862   4.038  1.00  0.00     0.069 C 
HETATM   59  C42 UNL     1       9.356  -5.268   4.452  1.00  0.00     0.188 C 
HETATM   60  C43 UNL     1      10.382  -4.147   4.372  1.00  0.00     0.215 C 
HETATM   61  O15 UNL     1       9.794  -6.314   3.609  1.00  0.00    -0.221 OA
HETATM   62  C44 UNL     1      10.367  -3.448   3.022  1.00  0.00     0.212 C 
HETATM   63  O14 UNL     1      10.179  -3.198   5.396  1.00  0.00    -0.218 OA
HETATM   64  O13 UNL     1      10.810  -4.348   2.033  1.00  0.00    -0.218 OA
BRANCH  58  65
HETATM   65  C45 UNL     1       7.149  -4.153   5.146  1.00  0.00     0.185 C 
HETATM   66  O16 UNL     1       6.904  -5.047   6.214  1.00  0.00    -0.221 OA
ENDBRANCH  58  65
ENDBRANCH  55  56
ENDBRANCH  54  55
ENDBRANCH  52  54
ENDBRANCH  51  52
ENDBRANCH  50  51
ENDBRANCH  21  50
TORSDOF 13
