REMARK  1 active torsions:
REMARK  status: ('A' for Active; 'I' for Inactive)
REMARK    1  A    between atoms: C16_16  and  C26_28 
ROOT
HETATM    1  C1  UNL     1      -3.792  -0.941  -2.849  1.00  0.00     0.033 C 
HETATM    2  C2  UNL     1      -3.950  -2.453  -2.949  1.00  0.00     0.152 C 
HETATM    3  C3  UNL     1      -3.038  -3.206  -1.959  1.00  0.00     0.028 C 
HETATM    4  C4  UNL     1      -3.205  -2.643  -0.506  1.00  0.00     0.002 C 
HETATM    5  C5  UNL     1      -3.341  -1.102  -0.287  1.00  0.00     0.001 C 
HETATM    6  C6  UNL     1      -4.176  -0.476  -1.443  1.00  0.00     0.003 C 
HETATM    7  C7  UNL     1      -1.931  -0.424  -0.174  1.00  0.00     0.005 C 
HETATM    8  C8  UNL     1      -0.829  -1.056   0.728  1.00  0.00     0.004 C 
HETATM    9  C9  UNL     1      -0.864  -2.598   0.610  1.00  0.00     0.000 C 
HETATM   10  C10 UNL     1      -2.256  -3.236   0.557  1.00  0.00     0.000 C 
HETATM   11  C11 UNL     1       0.602  -0.482   0.310  1.00  0.00     0.015 C 
HETATM   12  C12 UNL     1       0.597   1.046   0.353  1.00  0.00    -0.049 C 
HETATM   13  C13 UNL     1      -0.567   1.711   0.225  1.00  0.00    -0.035 C 
HETATM   14  C14 UNL     1      -1.935   1.096   0.070  1.00  0.00     0.025 C 
HETATM   15  C15 UNL     1       1.951   1.770   0.394  1.00  0.00     0.028 C 
HETATM   16  C16 UNL     1       2.905   1.199   1.472  1.00  0.00     0.092 C 
HETATM   17  C17 UNL     1       3.070  -0.339   1.293  1.00  0.00     0.010 C 
HETATM   18  C18 UNL     1       1.691  -1.033   1.269  1.00  0.00     0.004 C 
HETATM   19  C19 UNL     1       3.989  -0.859   0.169  1.00  0.00     0.001 C 
HETATM   20  C20 UNL     1       4.254   1.957   1.506  1.00  0.00     0.189 C 
HETATM   21  C21 UNL     1       4.118   3.473   1.577  1.00  0.00     0.183 C 
HETATM   22  C22 UNL     1       3.199   4.074   0.502  1.00  0.00     0.031 C 
HETATM   23  C23 UNL     1       1.857   3.312   0.472  1.00  0.00     0.007 C 
HETATM   24  C24 UNL     1       2.925   5.565   0.821  1.00  0.00     0.003 C 
HETATM   25  C25 UNL     1       3.857   4.055  -0.898  1.00  0.00     0.003 C 
HETATM   26  O1  UNL     1       3.664   3.806   2.869  1.00  0.00    -0.221 OA
HETATM   27  O2  UNL     1       5.066   1.660   0.397  1.00  0.00    -0.220 OA
HETATM   28  C27 UNL     1       1.005  -0.837  -1.148  1.00  0.00     0.004 C 
HETATM   29  C28 UNL     1      -1.114  -0.709   2.217  1.00  0.00     0.000 C 
HETATM   30  C29 UNL     1      -4.245  -0.853   0.958  1.00  0.00     0.000 C 
HETATM   31  C30 UNL     1      -1.604  -3.168  -2.535  1.00  0.00     0.003 C 
HETATM   32  C31 UNL     1      -3.437  -4.708  -2.002  1.00  0.00     0.003 C 
HETATM   33  O4  UNL     1      -5.302  -2.792  -2.735  1.00  0.00    -0.224 OA
ENDROOT
BRANCH  16  34
HETATM   34  C26 UNL     1       2.286   1.385   2.868  1.00  0.00     0.209 C 
HETATM   35  O3  UNL     1       1.163   1.779   3.076  1.00  0.00    -0.288 OA
ENDBRANCH  16  34
TORSDOF 1
