REMARK  6 active torsions:
REMARK  status: ('A' for Active; 'I' for Inactive)
REMARK    1  A    between atoms: C1_2  and  C2_3 
REMARK    2  A    between atoms: C3_4  and  C4_5 
REMARK    3  A    between atoms: C6_7  and  C10_12 
REMARK    4  A    between atoms: C12_14  and  C16_19 
REMARK    5  A    between atoms: C16_19  and  C17_20 
REMARK    6  A    between atoms: C17_20  and  C18_21 
ROOT
HETATM    1  C10 UNL     1      -1.050  -0.346  -0.239  1.00  0.00     0.027 A 
HETATM    2  C11 UNL     1      -0.258   0.707  -0.533  1.00  0.00    -0.002 A 
HETATM    3  C12 UNL     1      -0.694   1.831  -1.131  1.00  0.00    -0.019 A 
HETATM    4  C13 UNL     1      -1.987   1.877  -1.484  1.00  0.00    -0.002 A 
HETATM    5  C14 UNL     1      -2.791   0.841  -1.220  1.00  0.00     0.027 A 
HETATM    6  C15 UNL     1      -2.357  -0.260  -0.583  1.00  0.00     0.131 A 
HETATM    7  O3  UNL     1      -3.225  -1.304  -0.460  1.00  0.00    -0.190 OA
ENDROOT
BRANCH   1   8
HETATM    8  C6  UNL     1      -0.523  -1.449   0.352  1.00  0.00     0.027 A 
HETATM    9  C5  UNL     1       0.704  -1.883  -0.011  1.00  0.00     0.002 A 
HETATM   10  C4  UNL     1       1.299  -2.988   0.483  1.00  0.00     0.000 A 
HETATM   11  C9  UNL     1       0.617  -3.669   1.419  1.00  0.00     0.002 A 
HETATM   12  C8  UNL     1      -0.585  -3.240   1.827  1.00  0.00     0.027 A 
HETATM   13  C7  UNL     1      -1.175  -2.151   1.306  1.00  0.00     0.131 A 
HETATM   14  O2  UNL     1      -2.354  -1.737   1.846  1.00  0.00    -0.190 OA
BRANCH  10  15
HETATM   15  C3  UNL     1       2.515  -3.353   0.021  1.00  0.00     0.003 C 
HETATM   16  C2  UNL     1       3.246  -4.424   0.387  1.00  0.00     0.045 C 
BRANCH  16  17
HETATM   17  C1  UNL     1       4.464  -4.704  -0.143  1.00  0.00     0.234 C 
HETATM   18  O1  UNL     1       5.115  -5.667   0.189  1.00  0.00    -0.283 OA
ENDBRANCH  16  17
ENDBRANCH  10  15
ENDBRANCH   1   8
BRANCH   3  19
HETATM   19  C16 UNL     1       0.249   2.982  -1.421  1.00  0.00     0.062 C 
BRANCH  19  20
HETATM   20  C17 UNL     1      -0.284   4.391  -1.140  1.00  0.00     0.189 C 
HETATM   21  O5  UNL     1       0.709   5.317  -1.524  1.00  0.00    -0.220 OA
BRANCH  20  22
HETATM   22  C18 UNL     1      -0.622   4.648   0.319  1.00  0.00     0.215 C 
HETATM   23  O4  UNL     1      -1.776   3.928   0.699  1.00  0.00    -0.218 OA
ENDBRANCH  20  22
ENDBRANCH  19  20
ENDBRANCH   3  19
TORSDOF 6
