REMARK  6 active torsions:
REMARK  status: ('A' for Active; 'I' for Inactive)
REMARK    1  A    between atoms: C1_2  and  C2_3 
REMARK    2  A    between atoms: C2_3  and  O2_4 
REMARK    3  A    between atoms: O2_4  and  MG1_5 
REMARK    4  A    between atoms: MG1_5  and  O3_6 
REMARK    5  A    between atoms: O3_6  and  C3_7 
REMARK    6  A    between atoms: C3_7  and  C4_8 
ROOT
HETATM    1 MG1  UNL     1      -0.176  -0.534   0.560  1.00  0.00     0.000 Mg
ENDROOT
BRANCH   1   2
HETATM    2  O2  UNL     1      -2.062   0.134   0.560  1.00  0.00    -0.147 OA
BRANCH   2   3
HETATM    3  C2  UNL     1      -2.305   1.450   0.560  1.00  0.00     0.331 C 
HETATM    4  O6  UNL     1      -1.387   2.234   0.560  1.00  0.00    -0.259 OA
BRANCH   3   5
HETATM    5  C1  UNL     1      -3.728   1.953   0.560  1.00  0.00     0.240 C 
HETATM    6  O1  UNL     1      -3.728   3.355   0.560  1.00  0.00    -0.213 OA
HETATM    7  C6  UNL     1      -4.445   1.446   1.804  1.00  0.00     0.047 C 
ENDBRANCH   3   5
ENDBRANCH   2   3
ENDBRANCH   1   2
BRANCH   1   8
HETATM    8  O3  UNL     1       1.709  -1.201   0.560  1.00  0.00    -0.147 OA
BRANCH   8   9
HETATM    9  C3  UNL     1       2.386  -1.239  -0.593  1.00  0.00     0.331 C 
HETATM   10  O5  UNL     1       1.857  -0.873  -1.616  1.00  0.00    -0.259 OA
BRANCH   9  11
HETATM   11  C4  UNL     1       3.809  -1.739  -0.617  1.00  0.00     0.240 C 
HETATM   12  C5  UNL     1       4.346  -1.680  -2.041  1.00  0.00     0.047 C 
HETATM   13  O4  UNL     1       3.846  -3.064  -0.159  1.00  0.00    -0.213 OA
ENDBRANCH   9  11
ENDBRANCH   8   9
ENDBRANCH   1   8
TORSDOF 6
