REMARK  11 active torsions:
REMARK  status: ('A' for Active; 'I' for Inactive)
REMARK    1  A    between atoms: C1_1  and  O14_41 
REMARK    2  A    between atoms: C3_3  and  C14_21 
REMARK    3  A    between atoms: C5_5  and  O7_19 
REMARK    4  A    between atoms: C6_6  and  O1_7 
REMARK    5  A    between atoms: O1_7  and  C7_8 
REMARK    6  A    between atoms: C8_10  and  C12_17 
REMARK    7  A    between atoms: C15_22  and  C16_23 
REMARK    8  A    between atoms: C17_25  and  C19_28 
REMARK    9  A    between atoms: C19_28  and  C20_29 
REMARK   10  A    between atoms: C22_31  and  O12_38 
REMARK   11  A    between atoms: C24_33  and  O10_35 
ROOT
HETATM    1  C1  UNL     1      -1.673   1.931  -0.631  1.00  0.00     0.118 A 
HETATM    2  C2  UNL     1      -1.243   0.700  -0.967  1.00  0.00     0.024 A 
HETATM    3  C3  UNL     1       0.047   0.339  -0.973  1.00  0.00     0.009 A 
HETATM    4  C4  UNL     1       0.929   1.275  -0.601  1.00  0.00     0.024 A 
HETATM    5  C5  UNL     1       0.560   2.516  -0.233  1.00  0.00     0.118 A 
HETATM    6  C6  UNL     1      -0.753   2.862  -0.266  1.00  0.00     0.141 A 
ENDROOT
BRANCH   3   7
HETATM    7  C14 UNL     1       0.431  -1.082  -1.354  1.00  0.00     0.141 C 
HETATM    8  C15 UNL     1       0.015  -2.097  -0.273  1.00  0.00     0.074 C 
HETATM    9  C17 UNL     1       1.358  -2.759   0.114  1.00  0.00     0.097 C 
HETATM   10  C18 UNL     1       2.111  -2.585  -1.196  1.00  0.00     0.150 C 
HETATM   11  O9  UNL     1       1.811  -1.267  -1.581  1.00  0.00    -0.352 OA
BRANCH   8  12
HETATM   12  C16 UNL     1      -1.040  -3.064  -0.824  1.00  0.00     0.185 C 
HETATM   13  O8  UNL     1      -1.458  -3.998   0.153  1.00  0.00    -0.221 OA
ENDBRANCH   8  12
BRANCH   9  14
HETATM   14  C19 UNL     1       1.177  -4.053   0.907  1.00  0.00     0.175 C 
HETATM   15  O13 UNL     1       0.450  -3.879   1.865  1.00  0.00    -0.291 OA
BRANCH  14  16
HETATM   16  C20 UNL     1       1.676  -5.300   0.666  1.00  0.00     0.039 A 
HETATM   17  C21 UNL     1       2.508  -5.600  -0.342  1.00  0.00     0.029 A 
HETATM   18  C22 UNL     1       2.990  -6.839  -0.547  1.00  0.00     0.121 A 
HETATM   19  C23 UNL     1       2.549  -7.836   0.246  1.00  0.00     0.175 A 
HETATM   20  C24 UNL     1       1.728  -7.590   1.287  1.00  0.00     0.121 A 
HETATM   21  O11 UNL     1       2.961  -9.116   0.019  1.00  0.00    -0.186 OA
HETATM   22  C25 UNL     1       1.312  -6.321   1.468  1.00  0.00     0.029 A 
BRANCH  18  23
HETATM   23  O12 UNL     1       3.793  -7.100  -1.630  1.00  0.00    -0.326 OA
HETATM   24  C27 UNL     1       5.169  -7.126  -1.325  1.00  0.00     0.181 C 
ENDBRANCH  18  23
BRANCH  20  25
HETATM   25  O10 UNL     1       1.338  -8.661   2.058  1.00  0.00    -0.326 OA
HETATM   26  C26 UNL     1       0.282  -8.504   2.976  1.00  0.00     0.181 C 
ENDBRANCH  20  25
ENDBRANCH  14  16
ENDBRANCH   9  14
ENDBRANCH   3   7
BRANCH   1  27
HETATM   27  O14 UNL     1      -3.021   2.205  -0.642  1.00  0.00    -0.326 OA
HETATM   28  C28 UNL     1      -3.735   1.852  -1.806  1.00  0.00     0.181 C 
ENDBRANCH   1  27
BRANCH   5  29
HETATM   29  O7  UNL     1       1.555   3.400   0.123  1.00  0.00    -0.326 OA
HETATM   30  C13 UNL     1       1.493   3.912   1.437  1.00  0.00     0.181 C 
ENDBRANCH   5  29
BRANCH   6  31
HETATM   31  O1  UNL     1      -1.067   4.160   0.077  1.00  0.00    -0.300 OA
BRANCH  31  32
HETATM   32  C7  UNL     1      -2.060   4.880  -0.618  1.00  0.00     0.274 C 
HETATM   33  O2  UNL     1      -1.477   6.066  -1.121  1.00  0.00    -0.326 OA
HETATM   34  C8  UNL     1      -1.121   7.014  -0.156  1.00  0.00     0.184 C 
HETATM   35  C9  UNL     1      -2.341   7.431   0.654  1.00  0.00     0.215 C 
HETATM   36  C10 UNL     1      -2.988   6.229   1.313  1.00  0.00     0.220 C 
HETATM   37  O5  UNL     1      -3.287   8.055  -0.184  1.00  0.00    -0.218 OA
HETATM   38  C11 UNL     1      -3.257   5.158   0.270  1.00  0.00     0.241 C 
HETATM   39  O4  UNL     1      -2.128   5.724   2.308  1.00  0.00    -0.218 OA
HETATM   40  O3  UNL     1      -4.326   5.571  -0.549  1.00  0.00    -0.215 OA
BRANCH  34  41
HETATM   41  C12 UNL     1      -0.487   8.206  -0.862  1.00  0.00     0.214 C 
HETATM   42  O6  UNL     1       0.737   7.822  -1.458  1.00  0.00    -0.218 OA
ENDBRANCH  34  41
ENDBRANCH  31  32
ENDBRANCH   6  31
TORSDOF 11
