REMARK  13 active torsions:
REMARK  status: ('A' for Active; 'I' for Inactive)
REMARK    1  A    between atoms: O1_1  and  C1_2 
REMARK    2  A    between atoms: O1_1  and  C19_21 
REMARK    3  A    between atoms: C2_3  and  C10_11 
REMARK    4  A    between atoms: C4_5  and  C7_8 
REMARK    5  A    between atoms: C7_8  and  C8_9 
REMARK    6  A    between atoms: C14_15  and  C16_17 
REMARK    7  A    between atoms: C16_17  and  C17_18 
REMARK    8  A    between atoms: C19_21  and  C20_22 
REMARK    9  A    between atoms: C20_22  and  C21_24 
REMARK   10  A    between atoms: C21_24  and  C22_25 
REMARK   11  A    between atoms: C26_29  and  C28_31 
REMARK   12  A    between atoms: C30_33  and  C31_34 
REMARK   13  A    between atoms: C31_34  and  C32_35 
ROOT
HETATM    1  C19 UNL     1       2.109   1.191   0.833  1.00  0.00     0.185 C 
ENDROOT
BRANCH   1   2
HETATM    2  O1  UNL     1       1.436   2.188   0.109  1.00  0.00    -0.328 OA
BRANCH   2   3
HETATM    3  C1  UNL     1       2.113   3.189  -0.545  1.00  0.00     0.094 A 
HETATM    4  C2  UNL     1       1.431   4.217  -1.124  1.00  0.00     0.024 A 
HETATM    5  C3  UNL     1       2.161   5.190  -1.713  1.00  0.00    -0.002 A 
HETATM    6  C4  UNL     1       3.503   5.217  -1.748  1.00  0.00    -0.018 A 
HETATM    7  C5  UNL     1       4.155   4.209  -1.159  1.00  0.00    -0.002 A 
HETATM    8  C6  UNL     1       3.461   3.228  -0.570  1.00  0.00     0.024 A 
BRANCH   4   9
HETATM    9  C10 UNL     1       0.070   4.291  -1.146  1.00  0.00     0.027 A 
HETATM   10  C11 UNL     1      -0.592   5.475  -1.081  1.00  0.00     0.131 A 
HETATM   11  C12 UNL     1      -1.937   5.480  -1.062  1.00  0.00     0.027 A 
HETATM   12  O2  UNL     1       0.018   6.684  -0.915  1.00  0.00    -0.190 OA
HETATM   13  C13 UNL     1      -2.662   4.360  -1.139  1.00  0.00    -0.002 A 
HETATM   14  C14 UNL     1      -2.043   3.175  -1.235  1.00  0.00    -0.018 A 
HETATM   15  C15 UNL     1      -0.699   3.181  -1.236  1.00  0.00    -0.002 A 
BRANCH  14  16
HETATM   16  C16 UNL     1      -2.873   1.906  -1.309  1.00  0.00     0.052 C 
BRANCH  16  17
HETATM   17  C17 UNL     1      -2.192   0.699  -1.903  1.00  0.00    -0.021 C 
HETATM   18  C18 UNL     1      -2.110  -0.491  -1.290  1.00  0.00    -0.005 C 
ENDBRANCH  16  17
ENDBRANCH  14  16
ENDBRANCH   4   9
BRANCH   6  19
HETATM   19  C7  UNL     1       4.247   6.338  -2.441  1.00  0.00     0.052 C 
BRANCH  19  20
HETATM   20  C8  UNL     1       3.955   6.351  -3.920  1.00  0.00    -0.021 C 
HETATM   21  C9  UNL     1       3.533   7.435  -4.586  1.00  0.00    -0.005 C 
ENDBRANCH  19  20
ENDBRANCH   6  19
ENDBRANCH   2   3
ENDBRANCH   1   2
BRANCH   1  22
HETATM   22  C20 UNL     1       1.059   0.203   1.330  1.00  0.00     0.216 C 
HETATM   23  O3  UNL     1       0.356  -0.265   0.200  1.00  0.00    -0.218 OA
BRANCH  22  24
HETATM   24  C21 UNL     1       1.654  -0.977   2.100  1.00  0.00     0.207 C 
HETATM   25  O6  UNL     1       1.109  -1.018   3.408  1.00  0.00    -0.216 OA
BRANCH  24  26
HETATM   26  C22 UNL     1       1.385  -2.274   1.365  1.00  0.00     0.011 A 
HETATM   27  C23 UNL     1       2.285  -2.762   0.500  1.00  0.00     0.000 A 
HETATM   28  C24 UNL     1       1.998  -3.865  -0.201  1.00  0.00     0.027 A 
HETATM   29  C25 UNL     1       0.808  -4.484  -0.108  1.00  0.00     0.131 A 
HETATM   30  C26 UNL     1      -0.116  -4.003   0.756  1.00  0.00     0.027 A 
HETATM   31  O5  UNL     1       0.643  -5.637  -0.814  1.00  0.00    -0.190 OA
HETATM   32  C27 UNL     1       0.212  -2.918   1.489  1.00  0.00     0.000 A 
BRANCH  30  33
HETATM   33  C28 UNL     1      -1.337  -4.567   0.918  1.00  0.00     0.027 A 
HETATM   34  C29 UNL     1      -1.853  -4.685   2.160  1.00  0.00    -0.002 A 
HETATM   35  C30 UNL     1      -3.042  -5.259   2.414  1.00  0.00    -0.018 A 
HETATM   36  C34 UNL     1      -3.766  -5.692   1.372  1.00  0.00    -0.002 A 
HETATM   37  C35 UNL     1      -3.295  -5.540   0.128  1.00  0.00     0.027 A 
HETATM   38  C36 UNL     1      -2.085  -5.007  -0.120  1.00  0.00     0.131 A 
HETATM   39  O4  UNL     1      -1.735  -4.824  -1.425  1.00  0.00    -0.190 OA
BRANCH  35  40
HETATM   40  C31 UNL     1      -3.537  -5.423   3.835  1.00  0.00     0.052 C 
BRANCH  40  41
HETATM   41  C32 UNL     1      -2.779  -6.535   4.515  1.00  0.00    -0.021 C 
HETATM   42  C33 UNL     1      -3.328  -7.698   4.892  1.00  0.00    -0.005 C 
ENDBRANCH  40  41
ENDBRANCH  35  40
ENDBRANCH  30  33
ENDBRANCH  24  26
ENDBRANCH  22  24
ENDBRANCH   1  22
TORSDOF 13
