REMARK  9 active torsions:
REMARK  status: ('A' for Active; 'I' for Inactive)
REMARK    1  A    between atoms: C2_2  and  C33_39 
REMARK    2  A    between atoms: C5_5  and  O1_7 
REMARK    3  A    between atoms: O1_7  and  C7_8 
REMARK    4  A    between atoms: C9_10  and  C30_36 
REMARK    5  A    between atoms: C13_16  and  C29_34 
REMARK    6  A    between atoms: C14_17  and  C15_18 
REMARK    7  A    between atoms: C22_26  and  C24_28 
REMARK    8  A    between atoms: C30_36  and  C31_37 
REMARK    9  A    between atoms: C33_39  and  C34_40 
ROOT
HETATM    1  C7  UNL     1      -2.396   1.962  -1.710  1.00  0.00     0.127 A 
HETATM    2  C8  UNL     1      -2.568   0.707  -1.247  1.00  0.00     0.023 A 
HETATM    3  C9  UNL     1      -1.562  -0.159  -1.028  1.00  0.00    -0.017 A 
HETATM    4  C10 UNL     1      -0.324   0.289  -1.290  1.00  0.00     0.005 A 
HETATM    5  C11 UNL     1      -0.124   1.534  -1.737  1.00  0.00     0.117 A 
HETATM    6  C12 UNL     1      -1.139   2.386  -1.959  1.00  0.00     0.175 A 
HETATM    7  O2  UNL     1      -0.911   3.626  -2.473  1.00  0.00    -0.186 OA
HETATM    8  O3  UNL     1       1.058   1.803  -1.944  1.00  0.00    -0.328 OA
HETATM    9  C13 UNL     1       1.915   0.695  -1.655  1.00  0.00     0.162 A 
HETATM   10  C14 UNL     1       0.980  -0.456  -1.222  1.00  0.00     0.077 A 
ENDROOT
BRANCH  10  11
HETATM   11  C15 UNL     1       1.295  -1.119   0.099  1.00  0.00    -0.016 A 
HETATM   12  C16 UNL     1       1.889  -2.324   0.126  1.00  0.00    -0.002 A 
HETATM   13  C17 UNL     1       2.153  -3.018   1.253  1.00  0.00     0.027 A 
HETATM   14  C18 UNL     1       2.717  -4.251   1.178  1.00  0.00     0.027 A 
HETATM   15  C26 UNL     1       1.796  -2.436   2.425  1.00  0.00     0.131 A 
HETATM   16  C19 UNL     1       3.629  -4.591   0.234  1.00  0.00     0.131 A 
HETATM   17  C23 UNL     1       2.352  -5.217   2.048  1.00  0.00    -0.002 A 
HETATM   18  O4  UNL     1       4.140  -3.713  -0.676  1.00  0.00    -0.190 OA
HETATM   19  C20 UNL     1       4.150  -5.831   0.239  1.00  0.00     0.027 A 
HETATM   20  C21 UNL     1       3.770  -6.766   1.117  1.00  0.00    -0.002 A 
HETATM   21  C22 UNL     1       2.848  -6.466   2.041  1.00  0.00    -0.022 A 
HETATM   22  C27 UNL     1       1.250  -1.207   2.409  1.00  0.00     0.027 A 
HETATM   23  O5  UNL     1       2.057  -2.982   3.647  1.00  0.00    -0.190 OA
HETATM   24  C28 UNL     1       0.987  -0.550   1.273  1.00  0.00    -0.002 A 
BRANCH  21  25
HETATM   25  C24 UNL     1       2.361  -7.503   3.033  1.00  0.00     0.026 C 
HETATM   26  C25 UNL     1       2.737  -7.144   4.476  1.00  0.00     0.005 C 
ENDBRANCH  21  25
ENDBRANCH  10  11
BRANCH   9  27
HETATM   27  C29 UNL     1       2.988   1.094  -0.647  1.00  0.00     0.213 C 
HETATM   28  O6  UNL     1       3.861   2.046  -1.222  1.00  0.00    -0.218 OA
ENDBRANCH   9  27
BRANCH   3  29
HETATM   29  C30 UNL     1      -1.843  -1.571  -0.559  1.00  0.00     0.052 C 
BRANCH  29  30
HETATM   30  C31 UNL     1      -1.586  -2.564  -1.663  1.00  0.00    -0.021 C 
HETATM   31  C32 UNL     1      -0.871  -3.688  -1.506  1.00  0.00    -0.005 C 
ENDBRANCH  29  30
ENDBRANCH   3  29
BRANCH   1  32
HETATM   32  O1  UNL     1      -3.496   2.744  -1.954  1.00  0.00    -0.305 OA
BRANCH  32  33
HETATM   33  C5  UNL     1      -3.501   4.019  -1.458  1.00  0.00     0.100 A 
HETATM   34  C4  UNL     1      -3.758   5.055  -2.278  1.00  0.00     0.024 A 
HETATM   35  C3  UNL     1      -3.764   6.322  -1.841  1.00  0.00    -0.002 A 
HETATM   36  C2  UNL     1      -3.516   6.603  -0.552  1.00  0.00    -0.018 A 
HETATM   37  C1  UNL     1      -3.267   5.577   0.280  1.00  0.00    -0.002 A 
HETATM   38  C6  UNL     1      -3.261   4.311  -0.166  1.00  0.00     0.024 A 
BRANCH  36  39
HETATM   39  C33 UNL     1      -3.533   8.038  -0.074  1.00  0.00     0.052 C 
BRANCH  39  40
HETATM   40  C34 UNL     1      -4.952   8.544  -0.044  1.00  0.00    -0.021 C 
HETATM   41  C35 UNL     1      -5.427   9.486  -0.872  1.00  0.00    -0.005 C 
ENDBRANCH  39  40
ENDBRANCH  36  39
ENDBRANCH  32  33
ENDBRANCH   1  32
TORSDOF 9
