REMARK  8 active torsions:
REMARK  status: ('A' for Active; 'I' for Inactive)
REMARK    1  A    between atoms: C3_3  and  C32_38 
REMARK    2  A    between atoms: C5_5  and  C7_8 
REMARK    3  A    between atoms: C13_15  and  C16_19 
REMARK    4  A    between atoms: C14_16  and  C15_17 
REMARK    5  A    between atoms: C18_21  and  C22_26 
REMARK    6  A    between atoms: C26_31  and  C28_33 
REMARK    7  A    between atoms: C28_33  and  C29_34 
REMARK    8  A    between atoms: C32_38  and  C33_39 
ROOT
HETATM    1  C7  UNL     1      -0.325  -4.335   1.360  1.00  0.00     0.026 A 
HETATM    2  C8  UNL     1       0.388  -5.464   1.575  1.00  0.00     0.029 A 
HETATM    3  C9  UNL     1       1.730  -5.526   1.660  1.00  0.00     0.131 A 
HETATM    4  C10 UNL     1       2.431  -4.393   1.511  1.00  0.00     0.025 A 
HETATM    5  C11 UNL     1       1.771  -3.250   1.301  1.00  0.00     0.007 A 
HETATM    6  C12 UNL     1       0.433  -3.221   1.236  1.00  0.00     0.091 A 
HETATM    7  O2  UNL     1       0.022  -2.086   0.994  1.00  0.00    -0.329 OA
HETATM    8  C13 UNL     1       1.060  -1.106   1.039  1.00  0.00     0.150 C 
HETATM    9  C14 UNL     1       2.384  -1.898   1.058  1.00  0.00     0.089 C 
HETATM   10  O6  UNL     1       2.374  -6.704   1.891  1.00  0.00    -0.190 OA
ENDROOT
BRANCH   8  11
HETATM   11  C16 UNL     1       0.918  -0.140  -0.127  1.00  0.00     0.002 A 
HETATM   12  C17 UNL     1       0.843   1.206  -0.002  1.00  0.00    -0.021 A 
HETATM   13  C18 UNL     1       0.718   1.985  -1.108  1.00  0.00     0.023 A 
HETATM   14  C31 UNL     1       1.035   1.808   1.382  1.00  0.00     0.031 C 
HETATM   15  C19 UNL     1       0.695   1.416  -2.337  1.00  0.00     0.131 A 
HETATM   16  C20 UNL     1       0.738   0.080  -2.436  1.00  0.00     0.027 A 
HETATM   17  O4  UNL     1       0.515   2.124  -3.490  1.00  0.00    -0.190 OA
HETATM   18  C21 UNL     1       0.849  -0.688  -1.350  1.00  0.00    -0.000 A 
BRANCH  13  19
HETATM   19  C22 UNL     1       0.602   3.334  -1.058  1.00  0.00     0.027 A 
HETATM   20  C23 UNL     1      -0.291   3.959  -0.257  1.00  0.00     0.131 A 
HETATM   21  O5  UNL     1      -1.190   3.285   0.513  1.00  0.00    -0.190 OA
HETATM   22  C24 UNL     1      -0.376   5.300  -0.303  1.00  0.00     0.027 A 
HETATM   23  C25 UNL     1       0.418   6.039  -1.089  1.00  0.00    -0.002 A 
HETATM   24  C26 UNL     1       1.319   5.438  -1.880  1.00  0.00    -0.018 A 
HETATM   25  C27 UNL     1       1.384   4.096  -1.851  1.00  0.00    -0.002 A 
BRANCH  24  26
HETATM   26  C28 UNL     1       2.228   6.236  -2.789  1.00  0.00     0.052 C 
BRANCH  26  27
HETATM   27  C29 UNL     1       1.715   6.176  -4.206  1.00  0.00    -0.021 C 
HETATM   28  C30 UNL     1       1.300   7.246  -4.897  1.00  0.00    -0.005 C 
ENDBRANCH  26  27
ENDBRANCH  24  26
ENDBRANCH  13  19
ENDBRANCH   8  11
BRANCH   9  29
HETATM   29  C15 UNL     1       3.383  -1.473   2.125  1.00  0.00     0.190 C 
HETATM   30  O3  UNL     1       3.954  -0.233   1.762  1.00  0.00    -0.220 OA
ENDBRANCH   9  29
BRANCH   1  31
HETATM   31  C5  UNL     1      -1.683  -4.323   1.281  1.00  0.00     0.027 A 
HETATM   32  C4  UNL     1      -2.372  -3.214   1.631  1.00  0.00    -0.002 A 
HETATM   33  C3  UNL     1      -3.706  -3.084   1.552  1.00  0.00    -0.018 A 
HETATM   34  C2  UNL     1      -4.410  -4.133   1.108  1.00  0.00    -0.002 A 
HETATM   35  C1  UNL     1      -3.762  -5.254   0.770  1.00  0.00     0.027 A 
HETATM   36  C6  UNL     1      -2.425  -5.379   0.863  1.00  0.00     0.131 A 
HETATM   37  O1  UNL     1      -1.896  -6.554   0.418  1.00  0.00    -0.190 OA
BRANCH  33  38
HETATM   38  C32 UNL     1      -4.371  -1.785   1.950  1.00  0.00     0.052 C 
BRANCH  38  39
HETATM   39  C33 UNL     1      -3.972  -0.706   0.974  1.00  0.00    -0.021 C 
HETATM   40  C34 UNL     1      -3.147   0.307   1.272  1.00  0.00    -0.005 C 
ENDBRANCH  38  39
ENDBRANCH  33  38
ENDBRANCH   1  31
TORSDOF 8
