REMARK  8 active torsions:
REMARK  status: ('A' for Active; 'I' for Inactive)
REMARK    1  A    between atoms: C1_1  and  O7_30 
REMARK    2  A    between atoms: C2_2  and  C3_3 
REMARK    3  A    between atoms: C6_6  and  C9_10 
REMARK    4  A    between atoms: C10_11  and  O2_12 
REMARK    5  A    between atoms: C13_15  and  O4_20 
REMARK    6  A    between atoms: C14_16  and  O3_18 
REMARK    7  A    between atoms: C19_23  and  O6_28 
REMARK    8  A    between atoms: C20_24  and  O5_26 
ROOT
HETATM    1  C3  UNL     1      -1.505   0.020  -1.674  1.00  0.00     0.054 C 
HETATM    2  C4  UNL     1       0.033  -0.081  -1.798  1.00  0.00     0.038 C 
HETATM    3  C5  UNL     1       0.481   0.235  -3.238  1.00  0.00     0.003 C 
HETATM    4  C6  UNL     1       0.345  -1.526  -1.360  1.00  0.00     0.140 C 
HETATM    5  O1  UNL     1      -0.842  -2.019  -0.778  1.00  0.00    -0.354 OA
HETATM    6  C7  UNL     1      -1.909  -1.441  -1.464  1.00  0.00     0.120 C 
HETATM    7  C8  UNL     1      -3.212  -1.683  -0.709  1.00  0.00     0.033 C 
ENDROOT
BRANCH   1   8
HETATM    8  C2  UNL     1      -2.110   0.981  -0.646  1.00  0.00     0.004 A 
HETATM    9  C1  UNL     1      -1.628   1.176   0.601  1.00  0.00     0.092 A 
HETATM   10  C21 UNL     1      -2.299   2.036   1.391  1.00  0.00     0.050 A 
HETATM   11  C20 UNL     1      -3.404   2.717   1.035  1.00  0.00     0.118 A 
HETATM   12  C19 UNL     1      -3.894   2.505  -0.205  1.00  0.00     0.116 A 
HETATM   13  C18 UNL     1      -3.224   1.651  -1.002  1.00  0.00     0.024 A 
BRANCH   9  14
HETATM   14  O7  UNL     1      -0.504   0.533   1.054  1.00  0.00    -0.328 OA
HETATM   15  C24 UNL     1       0.461   1.335   1.702  1.00  0.00     0.181 C 
ENDBRANCH   9  14
BRANCH  11  16
HETATM   16  O5  UNL     1      -4.092   3.575   1.865  1.00  0.00    -0.326 OA
HETATM   17  C22 UNL     1      -3.772   3.610   3.237  1.00  0.00     0.181 C 
ENDBRANCH  11  16
BRANCH  12  18
HETATM   18  O6  UNL     1      -5.032   3.188  -0.573  1.00  0.00    -0.326 OA
HETATM   19  C23 UNL     1      -5.498   3.092  -1.899  1.00  0.00     0.181 C 
ENDBRANCH  12  18
ENDBRANCH   1   8
BRANCH   4  20
HETATM   20  C9  UNL     1       1.548  -1.690  -0.431  1.00  0.00     0.029 A 
HETATM   21  C10 UNL     1       2.806  -1.718  -0.917  1.00  0.00     0.095 A 
HETATM   22  C12 UNL     1       3.801  -1.831  -0.014  1.00  0.00     0.050 A 
HETATM   23  C13 UNL     1       3.640  -1.928   1.322  1.00  0.00     0.118 A 
HETATM   24  C14 UNL     1       2.371  -1.953   1.790  1.00  0.00     0.116 A 
HETATM   25  C15 UNL     1       1.375  -1.834   0.893  1.00  0.00     0.026 A 
BRANCH  21  26
HETATM   26  O2  UNL     1       3.003  -1.594  -2.272  1.00  0.00    -0.328 OA
HETATM   27  C11 UNL     1       4.302  -1.369  -2.768  1.00  0.00     0.181 C 
ENDBRANCH  21  26
BRANCH  23  28
HETATM   28  O4  UNL     1       4.685  -2.071   2.204  1.00  0.00    -0.326 OA
HETATM   29  C17 UNL     1       5.967  -2.404   1.724  1.00  0.00     0.181 C 
ENDBRANCH  23  28
BRANCH  24  30
HETATM   30  O3  UNL     1       2.025  -2.052   3.119  1.00  0.00    -0.326 OA
HETATM   31  C16 UNL     1       2.740  -1.271   4.052  1.00  0.00     0.181 C 
ENDBRANCH  24  30
ENDBRANCH   4  20
TORSDOF 8
