REMARK  3 active torsions:
REMARK  status: ('A' for Active; 'I' for Inactive)
REMARK    1  A    between atoms: C14_16  and  C18_20 
REMARK    2  A    between atoms: C18_20  and  C19_21 
REMARK    3  A    between atoms: C19_21  and  C20_22 
ROOT
HETATM    1  C1  UNL     1       5.723  -0.290   1.174  1.00  0.00     0.000 A 
HETATM    2  C2  UNL     1       5.749   1.056   1.149  1.00  0.00     0.002 A 
HETATM    3  C3  UNL     1       4.611   1.770   1.197  1.00  0.00     0.019 A 
HETATM    4  C4  UNL     1       3.457   1.097   1.270  1.00  0.00     0.081 A 
HETATM    5  C5  UNL     1       3.430  -0.243   1.294  1.00  0.00     0.019 A 
HETATM    6  C6  UNL     1       4.559  -0.960   1.246  1.00  0.00     0.002 A 
HETATM    7  C7  UNL     1       2.137  -0.582   1.367  1.00  0.00     0.019 A 
HETATM    8  C8  UNL     1       1.435   0.559   1.388  1.00  0.00     0.083 A 
HETATM    9  N1  UNL     1       2.263   1.521   1.326  1.00  0.00    -0.245 NA
HETATM   10  C9  UNL     1       0.097   0.556   1.454  1.00  0.00     0.039 A 
HETATM   11  C10 UNL     1      -0.551  -0.629   1.529  1.00  0.00     0.092 A 
HETATM   12  C11 UNL     1       0.169  -1.777   1.488  1.00  0.00     0.001 A 
HETATM   13  C12 UNL     1       1.514  -1.762   1.411  1.00  0.00    -0.001 A 
HETATM   14  C13 UNL     1      -0.552  -3.107   1.540  1.00  0.00     0.033 C 
HETATM   15  O1  UNL     1      -1.919  -0.720   1.610  1.00  0.00    -0.332 OA
HETATM   16  C14 UNL     1      -2.688   0.398   1.255  1.00  0.00     0.117 C 
HETATM   17  C15 UNL     1      -1.926   1.688   1.419  1.00  0.00     0.001 C 
HETATM   18  C16 UNL     1      -0.589   1.709   1.466  1.00  0.00     0.001 C 
HETATM   19  C17 UNL     1      -3.910   0.417   2.184  1.00  0.00     0.035 C 
ENDROOT
BRANCH  16  20
HETATM   20  C18 UNL     1      -3.155   0.248  -0.206  1.00  0.00     0.037 C 
BRANCH  20  21
HETATM   21  C19 UNL     1      -2.014   0.202  -1.237  1.00  0.00     0.028 C 
BRANCH  21  22
HETATM   22  C20 UNL     1      -2.499   0.074  -2.659  1.00  0.00    -0.035 C 
HETATM   23  C21 UNL     1      -1.685   0.035  -3.728  1.00  0.00    -0.048 C 
HETATM   24  C22 UNL     1      -2.262  -0.098  -5.117  1.00  0.00     0.026 C 
HETATM   25  C23 UNL     1      -0.184   0.118  -3.586  1.00  0.00     0.026 C 
ENDBRANCH  21  22
ENDBRANCH  20  21
ENDBRANCH  16  20
TORSDOF 3
