REMARK  3 active torsions:
REMARK  status: ('A' for Active; 'I' for Inactive)
REMARK    1  A    between atoms: C1_2  and  C2_3 
REMARK    2  A    between atoms: C2_3  and  C3_5 
REMARK    3  A    between atoms: C3_5  and  C4_6 
ROOT
HETATM    1  C2  UNL     1      -0.905  -0.262   0.109  1.00  0.00     0.249 C 
HETATM    2  O2  UNL     1      -1.853  -0.934  -0.702  1.00  0.00    -0.211 OA
ENDROOT
BRANCH   1   3
HETATM    3  C1  UNL     1       0.206  -1.228   0.494  1.00  0.00     0.218 C 
HETATM    4  O1  UNL     1      -0.218  -2.165   1.361  1.00  0.00    -0.645 OA
HETATM    5  O5  UNL     1       1.348  -1.182   0.106  1.00  0.00    -0.645 OA
ENDBRANCH   1   3
BRANCH   1   6
HETATM    6  C3  UNL     1      -0.387   0.961  -0.652  1.00  0.00     0.142 C 
BRANCH   6   7
HETATM    7  C4  UNL     1       0.425   1.894   0.230  1.00  0.00     0.189 C 
HETATM    8  O3  UNL     1      -0.054   2.804   0.870  1.00  0.00    -0.647 OA
HETATM    9  O4  UNL     1       1.738   1.586   0.211  1.00  0.00    -0.647 OA
ENDBRANCH   6   7
ENDBRANCH   1   6
TORSDOF 3
