REMARK  6 active torsions:
REMARK  status: ('A' for Active; 'I' for Inactive)
REMARK    1  A    between atoms: C5_5  and  C23_29 
REMARK    2  A    between atoms: C7_8  and  O5_25 
REMARK    3  A    between atoms: C8_9  and  O3_16 
REMARK    4  A    between atoms: O3_16  and  C14_17 
REMARK    5  A    between atoms: C14_17  and  C15_19 
REMARK    6  A    between atoms: O5_25  and  C21_26 
ROOT
HETATM    1  C1  UNL     1      -2.844   0.054  -2.963  1.00  0.00     0.033 C 
HETATM    2  C2  UNL     1      -3.659  -1.073  -2.336  1.00  0.00     0.005 C 
HETATM    3  C3  UNL     1      -2.746  -2.067  -1.593  1.00  0.00     0.025 C 
HETATM    4  C4  UNL     1      -1.456  -1.415  -1.029  1.00  0.00     0.100 C 
HETATM    5  C5  UNL     1      -1.636   0.098  -0.644  1.00  0.00     0.109 C 
HETATM    6  C6  UNL     1      -2.124   0.884  -1.899  1.00  0.00     0.159 C 
HETATM    7  O1  UNL     1      -2.946   1.963  -1.526  1.00  0.00    -0.223 OA
HETATM    8  C7  UNL     1      -0.234   0.650  -0.255  1.00  0.00     0.159 C 
HETATM    9  C8  UNL     1       0.572  -0.318   0.616  1.00  0.00     0.155 C 
HETATM   10  C9  UNL     1       0.577  -1.749   0.048  1.00  0.00     0.058 C 
HETATM   11  C10 UNL     1      -0.872  -2.231   0.132  1.00  0.00     0.032 C 
HETATM   12  C11 UNL     1       0.758  -1.910  -1.469  1.00  0.00     0.095 C 
HETATM   13  O2  UNL     1      -0.449  -1.466  -2.023  1.00  0.00    -0.363 OA
HETATM   14  C12 UNL     1       0.961  -3.384  -1.888  1.00  0.00     0.030 C 
HETATM   15  C13 UNL     1       1.967  -1.169  -2.059  1.00  0.00     0.030 C 
HETATM   16  C24 UNL     1      -3.596  -2.881  -0.595  1.00  0.00     0.002 C 
ENDROOT
BRANCH   9  17
HETATM   17  O3  UNL     1       1.871   0.176   0.779  1.00  0.00    -0.298 OA
BRANCH  17  18
HETATM   18  C14 UNL     1       2.525  -0.096   1.954  1.00  0.00     0.296 C 
HETATM   19  O4  UNL     1       2.158  -1.039   2.625  1.00  0.00    -0.259 OA
BRANCH  18  20
HETATM   20  C15 UNL     1       3.495   0.725   2.453  1.00  0.00     0.063 A 
HETATM   21  C16 UNL     1       4.084   0.463   3.636  1.00  0.00     0.005 A 
HETATM   22  C17 UNL     1       5.025   1.284   4.131  1.00  0.00     0.000 A 
HETATM   23  C18 UNL     1       5.391   2.377   3.447  1.00  0.00     0.000 A 
HETATM   24  C19 UNL     1       4.817   2.643   2.264  1.00  0.00     0.000 A 
HETATM   25  C20 UNL     1       3.877   1.821   1.770  1.00  0.00     0.005 A 
ENDBRANCH  18  20
ENDBRANCH  17  18
ENDBRANCH   9  17
BRANCH   8  26
HETATM   26  O5  UNL     1      -0.324   1.908   0.351  1.00  0.00    -0.301 OA
BRANCH  26  27
HETATM   27  C21 UNL     1       0.520   2.905  -0.034  1.00  0.00     0.272 C 
HETATM   28  C22 UNL     1       0.287   4.133   0.821  1.00  0.00     0.106 C 
HETATM   29  O6  UNL     1       1.346   2.832  -0.914  1.00  0.00    -0.264 OA
ENDBRANCH  26  27
ENDBRANCH   8  26
BRANCH   5  30
HETATM   30  C23 UNL     1      -2.634   0.239   0.535  1.00  0.00     0.189 C 
HETATM   31  O7  UNL     1      -2.755   1.558   1.034  1.00  0.00    -0.221 OA
ENDBRANCH   5  30
TORSDOF 6
