REMARK  0 active torsions:
REMARK  status: ('A' for Active; 'I' for Inactive)
ROOT
HETATM    1  C1  UNL     1      -0.985  -2.670   0.054  1.00  0.00     0.119 A 
HETATM    2  C2  UNL     1       0.171  -1.996  -0.021  1.00  0.00     0.119 A 
HETATM    3  C3  UNL     1       0.216  -0.649  -0.136  1.00  0.00     0.022 A 
HETATM    4  C4  UNL     1      -0.996  -0.041  -0.252  1.00  0.00    -0.002 A 
HETATM    5  C5  UNL     1      -2.161  -0.718  -0.151  1.00  0.00    -0.020 A 
HETATM    6  C6  UNL     1      -2.164  -2.049   0.009  1.00  0.00     0.022 A 
HETATM    7  C7  UNL     1      -3.487   0.002  -0.177  1.00  0.00     0.052 C 
HETATM    8  C8  UNL     1      -3.289   1.417   0.364  1.00  0.00     0.125 C 
HETATM    9  N1  UNL     1      -2.330   2.090  -0.495  1.00  0.00    -0.292 NA
HETATM   10  C9  UNL     1      -1.021   1.441  -0.582  1.00  0.00     0.124 C 
HETATM   11  C10 UNL     1      -0.010   2.129   0.321  1.00  0.00     0.055 C 
HETATM   12  C11 UNL     1       1.307   1.432   0.087  1.00  0.00    -0.018 A 
HETATM   13  C12 UNL     1       1.357   0.094  -0.122  1.00  0.00    -0.002 A 
HETATM   14  C13 UNL     1       2.605  -0.406  -0.257  1.00  0.00     0.002 A 
HETATM   15  C14 UNL     1       3.714   0.348  -0.213  1.00  0.00     0.027 A 
HETATM   16  C15 UNL     1       3.648   1.671  -0.021  1.00  0.00     0.131 A 
HETATM   17  C16 UNL     1       2.420   2.186   0.132  1.00  0.00     0.023 A 
HETATM   18  O1  UNL     1       4.768   2.439   0.029  1.00  0.00    -0.190 OA
HETATM   19  O2  UNL     1       1.105  -2.794   0.080  1.00  0.00    -0.300 OA
HETATM   20  C17 UNL     1       0.574  -4.109   0.237  1.00  0.00     0.304 A 
HETATM   21  O3  UNL     1      -0.826  -3.878   0.194  1.00  0.00    -0.300 OA
ENDROOT
TORSDOF 0
