REMARK  5 active torsions:
REMARK  status: ('A' for Active; 'I' for Inactive)
REMARK    1  A    between atoms: C3_3  and  C22_27 
REMARK    2  A    between atoms: C5_5  and  C8_9 
REMARK    3  A    between atoms: C6_6  and  O1_7 
REMARK    4  A    between atoms: C8_9  and  C9_10 
REMARK    5  A    between atoms: C11_12  and  C20_22 
ROOT
HETATM    1  C9  UNL     1      -0.792   0.864  -0.098  1.00  0.00     0.008 A 
HETATM    2  C10 UNL     1      -0.423  -0.170  -0.878  1.00  0.00     0.132 A 
HETATM    3  C11 UNL     1      -1.032  -1.376  -0.732  1.00  0.00     0.082 A 
HETATM    4  C12 UNL     1      -2.044  -1.532   0.165  1.00  0.00     0.099 A 
HETATM    5  C13 UNL     1      -2.435  -0.461   0.889  1.00  0.00     0.022 A 
HETATM    6  C14 UNL     1      -1.793   0.708   0.777  1.00  0.00     0.000 A 
HETATM    7  C15 UNL     1      -3.449  -0.545   1.769  1.00  0.00    -0.000 C 
HETATM    8  C16 UNL     1      -4.202  -1.648   1.824  1.00  0.00     0.001 C 
HETATM    9  C17 UNL     1      -3.993  -2.751   0.824  1.00  0.00     0.117 C 
HETATM   10  O2  UNL     1      -2.688  -2.732   0.318  1.00  0.00    -0.331 OA
HETATM   11  C18 UNL     1      -4.217  -4.113   1.486  1.00  0.00     0.035 C 
HETATM   12  C19 UNL     1      -4.968  -2.560  -0.343  1.00  0.00     0.035 C 
HETATM   13  O4  UNL     1       0.572   0.055  -1.789  1.00  0.00    -0.190 OA
ENDROOT
BRANCH   1  14
HETATM   14  C8  UNL     1      -0.085   2.207  -0.152  1.00  0.00     0.059 C 
BRANCH  14  15
HETATM   15  C5  UNL     1       1.434   2.065  -0.086  1.00  0.00     0.030 A 
HETATM   16  C4  UNL     1       1.995   1.419   0.958  1.00  0.00     0.134 A 
HETATM   17  C3  UNL     1       3.334   1.228   1.005  1.00  0.00     0.085 A 
HETATM   18  O5  UNL     1       1.163   0.975   1.940  1.00  0.00    -0.190 OA
HETATM   19  C2  UNL     1       4.097   1.700  -0.012  1.00  0.00     0.134 A 
HETATM   20  C1  UNL     1       3.514   2.335  -1.051  1.00  0.00     0.026 A 
HETATM   21  O7  UNL     1       5.449   1.515  -0.095  1.00  0.00    -0.190 OA
HETATM   22  C6  UNL     1       2.188   2.571  -1.083  1.00  0.00     0.090 A 
HETATM   23  C24 UNL     1       4.406   2.789  -2.197  1.00  0.00     0.035 C 
BRANCH  17  24
HETATM   24  C22 UNL     1       3.929   0.568   2.050  1.00  0.00     0.177 C 
HETATM   25  C23 UNL     1       3.195  -0.080   3.220  1.00  0.00     0.077 C 
HETATM   26  O6  UNL     1       5.129   0.433   2.135  1.00  0.00    -0.291 OA
ENDBRANCH  17  24
BRANCH  22  27
HETATM   27  O1  UNL     1       1.599   3.150  -2.180  1.00  0.00    -0.329 OA
HETATM   28  C7  UNL     1       1.449   4.550  -2.072  1.00  0.00     0.181 C 
ENDBRANCH  22  27
ENDBRANCH  14  15
ENDBRANCH   1  14
BRANCH   3  29
HETATM   29  C20 UNL     1      -0.585  -2.421  -1.502  1.00  0.00     0.177 C 
HETATM   30  O3  UNL     1       0.310  -2.299  -2.310  1.00  0.00    -0.291 OA
HETATM   31  C21 UNL     1      -1.097  -3.858  -1.435  1.00  0.00     0.077 C 
ENDBRANCH   3  29
TORSDOF 5
