REMARK  0 active torsions:
REMARK  status: ('A' for Active; 'I' for Inactive)
ROOT
HETATM    1  C1  UNL     1      -2.196   1.473  -0.027  1.00  0.00    -0.004 A 
HETATM    2  C2  UNL     1      -2.228   0.139  -0.104  1.00  0.00    -0.004 A 
HETATM    3  C3  UNL     1      -1.091  -0.571  -0.151  1.00  0.00    -0.018 A 
HETATM    4  C4  UNL     1       0.091   0.086  -0.143  1.00  0.00     0.021 A 
HETATM    5  C5  UNL     1       0.122   1.437  -0.079  1.00  0.00     0.040 A 
HETATM    6  C6  UNL     1      -1.032   2.144  -0.010  1.00  0.00    -0.019 A 
HETATM    7  C7  UNL     1      -1.127   3.658   0.078  1.00  0.00     0.031 C 
HETATM    8  C8  UNL     1       1.329   2.073  -0.083  1.00  0.00     0.234 A 
HETATM    9  C9  UNL     1       2.473   1.353  -0.156  1.00  0.00     0.232 A 
HETATM   10  C10 UNL     1       2.412  -0.000  -0.223  1.00  0.00     0.043 A 
HETATM   11  C11 UNL     1       1.227  -0.641  -0.224  1.00  0.00     0.093 A 
HETATM   12  O1  UNL     1       1.230  -2.012  -0.248  1.00  0.00    -0.331 OA
HETATM   13  C12 UNL     1       0.139  -2.625   0.368  1.00  0.00     0.153 C 
HETATM   14  C13 UNL     1      -1.144  -2.085  -0.244  1.00  0.00     0.053 C 
HETATM   15  C14 UNL     1      -2.346  -2.758   0.441  1.00  0.00     0.007 C 
HETATM   16  C15 UNL     1       3.730  -0.751  -0.293  1.00  0.00     0.037 C 
HETATM   17  O2  UNL     1       3.562   1.891  -0.159  1.00  0.00    -0.283 OA
HETATM   18  O3  UNL     1       1.440   3.279  -0.024  1.00  0.00    -0.283 OA
ENDROOT
TORSDOF 0
