REMARK  1 active torsions:
REMARK  status: ('A' for Active; 'I' for Inactive)
REMARK    1  A    between atoms: C1_1  and  C2_2 
ROOT
HETATM    1  C1  UNL     1       0.856  -0.521   0.062  1.00  0.00     0.003 A 
HETATM    2  C5  UNL     1      -0.240   0.275  -0.058  1.00  0.00     0.001 A 
HETATM    3  C6  UNL     1      -0.319   1.460   0.577  1.00  0.00    -0.001 A 
HETATM    4  C7  UNL     1      -1.364   2.292   0.482  1.00  0.00     0.020 A 
HETATM    5  C8  UNL     1      -2.419   1.932  -0.286  1.00  0.00     0.230 A 
HETATM    6  C9  UNL     1      -2.387   0.738  -0.923  1.00  0.00     0.234 A 
HETATM    7  C10 UNL     1      -1.307  -0.092  -0.808  1.00  0.00     0.038 A 
HETATM    8  C11 UNL     1      -1.300  -1.290  -1.436  1.00  0.00    -0.017 A 
HETATM    9  C12 UNL     1      -0.230  -2.080  -1.265  1.00  0.00     0.023 A 
HETATM   10  C13 UNL     1       0.838  -1.730  -0.537  1.00  0.00     0.127 A 
HETATM   11  O1  UNL     1       1.850  -2.635  -0.437  1.00  0.00    -0.191 OA
HETATM   12  C14 UNL     1      -2.415  -1.836  -2.312  1.00  0.00     0.031 C 
HETATM   13  O2  UNL     1      -3.364   0.459  -1.587  1.00  0.00    -0.283 OA
HETATM   14  O3  UNL     1      -3.364   2.692  -0.369  1.00  0.00    -0.283 OA
HETATM   15  C15 UNL     1      -1.392   3.615   1.217  1.00  0.00     0.035 C 
ENDROOT
BRANCH   1  16
HETATM   16  C2  UNL     1       2.099  -0.118   0.873  1.00  0.00     0.024 C 
HETATM   17  C3  UNL     1       1.969  -0.634   2.316  1.00  0.00     0.005 C 
HETATM   18  C4  UNL     1       3.475  -0.494   0.284  1.00  0.00     0.005 C 
ENDBRANCH   1  16
TORSDOF 1
