REMARK  0 active torsions:
REMARK  status: ('A' for Active; 'I' for Inactive)
ROOT
HETATM    1  O1  UNL     1      -3.395   0.570  -3.164  1.00  0.00    -0.186 OA
HETATM    2  C1  UNL     1      -2.277   1.330  -3.331  1.00  0.00     0.178 A 
HETATM    3  C2  UNL     1      -2.387   2.671  -3.332  1.00  0.00     0.158 A 
HETATM    4  O2  UNL     1      -3.593   3.279  -3.161  1.00  0.00    -0.188 OA
HETATM    5  C3  UNL     1      -1.282   3.403  -3.524  1.00  0.00     0.029 A 
HETATM    6  C4  UNL     1      -0.097   2.811  -3.716  1.00  0.00    -0.000 A 
HETATM    7  C5  UNL     1       0.027   1.472  -3.708  1.00  0.00     0.003 A 
HETATM    8  C6  UNL     1      -1.083   0.722  -3.511  1.00  0.00     0.123 A 
HETATM    9  O3  UNL     1      -1.038  -0.650  -3.521  1.00  0.00    -0.305 OA
HETATM   10  C7  UNL     1      -1.198  -1.238  -2.295  1.00  0.00     0.100 A 
HETATM   11  C8  UNL     1      -2.208  -2.097  -2.055  1.00  0.00     0.024 A 
HETATM   12  C9  UNL     1      -2.376  -2.684  -0.860  1.00  0.00    -0.002 A 
HETATM   13  C10 UNL     1      -1.524  -2.442   0.150  1.00  0.00    -0.022 A 
HETATM   14  C11 UNL     1      -0.505  -1.596  -0.081  1.00  0.00    -0.002 A 
HETATM   15  C12 UNL     1      -0.350  -1.008  -1.276  1.00  0.00     0.024 A 
HETATM   16  C13 UNL     1      -1.663  -3.113   1.499  1.00  0.00     0.026 C 
HETATM   17  C14 UNL     1      -2.069  -2.127   2.609  1.00  0.00     0.005 C 
HETATM   18  C15 UNL     1      -1.762  -2.671   4.020  1.00  0.00     0.005 C 
HETATM   19  C16 UNL     1      -1.005  -1.663   4.908  1.00  0.00     0.029 C 
HETATM   20  C17 UNL     1       0.202  -1.036   4.228  1.00  0.00     0.005 A 
HETATM   21  C18 UNL     1       1.087  -1.805   3.572  1.00  0.00    -0.000 A 
HETATM   22  C19 UNL     1       2.113  -1.262   2.905  1.00  0.00     0.027 A 
HETATM   23  C20 UNL     1       2.297   0.069   2.882  1.00  0.00     0.127 A 
HETATM   24  C21 UNL     1       1.437   0.836   3.579  1.00  0.00     0.178 A 
HETATM   25  C22 UNL     1       0.395   0.299   4.241  1.00  0.00     0.154 A 
HETATM   26  O4  UNL     1      -0.451   1.140   4.899  1.00  0.00    -0.188 OA
HETATM   27  O5  UNL     1       1.618   2.184   3.587  1.00  0.00    -0.186 OA
HETATM   28  O6  UNL     1       3.336   0.643   2.200  1.00  0.00    -0.305 OA
HETATM   29  C23 UNL     1       3.110   0.828   0.862  1.00  0.00     0.100 A 
HETATM   30  C24 UNL     1       2.405   1.873   0.387  1.00  0.00     0.024 A 
HETATM   31  C25 UNL     1       2.223   2.071  -0.928  1.00  0.00    -0.002 A 
HETATM   32  C26 UNL     1       2.747   1.229  -1.835  1.00  0.00    -0.022 A 
HETATM   33  C27 UNL     1       3.437   0.172  -1.372  1.00  0.00    -0.002 A 
HETATM   34  C28 UNL     1       3.613  -0.019  -0.055  1.00  0.00     0.024 A 
HETATM   35  C29 UNL     1       2.619   1.485  -3.322  1.00  0.00     0.031 C 
HETATM   36  C30 UNL     1       1.386   0.841  -3.980  1.00  0.00     0.033 C 
ENDROOT
TORSDOF 0
