REMARK  1 active torsions:
REMARK  status: ('A' for Active; 'I' for Inactive)
REMARK    1  A    between atoms: C11_12  and  C12_14 
ROOT
HETATM    1  C1  UNL     1      -4.996   0.901   0.438  1.00  0.00     0.300 A 
HETATM    2  C2  UNL     1      -5.057  -0.453   0.383  1.00  0.00     0.069 A 
HETATM    3  C3  UNL     1      -3.922  -1.166   0.374  1.00  0.00     0.007 A 
HETATM    4  C4  UNL     1      -2.724  -0.557   0.420  1.00  0.00     0.023 A 
HETATM    5  C5  UNL     1      -2.678   0.794   0.476  1.00  0.00     0.105 A 
HETATM    6  O1  UNL     1      -3.807   1.568   0.487  1.00  0.00    -0.273 OA
HETATM    7  C6  UNL     1      -1.470   1.392   0.522  1.00  0.00     0.049 A 
HETATM    8  C7  UNL     1      -0.346   0.664   0.510  1.00  0.00     0.092 A 
HETATM    9  C8  UNL     1      -0.412  -0.666   0.449  1.00  0.00     0.003 A 
HETATM   10  C9  UNL     1      -1.594  -1.291   0.405  1.00  0.00    -0.000 A 
HETATM   11  C10 UNL     1       0.955  -1.273   0.424  1.00  0.00     0.061 A 
HETATM   12  C11 UNL     1       1.764   0.043   0.503  1.00  0.00     0.153 A 
HETATM   13  O2  UNL     1       0.801   1.103   0.546  1.00  0.00    -0.331 OA
HETATM   14  O4  UNL     1      -6.038   1.525   0.443  1.00  0.00    -0.259 OA
ENDROOT
BRANCH  12  15
HETATM   15  C12 UNL     1       2.760   0.263  -0.643  1.00  0.00     0.152 C 
HETATM   16  C13 UNL     1       3.454   1.621  -0.513  1.00  0.00     0.036 C 
HETATM   17  O3  UNL     1       2.048   0.259  -1.853  1.00  0.00    -0.224 OA
HETATM   18  C14 UNL     1       3.812  -0.849  -0.701  1.00  0.00     0.036 C 
ENDBRANCH  12  15
TORSDOF 1
