REMARK  17 active torsions:
REMARK  status: ('A' for Active; 'I' for Inactive)
REMARK    1  A    between atoms: C3_3  and  O4_10 
REMARK    2  A    between atoms: C4_5  and  C6_8 
REMARK    3  A    between atoms: O4_10  and  C7_11 
REMARK    4  A    between atoms: C8_12  and  O20_76 
REMARK    5  A    between atoms: C10_14  and  O6_18 
REMARK    6  A    between atoms: O6_18  and  C13_19 
REMARK    7  A    between atoms: C14_20  and  O18_73 
REMARK    8  A    between atoms: C16_22  and  O8_26 
REMARK    9  A    between atoms: O8_26  and  C19_27 
REMARK   10  A    between atoms: C20_28  and  O17_71 
REMARK   11  A    between atoms: C22_30  and  O10_34 
REMARK   12  A    between atoms: O10_34  and  C25_35 
REMARK   13  A    between atoms: C36_46  and  O14_58 
REMARK   14  A    between atoms: C41_51  and  C42_53 
REMARK   15  A    between atoms: O14_58  and  C45_59 
REMARK   16  A    between atoms: C45_59  and  C46_60 
REMARK   17  A    between atoms: C47_61  and  C48_62 
ROOT
HETATM    1  C19 UNL     1       1.368  -1.790   0.319  1.00  0.00     0.172 C 
HETATM    2  C20 UNL     1       1.005  -0.907   1.534  1.00  0.00     0.150 C 
HETATM    3  C21 UNL     1      -0.332  -1.371   2.131  1.00  0.00     0.094 C 
HETATM    4  C22 UNL     1      -1.418  -1.460   1.039  1.00  0.00     0.238 C 
HETATM    5  O9  UNL     1      -0.979  -2.311  -0.010  1.00  0.00    -0.331 OA
HETATM    6  C23 UNL     1       0.194  -1.873  -0.686  1.00  0.00     0.147 C 
HETATM    7  C24 UNL     1       0.452  -2.868  -1.823  1.00  0.00     0.035 C 
ENDROOT
BRANCH   4   8
HETATM    8  O10 UNL     1      -2.605  -1.976   1.602  1.00  0.00    -0.333 OA
BRANCH   8   9
HETATM    9  C25 UNL     1      -3.713  -1.905   0.726  1.00  0.00     0.118 C 
HETATM   10  C26 UNL     1      -4.247  -0.466   0.700  1.00  0.00     0.030 C 
HETATM   11  C27 UNL     1      -5.511  -0.363  -0.169  1.00  0.00     0.003 C 
HETATM   12  C28 UNL     1      -6.629  -1.340   0.280  1.00  0.00     0.003 C 
HETATM   13  C29 UNL     1      -6.081  -2.796   0.346  1.00  0.00     0.003 C 
HETATM   14  C34 UNL     1      -7.899  -1.284  -0.630  1.00  0.00     0.033 C 
HETATM   15  C54 UNL     1      -7.055  -0.934   1.701  1.00  0.00     0.000 C 
HETATM   16  C30 UNL     1      -4.794  -2.895   1.192  1.00  0.00     0.030 C 
HETATM   17  C31 UNL     1      -5.887  -3.423  -1.048  1.00  0.00     0.003 C 
HETATM   18  C32 UNL     1      -7.187  -3.409  -1.865  1.00  0.00     0.033 C 
HETATM   19  C33 UNL     1      -7.762  -1.982  -2.022  1.00  0.00     0.152 C 
HETATM   20  C38 UNL     1      -9.158  -1.951  -2.728  1.00  0.00     0.157 C 
HETATM   21  O16 UNL     1      -6.834  -1.278  -2.831  1.00  0.00    -0.224 OA
HETATM   22  C37 UNL     1      -9.757  -0.516  -2.858  1.00  0.00     0.082 C 
HETATM   23  C39 UNL     1      -9.270  -2.423  -4.186  1.00  0.00     0.036 C 
HETATM   24  O13 UNL     1     -10.030  -2.789  -1.971  1.00  0.00    -0.223 OA
HETATM   25  C36 UNL     1      -9.909   0.099  -1.452  1.00  0.00     0.129 C 
HETATM   26  C41 UNL     1     -11.021  -0.709  -3.740  1.00  0.00     0.159 C 
HETATM   27  C44 UNL     1      -8.860   0.401  -3.709  1.00  0.00     0.008 C 
HETATM   28  C35 UNL     1      -8.538   0.123  -0.740  1.00  0.00     0.033 C 
HETATM   29  C40 UNL     1     -10.589  -1.829  -4.714  1.00  0.00     0.036 C 
HETATM   30  O11 UNL     1     -12.124  -1.146  -2.967  1.00  0.00    -0.223 OA
BRANCH  25  31
HETATM   31  O14 UNL     1     -10.413   1.424  -1.553  1.00  0.00    -0.301 OA
BRANCH  31  32
HETATM   32  C45 UNL     1     -10.824   1.900  -0.383  1.00  0.00     0.296 C 
HETATM   33  O15 UNL     1     -10.906   1.236   0.625  1.00  0.00    -0.259 OA
BRANCH  32  34
HETATM   34  C46 UNL     1     -11.187   3.323  -0.365  1.00  0.00     0.068 C 
HETATM   35  C47 UNL     1     -11.616   3.907   0.765  1.00  0.00     0.005 C 
BRANCH  35  36
HETATM   36  C48 UNL     1     -11.975   5.357   0.733  1.00  0.00     0.000 A 
HETATM   37  C49 UNL     1     -12.427   5.997   1.901  1.00  0.00     0.000 A 
HETATM   38  C50 UNL     1     -12.763   7.361   1.869  1.00  0.00     0.000 A 
HETATM   39  C51 UNL     1     -12.647   8.088   0.672  1.00  0.00     0.000 A 
HETATM   40  C52 UNL     1     -12.196   7.448  -0.497  1.00  0.00     0.000 A 
HETATM   41  C53 UNL     1     -11.859   6.084  -0.467  1.00  0.00     0.000 A 
ENDBRANCH  35  36
ENDBRANCH  32  34
ENDBRANCH  31  32
ENDBRANCH  25  31
BRANCH  26  42
HETATM   42  C42 UNL     1     -11.520   0.533  -4.480  1.00  0.00     0.180 C 
HETATM   43  C43 UNL     1     -12.088   1.533  -3.471  1.00  0.00     0.038 C 
HETATM   44  O12 UNL     1     -12.563   0.141  -5.345  1.00  0.00    -0.221 OA
ENDBRANCH  26  42
ENDBRANCH   8   9
ENDBRANCH   4   8
BRANCH   2  45
HETATM   45  O17 UNL     1       2.007  -0.992   2.530  1.00  0.00    -0.351 OA
HETATM   46  C55 UNL     1       1.830  -0.065   3.576  1.00  0.00     0.174 C 
ENDBRANCH   2  45
BRANCH   1  47
HETATM   47  O8  UNL     1       2.500  -1.252  -0.343  1.00  0.00    -0.328 OA
BRANCH  47  48
HETATM   48  C16 UNL     1       3.719  -1.567   0.294  1.00  0.00     0.238 C 
HETATM   49  C15 UNL     1       4.722  -2.092  -0.753  1.00  0.00     0.094 C 
HETATM   50  C14 UNL     1       6.094  -2.350  -0.112  1.00  0.00     0.150 C 
HETATM   51  C13 UNL     1       6.554  -1.097   0.665  1.00  0.00     0.172 C 
HETATM   52  C17 UNL     1       5.456  -0.607   1.640  1.00  0.00     0.147 C 
HETATM   53  O7  UNL     1       4.242  -0.405   0.925  1.00  0.00    -0.331 OA
HETATM   54  C18 UNL     1       5.804   0.728   2.309  1.00  0.00     0.035 C 
BRANCH  50  55
HETATM   55  O18 UNL     1       7.022  -2.675  -1.130  1.00  0.00    -0.351 OA
HETATM   56  C56 UNL     1       6.751  -3.906  -1.758  1.00  0.00     0.174 C 
ENDBRANCH  50  55
BRANCH  51  57
HETATM   57  O6  UNL     1       7.724  -1.394   1.407  1.00  0.00    -0.327 OA
BRANCH  57  58
HETATM   58  C10 UNL     1       8.916  -1.075   0.717  1.00  0.00     0.270 C 
HETATM   59  C9  UNL     1      10.136  -1.728   1.414  1.00  0.00     0.237 C 
HETATM   60  C8  UNL     1      11.460  -1.261   0.768  1.00  0.00     0.180 C 
HETATM   61  O19 UNL     1      10.036  -3.140   1.308  1.00  0.00    -0.215 OA
HETATM   62  C7  UNL     1      11.485   0.279   0.673  1.00  0.00     0.175 C 
HETATM   63  C11 UNL     1      10.200   0.821   0.005  1.00  0.00     0.148 C 
HETATM   64  O5  UNL     1       9.064   0.341   0.710  1.00  0.00    -0.329 OA
HETATM   65  C12 UNL     1      10.116   2.352   0.025  1.00  0.00     0.035 C 
BRANCH  60  66
HETATM   66  O20 UNL     1      12.559  -1.713   1.543  1.00  0.00    -0.349 OA
HETATM   67  C57 UNL     1      13.747  -1.853   0.794  1.00  0.00     0.174 C 
ENDBRANCH  60  66
BRANCH  62  68
HETATM   68  O4  UNL     1      12.602   0.697  -0.091  1.00  0.00    -0.326 OA
BRANCH  68  69
HETATM   69  C3  UNL     1      13.231   1.854   0.426  1.00  0.00     0.270 C 
HETATM   70  C2  UNL     1      14.328   2.356  -0.546  1.00  0.00     0.241 C 
HETATM   71  C1  UNL     1      15.131   3.519   0.076  1.00  0.00     0.220 C 
HETATM   72  O21 UNL     1      13.721   2.793  -1.752  1.00  0.00    -0.215 OA
HETATM   73  C5  UNL     1      15.611   3.133   1.493  1.00  0.00     0.215 C 
HETATM   74  O22 UNL     1      16.248   3.826  -0.743  1.00  0.00    -0.218 OA
HETATM   75  C4  UNL     1      14.441   2.605   2.356  1.00  0.00     0.184 C 
HETATM   76  O2  UNL     1      16.174   4.264   2.134  1.00  0.00    -0.218 OA
HETATM   77  O1  UNL     1      13.812   1.523   1.681  1.00  0.00    -0.326 OA
BRANCH  75  78
HETATM   78  C6  UNL     1      14.901   2.070   3.716  1.00  0.00     0.214 C 
HETATM   79  O3  UNL     1      13.754   1.737   4.467  1.00  0.00    -0.218 OA
ENDBRANCH  75  78
ENDBRANCH  68  69
ENDBRANCH  62  68
ENDBRANCH  57  58
ENDBRANCH  51  57
ENDBRANCH  47  48
ENDBRANCH   1  47
TORSDOF 17
