REMARK  6 active torsions:
REMARK  status: ('A' for Active; 'I' for Inactive)
REMARK    1  A    between atoms: C2_2  and  O8_27 
REMARK    2  A    between atoms: C6_6  and  C7_7 
REMARK    3  A    between atoms: C7_7  and  C8_8 
REMARK    4  A    between atoms: C9_9  and  C19_23 
REMARK    5  A    between atoms: C10_10  and  C12_13 
REMARK    6  A    between atoms: C16_17  and  O2_19 
ROOT
HETATM    1  C8  UNL     1       0.074  -0.107   0.301  1.00  0.00     0.184 C 
HETATM    2  C9  UNL     1      -1.230   0.748   0.504  1.00  0.00     0.213 C 
HETATM    3  C10 UNL     1      -2.074   0.422  -0.758  1.00  0.00     0.171 C 
HETATM    4  O1  UNL     1      -1.123  -0.059  -1.674  1.00  0.00    -0.347 OA
HETATM    5  C11 UNL     1      -0.205  -0.881  -0.996  1.00  0.00     0.176 C 
HETATM    6  O4  UNL     1      -0.961   2.139   0.639  1.00  0.00    -0.218 OA
HETATM    7  O6  UNL     1       1.244   0.674   0.105  1.00  0.00    -0.221 OA
ENDROOT
BRANCH   1   8
HETATM    8  C7  UNL     1       0.393  -1.088   1.428  1.00  0.00     0.036 C 
BRANCH   8   9
HETATM    9  C6  UNL     1       1.588  -1.957   1.025  1.00  0.00     0.005 C 
HETATM   10  C1  UNL     1       2.871  -1.510   1.750  1.00  0.00     0.032 C 
HETATM   11  C2  UNL     1       4.076  -2.391   1.371  1.00  0.00     0.146 C 
HETATM   12  C3  UNL     1       3.783  -3.887   1.621  1.00  0.00     0.179 C 
HETATM   13  C4  UNL     1       2.500  -4.330   0.894  1.00  0.00     0.035 C 
HETATM   14  O7  UNL     1       4.856  -4.684   1.156  1.00  0.00    -0.221 OA
HETATM   15  C5  UNL     1       1.303  -3.447   1.275  1.00  0.00     0.003 C 
BRANCH  11  16
HETATM   16  O8  UNL     1       5.194  -1.973   2.137  1.00  0.00    -0.351 OA
HETATM   17  C20 UNL     1       5.639  -0.676   1.807  1.00  0.00     0.174 C 
ENDBRANCH  11  16
ENDBRANCH   8   9
ENDBRANCH   1   8
BRANCH   2  18
HETATM   18  C19 UNL     1      -2.033   0.355   1.744  1.00  0.00     0.218 C 
HETATM   19  O5  UNL     1      -1.301   0.740   2.885  1.00  0.00    -0.218 OA
ENDBRANCH   2  18
BRANCH   3  20
HETATM   20  C12 UNL     1      -2.867   1.523  -1.363  1.00  0.00     0.009 A 
HETATM   21  C13 UNL     1      -4.209   1.711  -0.994  1.00  0.00     0.000 A 
HETATM   22  C14 UNL     1      -4.957   2.754  -1.569  1.00  0.00     0.029 A 
HETATM   23  C15 UNL     1      -4.365   3.613  -2.512  1.00  0.00     0.153 A 
HETATM   24  C16 UNL     1      -3.019   3.426  -2.883  1.00  0.00     0.119 A 
HETATM   25  O3  UNL     1      -5.070   4.588  -3.047  1.00  0.00    -0.188 OA
HETATM   26  C17 UNL     1      -2.273   2.381  -2.307  1.00  0.00     0.025 A 
BRANCH  24  27
HETATM   27  O2  UNL     1      -2.457   4.225  -3.766  1.00  0.00    -0.326 OA
HETATM   28  C18 UNL     1      -3.248   5.266  -4.322  1.00  0.00     0.181 C 
ENDBRANCH  24  27
ENDBRANCH   3  20
TORSDOF 6
