REMARK  0 active torsions:
REMARK  status: ('A' for Active; 'I' for Inactive)
ROOT
HETATM    1  C1  UNL     1       1.877  -1.252   0.014  1.00  0.00     0.031 C 
HETATM    2  C2  UNL     1       2.305   0.285  -0.127  1.00  0.00     0.003 C 
HETATM    3  C3  UNL     1       1.104   1.386  -0.080  1.00  0.00     0.004 C 
HETATM    4  C4  UNL     1      -0.209   1.041   0.773  1.00  0.00     0.023 C 
HETATM    5  C5  UNL     1       0.219  -0.258   1.236  1.00  0.00    -0.020 C 
HETATM    6  C6  UNL     1       0.369  -1.121  -0.014  1.00  0.00     0.108 C 
HETATM    7  O1  UNL     1      -0.762  -1.916   0.193  1.00  0.00    -0.355 OA
HETATM    8  C7  UNL     1      -1.947  -1.051   0.146  1.00  0.00     0.143 C 
HETATM    9  C8  UNL     1      -1.625   0.554   0.191  1.00  0.00     0.034 C 
HETATM   10  C9  UNL     1      -1.953   1.250  -1.137  1.00  0.00     0.003 C 
HETATM   11  C10 UNL     1       0.127  -0.717  -1.506  1.00  0.00     0.034 C 
HETATM   12  C11 UNL     1       0.430  -0.608   2.522  1.00  0.00    -0.007 C 
ENDROOT
TORSDOF 0
