REMARK  1 active torsions:
REMARK  status: ('A' for Active; 'I' for Inactive)
REMARK    1  A    between atoms: C4_4  and  C9_10 
ROOT
HETATM    1  C1  UNL     1       1.213   1.317   0.902  1.00  0.00     0.028 A 
HETATM    2  C2  UNL     1       1.908  -0.004   1.054  1.00  0.00    -0.032 A 
HETATM    3  C3  UNL     1       1.291  -0.955   0.349  1.00  0.00    -0.021 A 
HETATM    4  C4  UNL     1       0.086  -0.437  -0.385  1.00  0.00     0.138 A 
HETATM    5  C5  UNL     1      -0.027   1.053   0.019  1.00  0.00     0.038 A 
HETATM    6  C6  UNL     1      -1.360   1.145   0.789  1.00  0.00     0.033 C 
HETATM    7  C7  UNL     1      -1.584  -0.304   1.211  1.00  0.00     0.143 C 
HETATM    8  O1  UNL     1      -1.096  -1.031   0.109  1.00  0.00    -0.353 OA
HETATM    9  C8  UNL     1      -2.485   1.608  -0.135  1.00  0.00     0.003 C 
HETATM   10  C10 UNL     1       1.740  -2.392   0.285  1.00  0.00     0.028 C 
ENDROOT
BRANCH   4  11
HETATM   11  C9  UNL     1       0.158  -0.666  -1.891  1.00  0.00     0.213 C 
HETATM   12  O2  UNL     1       1.330  -0.049  -2.373  1.00  0.00    -0.218 OA
ENDBRANCH   4  11
TORSDOF 1
