REMARK  2 active torsions:
REMARK  status: ('A' for Active; 'I' for Inactive)
REMARK    1  A    between atoms: C6_6  and  O1_8 
REMARK    2  A    between atoms: O1_8  and  C8_9 
ROOT
HETATM    1  C1  UNL     1      -1.943   0.930  -0.381  1.00  0.00    -0.042 C 
HETATM    2  C2  UNL     1      -2.197  -0.371  -0.115  1.00  0.00     0.015 A 
HETATM    3  C3  UNL     1      -1.211  -1.513  -0.289  1.00  0.00     0.071 A 
HETATM    4  C4  UNL     1       0.061  -1.301   0.545  1.00  0.00     0.135 C 
HETATM    5  C5  UNL     1       1.037  -0.314  -0.107  1.00  0.00     0.066 C 
HETATM    6  C6  UNL     1       0.602   1.151  -0.019  1.00  0.00     0.131 C 
HETATM    7  C7  UNL     1      -0.615   1.410  -0.930  1.00  0.00     0.052 C 
HETATM    8  C10 UNL     1       2.301  -0.695   0.668  1.00  0.00     0.091 C 
HETATM    9  C11 UNL     1       2.063  -2.160   0.895  1.00  0.00     0.272 C 
HETATM   10  O3  UNL     1       0.795  -2.510   0.713  1.00  0.00    -0.304 OA
HETATM   11  O4  UNL     1       2.949  -2.924   1.199  1.00  0.00    -0.264 OA
HETATM   12  C12 UNL     1       3.568  -0.394  -0.125  1.00  0.00     0.011 C 
HETATM   13  C13 UNL     1      -2.045  -2.705   0.158  1.00  0.00    -0.035 A 
HETATM   14  C14 UNL     1      -3.285  -2.363   0.545  1.00  0.00     0.034 A 
HETATM   15  C15 UNL     1      -3.453  -0.926   0.400  1.00  0.00     0.191 A 
HETATM   16  O5  UNL     1      -4.461  -0.314   0.664  1.00  0.00    -0.287 OA
HETATM   17  C16 UNL     1      -1.525  -4.119   0.156  1.00  0.00     0.027 C 
HETATM   18  C17 UNL     1      -2.998   1.983  -0.142  1.00  0.00     0.026 C 
ENDROOT
BRANCH   6  19
HETATM   19  O1  UNL     1       1.676   1.973  -0.459  1.00  0.00    -0.304 OA
BRANCH  19  20
HETATM   20  C8  UNL     1       1.527   3.241  -0.090  1.00  0.00     0.272 C 
HETATM   21  C9  UNL     1       2.604   4.178  -0.568  1.00  0.00     0.106 C 
HETATM   22  O2  UNL     1       0.604   3.643   0.580  1.00  0.00    -0.264 OA
ENDBRANCH  19  20
ENDBRANCH   6  19
TORSDOF 2
