REMARK  2 active torsions:
REMARK  status: ('A' for Active; 'I' for Inactive)
REMARK    1  A    between atoms: C5_5  and  O1_9 
REMARK    2  A    between atoms: O1_9  and  C9_10 
ROOT
HETATM    1  C1  UNL     1       1.484   0.506  -0.902  1.00  0.00    -0.011 C 
HETATM    2  C2  UNL     1       0.662  -0.642  -1.457  1.00  0.00     0.014 C 
HETATM    3  C3  UNL     1      -0.883  -0.576  -1.557  1.00  0.00     0.148 C 
HETATM    4  C4  UNL     1      -1.769   0.096  -0.490  1.00  0.00     0.069 C 
HETATM    5  C5  UNL     1      -1.240   1.338   0.231  1.00  0.00     0.131 C 
HETATM    6  C6  UNL     1      -0.361   2.194  -0.705  1.00  0.00     0.052 C 
HETATM    7  C7  UNL     1       1.088   1.772  -0.652  1.00  0.00    -0.042 C 
HETATM    8  C8  UNL     1       2.096   2.822  -0.252  1.00  0.00     0.026 C 
HETATM    9  C11 UNL     1      -2.195  -1.094   0.369  1.00  0.00     0.091 C 
HETATM   10  C12 UNL     1      -2.084  -2.217  -0.619  1.00  0.00     0.272 C 
HETATM   11  O3  UNL     1      -1.396  -1.900  -1.713  1.00  0.00    -0.300 OA
HETATM   12  O4  UNL     1      -2.584  -3.299  -0.422  1.00  0.00    -0.264 OA
HETATM   13  C13 UNL     1      -3.602  -0.908   0.932  1.00  0.00     0.011 C 
HETATM   14  C14 UNL     1       1.391  -1.867  -0.840  1.00  0.00     0.163 C 
HETATM   15  C15 UNL     1       2.795  -1.349  -0.609  1.00  0.00     0.007 C 
HETATM   16  C16 UNL     1       2.826  -0.012  -0.637  1.00  0.00    -0.003 C 
HETATM   17  C17 UNL     1       1.342  -3.107  -1.727  1.00  0.00     0.042 C 
HETATM   18  O5  UNL     1       0.836  -2.205   0.412  1.00  0.00    -0.217 OA
ENDROOT
BRANCH   5  19
HETATM   19  O1  UNL     1      -0.510   0.969   1.397  1.00  0.00    -0.304 OA
BRANCH  19  20
HETATM   20  C9  UNL     1      -0.297   2.000   2.209  1.00  0.00     0.272 C 
HETATM   21  C10 UNL     1       0.535   1.696   3.426  1.00  0.00     0.106 C 
HETATM   22  O2  UNL     1      -0.725   3.114   2.010  1.00  0.00    -0.264 OA
ENDBRANCH  19  20
ENDBRANCH   5  19
TORSDOF 2
