REMARK  5 active torsions:
REMARK  status: ('A' for Active; 'I' for Inactive)
REMARK    1  A    between atoms: C1_1  and  C2_2 
REMARK    2  A    between atoms: C1_1  and  C5_6 
REMARK    3  A    between atoms: C2_2  and  C3_4 
REMARK    4  A    between atoms: C5_6  and  C6_7 
REMARK    5  A    between atoms: C6_7  and  C7_8 
ROOT
HETATM    1  C1  UNL     1       0.494   0.825   1.039  1.00  0.00     0.038 C 
ENDROOT
BRANCH   1   2
HETATM    2  C2  UNL     1       2.021   0.862   1.018  1.00  0.00     0.174 C 
HETATM    3  O1  UNL     1       2.459   1.647   2.103  1.00  0.00    -0.219 OA
BRANCH   2   4
HETATM    4  C3  UNL     1       2.631  -0.511   1.113  1.00  0.00     0.006 C 
HETATM    5  C4  UNL     1       3.471  -0.908   0.143  1.00  0.00    -0.002 C 
ENDBRANCH   2   4
ENDBRANCH   1   2
BRANCH   1   6
HETATM    6  C5  UNL     1      -0.096   0.121  -0.184  1.00  0.00     0.003 C 
BRANCH   6   7
HETATM    7  C6  UNL     1      -1.625   0.121  -0.184  1.00  0.00     0.000 C 
BRANCH   7   8
HETATM    8  C7  UNL     1      -2.215  -0.586  -1.404  1.00  0.00     0.000 C 
HETATM    9  C8  UNL     1      -3.744  -0.586  -1.404  1.00  0.00     0.000 C 
ENDBRANCH   7   8
ENDBRANCH   6   7
ENDBRANCH   1   6
TORSDOF 5
