REMARK  0 active torsions:
REMARK  status: ('A' for Active; 'I' for Inactive)
ROOT
HETATM    1  C1  UNL     1      -3.962  -0.482  -0.121  1.00  0.00     0.000 A 
HETATM    2  C2  UNL     1      -3.640  -1.778  -0.019  1.00  0.00     0.000 A 
HETATM    3  C3  UNL     1      -2.350  -2.135   0.053  1.00  0.00     0.003 A 
HETATM    4  C4  UNL     1      -1.372  -1.209   0.024  1.00  0.00     0.042 A 
HETATM    5  C5  UNL     1      -1.691   0.094  -0.078  1.00  0.00     0.042 A 
HETATM    6  C6  UNL     1      -2.992   0.444  -0.149  1.00  0.00     0.003 A 
HETATM    7  C7  UNL     1      -0.724   1.052  -0.112  1.00  0.00     0.198 A 
HETATM    8  C8  UNL     1       0.587   0.680  -0.044  1.00  0.00     0.070 A 
HETATM    9  C9  UNL     1       0.891  -0.631   0.056  1.00  0.00     0.046 A 
HETATM   10  C10 UNL     1      -0.071  -1.594   0.095  1.00  0.00     0.196 A 
HETATM   11  O1  UNL     1       0.217  -2.769   0.188  1.00  0.00    -0.287 OA
HETATM   12  C11 UNL     1       2.179  -1.013   0.119  1.00  0.00     0.033 A 
HETATM   13  C12 UNL     1       3.180  -0.123   0.084  1.00  0.00     0.158 A 
HETATM   14  C13 UNL     1       2.872   1.178  -0.016  1.00  0.00     0.181 A 
HETATM   15  C14 UNL     1       1.590   1.593  -0.079  1.00  0.00     0.161 A 
HETATM   16  O2  UNL     1       1.427   2.945  -0.173  1.00  0.00    -0.188 OA
HETATM   17  O3  UNL     1       3.885   2.087  -0.054  1.00  0.00    -0.186 OA
HETATM   18  O4  UNL     1       4.484  -0.508   0.142  1.00  0.00    -0.188 OA
HETATM   19  O5  UNL     1      -1.057   2.211  -0.205  1.00  0.00    -0.286 OA
ENDROOT
TORSDOF 0
