REMARK  9 active torsions:
REMARK  status: ('A' for Active; 'I' for Inactive)
REMARK    1  A    between atoms: C10_11  and  C29_38 
REMARK       I    between atoms: N3_15  and  C16_20 
REMARK    2  A    between atoms: C16_20  and  C17_22 
REMARK    3  A    between atoms: C17_22  and  N4_23 
REMARK    4  A    between atoms: C17_22  and  C26_34 
REMARK       I    between atoms: N4_23  and  C18_24 
REMARK    5  A    between atoms: C18_24  and  C19_25 
REMARK    6  A    between atoms: C19_25  and  N5_26 
REMARK    7  A    between atoms: C19_25  and  C22_29 
REMARK    8  A    between atoms: C22_29  and  C24_31 
REMARK    9  A    between atoms: C29_38  and  C30_39 
ROOT
HETATM    1  C1  UNL     1      -0.600   5.471  -1.348  1.00  0.00     0.094 C 
HETATM    2  C2  UNL     1      -1.229   5.514  -0.088  1.00  0.00     0.024 C 
HETATM    3  C3  UNL     1      -2.629   5.565  -0.008  1.00  0.00     0.002 C 
HETATM    4  C4  UNL     1      -3.377   5.535  -1.199  1.00  0.00     0.002 C 
HETATM    5  C5  UNL     1      -2.758   5.795  -2.432  1.00  0.00     0.002 C 
HETATM    6  C6  UNL     1      -1.358   5.740  -2.502  1.00  0.00     0.024 C 
HETATM    7  C7  UNL     1      -4.805   5.070  -1.178  1.00  0.00     0.021 C 
HETATM    8  C8  UNL     1      -5.033   3.727  -1.184  1.00  0.00     0.102 C 
HETATM    9  N1  UNL     1      -3.994   2.803  -1.170  1.00  0.00    -0.209 NA
HETATM   10  C9  UNL     1      -4.049   1.436  -1.197  1.00  0.00     0.279 C 
HETATM   11  C10 UNL     1      -2.752   0.623  -1.119  1.00  0.00     0.191 C 
HETATM   12  N2  UNL     1      -1.463   1.252  -1.594  1.00  0.00    -0.228 NA
HETATM   13  C11 UNL     1      -0.709   2.164  -0.863  1.00  0.00     0.275 C 
HETATM   14  C12 UNL     1       0.674   2.588  -1.367  1.00  0.00     0.192 C 
HETATM   15  N3  UNL     1       1.609   1.766  -0.607  1.00  0.00    -0.310 N 
HETATM   16  C13 UNL     1       2.254   2.479   0.490  1.00  0.00     0.107 C 
HETATM   17  C14 UNL     1       1.670   3.902   0.451  1.00  0.00     0.057 C 
HETATM   18  C15 UNL     1       1.307   3.979  -1.041  1.00  0.00     0.153 C 
HETATM   19  O1  UNL     1       0.680   5.190  -1.512  1.00  0.00    -0.331 OA
HETATM   20  C16 UNL     1       1.877   0.418  -0.906  1.00  0.00     0.256 C 
HETATM   21  O2  UNL     1       1.301  -0.125  -1.818  1.00  0.00    -0.270 OA
HETATM   22  O4  UNL     1      -1.131   2.590   0.186  1.00  0.00    -0.268 OA
HETATM   23  O5  UNL     1      -5.115   0.871  -1.279  1.00  0.00    -0.268 OA
ENDROOT
BRANCH  20  24
HETATM   24  C17 UNL     1       2.885  -0.328  -0.072  1.00  0.00     0.184 C 
BRANCH  24  25
HETATM   25  N4  UNL     1       2.355  -1.619   0.391  1.00  0.00    -0.229 NA
HETATM   26  C18 UNL     1       2.769  -2.123   1.590  1.00  0.00     0.283 C 
HETATM   27  O3  UNL     1       3.564  -1.514   2.266  1.00  0.00    -0.268 OA
BRANCH  26  28
HETATM   28  C19 UNL     1       2.219  -3.445   2.049  1.00  0.00     0.298 C 
BRANCH  28  29
HETATM   29  N5  UNL     1       0.928  -3.256   2.688  1.00  0.00     0.148 N 
HETATM   30  C20 UNL     1       1.072  -2.473   3.902  1.00  0.00     0.286 C 
HETATM   31  C21 UNL     1      -0.002  -2.613   1.775  1.00  0.00     0.286 C 
ENDBRANCH  28  29
BRANCH  28  32
HETATM   32  C22 UNL     1       2.107  -4.459   0.908  1.00  0.00     0.041 C 
HETATM   33  C23 UNL     1       1.435  -5.762   1.340  1.00  0.00     0.003 C 
BRANCH  32  34
HETATM   34  C24 UNL     1       3.437  -4.688   0.191  1.00  0.00     0.003 C 
HETATM   35  C25 UNL     1       3.279  -5.483  -1.105  1.00  0.00     0.000 C 
ENDBRANCH  32  34
ENDBRANCH  28  32
ENDBRANCH  26  28
ENDBRANCH  24  25
BRANCH  24  36
HETATM   36  C26 UNL     1       4.219  -0.512  -0.797  1.00  0.00     0.032 C 
HETATM   37  C27 UNL     1       4.090  -1.346  -2.070  1.00  0.00     0.003 C 
HETATM   38  C28 UNL     1       4.949   0.811  -1.031  1.00  0.00     0.003 C 
ENDBRANCH  24  36
ENDBRANCH  20  24
BRANCH  11  39
HETATM   39  C29 UNL     1      -2.576   0.068   0.299  1.00  0.00     0.060 C 
BRANCH  39  40
HETATM   40  C30 UNL     1      -3.660  -0.885   0.654  1.00  0.00    -0.020 A 
HETATM   41  C31 UNL     1      -4.744  -0.457   1.443  1.00  0.00    -0.004 A 
HETATM   42  C32 UNL     1      -5.770  -1.357   1.777  1.00  0.00    -0.000 A 
HETATM   43  C33 UNL     1      -5.713  -2.688   1.324  1.00  0.00    -0.000 A 
HETATM   44  C34 UNL     1      -4.631  -3.115   0.535  1.00  0.00    -0.000 A 
HETATM   45  C35 UNL     1      -3.606  -2.215   0.199  1.00  0.00    -0.004 A 
ENDBRANCH  39  40
ENDBRANCH  11  39
TORSDOF 9
