REMARK  7 active torsions:
REMARK  status: ('A' for Active; 'I' for Inactive)
REMARK    1  A    between atoms: C2_2  and  O10_47 
REMARK    2  A    between atoms: C7_7  and  O8_42 
REMARK    3  A    between atoms: C12_12  and  O1_14 
REMARK    4  A    between atoms: C19_22  and  O5_35 
REMARK    5  A    between atoms: O5_35  and  C28_36 
REMARK    6  A    between atoms: C28_36  and  C29_37 
REMARK    7  A    between atoms: O8_42  and  C32_43 
ROOT
HETATM    1  C1  UNL     1       4.389   0.109  -0.457  1.00  0.00     0.245 C 
HETATM    2  C2  UNL     1       3.904   1.520  -0.926  1.00  0.00     0.187 C 
HETATM    3  C3  UNL     1       2.484   1.852  -0.516  1.00  0.00     0.007 C 
HETATM    4  C4  UNL     1       1.729   2.705  -1.238  1.00  0.00    -0.003 C 
HETATM    5  C5  UNL     1       0.340   3.125  -0.941  1.00  0.00    -0.006 C 
HETATM    6  C6  UNL     1      -0.299   3.098   0.252  1.00  0.00    -0.013 C 
HETATM    7  C7  UNL     1      -1.744   3.553   0.373  1.00  0.00     0.165 C 
HETATM    8  C8  UNL     1      -2.803   2.549  -0.008  1.00  0.00     0.013 A 
HETATM    9  C9  UNL     1      -2.502   1.336  -0.658  1.00  0.00     0.016 A 
HETATM   10  C10 UNL     1      -3.516   0.416  -1.018  1.00  0.00     0.069 A 
HETATM   11  C11 UNL     1      -4.871   0.744  -0.723  1.00  0.00     0.095 A 
HETATM   12  C12 UNL     1      -5.170   1.951  -0.053  1.00  0.00     0.106 A 
HETATM   13  C13 UNL     1      -4.143   2.838   0.299  1.00  0.00     0.024 A 
HETATM   14 CL1  UNL     1      -6.203  -0.264  -1.170  1.00  0.00    -0.079 Cl
HETATM   15  N1  UNL     1      -3.123  -0.766  -1.647  1.00  0.00    -0.339 N 
HETATM   16  C15 UNL     1      -2.107  -0.715  -2.719  1.00  0.00     0.126 C 
HETATM   17  C16 UNL     1      -3.678  -2.104  -1.283  1.00  0.00     0.167 C 
HETATM   18  C17 UNL     1      -2.637  -3.205  -1.272  1.00  0.00     0.176 C 
HETATM   19  C18 UNL     1      -1.961  -3.537   0.039  1.00  0.00     0.099 C 
HETATM   20  C19 UNL     1      -0.687  -2.713   0.312  1.00  0.00     0.159 C 
HETATM   21  C20 UNL     1       0.469  -2.936  -0.686  1.00  0.00     0.143 A 
HETATM   22  C21 UNL     1       1.850  -3.523  -0.209  1.00  0.00     0.145 A 
HETATM   23  C22 UNL     1       3.074  -3.535  -1.135  1.00  0.00     0.058 C 
HETATM   24  C23 UNL     1       4.014  -2.391  -0.721  1.00  0.00     0.133 C 
HETATM   25  O2  UNL     1       5.207  -2.469  -1.510  1.00  0.00    -0.286 OA
HETATM   26  C24 UNL     1       6.086  -1.445  -1.484  1.00  0.00     0.386 C 
HETATM   27  N2  UNL     1       5.748  -0.201  -0.984  1.00  0.00    -0.183 NA
HETATM   28  O3  UNL     1       7.205  -1.592  -1.916  1.00  0.00    -0.236 OA
HETATM   29  C25 UNL     1       3.397  -0.992  -0.895  1.00  0.00     0.087 C 
HETATM   30  C26 UNL     1       3.756  -4.904  -1.016  1.00  0.00     0.005 C 
HETATM   31  O4  UNL     1       0.818  -4.283  -0.752  1.00  0.00    -0.354 OA
HETATM   32  C27 UNL     1       0.352  -2.396  -2.106  1.00  0.00     0.035 C 
HETATM   33  O7  UNL     1      -2.367  -3.818  -2.279  1.00  0.00    -0.294 OA
HETATM   34  C34 UNL     1       0.363   2.641   1.529  1.00  0.00     0.029 C 
HETATM   35  O11 UNL     1       4.457   0.080   0.961  1.00  0.00    -0.198 OA
ENDROOT
BRANCH  20  36
HETATM   36  O5  UNL     1      -0.244  -2.996   1.633  1.00  0.00    -0.301 OA
BRANCH  36  37
HETATM   37  C28 UNL     1      -1.020  -2.439   2.559  1.00  0.00     0.271 C 
HETATM   38  O6  UNL     1      -1.920  -1.670   2.311  1.00  0.00    -0.264 OA
BRANCH  37  39
HETATM   39  C29 UNL     1      -0.705  -2.830   3.979  1.00  0.00     0.086 C 
HETATM   40  C30 UNL     1      -1.609  -2.127   4.990  1.00  0.00     0.010 C 
HETATM   41  C31 UNL     1      -0.672  -4.346   4.172  1.00  0.00     0.010 C 
ENDBRANCH  37  39
ENDBRANCH  36  37
ENDBRANCH  20  36
BRANCH  12  42
HETATM   42  O1  UNL     1      -6.414   2.272   0.250  1.00  0.00    -0.327 OA
HETATM   43  C14 UNL     1      -6.639   3.498   0.930  1.00  0.00     0.181 C 
ENDBRANCH  12  42
BRANCH   2  44
HETATM   44  O10 UNL     1       4.754   2.553  -0.451  1.00  0.00    -0.345 OA
HETATM   45  C35 UNL     1       4.568   3.777  -1.123  1.00  0.00     0.175 C 
ENDBRANCH   2  44
BRANCH   7  46
HETATM   46  O8  UNL     1      -1.932   4.736  -0.395  1.00  0.00    -0.295 OA
BRANCH  46  47
HETATM   47  C32 UNL     1      -1.281   5.779   0.115  1.00  0.00     0.273 C 
HETATM   48  C33 UNL     1      -1.381   7.051  -0.688  1.00  0.00     0.106 C 
HETATM   49  O9  UNL     1      -0.648   5.742   1.144  1.00  0.00    -0.264 OA
ENDBRANCH  46  47
ENDBRANCH   7  46
TORSDOF 7
