REMARK  8 active torsions:
REMARK  status: ('A' for Active; 'I' for Inactive)
REMARK    1  A    between atoms: C5_7  and  O8_48 
REMARK    2  A    between atoms: C15_17  and  O2_19 
REMARK    3  A    between atoms: C21_26  and  O4_33 
REMARK    4  A    between atoms: O4_33  and  C27_34 
REMARK    5  A    between atoms: C27_34  and  C28_35 
REMARK    6  A    between atoms: C28_35  and  N3_36 
REMARK       I    between atoms: N3_36  and  C29_37 
REMARK    7  A    between atoms: C29_37  and  C30_38 
REMARK    8  A    between atoms: C30_38  and  C31_39 
ROOT
HETATM    1  C1  UNL     1      -6.205   1.793   0.293  1.00  0.00     0.386 C 
HETATM    2  O1  UNL     1      -5.545   0.697   0.721  1.00  0.00    -0.286 OA
HETATM    3  C2  UNL     1      -4.115   0.645   0.639  1.00  0.00     0.133 C 
HETATM    4  C3  UNL     1      -3.533   2.000   1.061  1.00  0.00     0.087 C 
HETATM    5  C4  UNL     1      -4.092   3.154   0.197  1.00  0.00     0.245 C 
HETATM    6  N1  UNL     1      -5.561   2.984   0.027  1.00  0.00    -0.183 NA
HETATM    7  C5  UNL     1      -3.729   4.539   0.824  1.00  0.00     0.187 C 
HETATM    8  C6  UNL     1      -2.240   4.707   1.059  1.00  0.00     0.007 C 
HETATM    9  C7  UNL     1      -1.672   4.336   2.223  1.00  0.00    -0.003 C 
HETATM   10  C8  UNL     1      -0.225   4.350   2.525  1.00  0.00    -0.008 C 
HETATM   11  C9  UNL     1       0.787   4.211   1.641  1.00  0.00    -0.040 C 
HETATM   12  C10 UNL     1       2.231   4.242   2.102  1.00  0.00     0.048 C 
HETATM   13  C11 UNL     1       2.994   3.025   1.672  1.00  0.00    -0.015 A 
HETATM   14  C12 UNL     1       2.856   1.814   2.373  1.00  0.00     0.014 A 
HETATM   15  C13 UNL     1       3.566   0.658   1.975  1.00  0.00     0.074 A 
HETATM   16  C14 UNL     1       4.412   0.729   0.830  1.00  0.00     0.096 A 
HETATM   17  C15 UNL     1       4.555   1.951   0.137  1.00  0.00     0.106 A 
HETATM   18  C16 UNL     1       3.850   3.088   0.561  1.00  0.00     0.021 A 
HETATM   19 CL1  UNL     1       5.281  -0.645   0.242  1.00  0.00    -0.079 Cl
HETATM   20  N2  UNL     1       3.432  -0.506   2.723  1.00  0.00    -0.296 N 
HETATM   21  C18 UNL     1       4.652  -1.061   3.350  1.00  0.00     0.133 C 
HETATM   22  C19 UNL     1       2.242  -1.186   2.932  1.00  0.00     0.240 C 
HETATM   23  C20 UNL     1       0.902  -0.779   2.334  1.00  0.00     0.121 C 
HETATM   24  C21 UNL     1       0.291  -1.914   1.484  1.00  0.00     0.161 C 
HETATM   25  C22 UNL     1      -1.197  -1.807   1.117  1.00  0.00     0.144 A 
HETATM   26  C23 UNL     1      -2.086  -0.607   1.639  1.00  0.00     0.145 A 
HETATM   27  C24 UNL     1      -3.623  -0.525   1.514  1.00  0.00     0.058 C 
HETATM   28  C25 UNL     1      -4.279  -1.846   1.090  1.00  0.00     0.005 C 
HETATM   29  O3  UNL     1      -1.461  -0.647   0.393  1.00  0.00    -0.354 OA
HETATM   30  C26 UNL     1      -1.799  -2.975   0.346  1.00  0.00     0.035 C 
HETATM   31  O7  UNL     1       2.250  -2.174   3.631  1.00  0.00    -0.272 OA
HETATM   32  C36 UNL     1       0.549   4.002   0.164  1.00  0.00     0.027 C 
HETATM   33  O9  UNL     1      -3.492   3.051  -1.086  1.00  0.00    -0.198 OA
HETATM   34  O10 UNL     1      -7.404   1.758   0.137  1.00  0.00    -0.236 OA
ENDROOT
BRANCH  24  35
HETATM   35  O4  UNL     1       1.059  -2.059   0.295  1.00  0.00    -0.300 OA
BRANCH  35  36
HETATM   36  C27 UNL     1       1.805  -3.160   0.305  1.00  0.00     0.292 C 
HETATM   37  O6  UNL     1       2.520  -3.481   1.227  1.00  0.00    -0.262 OA
BRANCH  36  38
HETATM   38  C28 UNL     1       1.709  -4.010  -0.934  1.00  0.00     0.170 C 
HETATM   39  C35 UNL     1       2.576  -5.268  -0.846  1.00  0.00     0.035 C 
BRANCH  38  40
HETATM   40  N3  UNL     1       2.018  -3.238  -2.145  1.00  0.00    -0.311 N 
HETATM   41  C29 UNL     1       1.730  -3.719  -3.391  1.00  0.00     0.234 C 
HETATM   42  O5  UNL     1       1.990  -3.061  -4.373  1.00  0.00    -0.272 OA
HETATM   43  C34 UNL     1       2.652  -1.920  -2.008  1.00  0.00     0.129 C 
BRANCH  41  44
HETATM   44  C30 UNL     1       1.088  -5.074  -3.514  1.00  0.00     0.088 C 
BRANCH  44  45
HETATM   45  C31 UNL     1       0.254  -5.211  -4.789  1.00  0.00     0.009 C 
HETATM   46  C32 UNL     1      -0.264  -6.633  -5.004  1.00  0.00     0.001 C 
HETATM   47  C33 UNL     1      -0.850  -4.158  -4.887  1.00  0.00     0.001 C 
ENDBRANCH  44  45
ENDBRANCH  41  44
ENDBRANCH  38  40
ENDBRANCH  36  38
ENDBRANCH  35  36
ENDBRANCH  24  35
BRANCH  17  48
HETATM   48  O2  UNL     1       5.342   2.049  -0.918  1.00  0.00    -0.327 OA
HETATM   49  C17 UNL     1       5.438   3.309  -1.564  1.00  0.00     0.181 C 
ENDBRANCH  17  48
BRANCH   7  50
HETATM   50  O8  UNL     1      -4.184   5.619   0.025  1.00  0.00    -0.345 OA
HETATM   51  C37 UNL     1      -4.086   6.867   0.672  1.00  0.00     0.175 C 
ENDBRANCH   7  50
TORSDOF 8
