REMARK  2 active torsions:
REMARK  status: ('A' for Active; 'I' for Inactive)
REMARK    1  A    between atoms: C1_2  and  C8_12 
REMARK    2  A    between atoms: C5_6  and  C6_7 
ROOT
HETATM    1  O1  UNL     1      -0.248   1.033  -0.055  1.00  0.00    -0.299 OA
HETATM    2  C1  UNL     1      -1.303   0.184  -0.135  1.00  0.00     0.138 A 
HETATM    3  C2  UNL     1      -1.192  -1.152   0.019  1.00  0.00     0.072 A 
HETATM    4  C3  UNL     1       0.125  -1.728   0.287  1.00  0.00     0.225 A 
HETATM    5  C4  UNL     1       1.244  -0.789   0.363  1.00  0.00     0.195 A 
HETATM    6  C5  UNL     1       0.990   0.529   0.189  1.00  0.00     0.163 A 
HETATM    7  O3  UNL     1       2.478  -1.238   0.600  1.00  0.00    -0.185 OA
HETATM    8  O4  UNL     1       0.277  -2.918   0.437  1.00  0.00    -0.284 OA
ENDROOT
BRANCH   2   9
HETATM    9  C8  UNL     1      -2.625   0.764  -0.402  1.00  0.00     0.196 C 
HETATM   10  C9  UNL     1      -3.848  -0.062  -0.109  1.00  0.00     0.080 C 
HETATM   11  O5  UNL     1      -2.723   1.883  -0.850  1.00  0.00    -0.289 OA
ENDBRANCH   2   9
BRANCH   6  12
HETATM   12  C6  UNL     1       2.096   1.496   0.262  1.00  0.00     0.198 C 
HETATM   13  C7  UNL     1       3.408   1.143  -0.385  1.00  0.00     0.080 C 
HETATM   14  O2  UNL     1       1.947   2.553   0.830  1.00  0.00    -0.289 OA
ENDBRANCH   6  12
TORSDOF 2
