REMARK  1 active torsions:
REMARK  status: ('A' for Active; 'I' for Inactive)
REMARK    1  A    between atoms: C2_2  and  C15_18 
ROOT
HETATM    1  C1  UNL     1       2.269  -1.277  -0.051  1.00  0.00     0.143 A 
HETATM    2  C2  UNL     1       0.805  -1.853   0.033  1.00  0.00     0.148 A 
HETATM    3  O1  UNL     1       1.830  -2.178   0.920  1.00  0.00    -0.354 OA
HETATM    4  C3  UNL     1      -0.322  -1.107   0.760  1.00  0.00     0.033 C 
HETATM    5  C4  UNL     1      -1.324  -0.566  -0.283  1.00  0.00     0.010 C 
HETATM    6  C5  UNL     1      -2.020   0.770   0.039  1.00  0.00     0.060 C 
HETATM    7  C6  UNL     1      -1.182   2.070  -0.076  1.00  0.00     0.150 C 
HETATM    8  C7  UNL     1       0.297   1.889   0.201  1.00  0.00    -0.005 C 
HETATM    9  C8  UNL     1       1.193   1.510  -0.734  1.00  0.00    -0.046 C 
HETATM   10  C9  UNL     1       2.623   1.219  -0.336  1.00  0.00     0.024 C 
HETATM   11  C10 UNL     1       2.740   0.022   0.625  1.00  0.00     0.036 C 
HETATM   12  C11 UNL     1       0.814   1.344  -2.184  1.00  0.00     0.026 C 
HETATM   13  O2  UNL     1      -1.684   2.981   0.918  1.00  0.00    -0.296 OA
HETATM   14  C12 UNL     1      -2.365   2.301   1.842  1.00  0.00     0.292 C 
HETATM   15  C13 UNL     1      -2.576   0.926   1.420  1.00  0.00     0.043 C 
HETATM   16  C14 UNL     1      -3.170  -0.047   2.137  1.00  0.00     0.001 C 
HETATM   17  O3  UNL     1      -2.770   2.750   2.889  1.00  0.00    -0.259 OA
ENDROOT
BRANCH   2  18
HETATM   18  C15 UNL     1       0.463  -3.104  -0.770  1.00  0.00     0.212 C 
HETATM   19  O4  UNL     1       0.144  -2.711  -2.084  1.00  0.00    -0.218 OA
ENDBRANCH   2  18
TORSDOF 1
