REMARK  1 active torsions:
REMARK  status: ('A' for Active; 'I' for Inactive)
REMARK    1  A    between atoms: C2_2  and  C16_19 
ROOT
HETATM    1  C1  UNL     1      -2.559   1.119  -0.065  1.00  0.00    -0.032 C 
HETATM    2  C2  UNL     1      -1.389   1.772  -0.258  1.00  0.00    -0.016 C 
HETATM    3  C3  UNL     1      -0.145   1.574   0.592  1.00  0.00     0.025 C 
HETATM    4  C4  UNL     1       1.154   1.256  -0.193  1.00  0.00     0.011 C 
HETATM    5  C5  UNL     1       1.906   0.076   0.449  1.00  0.00     0.058 C 
HETATM    6  C6  UNL     1       1.381  -1.289  -0.031  1.00  0.00     0.156 C 
HETATM    7  C7  UNL     1       0.074  -1.676   0.668  1.00  0.00     0.141 A 
HETATM    8  C8  UNL     1      -1.248  -1.494  -0.164  1.00  0.00     0.118 A 
HETATM    9  C9  UNL     1      -2.584  -1.371   0.572  1.00  0.00     0.034 C 
HETATM   10  C10 UNL     1      -2.817   0.086   1.018  1.00  0.00     0.028 C 
HETATM   11  C11 UNL     1      -1.219  -1.217  -1.664  1.00  0.00     0.032 C 
HETATM   12  O1  UNL     1      -0.608  -2.717   0.041  1.00  0.00    -0.357 OA
HETATM   13  C12 UNL     1       0.043  -1.928   2.170  1.00  0.00     0.035 C 
HETATM   14  O2  UNL     1       2.432  -2.238   0.180  1.00  0.00    -0.298 OA
HETATM   15  C13 UNL     1       3.588  -1.578   0.074  1.00  0.00     0.292 C 
HETATM   16  C14 UNL     1       3.352  -0.137   0.121  1.00  0.00     0.043 C 
HETATM   17  C15 UNL     1       4.258   0.834  -0.090  1.00  0.00     0.001 C 
HETATM   18  O3  UNL     1       4.682  -2.080  -0.035  1.00  0.00    -0.260 OA
ENDROOT
BRANCH   2  19
HETATM   19  C16 UNL     1      -1.285   2.768  -1.385  1.00  0.00     0.204 C 
HETATM   20  O4  UNL     1      -1.051   2.086  -2.596  1.00  0.00    -0.216 OA
ENDBRANCH   2  19
TORSDOF 1
