REMARK  2 active torsions:
REMARK  status: ('A' for Active; 'I' for Inactive)
REMARK    1  A    between atoms: C6_6  and  O1_7 
REMARK    2  A    between atoms: C10_12  and  C11_13 
ROOT
HETATM    1  C1  UNL     1      -2.406   0.100   0.365  1.00  0.00     0.153 A 
HETATM    2  C2  UNL     1      -1.023   0.369   0.238  1.00  0.00     0.031 A 
HETATM    3  C3  UNL     1      -0.123  -0.678  -0.092  1.00  0.00     0.025 A 
HETATM    4  C4  UNL     1      -0.617  -1.998  -0.293  1.00  0.00     0.105 A 
HETATM    5  C5  UNL     1      -2.000  -2.262  -0.164  1.00  0.00     0.051 A 
HETATM    6  C6  UNL     1      -2.895  -1.215   0.162  1.00  0.00     0.121 A 
HETATM    7  O2  UNL     1       0.229  -3.006  -0.608  1.00  0.00    -0.273 OA
HETATM    8  C8  UNL     1       1.557  -2.834  -0.748  1.00  0.00     0.300 A 
HETATM    9  C9  UNL     1       2.139  -1.488  -0.555  1.00  0.00     0.069 A 
HETATM   10  C10 UNL     1       1.346  -0.441  -0.240  1.00  0.00     0.007 A 
HETATM   11  O4  UNL     1       2.301  -3.746  -1.027  1.00  0.00    -0.259 OA
HETATM   12  O5  UNL     1      -3.254   1.090   0.676  1.00  0.00    -0.188 OA
ENDROOT
BRANCH  10  13
HETATM   13  C11 UNL     1       1.945   0.920  -0.047  1.00  0.00     0.000 A 
HETATM   14  C12 UNL     1       3.061   1.086   0.793  1.00  0.00     0.002 A 
HETATM   15  C13 UNL     1       3.619   2.363   0.973  1.00  0.00     0.027 A 
HETATM   16  C14 UNL     1       3.068   3.477   0.314  1.00  0.00     0.131 A 
HETATM   17  C15 UNL     1       1.953   3.307  -0.524  1.00  0.00     0.027 A 
HETATM   18  O3  UNL     1       3.594   4.674   0.484  1.00  0.00    -0.190 OA
HETATM   19  C16 UNL     1       1.391   2.031  -0.705  1.00  0.00     0.002 A 
ENDBRANCH  10  13
BRANCH   6  20
HETATM   20  O1  UNL     1      -4.205  -1.469   0.281  1.00  0.00    -0.326 OA
HETATM   21  C7  UNL     1      -4.652  -2.793   0.023  1.00  0.00     0.181 C 
ENDBRANCH   6  20
TORSDOF 2
