REMARK  7 active torsions:
REMARK  status: ('A' for Active; 'I' for Inactive)
REMARK    1  A    between atoms: C2_2  and  O5_11 
REMARK    2  A    between atoms: C3_4  and  C6_9 
REMARK    3  A    between atoms: O5_11  and  C7_12 
REMARK    4  A    between atoms: C9_14  and  C19_25 
REMARK    5  A    between atoms: C10_15  and  C15_20 
REMARK    6  A    between atoms: C15_20  and  C16_21 
REMARK    7  A    between atoms: C16_21  and  C17_22 
ROOT
HETATM    1  C7  UNL     1       1.179   0.584  -1.792  1.00  0.00     0.118 C 
HETATM    2  C8  UNL     1       0.424   1.742  -1.149  1.00  0.00     0.032 C 
HETATM    3  C9  UNL     1      -0.053   1.415   0.279  1.00  0.00     0.035 C 
HETATM    4  C10 UNL     1       1.154   1.057   1.190  1.00  0.00     0.003 C 
HETATM    5  C11 UNL     1       2.065  -0.052   0.573  1.00  0.00     0.002 C 
HETATM    6  C12 UNL     1       2.387   0.259  -0.914  1.00  0.00     0.030 C 
HETATM    7  C13 UNL     1       3.438  -0.091   1.297  1.00  0.00     0.000 C 
HETATM    8  C14 UNL     1       1.435  -1.459   0.706  1.00  0.00     0.000 C 
ENDROOT
BRANCH   1   9
HETATM    9  O5  UNL     1       0.349  -0.541  -1.899  1.00  0.00    -0.332 OA
BRANCH   9  10
HETATM   10  C2  UNL     1       0.251  -1.118  -3.180  1.00  0.00     0.270 C 
HETATM   11  C1  UNL     1       0.085  -2.620  -3.082  1.00  0.00     0.241 C 
HETATM   12  C5  UNL     1      -1.296  -3.047  -2.638  1.00  0.00     0.220 C 
HETATM   13  O8  UNL     1       0.359  -3.202  -4.338  1.00  0.00    -0.215 OA
HETATM   14  C4  UNL     1      -2.330  -2.334  -3.484  1.00  0.00     0.215 C 
HETATM   15  O2  UNL     1      -1.487  -2.735  -1.280  1.00  0.00    -0.218 OA
HETATM   16  C3  UNL     1      -2.115  -0.828  -3.539  1.00  0.00     0.184 C 
HETATM   17  O3  UNL     1      -2.261  -2.843  -4.797  1.00  0.00    -0.218 OA
HETATM   18  O1  UNL     1      -0.796  -0.474  -3.876  1.00  0.00    -0.326 OA
BRANCH  16  19
HETATM   19  C6  UNL     1      -2.673  -0.086  -2.330  1.00  0.00     0.214 C 
HETATM   20  O4  UNL     1      -2.742   1.301  -2.588  1.00  0.00    -0.218 OA
ENDBRANCH  16  19
ENDBRANCH   9  10
ENDBRANCH   1   9
BRANCH   3  21
HETATM   21  C19 UNL     1      -0.912   2.594   0.756  1.00  0.00     0.182 C 
HETATM   22  O7  UNL     1      -1.822   2.198   1.763  1.00  0.00    -0.221 OA
ENDBRANCH   3  21
BRANCH   4  23
HETATM   23  C15 UNL     1       0.717   0.721   2.638  1.00  0.00     0.003 C 
BRANCH  23  24
HETATM   24  C16 UNL     1       0.822   1.895   3.628  1.00  0.00     0.033 C 
BRANCH  24  25
HETATM   25  C17 UNL     1       0.420   1.548   5.064  1.00  0.00     0.152 C 
HETATM   26  O6  UNL     1       1.241   0.514   5.554  1.00  0.00    -0.224 OA
HETATM   27  C18 UNL     1      -1.042   1.139   5.217  1.00  0.00     0.036 C 
ENDBRANCH  24  25
ENDBRANCH  23  24
ENDBRANCH   4  23
TORSDOF 7
