REMARK  3 active torsions:
REMARK  status: ('A' for Active; 'I' for Inactive)
REMARK    1  A    between atoms: C15_16  and  C18_19 
REMARK    2  A    between atoms: C20_21  and  C21_22 
REMARK    3  A    between atoms: C21_22  and  C22_23 
ROOT
HETATM    1  C1  UNL     1      -5.288   0.007  -1.326  1.00  0.00     0.033 C 
HETATM    2  C2  UNL     1      -6.034  -1.191  -0.765  1.00  0.00     0.152 C 
HETATM    3  C3  UNL     1      -5.092  -2.388  -0.525  1.00  0.00     0.028 C 
HETATM    4  C4  UNL     1      -3.598  -1.957  -0.287  1.00  0.00     0.005 C 
HETATM    5  C5  UNL     1      -3.343  -0.538   0.324  1.00  0.00     0.000 C 
HETATM    6  C6  UNL     1      -4.288   0.538  -0.295  1.00  0.00     0.003 C 
HETATM    7  C7  UNL     1      -1.869  -0.073   0.065  1.00  0.00     0.002 C 
HETATM    8  C8  UNL     1      -0.773  -1.171   0.009  1.00  0.00     0.028 C 
HETATM    9  C9  UNL     1      -1.124  -2.072  -1.192  1.00  0.00     0.152 C 
HETATM   10  C10 UNL     1      -2.634  -2.200  -1.472  1.00  0.00     0.033 C 
HETATM   11  O1  UNL     1      -0.558  -1.615  -2.397  1.00  0.00    -0.224 OA
HETATM   12  C11 UNL     1       0.619  -0.470   0.004  1.00  0.00     0.002 C 
HETATM   13  C12 UNL     1       0.771   0.973  -0.536  1.00  0.00     0.001 C 
HETATM   14  C13 UNL     1      -0.212   1.899   0.217  1.00  0.00     0.000 C 
HETATM   15  C14 UNL     1      -1.398   1.156   0.872  1.00  0.00     0.000 C 
HETATM   16  C15 UNL     1       2.269   1.218  -0.176  1.00  0.00     0.009 C 
HETATM   17  C16 UNL     1       2.959  -0.108  -0.560  1.00  0.00     0.001 C 
HETATM   18  C17 UNL     1       1.903  -1.220  -0.385  1.00  0.00     0.000 C 
HETATM   19  C26 UNL     1       0.571   1.116  -2.058  1.00  0.00     0.000 C 
HETATM   20  C27 UNL     1      -0.719  -2.076   1.275  1.00  0.00     0.003 C 
HETATM   21  C28 UNL     1      -3.623  -0.573   1.849  1.00  0.00     0.000 C 
HETATM   22  C29 UNL     1      -5.252  -3.329  -1.751  1.00  0.00     0.003 C 
HETATM   23  C30 UNL     1      -5.605  -3.249   0.663  1.00  0.00     0.003 C 
HETATM   24  O4  UNL     1      -6.704  -0.798   0.410  1.00  0.00    -0.224 OA
ENDROOT
BRANCH  16  25
HETATM   25  C18 UNL     1       2.936   2.523  -0.660  1.00  0.00     0.089 C 
HETATM   26  C19 UNL     1       3.954   3.110   0.332  1.00  0.00     0.040 C 
HETATM   27  C20 UNL     1       5.320   2.884  -0.309  1.00  0.00     0.125 C 
HETATM   28  O2  UNL     1       5.071   2.572  -1.648  1.00  0.00    -0.304 OA
HETATM   29  C25 UNL     1       3.755   2.408  -1.931  1.00  0.00     0.271 C 
HETATM   30  O3  UNL     1       3.326   2.174  -3.039  1.00  0.00    -0.264 OA
BRANCH  27  31
HETATM   31  C21 UNL     1       6.164   1.775   0.332  1.00  0.00     0.030 C 
BRANCH  31  32
HETATM   32  C22 UNL     1       7.056   2.200   1.517  1.00  0.00     0.002 C 
HETATM   33  C23 UNL     1       6.261   2.767   2.703  1.00  0.00     0.000 C 
HETATM   34  C24 UNL     1       7.900   1.000   1.988  1.00  0.00     0.000 C 
ENDBRANCH  31  32
ENDBRANCH  27  31
ENDBRANCH  16  25
TORSDOF 3
