REMARK  2 active torsions:
REMARK  status: ('A' for Active; 'I' for Inactive)
REMARK    1  A    between atoms: C16_16  and  C18_18 
REMARK    2  A    between atoms: C20_21  and  C22_23 
ROOT
HETATM    1  C1  UNL     1      -4.885  -1.583   2.344  1.00  0.00     0.065 C 
HETATM    2  C2  UNL     1      -5.800  -1.302   1.164  1.00  0.00     0.150 C 
HETATM    3  C3  UNL     1      -5.188  -1.382  -0.239  1.00  0.00     0.052 C 
HETATM    4  C4  UNL     1      -3.644  -1.331  -0.096  1.00  0.00     0.011 C 
HETATM    5  C5  UNL     1      -2.971  -2.401   0.816  1.00  0.00     0.004 C 
HETATM    6  C6  UNL     1      -3.916  -2.719   2.002  1.00  0.00     0.008 C 
HETATM    7  C7  UNL     1      -1.609  -1.783   1.272  1.00  0.00     0.018 C 
HETATM    8  C8  UNL     1      -0.802  -1.319   0.064  1.00  0.00    -0.049 C 
HETATM    9  C9  UNL     1      -1.376  -1.057  -1.123  1.00  0.00    -0.035 C 
HETATM   10  C10 UNL     1      -2.852  -1.159  -1.399  1.00  0.00     0.026 C 
HETATM   11  C11 UNL     1       0.706  -1.288   0.211  1.00  0.00     0.015 C 
HETATM   12  C12 UNL     1       1.107  -0.964   1.670  1.00  0.00     0.003 C 
HETATM   13  C13 UNL     1       0.662  -2.117   2.581  1.00  0.00     0.001 C 
HETATM   14  C14 UNL     1      -0.763  -2.631   2.255  1.00  0.00     0.004 C 
HETATM   15  C15 UNL     1       2.633  -0.767   1.529  1.00  0.00     0.001 C 
HETATM   16  C16 UNL     1       2.824  -0.057   0.169  1.00  0.00     0.005 C 
HETATM   17  C17 UNL     1       1.474  -0.201  -0.571  1.00  0.00     0.004 C 
HETATM   18  C26 UNL     1       0.538   0.356   2.256  1.00  0.00     0.000 C 
HETATM   19  C27 UNL     1       1.208  -2.655  -0.324  1.00  0.00     0.004 C 
HETATM   20  C28 UNL     1      -2.669  -3.727   0.074  1.00  0.00     0.000 C 
HETATM   21  C29 UNL     1      -5.709  -0.169  -1.044  1.00  0.00     0.007 C 
HETATM   22  C30 UNL     1      -5.739  -2.651  -0.917  1.00  0.00     0.007 C 
HETATM   23  O4  UNL     1      -6.966  -1.032   1.342  1.00  0.00    -0.296 OA
ENDROOT
BRANCH  16  24
HETATM   24  C18 UNL     1       3.267   1.406   0.314  1.00  0.00     0.062 C 
HETATM   25  C19 UNL     1       4.658   1.603   0.889  1.00  0.00     0.269 C 
HETATM   26  O1  UNL     1       5.244   2.735   0.287  1.00  0.00    -0.329 OA
HETATM   27  O3  UNL     1       4.625   1.991   2.250  1.00  0.00    -0.190 OA
HETATM   28  C20 UNL     1       4.287   3.325  -0.564  1.00  0.00     0.147 C 
HETATM   29  C21 UNL     1       3.405   2.161  -1.010  1.00  0.00     0.037 C 
BRANCH  28  30
HETATM   30  C22 UNL     1       4.946   4.054  -1.731  1.00  0.00     0.167 A 
HETATM   31  C23 UNL     1       4.197   4.941  -2.581  1.00  0.00     0.120 A 
HETATM   32  C24 UNL     1       4.739   5.263  -3.964  1.00  0.00     0.032 C 
HETATM   33  C25 UNL     1       2.761   5.350  -2.305  1.00  0.00     0.032 C 
HETATM   34  O2  UNL     1       5.197   5.402  -1.417  1.00  0.00    -0.354 OA
ENDBRANCH  28  30
ENDBRANCH  16  24
TORSDOF 2
