REMARK  3 active torsions:
REMARK  status: ('A' for Active; 'I' for Inactive)
REMARK    1  A    between atoms: C5_6  and  O2_7 
REMARK    2  A    between atoms: O2_7  and  C6_8 
REMARK    3  A    between atoms: C8_10  and  C12_16 
ROOT
HETATM    1  C6  UNL     1       0.941  -0.270   1.122  1.00  0.00     0.124 A 
HETATM    2  C7  UNL     1       0.299   0.521   0.157  1.00  0.00     0.029 A 
HETATM    3  C8  UNL     1       0.666   1.827  -0.220  1.00  0.00     0.029 A 
HETATM    4  C9  UNL     1       1.804   2.319   0.430  1.00  0.00     0.032 A 
HETATM    5  C10 UNL     1       2.492   1.583   1.396  1.00  0.00     0.158 A 
HETATM    6  C11 UNL     1       2.060   0.303   1.761  1.00  0.00     0.178 A 
HETATM    7  O3  UNL     1       2.803  -0.324   2.710  1.00  0.00    -0.186 OA
HETATM    8  O4  UNL     1       3.597   2.107   1.996  1.00  0.00    -0.188 OA
ENDROOT
BRANCH   3   9
HETATM    9  C12 UNL     1      -0.151   2.536  -1.243  1.00  0.00     0.129 C 
HETATM   10  C13 UNL     1       0.142   3.801  -1.654  1.00  0.00     0.192 C 
HETATM   11  C14 UNL     1      -0.712   4.474  -2.662  1.00  0.00     0.227 C 
HETATM   12  O9  UNL     1       1.161   4.592  -1.228  1.00  0.00    -0.185 OA
HETATM   13  C15 UNL     1      -1.933   3.760  -3.086  1.00  0.00     0.089 A 
HETATM   14  O8  UNL     1      -0.385   5.597  -3.038  1.00  0.00    -0.284 OA
HETATM   15  C16 UNL     1      -2.111   2.464  -2.583  1.00  0.00     0.107 A 
HETATM   16  C20 UNL     1      -2.865   4.373  -3.942  1.00  0.00     0.138 A 
HETATM   17  O5  UNL     1      -1.213   1.843  -1.765  1.00  0.00    -0.305 OA
HETATM   18  C17 UNL     1      -3.269   1.785  -2.976  1.00  0.00     0.052 A 
HETATM   19  C18 UNL     1      -4.230   2.346  -3.823  1.00  0.00     0.135 A 
HETATM   20  C19 UNL     1      -4.002   3.641  -4.292  1.00  0.00     0.055 A 
HETATM   21  O7  UNL     1      -5.341   1.649  -4.178  1.00  0.00    -0.190 OA
HETATM   22  O6  UNL     1      -2.705   5.632  -4.429  1.00  0.00    -0.190 OA
ENDBRANCH   3   9
BRANCH   1  23
HETATM   23  O2  UNL     1       0.403  -1.524   1.315  1.00  0.00    -0.301 OA
BRANCH  23  24
HETATM   24  C5  UNL     1       1.009  -2.507   2.115  1.00  0.00     0.274 C 
HETATM   25  O1  UNL     1       2.220  -2.847   1.477  1.00  0.00    -0.326 OA
HETATM   26  C1  UNL     1       2.947  -3.806   2.208  1.00  0.00     0.181 C 
HETATM   27  C2  UNL     1       2.159  -5.093   2.396  1.00  0.00     0.215 C 
HETATM   28  C3  UNL     1       0.774  -4.818   2.946  1.00  0.00     0.220 C 
HETATM   29  O12 UNL     1       2.014  -5.751   1.159  1.00  0.00    -0.218 OA
HETATM   30  C4  UNL     1       0.110  -3.722   2.139  1.00  0.00     0.241 C 
HETATM   31  O11 UNL     1      -0.000  -5.988   2.854  1.00  0.00    -0.218 OA
HETATM   32  O10 UNL     1      -1.116  -3.392   2.742  1.00  0.00    -0.215 OA
ENDBRANCH  23  24
ENDBRANCH   1  23
TORSDOF 3
