REMARK  3 active torsions:
REMARK  status: ('A' for Active; 'I' for Inactive)
REMARK    1  A    between atoms: C6_6  and  O1_7 
REMARK    2  A    between atoms: C16_19  and  O5_23 
REMARK    3  A    between atoms: C17_20  and  O4_21 
ROOT
HETATM    1  C1  UNL     1      -3.745   0.598  -1.344  1.00  0.00     0.026 A 
HETATM    2  C2  UNL     1      -2.513  -0.051  -1.323  1.00  0.00    -0.000 A 
HETATM    3  C3  UNL     1      -1.327   0.681  -1.254  1.00  0.00     0.003 A 
HETATM    4  C4  UNL     1      -1.373   2.082  -1.228  1.00  0.00     0.117 A 
HETATM    5  C5  UNL     1      -2.627   2.715  -1.224  1.00  0.00     0.175 A 
HETATM    6  C6  UNL     1      -3.831   1.995  -1.301  1.00  0.00     0.121 A 
HETATM    7  O2  UNL     1      -2.693   4.074  -1.154  1.00  0.00    -0.186 OA
HETATM    8  O3  UNL     1      -0.240   2.845  -1.109  1.00  0.00    -0.329 OA
HETATM    9  C8  UNL     1       0.850   2.210  -0.499  1.00  0.00     0.153 C 
HETATM   10  C9  UNL     1       1.194   0.929  -1.245  1.00  0.00     0.057 C 
HETATM   11  C10 UNL     1      -0.004  -0.041  -1.223  1.00  0.00     0.035 C 
HETATM   12  C11 UNL     1       0.183  -0.940   0.020  1.00  0.00     0.033 C 
HETATM   13  C12 UNL     1       1.677  -0.921   0.217  1.00  0.00    -0.002 A 
HETATM   14  C13 UNL     1       2.230   0.127  -0.509  1.00  0.00    -0.022 A 
HETATM   15  C14 UNL     1       3.600   0.341  -0.492  1.00  0.00    -0.002 A 
HETATM   16  C15 UNL     1       4.372  -0.566   0.232  1.00  0.00     0.026 A 
HETATM   17  C16 UNL     1       3.847  -1.656   0.951  1.00  0.00     0.116 A 
HETATM   18  C17 UNL     1       2.438  -1.796   1.010  1.00  0.00     0.112 A 
ENDROOT
BRANCH   6  19
HETATM   19  O1  UNL     1      -5.004   2.708  -1.289  1.00  0.00    -0.326 OA
HETATM   20  C7  UNL     1      -6.222   2.004  -1.230  1.00  0.00     0.181 C 
ENDBRANCH   6  19
BRANCH  18  21
HETATM   21  O4  UNL     1       1.809  -2.840   1.636  1.00  0.00    -0.327 OA
HETATM   22  C18 UNL     1       1.132  -2.499   2.825  1.00  0.00     0.181 C 
ENDBRANCH  18  21
BRANCH  17  23
HETATM   23  O5  UNL     1       4.792  -2.441   1.574  1.00  0.00    -0.326 OA
HETATM   24  C19 UNL     1       4.433  -3.461   2.471  1.00  0.00     0.181 C 
ENDBRANCH  17  23
TORSDOF 3
