REMARK  1 active torsions:
REMARK  status: ('A' for Active; 'I' for Inactive)
REMARK    1  A    between atoms: C3_3  and  C8_8 
ROOT
HETATM    1  C1  UNL     1       1.597  -1.039  -0.271  1.00  0.00     0.022 C 
HETATM    2  C2  UNL     1       0.812  -0.419   0.895  1.00  0.00     0.011 C 
HETATM    3  C3  UNL     1       0.105   0.880   0.467  1.00  0.00     0.049 C 
HETATM    4  C4  UNL     1      -0.796   0.649  -0.761  1.00  0.00     0.011 C 
HETATM    5  C5  UNL     1      -0.007   0.027  -1.923  1.00  0.00     0.022 C 
HETATM    6  C6  UNL     1       0.664  -1.236  -1.441  1.00  0.00    -0.044 C 
HETATM    7  C7  UNL     1       0.428  -2.439  -1.987  1.00  0.00    -0.009 C 
ENDROOT
BRANCH   3   8
HETATM    8  C8  UNL     1      -0.664   1.503   1.617  1.00  0.00     0.108 C 
HETATM    9  O1  UNL     1      -0.266   2.734   2.034  1.00  0.00    -0.195 OA
HETATM   10  C9  UNL     1      -1.693   0.872   2.203  1.00  0.00     0.025 C 
ENDBRANCH   3   8
TORSDOF 1
