REMARK  3 active torsions:
REMARK  status: ('A' for Active; 'I' for Inactive)
REMARK    1  A    between atoms: C2_2  and  C3_4 
REMARK    2  A    between atoms: C3_4  and  C4_5 
REMARK    3  A    between atoms: C15_20  and  C16_22 
ROOT
HETATM    1  C4  UNL     1       2.769  -0.773   1.321  1.00  0.00     0.108 A 
HETATM    2  O2  UNL     1       1.819  -1.738   1.460  1.00  0.00    -0.309 OA
HETATM    3  C5  UNL     1       0.525  -1.339   1.302  1.00  0.00     0.107 A 
HETATM    4  C6  UNL     1       0.163  -0.099   0.926  1.00  0.00     0.086 A 
HETATM    5  C7  UNL     1       1.159   0.809   0.711  1.00  0.00     0.226 A 
HETATM    6  C8  UNL     1       2.462   0.473   0.922  1.00  0.00     0.188 A 
HETATM    7  O3  UNL     1       3.367   1.471   0.735  1.00  0.00    -0.185 OA
HETATM    8  O4  UNL     1       0.986   1.961   0.377  1.00  0.00    -0.284 OA
HETATM    9  C9  UNL     1      -1.144   0.245   0.784  1.00  0.00     0.104 A 
HETATM   10  C10 UNL     1      -2.090  -0.694   1.036  1.00  0.00     0.083 A 
HETATM   11  C11 UNL     1      -1.750  -1.949   1.399  1.00  0.00     0.138 A 
HETATM   12  C12 UNL     1      -0.448  -2.235   1.520  1.00  0.00     0.052 A 
HETATM   13  O5  UNL     1      -2.648  -2.941   1.663  1.00  0.00    -0.190 OA
HETATM   14  C13 UNL     1      -3.412  -0.373   0.941  1.00  0.00     0.180 C 
HETATM   15  C14 UNL     1      -3.782   1.061   0.627  1.00  0.00     0.104 C 
HETATM   16  C15 UNL     1      -2.718   1.753  -0.203  1.00  0.00     0.151 C 
HETATM   17  O6  UNL     1      -1.455   1.512   0.353  1.00  0.00    -0.328 OA
HETATM   18  O9  UNL     1      -4.330  -1.141   1.126  1.00  0.00    -0.291 OA
ENDROOT
BRANCH  16  19
HETATM   19  C16 UNL     1      -2.804   1.428  -1.690  1.00  0.00     0.008 A 
HETATM   20  C17 UNL     1      -3.161   2.381  -2.570  1.00  0.00     0.000 A 
HETATM   21  C18 UNL     1      -3.268   2.113  -3.879  1.00  0.00     0.029 A 
HETATM   22  C19 UNL     1      -3.024   0.883  -4.357  1.00  0.00     0.156 A 
HETATM   23  C20 UNL     1      -2.662  -0.084  -3.495  1.00  0.00     0.156 A 
HETATM   24  O8  UNL     1      -3.138   0.597  -5.682  1.00  0.00    -0.188 OA
HETATM   25  C21 UNL     1      -2.561   0.202  -2.186  1.00  0.00     0.028 A 
HETATM   26  O7  UNL     1      -2.417  -1.341  -3.954  1.00  0.00    -0.188 OA
ENDBRANCH  16  19
BRANCH   1  27
HETATM   27  C3  UNL     1       4.167  -1.279   1.637  1.00  0.00     0.087 C 
BRANCH  27  28
HETATM   28  C2  UNL     1       5.247  -0.290   2.078  1.00  0.00     0.159 C 
HETATM   29  C1  UNL     1       6.404  -0.987   2.795  1.00  0.00     0.036 C 
HETATM   30  O1  UNL     1       5.775   0.363   0.948  1.00  0.00    -0.223 OA
ENDBRANCH  27  28
ENDBRANCH   1  27
TORSDOF 3
