REMARK  2 active torsions:
REMARK  status: ('A' for Active; 'I' for Inactive)
REMARK    1  A    between atoms: C2_2  and  C8_9 
REMARK    2  A    between atoms: C5_5  and  C7_7 
ROOT
HETATM    1  C1  UNL     1      -0.890  -0.881   0.331  1.00  0.00     0.005 C 
HETATM    2  C2  UNL     1       0.580  -0.639  -0.060  1.00  0.00     0.022 C 
HETATM    3  C3  UNL     1       0.836   0.845  -0.215  1.00  0.00    -0.031 C 
HETATM    4  C4  UNL     1      -0.127   1.777  -0.295  1.00  0.00    -0.028 C 
HETATM    5  C5  UNL     1      -1.601   1.466  -0.227  1.00  0.00     0.055 C 
HETATM    6  C6  UNL     1      -1.837  -0.023  -0.518  1.00  0.00     0.007 C 
ENDROOT
BRANCH   2   7
HETATM    7  C8  UNL     1       1.582  -1.298   0.922  1.00  0.00     0.004 C 
HETATM    8  C9  UNL     1       1.194  -2.743   1.292  1.00  0.00     0.000 C 
HETATM    9  C10 UNL     1       3.018  -1.319   0.362  1.00  0.00     0.000 C 
ENDBRANCH   2   7
BRANCH   5  10
HETATM   10  C7  UNL     1      -2.409   2.338  -1.188  1.00  0.00     0.187 C 
HETATM   11  O1  UNL     1      -2.359   3.693  -0.785  1.00  0.00    -0.220 OA
ENDBRANCH   5  10
TORSDOF 2
