REMARK  16 active torsions:
REMARK  status: ('A' for Active; 'I' for Inactive)
REMARK    1  A    between atoms: C5_5  and  C8_10 
REMARK    2  A    between atoms: C6_6  and  C7_7 
REMARK    3  A    between atoms: C8_10  and  C9_11 
REMARK    4  A    between atoms: C9_11  and  C10_12 
REMARK    5  A    between atoms: C10_12  and  C11_13 
REMARK    6  A    between atoms: C11_13  and  C12_14 
REMARK    7  A    between atoms: C12_14  and  C13_15 
REMARK    8  A    between atoms: C13_15  and  C14_16 
REMARK    9  A    between atoms: C14_16  and  C15_17 
REMARK   10  A    between atoms: C16_18  and  C17_19 
REMARK   11  A    between atoms: C17_19  and  C18_20 
REMARK   12  A    between atoms: C18_20  and  C19_21 
REMARK   13  A    between atoms: C19_21  and  C20_22 
REMARK   14  A    between atoms: C20_22  and  C21_23 
REMARK   15  A    between atoms: C21_23  and  C22_24 
REMARK   16  A    between atoms: C22_24  and  C23_25 
ROOT
HETATM    1  C10 UNL     1       2.670  -4.144   0.679  1.00  0.00     0.000 C 
ENDROOT
BRANCH   1   2
HETATM    2  C9  UNL     1       4.201  -4.197   0.820  1.00  0.00     0.005 C 
BRANCH   2   3
HETATM    3  C8  UNL     1       4.824  -5.588   0.930  1.00  0.00     0.027 C 
BRANCH   3   4
HETATM    4  C5  UNL     1       6.343  -5.680   1.043  1.00  0.00    -0.012 A 
HETATM    5  C4  UNL     1       6.858  -6.943   1.375  1.00  0.00     0.024 A 
HETATM    6  C3  UNL     1       8.226  -7.216   1.468  1.00  0.00     0.133 A 
HETATM    7  C2  UNL     1       9.115  -6.180   1.186  1.00  0.00     0.055 A 
HETATM    8  O3  UNL     1       8.673  -8.461   1.782  1.00  0.00    -0.190 OA
HETATM    9  C1  UNL     1       8.670  -4.898   0.857  1.00  0.00     0.139 A 
HETATM   10  C6  UNL     1       7.288  -4.667   0.797  1.00  0.00     0.086 A 
HETATM   11  O4  UNL     1       9.559  -3.910   0.556  1.00  0.00    -0.190 OA
BRANCH  10  12
HETATM   12  C7  UNL     1       6.942  -3.238   0.440  1.00  0.00     0.213 C 
HETATM   13  O1  UNL     1       6.537  -2.329   1.351  1.00  0.00    -0.644 OA
HETATM   14  O2  UNL     1       7.243  -2.821  -0.666  1.00  0.00    -0.644 OA
ENDBRANCH  10  12
ENDBRANCH   3   4
ENDBRANCH   2   3
ENDBRANCH   1   2
BRANCH   1  15
HETATM   15  C11 UNL     1       2.266  -2.673   0.480  1.00  0.00     0.000 C 
BRANCH  15  16
HETATM   16  C12 UNL     1       0.756  -2.422   0.377  1.00  0.00     0.000 C 
BRANCH  16  17
HETATM   17  C13 UNL     1       0.492  -0.924   0.143  1.00  0.00     0.005 C 
BRANCH  17  18
HETATM   18  C14 UNL     1      -1.003  -0.591   0.078  1.00  0.00     0.026 C 
BRANCH  18  19
HETATM   19  C15 UNL     1      -1.250   0.877  -0.164  1.00  0.00    -0.031 C 
HETATM   20  C16 UNL     1      -2.485   1.385  -0.278  1.00  0.00    -0.031 C 
BRANCH  20  21
HETATM   21  C17 UNL     1      -2.767   2.846  -0.521  1.00  0.00     0.026 C 
BRANCH  21  22
HETATM   22  C18 UNL     1      -4.278   3.114  -0.587  1.00  0.00     0.005 C 
BRANCH  22  23
HETATM   23  C19 UNL     1      -4.613   4.592  -0.842  1.00  0.00     0.000 C 
BRANCH  23  24
HETATM   24  C20 UNL     1      -6.134   4.806  -0.900  1.00  0.00     0.000 C 
BRANCH  24  25
HETATM   25  C21 UNL     1      -6.509   6.273  -1.155  1.00  0.00     0.000 C 
BRANCH  25  26
HETATM   26  C22 UNL     1      -8.033   6.467  -1.209  1.00  0.00     0.000 C 
BRANCH  26  27
HETATM   27  C23 UNL     1      -8.410   7.934  -1.463  1.00  0.00     0.000 C 
HETATM   28  C24 UNL     1      -9.930   8.134  -1.518  1.00  0.00     0.000 C 
ENDBRANCH  26  27
ENDBRANCH  25  26
ENDBRANCH  24  25
ENDBRANCH  23  24
ENDBRANCH  22  23
ENDBRANCH  21  22
ENDBRANCH  20  21
ENDBRANCH  18  19
ENDBRANCH  17  18
ENDBRANCH  16  17
ENDBRANCH  15  16
ENDBRANCH   1  15
TORSDOF 16
