REMARK  2 active torsions:
REMARK  status: ('A' for Active; 'I' for Inactive)
REMARK    1  A    between atoms: C13_15  and  O4_19 
REMARK    2  A    between atoms: C14_16  and  O3_17 
ROOT
HETATM    1  C1  UNL     1      -0.870  -2.248   1.090  1.00  0.00     0.299 C 
HETATM    2  C2  UNL     1      -1.232  -1.360  -0.101  1.00  0.00     0.254 C 
HETATM    3  C3  UNL     1      -0.655   0.092   0.047  1.00  0.00     0.056 C 
HETATM    4  C4  UNL     1      -1.107   0.646   1.426  1.00  0.00     0.014 C 
HETATM    5  C5  UNL     1      -0.561  -0.170   2.600  1.00  0.00     0.070 C 
HETATM    6  C6  UNL     1      -1.010  -1.602   2.455  1.00  0.00     0.206 C 
HETATM    7  O1  UNL     1      -1.413  -2.296   3.362  1.00  0.00    -0.291 OA
HETATM    8  C7  UNL     1       0.869   0.206  -0.137  1.00  0.00     0.002 C 
HETATM    9  C8  UNL     1       1.564  -0.998  -0.332  1.00  0.00     0.003 C 
HETATM   10  C9  UNL     1       0.827  -2.311  -0.419  1.00  0.00     0.142 C 
HETATM   11  C10 UNL     1      -0.460  -2.105  -1.199  1.00  0.00     0.071 C 
HETATM   12  O2  UNL     1       0.456  -2.692   0.883  1.00  0.00    -0.324 OA
HETATM   13  C11 UNL     1       2.953  -1.003  -0.410  1.00  0.00    -0.000 C 
HETATM   14  C12 UNL     1       3.636   0.187  -0.212  1.00  0.00     0.026 C 
HETATM   15  C13 UNL     1       2.986   1.410   0.002  1.00  0.00     0.116 C 
HETATM   16  C14 UNL     1       1.571   1.441  -0.121  1.00  0.00     0.112 C 
HETATM   17  C17 UNL     1      -1.433   0.822  -1.072  1.00  0.00     0.042 C 
HETATM   18  C18 UNL     1      -2.627  -0.083  -1.410  1.00  0.00     0.251 C 
HETATM   19  N1  UNL     1      -2.643  -1.109  -0.383  1.00  0.00     0.141 N 
HETATM   20  C19 UNL     1      -3.505  -2.211  -0.774  1.00  0.00     0.285 C 
HETATM   21  O5  UNL     1      -1.610  -3.461   1.131  1.00  0.00    -0.185 OA
ENDROOT
BRANCH  15  22
HETATM   22  O4  UNL     1       3.853   2.463   0.205  1.00  0.00    -0.326 OA
HETATM   23  C16 UNL     1       3.516   3.787  -0.112  1.00  0.00     0.181 C 
ENDBRANCH  15  22
BRANCH  16  24
HETATM   24  O3  UNL     1       0.877   2.610   0.077  1.00  0.00    -0.327 OA
HETATM   25  C15 UNL     1       0.558   3.344  -1.090  1.00  0.00     0.181 C 
ENDBRANCH  16  24
TORSDOF 2
