REMARK  3 active torsions:
REMARK  status: ('A' for Active; 'I' for Inactive)
REMARK    1  A    between atoms: C3_3  and  O3_12 
REMARK    2  A    between atoms: C5_5  and  C7_7 
REMARK    3  A    between atoms: C8_8  and  C9_9 
ROOT
HETATM    1  C1  UNL     1       2.082   1.160   0.037  1.00  0.00     0.002 C 
HETATM    2  C2  UNL     1       2.550  -0.106   0.388  1.00  0.00     0.024 C 
HETATM    3  C3  UNL     1       1.680  -1.198   0.511  1.00  0.00     0.094 C 
HETATM    4  C4  UNL     1       0.309  -0.917   0.457  1.00  0.00     0.024 C 
HETATM    5  C5  UNL     1      -0.203   0.348   0.114  1.00  0.00     0.002 C 
HETATM    6  C6  UNL     1       0.714   1.384  -0.118  1.00  0.00     0.000 C 
ENDROOT
BRANCH   5   7
HETATM    7  C7  UNL     1      -1.662   0.525   0.046  1.00  0.00     0.006 C 
HETATM    8  C8  UNL     1      -2.306   1.681  -0.250  1.00  0.00     0.070 C 
BRANCH   8   9
HETATM    9  C9  UNL     1      -3.782   1.791  -0.293  1.00  0.00     0.211 C 
HETATM   10  O1  UNL     1      -4.397   2.956  -0.585  1.00  0.00    -0.644 OA
HETATM   11  O2  UNL     1      -4.502   0.826  -0.063  1.00  0.00    -0.644 OA
ENDBRANCH   8   9
ENDBRANCH   5   7
BRANCH   3  12
HETATM   12  O3  UNL     1       2.137  -2.418   0.935  1.00  0.00    -0.328 OA
HETATM   13  C10 UNL     1       2.591  -3.242  -0.114  1.00  0.00     0.181 C 
ENDBRANCH   3  12
TORSDOF 3
