REMARK  9 active torsions:
REMARK  status: ('A' for Active; 'I' for Inactive)
REMARK    1  A    between atoms: C1_1  and  O7_26 
REMARK    2  A    between atoms: C6_7  and  C19_24 
REMARK    3  A    between atoms: C8_9  and  O2_10 
REMARK    4  A    between atoms: O2_10  and  C9_11 
REMARK    5  A    between atoms: C9_11  and  C10_12 
REMARK    6  A    between atoms: C11_13  and  C12_14 
REMARK    7  A    between atoms: C15_17  and  O3_20 
REMARK    8  A    between atoms: O7_26  and  C20_27 
REMARK    9  A    between atoms: C21_29  and  C25_36 
ROOT
HETATM    1  C1  UNL     1       1.752  -2.247   1.575  1.00  0.00     0.244 C 
HETATM    2  O1  UNL     1       3.112  -1.814   1.555  1.00  0.00    -0.304 OA
HETATM    3  C2  UNL     1       3.445  -0.583   1.067  1.00  0.00     0.115 C 
HETATM    4  C3  UNL     1       2.561   0.341   0.670  1.00  0.00     0.003 C 
HETATM    5  C4  UNL     1       1.104   0.067   0.807  1.00  0.00     0.062 C 
HETATM    6  C5  UNL     1       0.854  -1.442   0.647  1.00  0.00     0.093 C 
HETATM    7  C6  UNL     1      -0.679  -1.404   0.693  1.00  0.00     0.156 A 
HETATM    8  C7  UNL     1      -1.125  -0.160   0.105  1.00  0.00     0.171 A 
HETATM    9  C8  UNL     1       0.131   0.658  -0.219  1.00  0.00     0.158 C 
HETATM   10  O5  UNL     1      -1.334  -1.253  -0.755  1.00  0.00    -0.351 OA
ENDROOT
BRANCH   9  11
HETATM   11  O2  UNL     1      -0.068   2.040  -0.030  1.00  0.00    -0.298 OA
BRANCH  11  12
HETATM   12  C9  UNL     1       0.526   2.906  -0.907  1.00  0.00     0.296 C 
HETATM   13  O4  UNL     1       1.439   2.528  -1.638  1.00  0.00    -0.259 OA
BRANCH  12  14
HETATM   14  C10 UNL     1      -0.031   4.264  -1.122  1.00  0.00     0.068 C 
HETATM   15  C11 UNL     1       0.454   5.117  -2.059  1.00  0.00     0.005 C 
BRANCH  15  16
HETATM   16  C12 UNL     1      -0.066   6.461  -2.348  1.00  0.00     0.000 C 
HETATM   17  C13 UNL     1       0.430   7.156  -3.465  1.00  0.00     0.002 C 
HETATM   18  C14 UNL     1      -0.025   8.435  -3.779  1.00  0.00     0.024 C 
HETATM   19  C15 UNL     1      -1.042   9.061  -3.045  1.00  0.00     0.094 C 
HETATM   20  C16 UNL     1      -1.423   8.421  -1.858  1.00  0.00     0.024 C 
HETATM   21  C17 UNL     1      -0.979   7.139  -1.528  1.00  0.00     0.002 C 
BRANCH  19  22
HETATM   22  O3  UNL     1      -1.417  10.352  -3.308  1.00  0.00    -0.328 OA
HETATM   23  C18 UNL     1      -2.550  10.447  -4.141  1.00  0.00     0.181 C 
ENDBRANCH  19  22
ENDBRANCH  15  16
ENDBRANCH  12  14
ENDBRANCH  11  12
ENDBRANCH   9  11
BRANCH   7  24
HETATM   24  C19 UNL     1      -1.577  -2.064   1.720  1.00  0.00     0.212 C 
HETATM   25  O6  UNL     1      -1.057  -1.982   3.040  1.00  0.00    -0.218 OA
ENDBRANCH   7  24
BRANCH   1  26
HETATM   26  O7  UNL     1       1.983  -3.570   1.115  1.00  0.00    -0.304 OA
BRANCH  26  27
HETATM   27  C20 UNL     1       0.867  -4.419   1.011  1.00  0.00     0.272 C 
HETATM   28  O8  UNL     1       0.445  -4.695   2.326  1.00  0.00    -0.326 OA
HETATM   29  C21 UNL     1      -0.603  -5.628   2.386  1.00  0.00     0.184 C 
HETATM   30  C22 UNL     1      -0.189  -6.948   1.749  1.00  0.00     0.215 C 
HETATM   31  C23 UNL     1       0.238  -6.704   0.317  1.00  0.00     0.220 C 
HETATM   32  O11 UNL     1      -1.264  -7.855   1.724  1.00  0.00    -0.218 OA
HETATM   33  C24 UNL     1       1.350  -5.682   0.334  1.00  0.00     0.241 C 
HETATM   34  O10 UNL     1       0.702  -7.901  -0.252  1.00  0.00    -0.218 OA
HETATM   35  O9  UNL     1       1.721  -5.385  -0.989  1.00  0.00    -0.215 OA
BRANCH  29  36
HETATM   36  C25 UNL     1      -1.004  -5.779   3.845  1.00  0.00     0.214 C 
HETATM   37  O12 UNL     1      -1.427  -4.524   4.342  1.00  0.00    -0.218 OA
ENDBRANCH  29  36
ENDBRANCH  26  27
ENDBRANCH   1  26
TORSDOF 9
