REMARK  2 active torsions:
REMARK  status: ('A' for Active; 'I' for Inactive)
REMARK    1  A    between atoms: C6_6  and  O1_7 
REMARK    2  A    between atoms: C8_9  and  O3_16 
ROOT
HETATM    1  C1  UNL     1       2.160  -1.586  -0.133  1.00  0.00     0.026 A 
HETATM    2  C2  UNL     1       0.933  -2.184  -0.027  1.00  0.00     0.021 A 
HETATM    3  C3  UNL     1      -0.267  -1.408   0.048  1.00  0.00     0.086 A 
HETATM    4  C4  UNL     1      -0.209   0.013   0.009  1.00  0.00     0.042 A 
HETATM    5  C5  UNL     1       1.113   0.563  -0.107  1.00  0.00     0.028 A 
HETATM    6  C6  UNL     1       2.284  -0.163  -0.173  1.00  0.00     0.094 A 
HETATM    7  C8  UNL     1      -1.433   0.763   0.068  1.00  0.00     0.099 A 
HETATM    8  C9  UNL     1      -2.561  -0.041   0.187  1.00  0.00     0.066 A 
HETATM    9  C10 UNL     1      -2.552  -1.458   0.224  1.00  0.00     0.184 A 
HETATM   10  N1  UNL     1      -1.419  -2.132   0.152  1.00  0.00    -0.222 NA
HETATM   11  O2  UNL     1      -3.833  -1.921   0.340  1.00  0.00    -0.287 OA
HETATM   12  C11 UNL     1      -4.655  -0.816   0.380  1.00  0.00     0.125 A 
HETATM   13  C12 UNL     1      -3.958   0.341   0.293  1.00  0.00     0.032 A 
ENDROOT
BRANCH   6  14
HETATM   14  O1  UNL     1       3.476   0.513  -0.279  1.00  0.00    -0.328 OA
HETATM   15  C7  UNL     1       4.667  -0.235  -0.348  1.00  0.00     0.181 C 
ENDBRANCH   6  14
BRANCH   7  16
HETATM   16  O3  UNL     1      -1.675   2.116   0.072  1.00  0.00    -0.328 OA
HETATM   17  C13 UNL     1      -0.654   3.071   0.176  1.00  0.00     0.181 C 
ENDBRANCH   7  16
TORSDOF 2
