REMARK  2 active torsions:
REMARK  status: ('A' for Active; 'I' for Inactive)
REMARK    1  A    between atoms: C1_1  and  C17_19 
REMARK    2  A    between atoms: C17_19  and  O3_20 
ROOT
HETATM    1  C1  UNL     1       0.405   1.488   0.070  1.00  0.00     0.029 C 
HETATM    2  C2  UNL     1       0.504   0.101  -0.181  1.00  0.00    -0.004 C 
HETATM    3  C3  UNL     1       1.428  -0.368  -1.127  1.00  0.00    -0.022 C 
HETATM    4  C4  UNL     1       2.346   0.512  -1.696  1.00  0.00    -0.006 C 
HETATM    5  C5  UNL     1       2.327   1.870  -1.380  1.00  0.00     0.003 C 
HETATM    6  C6  UNL     1       1.338   2.367  -0.518  1.00  0.00     0.125 C 
HETATM    7  O1  UNL     1       1.277   3.712  -0.313  1.00  0.00    -0.191 OA
HETATM    8  C7  UNL     1       3.342   2.772  -2.044  1.00  0.00     0.033 C 
HETATM    9  C8  UNL     1       1.381  -1.806  -1.575  1.00  0.00     0.031 C 
HETATM   10  C9  UNL     1      -0.090  -2.229  -1.694  1.00  0.00     0.031 C 
HETATM   11  C10 UNL     1      -0.739  -2.068  -0.338  1.00  0.00    -0.024 C 
HETATM   12  C11 UNL     1      -0.353  -0.953   0.428  1.00  0.00    -0.005 C 
HETATM   13  C12 UNL     1      -0.673  -0.963   1.790  1.00  0.00     0.002 C 
HETATM   14  C13 UNL     1      -1.537  -1.921   2.311  1.00  0.00     0.027 C 
HETATM   15  C14 UNL     1      -2.076  -2.928   1.505  1.00  0.00     0.127 C 
HETATM   16  C15 UNL     1      -1.632  -3.026   0.177  1.00  0.00    -0.000 C 
HETATM   17  C16 UNL     1      -2.143  -4.147  -0.703  1.00  0.00     0.033 C 
HETATM   18  O2  UNL     1      -2.913  -3.850   2.052  1.00  0.00    -0.191 OA
ENDROOT
BRANCH   1  19
HETATM   19  C17 UNL     1      -0.755   2.078   0.875  1.00  0.00     0.140 C 
HETATM   20  C19 UNL     1      -1.743   2.762  -0.077  1.00  0.00     0.037 C 
BRANCH  19  21
HETATM   21  O3  UNL     1      -0.350   3.018   1.846  1.00  0.00    -0.350 OA
HETATM   22  C18 UNL     1       0.415   2.460   2.891  1.00  0.00     0.175 C 
ENDBRANCH  19  21
ENDBRANCH   1  19
TORSDOF 2
