REMARK  1 active torsions:
REMARK  status: ('A' for Active; 'I' for Inactive)
REMARK    1  A    between atoms: C4_4  and  O2_12 
ROOT
HETATM    1  C12 UNL     1       4.735   0.536   0.371  1.00  0.00     0.000 A 
HETATM    2  C13 UNL     1       5.200  -0.767   0.181  1.00  0.00     0.000 A 
HETATM    3  C14 UNL     1       4.392  -1.853   0.521  1.00  0.00     0.000 A 
HETATM    4  C15 UNL     1       3.118  -1.638   1.052  1.00  0.00     0.000 A 
HETATM    5  C16 UNL     1       2.654  -0.335   1.247  1.00  0.00     0.000 A 
HETATM    6  C17 UNL     1       3.463   0.752   0.907  1.00  0.00     0.000 A 
ENDROOT
TORSDOF 1
