REMARK  4 active torsions:
REMARK  status: ('A' for Active; 'I' for Inactive)
REMARK    1  A    between atoms: C6_7  and  C11_13 
REMARK    2  A    between atoms: C7_8  and  O2_11 
REMARK    3  A    between atoms: C11_13  and  C12_14 
REMARK    4  A    between atoms: C12_14  and  C13_15 
ROOT
HETATM    1  C1  UNL     1      -1.267   3.327   0.902  1.00  0.00     0.300 A 
HETATM    2  C2  UNL     1      -0.165   3.931   1.681  1.00  0.00     0.069 A 
HETATM    3  C3  UNL     1       0.872   3.149   2.045  1.00  0.00     0.007 A 
HETATM    4  C4  UNL     1       0.859   1.740   1.658  1.00  0.00     0.023 A 
HETATM    5  C5  UNL     1      -0.215   1.229   0.909  1.00  0.00     0.101 A 
HETATM    6  O1  UNL     1      -1.270   2.015   0.531  1.00  0.00    -0.273 OA
HETATM    7  C6  UNL     1      -0.187  -0.133   0.543  1.00  0.00     0.023 A 
HETATM    8  C7  UNL     1       0.847  -0.999   0.957  1.00  0.00     0.092 A 
HETATM    9  C8  UNL     1       1.895  -0.439   1.704  1.00  0.00     0.024 A 
HETATM   10  C9  UNL     1       1.916   0.909   2.041  1.00  0.00     0.004 A 
HETATM   11  O4  UNL     1      -2.205   4.056   0.586  1.00  0.00    -0.259 OA
ENDROOT
BRANCH   7  12
HETATM   12  C11 UNL     1      -1.338  -0.693  -0.285  1.00  0.00     0.038 C 
BRANCH  12  13
HETATM   13  C12 UNL     1      -1.136  -0.678  -1.821  1.00  0.00     0.063 C 
HETATM   14  C14 UNL     1      -0.063  -1.683  -2.282  1.00  0.00     0.008 C 
HETATM   15  C15 UNL     1      -0.766   0.722  -2.347  1.00  0.00     0.008 C 
BRANCH  13  16
HETATM   16  C13 UNL     1      -2.453  -1.137  -2.450  1.00  0.00     0.207 C 
HETATM   17  O3  UNL     1      -3.082  -0.466  -3.234  1.00  0.00    -0.288 OA
ENDBRANCH  13  16
ENDBRANCH  12  13
ENDBRANCH   7  12
BRANCH   8  18
HETATM   18  O2  UNL     1       0.781  -2.330   0.623  1.00  0.00    -0.328 OA
HETATM   19  C10 UNL     1       1.797  -3.199   1.066  1.00  0.00     0.181 C 
ENDBRANCH   8  18
TORSDOF 4
