REMARK  2 active torsions:
REMARK  status: ('A' for Active; 'I' for Inactive)
REMARK    1  A    between atoms: C2_2  and  C8_11 
REMARK    2  A    between atoms: C6_6  and  O1_7 
ROOT
HETATM    1  C1  UNL     1       0.623   0.500  -0.146  1.00  0.00     0.033 A 
HETATM    2  C2  UNL     1       1.157  -0.768   0.110  1.00  0.00     0.069 A 
HETATM    3  C3  UNL     1       0.294  -1.837   0.381  1.00  0.00     0.036 A 
HETATM    4  C4  UNL     1      -1.085  -1.640   0.396  1.00  0.00     0.158 A 
HETATM    5  C5  UNL     1      -1.599  -0.362   0.133  1.00  0.00     0.178 A 
HETATM    6  C6  UNL     1      -0.762   0.730  -0.136  1.00  0.00     0.122 A 
HETATM    7  O2  UNL     1      -2.946  -0.179   0.142  1.00  0.00    -0.186 OA
HETATM    8  O3  UNL     1      -1.947  -2.659   0.652  1.00  0.00    -0.188 OA
ENDROOT
BRANCH   2   9
HETATM    9  C8  UNL     1       2.626  -0.993   0.086  1.00  0.00     0.211 C 
HETATM   10  O4  UNL     1       3.182  -2.207   0.285  1.00  0.00    -0.644 OA
HETATM   11  O5  UNL     1       3.397  -0.064  -0.123  1.00  0.00    -0.644 OA
ENDBRANCH   2   9
BRANCH   6  12
HETATM   12  O1  UNL     1      -1.364   1.936  -0.391  1.00  0.00    -0.326 OA
HETATM   13  C7  UNL     1      -0.560   3.036  -0.745  1.00  0.00     0.181 C 
ENDBRANCH   6  12
TORSDOF 2
