REMARK  5 active torsions:
REMARK  status: ('A' for Active; 'I' for Inactive)
REMARK    1  A    between atoms: C1_1  and  C22_30 
REMARK    2  A    between atoms: C5_5  and  O2_7 
REMARK    3  A    between atoms: O2_7  and  C6_8 
REMARK    4  A    between atoms: C9_11  and  O3_14 
REMARK    5  A    between atoms: C13_17  and  C16_21 
ROOT
HETATM    1  C6  UNL     1       0.262  -0.064   0.717  1.00  0.00     0.102 C 
HETATM    2  C7  UNL     1      -0.506   0.727  -0.162  1.00  0.00     0.086 A 
HETATM    3  C8  UNL     1      -0.177   2.050  -0.506  1.00  0.00     0.127 A 
HETATM    4  C9  UNL     1       0.994   2.613   0.029  1.00  0.00     0.117 C 
HETATM    5  C10 UNL     1       1.673   1.894   1.018  1.00  0.00     0.028 C 
HETATM    6  C11 UNL     1       1.338   0.581   1.338  1.00  0.00     0.026 C 
HETATM    7  O4  UNL     1      -0.913   2.813  -1.369  1.00  0.00    -0.305 OA
HETATM    8  C13 UNL     1      -2.029   2.298  -1.968  1.00  0.00     0.103 A 
HETATM    9  C14 UNL     1      -2.450   1.036  -1.713  1.00  0.00     0.067 A 
HETATM   10  C15 UNL     1      -1.730   0.148  -0.775  1.00  0.00     0.202 A 
HETATM   11  O5  UNL     1      -2.172  -0.974  -0.536  1.00  0.00    -0.286 OA
ENDROOT
BRANCH   1  12
HETATM   12  O2  UNL     1      -0.121  -1.355   0.960  1.00  0.00    -0.303 OA
BRANCH  12  13
HETATM   13  C5  UNL     1       0.513  -2.138   1.939  1.00  0.00     0.274 C 
HETATM   14  C4  UNL     1      -0.292  -3.414   2.034  1.00  0.00     0.241 C 
HETATM   15  C3  UNL     1       0.389  -4.368   2.986  1.00  0.00     0.220 C 
HETATM   16  O6  UNL     1      -1.585  -3.112   2.495  1.00  0.00    -0.215 OA
HETATM   17  C2  UNL     1       1.802  -4.592   2.487  1.00  0.00     0.215 C 
HETATM   18  O7  UNL     1      -0.301  -5.591   3.008  1.00  0.00    -0.218 OA
HETATM   19  C1  UNL     1       2.523  -3.256   2.344  1.00  0.00     0.184 C 
HETATM   20  O8  UNL     1       2.456  -5.431   3.408  1.00  0.00    -0.218 OA
HETATM   21  O1  UNL     1       1.808  -2.429   1.462  1.00  0.00    -0.326 OA
BRANCH  19  22
HETATM   22  C22 UNL     1       3.936  -3.423   1.805  1.00  0.00     0.214 C 
HETATM   23  O9  UNL     1       4.600  -2.175   1.817  1.00  0.00    -0.218 OA
ENDBRANCH  19  22
ENDBRANCH  12  13
ENDBRANCH   1  12
BRANCH   4  24
HETATM   24  O3  UNL     1       1.314   3.925  -0.214  1.00  0.00    -0.326 OA
HETATM   25  C12 UNL     1       2.193   4.094  -1.302  1.00  0.00     0.181 C 
ENDBRANCH   4  24
BRANCH   8  26
HETATM   26  C16 UNL     1      -2.776   3.160  -2.915  1.00  0.00     0.023 A 
HETATM   27  C17 UNL     1      -2.249   4.431  -3.220  1.00  0.00     0.002 A 
HETATM   28  C18 UNL     1      -2.893   5.304  -4.096  1.00  0.00     0.000 A 
HETATM   29  C19 UNL     1      -4.096   4.933  -4.697  1.00  0.00     0.000 A 
HETATM   30  C20 UNL     1      -4.641   3.683  -4.410  1.00  0.00     0.000 A 
HETATM   31  C21 UNL     1      -3.991   2.812  -3.531  1.00  0.00     0.002 A 
ENDBRANCH   8  26
TORSDOF 5
