REMARK  2 active torsions:
REMARK  status: ('A' for Active; 'I' for Inactive)
REMARK    1  A    between atoms: C7_9  and  C11_15 
REMARK    2  A    between atoms: C8_10  and  O4_13 
ROOT
HETATM    1  C1  UNL     1      -4.127   1.730   0.146  1.00  0.00     0.160 A 
HETATM    2  C2  UNL     1      -3.581   3.009   0.253  1.00  0.00     0.057 A 
HETATM    3  C3  UNL     1      -2.215   3.261   0.106  1.00  0.00     0.138 A 
HETATM    4  C4  UNL     1      -1.387   2.153  -0.143  1.00  0.00     0.091 A 
HETATM    5  C5  UNL     1      -1.895   0.849  -0.233  1.00  0.00     0.133 A 
HETATM    6  C6  UNL     1      -3.272   0.645  -0.076  1.00  0.00     0.179 A 
HETATM    7  O1  UNL     1      -3.811  -0.596  -0.202  1.00  0.00    -0.186 OA
HETATM    8  O2  UNL     1      -1.092  -0.214  -0.523  1.00  0.00    -0.303 OA
HETATM    9  C7  UNL     1       0.224  -0.124  -0.165  1.00  0.00     0.125 C 
HETATM   10  C8  UNL     1       0.894   1.056  -0.183  1.00  0.00     0.156 C 
HETATM   11  C9  UNL     1       0.083   2.303  -0.304  1.00  0.00     0.224 C 
HETATM   12  O3  UNL     1       0.625   3.393  -0.452  1.00  0.00    -0.284 OA
HETATM   13  O6  UNL     1      -1.756   4.536   0.232  1.00  0.00    -0.190 OA
HETATM   14  O7  UNL     1      -5.459   1.513   0.308  1.00  0.00    -0.188 OA
ENDROOT
BRANCH   9  15
HETATM   15  C11 UNL     1       0.970  -1.392   0.056  1.00  0.00     0.025 A 
HETATM   16  C12 UNL     1       0.631  -2.509  -0.721  1.00  0.00     0.004 A 
HETATM   17  C13 UNL     1       1.299  -3.723  -0.567  1.00  0.00     0.028 A 
HETATM   18  C14 UNL     1       2.318  -3.878   0.379  1.00  0.00     0.131 A 
HETATM   19  C15 UNL     1       2.618  -2.779   1.188  1.00  0.00     0.028 A 
HETATM   20  O5  UNL     1       2.969  -5.060   0.535  1.00  0.00    -0.190 OA
HETATM   21  C16 UNL     1       1.954  -1.559   1.039  1.00  0.00     0.004 A 
ENDBRANCH   9  15
BRANCH  10  22
HETATM   22  O4  UNL     1       2.222   1.208   0.119  1.00  0.00    -0.323 OA
HETATM   23  C10 UNL     1       3.059   1.249  -1.014  1.00  0.00     0.182 C 
ENDBRANCH  10  22
TORSDOF 2
