REMARK  8 active torsions:
REMARK  status: ('A' for Active; 'I' for Inactive)
REMARK    1  A    between atoms: C4_4  and  C7_7 
REMARK    2  A    between atoms: C8_8  and  C9_9 
REMARK    3  A    between atoms: C9_9  and  O1_10 
REMARK    4  A    between atoms: O1_10  and  C10_11 
REMARK    5  A    between atoms: C10_11  and  C11_12 
REMARK    6  A    between atoms: C15_16  and  O3_18 
REMARK    7  A    between atoms: O3_18  and  C16_19 
REMARK    8  A    between atoms: C22_26  and  C25_30 
ROOT
HETATM    1  C11 UNL     1      -1.236  -3.620  -0.883  1.00  0.00     0.181 C 
HETATM    2  C12 UNL     1      -1.726  -5.061  -0.792  1.00  0.00     0.215 C 
HETATM    3  C13 UNL     1      -1.157  -5.804   0.404  1.00  0.00     0.220 C 
HETATM    4  C14 UNL     1       0.341  -5.583   0.495  1.00  0.00     0.241 C 
HETATM    5  C15 UNL     1       0.715  -4.122   0.352  1.00  0.00     0.274 C 
HETATM    6  O2  UNL     1       0.165  -3.585  -0.832  1.00  0.00    -0.326 OA
HETATM    7  O8  UNL     1       0.981  -6.289  -0.544  1.00  0.00    -0.215 OA
HETATM    8  O9  UNL     1      -1.764  -5.337   1.585  1.00  0.00    -0.218 OA
HETATM    9  O10 UNL     1      -1.347  -5.741  -1.969  1.00  0.00    -0.218 OA
ENDROOT
BRANCH   5  10
HETATM   10  O3  UNL     1       2.117  -4.083   0.198  1.00  0.00    -0.303 OA
BRANCH  10  11
HETATM   11  C16 UNL     1       2.787  -2.885   0.160  1.00  0.00     0.101 A 
HETATM   12  C17 UNL     1       4.131  -2.897   0.168  1.00  0.00     0.052 A 
HETATM   13  C18 UNL     1       4.895  -1.793   0.129  1.00  0.00     0.138 A 
HETATM   14  C19 UNL     1       4.280  -0.593   0.067  1.00  0.00     0.087 A 
HETATM   15  O7  UNL     1       6.250  -1.948   0.129  1.00  0.00    -0.190 OA
HETATM   16  C20 UNL     1       2.935  -0.519   0.080  1.00  0.00     0.107 A 
HETATM   17  C24 UNL     1       4.992   0.564  -0.020  1.00  0.00     0.202 C 
HETATM   18  C21 UNL     1       2.228  -1.662   0.147  1.00  0.00     0.049 A 
HETATM   19  O4  UNL     1       2.250   0.659   0.037  1.00  0.00    -0.307 OA
HETATM   20  C22 UNL     1       2.966   1.805  -0.166  1.00  0.00     0.103 C 
HETATM   21  C23 UNL     1       4.311   1.733  -0.156  1.00  0.00     0.067 C 
HETATM   22  O5  UNL     1       6.203   0.606  -0.025  1.00  0.00    -0.286 OA
BRANCH  20  23
HETATM   23  C25 UNL     1       2.295   2.968  -0.373  1.00  0.00     0.023 A 
HETATM   24  C26 UNL     1       0.944   2.955  -0.367  1.00  0.00     0.004 A 
HETATM   25  C27 UNL     1       0.213   4.056  -0.597  1.00  0.00     0.028 A 
HETATM   26  C28 UNL     1       0.789   5.240  -0.848  1.00  0.00     0.131 A 
HETATM   27  C29 UNL     1       2.130   5.271  -0.846  1.00  0.00     0.028 A 
HETATM   28  O6  UNL     1       0.054   6.358  -1.093  1.00  0.00    -0.190 OA
HETATM   29  C30 UNL     1       2.861   4.169  -0.614  1.00  0.00     0.004 A 
ENDBRANCH  20  23
ENDBRANCH  10  11
ENDBRANCH   5  10
BRANCH   1  30
HETATM   30  C10 UNL     1      -1.900  -2.673   0.115  1.00  0.00     0.184 C 
BRANCH  30  31
HETATM   31  O1  UNL     1      -1.695  -1.332  -0.261  1.00  0.00    -0.296 OA
BRANCH  31  32
HETATM   32  C9  UNL     1      -2.104  -0.373   0.631  1.00  0.00     0.296 C 
HETATM   33  O11 UNL     1      -2.224  -0.655   1.805  1.00  0.00    -0.259 OA
BRANCH  32  34
HETATM   34  C8  UNL     1      -2.517   0.854   0.203  1.00  0.00     0.068 C 
HETATM   35  C7  UNL     1      -2.993   1.812   1.021  1.00  0.00     0.005 C 
BRANCH  35  36
HETATM   36  C4  UNL     1      -3.473   3.027   0.680  1.00  0.00     0.000 A 
HETATM   37  C3  UNL     1      -3.914   3.851   1.652  1.00  0.00     0.002 A 
HETATM   38  C2  UNL     1      -4.426   5.061   1.375  1.00  0.00     0.027 A 
HETATM   39  C1  UNL     1      -4.521   5.507   0.113  1.00  0.00     0.131 A 
HETATM   40  C6  UNL     1      -4.076   4.694  -0.858  1.00  0.00     0.027 A 
HETATM   41  O12 UNL     1      -5.044   6.729  -0.175  1.00  0.00    -0.190 OA
HETATM   42  C5  UNL     1      -3.566   3.483  -0.585  1.00  0.00     0.002 A 
ENDBRANCH  35  36
ENDBRANCH  32  34
ENDBRANCH  31  32
ENDBRANCH  30  31
ENDBRANCH   1  30
TORSDOF 8
