REMARK  4 active torsions:
REMARK  status: ('A' for Active; 'I' for Inactive)
REMARK    1  A    between atoms: C2_2  and  O3_12 
REMARK    2  A    between atoms: C5_5  and  C7_7 
REMARK    3  A    between atoms: C7_7  and  C8_8 
REMARK    4  A    between atoms: C8_8  and  C9_9 
ROOT
HETATM    1  C1  UNL     1       1.877   0.707  -0.144  1.00  0.00     0.024 A 
HETATM    2  C2  UNL     1       2.420  -0.568   0.067  1.00  0.00     0.094 A 
HETATM    3  C3  UNL     1       1.488  -1.607   0.205  1.00  0.00     0.024 A 
HETATM    4  C4  UNL     1       0.111  -1.375   0.181  1.00  0.00    -0.002 A 
HETATM    5  C5  UNL     1      -0.415  -0.093  -0.004  1.00  0.00    -0.021 A 
HETATM    6  C6  UNL     1       0.502   0.949  -0.172  1.00  0.00    -0.002 A 
ENDROOT
BRANCH   5   7
HETATM    7  C7  UNL     1      -1.918   0.097  -0.028  1.00  0.00     0.038 C 
BRANCH   7   8
HETATM    8  C8  UNL     1      -2.427   1.546   0.030  1.00  0.00     0.102 C 
BRANCH   8   9
HETATM    9  C9  UNL     1      -3.942   1.639   0.072  1.00  0.00     0.186 C 
HETATM   10  O1  UNL     1      -4.353   2.915   0.186  1.00  0.00    -0.647 OA
HETATM   11  O2  UNL     1      -4.730   0.726   0.013  1.00  0.00    -0.647 OA
ENDBRANCH   8   9
ENDBRANCH   7   8
ENDBRANCH   5   7
BRANCH   2  12
HETATM   12  O3  UNL     1       3.784  -0.721   0.050  1.00  0.00    -0.328 OA
HETATM   13  C10 UNL     1       4.306  -2.026  -0.043  1.00  0.00     0.181 C 
ENDBRANCH   2  12
TORSDOF 4
