REMARK  3 active torsions:
REMARK  status: ('A' for Active; 'I' for Inactive)
REMARK    1  A    between atoms: C2_2  and  O3_18 
REMARK    2  A    between atoms: C3_3  and  C13_15 
REMARK    3  A    between atoms: C10_10  and  C12_12 
ROOT
HETATM    1  C1  UNL     1       1.663  -0.042   1.578  1.00  0.00     0.020 A 
HETATM    2  C2  UNL     1       1.675   0.611   0.309  1.00  0.00     0.090 A 
HETATM    3  C3  UNL     1       0.535   0.548  -0.480  1.00  0.00    -0.000 A 
HETATM    4  C4  UNL     1      -0.550  -0.310  -0.054  1.00  0.00    -0.002 A 
HETATM    5  C5  UNL     1      -0.500  -0.992   1.179  1.00  0.00    -0.002 A 
HETATM    6  C6  UNL     1       0.640  -0.837   2.029  1.00  0.00    -0.020 A 
HETATM    7  C7  UNL     1       0.737  -1.490   3.389  1.00  0.00     0.031 C 
HETATM    8  C8  UNL     1      -1.598  -1.805   1.594  1.00  0.00     0.027 A 
HETATM    9  C9  UNL     1      -2.730  -1.984   0.833  1.00  0.00     0.134 A 
HETATM   10  C10 UNL     1      -2.783  -1.314  -0.423  1.00  0.00     0.068 A 
HETATM   11  C11 UNL     1      -1.734  -0.511  -0.834  1.00  0.00     0.005 A 
HETATM   12  O2  UNL     1      -3.739  -2.769   1.297  1.00  0.00    -0.190 OA
ENDROOT
BRANCH   3  13
HETATM   13  C13 UNL     1       0.373   1.380  -1.760  1.00  0.00     0.024 C 
HETATM   14  C14 UNL     1      -0.555   2.573  -1.459  1.00  0.00     0.005 C 
HETATM   15  C15 UNL     1       1.612   1.900  -2.514  1.00  0.00     0.005 C 
ENDBRANCH   3  13
BRANCH   2  16
HETATM   16  O3  UNL     1       2.739   1.430   0.036  1.00  0.00    -0.328 OA
HETATM   17  C16 UNL     1       3.931   0.743  -0.279  1.00  0.00     0.181 C 
ENDBRANCH   2  16
BRANCH  10  18
HETATM   18  C12 UNL     1      -3.967  -1.461  -1.308  1.00  0.00     0.236 C 
HETATM   19  O1  UNL     1      -4.949  -2.144  -1.055  1.00  0.00    -0.283 OA
ENDBRANCH  10  18
TORSDOF 3
