REMARK  3 active torsions:
REMARK  status: ('A' for Active; 'I' for Inactive)
REMARK    1  A    between atoms: C8_8  and  C17_20 
REMARK    2  A    between atoms: C13_14  and  O2_15 
REMARK    3  A    between atoms: C17_20  and  O4_21 
ROOT
HETATM    1  C1  UNL     1      -3.720  -1.488   0.554  1.00  0.00     0.002 A 
HETATM    2  C2  UNL     1      -3.922  -2.788   0.159  1.00  0.00     0.000 A 
HETATM    3  C3  UNL     1      -2.849  -3.541  -0.385  1.00  0.00     0.000 A 
HETATM    4  C4  UNL     1      -1.610  -2.965  -0.528  1.00  0.00     0.002 A 
HETATM    5  C5  UNL     1      -1.375  -1.609  -0.136  1.00  0.00     0.024 A 
HETATM    6  C6  UNL     1      -2.436  -0.873   0.420  1.00  0.00     0.027 A 
HETATM    7  C7  UNL     1      -2.220   0.467   0.864  1.00  0.00     0.136 A 
HETATM    8  C8  UNL     1      -0.964   1.012   0.702  1.00  0.00     0.089 A 
HETATM    9  C9  UNL     1       0.104   0.293   0.072  1.00  0.00     0.037 A 
HETATM   10  C10 UNL     1      -0.082  -1.020  -0.323  1.00  0.00     0.092 A 
HETATM   11  O1  UNL     1       0.934  -1.797  -0.812  1.00  0.00    -0.333 OA
HETATM   12  C11 UNL     1       2.233  -1.395  -0.521  1.00  0.00     0.129 C 
HETATM   13  C12 UNL     1       2.376   0.054  -0.972  1.00  0.00     0.208 C 
HETATM   14  C13 UNL     1       1.438   0.976  -0.198  1.00  0.00     0.172 C 
HETATM   15  O3  UNL     1       3.711   0.475  -0.819  1.00  0.00    -0.218 OA
HETATM   16  C15 UNL     1       3.162  -2.318  -1.325  1.00  0.00     0.033 C 
HETATM   17  C16 UNL     1       2.521  -1.601   0.974  1.00  0.00     0.033 C 
HETATM   18  O6  UNL     1      -3.203   1.134   1.525  1.00  0.00    -0.190 OA
ENDROOT
BRANCH   8  19
HETATM   19  C17 UNL     1      -0.695   2.385   1.280  1.00  0.00     0.298 C 
HETATM   20  O5  UNL     1       0.227   2.427   2.088  1.00  0.00    -0.259 OA
BRANCH  19  21
HETATM   21  O4  UNL     1      -1.387   3.537   1.032  1.00  0.00    -0.296 OA
HETATM   22  C18 UNL     1      -2.402   3.573   0.058  1.00  0.00     0.185 C 
ENDBRANCH  19  21
ENDBRANCH   8  19
BRANCH  14  23
HETATM   23  O2  UNL     1       1.189   2.151  -0.947  1.00  0.00    -0.347 OA
HETATM   24  C14 UNL     1       2.141   3.174  -0.755  1.00  0.00     0.175 C 
ENDBRANCH  14  23
TORSDOF 3
