REMARK  2 active torsions:
REMARK  status: ('A' for Active; 'I' for Inactive)
REMARK    1  A    between atoms: C1_1  and  O4_19 
REMARK    2  A    between atoms: C7_8  and  C10_12 
ROOT
HETATM    1  C1  UNL     1      -3.360   1.875   0.002  1.00  0.00     0.096 A 
HETATM    2  C2  UNL     1      -2.837   3.175   0.029  1.00  0.00     0.024 A 
HETATM    3  C3  UNL     1      -1.464   3.418   0.049  1.00  0.00     0.007 A 
HETATM    4  C4  UNL     1      -0.572   2.342   0.042  1.00  0.00     0.062 A 
HETATM    5  C5  UNL     1      -1.032   1.018   0.014  1.00  0.00     0.105 A 
HETATM    6  C6  UNL     1      -2.420   0.830  -0.005  1.00  0.00     0.049 A 
HETATM    7  O1  UNL     1      -0.205  -0.069   0.004  1.00  0.00    -0.307 OA
HETATM    8  C7  UNL     1       1.153   0.111   0.021  1.00  0.00     0.103 A 
HETATM    9  C8  UNL     1       1.711   1.348   0.048  1.00  0.00     0.067 A 
HETATM   10  C9  UNL     1       0.887   2.577   0.062  1.00  0.00     0.200 A 
HETATM   11  O2  UNL     1       1.394   3.696   0.088  1.00  0.00    -0.286 OA
ENDROOT
BRANCH   8  12
HETATM   12  C10 UNL     1       2.015  -1.095   0.006  1.00  0.00     0.023 A 
HETATM   13  C11 UNL     1       1.399  -2.361  -0.029  1.00  0.00     0.004 A 
HETATM   14  C12 UNL     1       2.141  -3.541  -0.047  1.00  0.00     0.028 A 
HETATM   15  C13 UNL     1       3.539  -3.522  -0.032  1.00  0.00     0.131 A 
HETATM   16  C14 UNL     1       4.159  -2.272   0.006  1.00  0.00     0.028 A 
HETATM   17  O3  UNL     1       4.269  -4.668  -0.048  1.00  0.00    -0.190 OA
HETATM   18  C15 UNL     1       3.420  -1.086   0.024  1.00  0.00     0.004 A 
ENDBRANCH   8  12
BRANCH   1  19
HETATM   19  O4  UNL     1      -4.723   1.716  -0.018  1.00  0.00    -0.328 OA
HETATM   20  C16 UNL     1      -5.246   0.409  -0.059  1.00  0.00     0.181 C 
ENDBRANCH   1  19
TORSDOF 2
