REMARK  5 active torsions:
REMARK  status: ('A' for Active; 'I' for Inactive)
REMARK    1  A    between atoms: C2_2  and  O5_11 
REMARK    2  A    between atoms: C3_4  and  C6_9 
REMARK    3  A    between atoms: O5_11  and  C7_12 
REMARK    4  A    between atoms: C9_14  and  O9_28 
REMARK    5  A    between atoms: C14_19  and  C18_24 
ROOT
HETATM    1  C7  UNL     1       0.953  -0.162   1.130  1.00  0.00     0.102 A 
HETATM    2  C8  UNL     1       0.840   0.464   2.389  1.00  0.00     0.049 A 
HETATM    3  C9  UNL     1       1.026   1.826   2.640  1.00  0.00     0.096 A 
HETATM    4  C10 UNL     1       1.352   2.605   1.524  1.00  0.00     0.028 A 
HETATM    5  C11 UNL     1       1.522   2.047   0.256  1.00  0.00     0.046 A 
HETATM    6  C12 UNL     1       1.374   0.659   0.064  1.00  0.00     0.065 A 
HETATM    7  C13 UNL     1       1.705   0.127  -1.283  1.00  0.00     0.200 C 
HETATM    8  C14 UNL     1       1.807   1.070  -2.425  1.00  0.00     0.073 C 
HETATM    9  C15 UNL     1       1.894   2.403  -2.245  1.00  0.00     0.023 C 
HETATM   10  C16 UNL     1       1.871   2.958  -0.864  1.00  0.00     0.192 C 
HETATM   11  O6  UNL     1       2.063   4.156  -0.684  1.00  0.00    -0.287 OA
HETATM   12  C17 UNL     1       2.022   3.391  -3.382  1.00  0.00     0.035 C 
HETATM   13  O8  UNL     1       2.031  -1.035  -1.491  1.00  0.00    -0.286 OA
ENDROOT
BRANCH   1  14
HETATM   14  O5  UNL     1       0.575  -1.486   1.095  1.00  0.00    -0.303 OA
BRANCH  14  15
HETATM   15  C2  UNL     1      -0.165  -2.039   0.029  1.00  0.00     0.274 C 
HETATM   16  C1  UNL     1      -0.890  -3.306   0.438  1.00  0.00     0.241 C 
HETATM   17  C5  UNL     1      -2.225  -3.051   1.107  1.00  0.00     0.220 C 
HETATM   18  O10 UNL     1      -1.119  -4.076  -0.722  1.00  0.00    -0.215 OA
HETATM   19  C4  UNL     1      -3.021  -2.067   0.275  1.00  0.00     0.215 C 
HETATM   20  O2  UNL     1      -2.023  -2.550   2.405  1.00  0.00    -0.218 OA
HETATM   21  C3  UNL     1      -2.235  -0.813  -0.083  1.00  0.00     0.184 C 
HETATM   22  O3  UNL     1      -3.437  -2.708  -0.912  1.00  0.00    -0.218 OA
HETATM   23  O1  UNL     1      -0.972  -1.089  -0.627  1.00  0.00    -0.326 OA
BRANCH  21  24
HETATM   24  C6  UNL     1      -2.189   0.224   1.030  1.00  0.00     0.214 C 
HETATM   25  O4  UNL     1      -1.537   1.396   0.576  1.00  0.00    -0.218 OA
ENDBRANCH  21  24
ENDBRANCH  14  15
ENDBRANCH   1  14
BRANCH   3  26
HETATM   26  O9  UNL     1       0.920   2.439   3.863  1.00  0.00    -0.328 OA
HETATM   27  C20 UNL     1       0.784   1.634   5.010  1.00  0.00     0.181 C 
ENDBRANCH   3  26
BRANCH   8  28
HETATM   28  C18 UNL     1       1.842   0.475  -3.819  1.00  0.00     0.176 C 
HETATM   29  C19 UNL     1       0.525  -0.062  -4.344  1.00  0.00     0.077 C 
HETATM   30  O7  UNL     1       2.858   0.491  -4.493  1.00  0.00    -0.291 OA
ENDBRANCH   8  28
TORSDOF 5
