REMARK  1 active torsions:
REMARK  status: ('A' for Active; 'I' for Inactive)
REMARK    1  A    between atoms: C11_12  and  O2_17 
ROOT
HETATM    1  C1  UNL     1       1.627   1.894   0.002  1.00  0.00     0.042 A 
HETATM    2  C2  UNL     1       0.213   2.236  -0.282  1.00  0.00     0.196 A 
HETATM    3  C3  UNL     1      -0.786   1.138  -0.230  1.00  0.00     0.044 A 
HETATM    4  C4  UNL     1      -0.443  -0.177   0.149  1.00  0.00     0.064 A 
HETATM    5  C5  UNL     1       0.966  -0.479   0.536  1.00  0.00     0.198 A 
HETATM    6  C6  UNL     1       1.985   0.593   0.396  1.00  0.00     0.042 A 
HETATM    7  C7  UNL     1       3.330   0.301   0.652  1.00  0.00     0.003 A 
HETATM    8  C8  UNL     1       4.313   1.287   0.511  1.00  0.00     0.000 A 
HETATM    9  C9  UNL     1       3.955   2.574   0.117  1.00  0.00     0.000 A 
HETATM   10  C10 UNL     1       2.613   2.878  -0.134  1.00  0.00     0.003 A 
HETATM   11  O1  UNL     1       1.328  -1.577   0.951  1.00  0.00    -0.286 OA
HETATM   12  C11 UNL     1      -1.409  -1.207   0.116  1.00  0.00     0.093 C 
HETATM   13  C12 UNL     1      -2.753  -0.849  -0.134  1.00  0.00     0.001 C 
HETATM   14  C13 UNL     1      -3.085   0.453  -0.503  1.00  0.00    -0.002 C 
HETATM   15  C14 UNL     1      -2.105   1.444  -0.570  1.00  0.00     0.003 C 
HETATM   16  C15 UNL     1      -3.852  -1.883  -0.023  1.00  0.00     0.033 C 
HETATM   17  O3  UNL     1      -0.112   3.385  -0.571  1.00  0.00    -0.287 OA
ENDROOT
BRANCH  12  18
HETATM   18  O2  UNL     1      -1.140  -2.483   0.544  1.00  0.00    -0.328 OA
HETATM   19  C16 UNL     1      -0.695  -3.351  -0.477  1.00  0.00     0.181 C 
ENDBRANCH  12  18
TORSDOF 1
