REMARK  5 active torsions:
REMARK  status: ('A' for Active; 'I' for Inactive)
REMARK    1  A    between atoms: C1_1  and  O6_23 
REMARK    2  A    between atoms: C4_4  and  C8_10 
REMARK    3  A    between atoms: C6_6  and  C7_7 
REMARK    4  A    between atoms: C8_10  and  C9_11 
REMARK    5  A    between atoms: C10_12  and  C11_13 
ROOT
HETATM    1  C1  UNL     1       2.906   2.117  -0.181  1.00  0.00     0.097 C 
HETATM    2  C2  UNL     1       3.467   0.832  -0.142  1.00  0.00     0.026 C 
HETATM    3  C3  UNL     1       2.682  -0.305   0.115  1.00  0.00     0.134 C 
HETATM    4  C4  UNL     1       1.327  -0.133   0.433  1.00  0.00     0.090 C 
HETATM    5  C5  UNL     1       0.743   1.143   0.489  1.00  0.00     0.141 C 
HETATM    6  C6  UNL     1       1.555   2.258   0.213  1.00  0.00     0.090 C 
HETATM    7  O2  UNL     1      -0.544   1.273   0.913  1.00  0.00    -0.190 OA
HETATM    8  O5  UNL     1       3.263  -1.537   0.071  1.00  0.00    -0.190 OA
HETATM    9  C17 UNL     1       4.946   0.613  -0.396  1.00  0.00     0.035 C 
ENDROOT
BRANCH   4  10
HETATM   10  C8  UNL     1       0.494  -1.343   0.752  1.00  0.00     0.202 C 
HETATM   11  O4  UNL     1       0.995  -2.285   1.359  1.00  0.00    -0.286 OA
BRANCH  10  12
HETATM   12  C9  UNL     1      -0.902  -1.389   0.249  1.00  0.00     0.070 C 
HETATM   13  C10 UNL     1      -1.834  -2.259   0.716  1.00  0.00     0.134 C 
HETATM   14  O3  UNL     1      -1.517  -3.178   1.670  1.00  0.00    -0.190 OA
BRANCH  13  15
HETATM   15  C11 UNL     1      -3.223  -2.223   0.206  1.00  0.00     0.025 A 
HETATM   16  C12 UNL     1      -4.024  -3.371   0.340  1.00  0.00     0.002 A 
HETATM   17  C13 UNL     1      -5.354  -3.379  -0.081  1.00  0.00     0.000 A 
HETATM   18  C14 UNL     1      -5.919  -2.231  -0.641  1.00  0.00     0.000 A 
HETATM   19  C15 UNL     1      -5.140  -1.082  -0.779  1.00  0.00     0.000 A 
HETATM   20  C16 UNL     1      -3.807  -1.079  -0.360  1.00  0.00     0.002 A 
ENDBRANCH  13  15
ENDBRANCH  10  12
ENDBRANCH   4  10
BRANCH   6  21
HETATM   21  C7  UNL     1       0.980   3.629   0.293  1.00  0.00     0.238 C 
HETATM   22  O1  UNL     1      -0.198   3.875   0.511  1.00  0.00    -0.283 OA
ENDBRANCH   6  21
BRANCH   1  23
HETATM   23  O6  UNL     1       3.706   3.216  -0.369  1.00  0.00    -0.328 OA
HETATM   24  C18 UNL     1       3.861   3.583  -1.722  1.00  0.00     0.181 C 
ENDBRANCH   1  23
TORSDOF 5
