REMARK  3 active torsions:
REMARK  status: ('A' for Active; 'I' for Inactive)
REMARK    1  A    between atoms: C2_2  and  O4_14 
REMARK    2  A    between atoms: C4_4  and  C8_10 
REMARK    3  A    between atoms: C9_11  and  C10_12 
ROOT
HETATM    1  C1  UNL     1      -1.456   1.262   0.012  1.00  0.00     0.141 A 
HETATM    2  C2  UNL     1      -0.114   1.643  -0.082  1.00  0.00     0.118 A 
HETATM    3  C3  UNL     1       0.791   0.568  -0.047  1.00  0.00     0.026 A 
HETATM    4  C4  UNL     1       0.409  -0.788   0.054  1.00  0.00     0.004 A 
HETATM    5  C5  UNL     1      -0.955  -1.112   0.162  1.00  0.00     0.026 A 
HETATM    6  C6  UNL     1      -1.865  -0.062   0.133  1.00  0.00     0.121 A 
HETATM    7  O1  UNL     1      -3.243  -0.111   0.216  1.00  0.00    -0.299 OA
HETATM    8  C7  UNL     1      -3.731   1.233   0.137  1.00  0.00     0.304 A 
HETATM    9  O2  UNL     1      -2.576   2.071   0.011  1.00  0.00    -0.298 OA
ENDROOT
BRANCH   4  10
HETATM   10  C8  UNL     1       1.468  -1.810   0.075  1.00  0.00     0.004 C 
HETATM   11  C9  UNL     1       1.275  -3.149   0.003  1.00  0.00     0.045 C 
BRANCH  11  12
HETATM   12  C10 UNL     1       2.402  -4.107   0.021  1.00  0.00     0.234 C 
HETATM   13  O3  UNL     1       2.232  -5.316  -0.051  1.00  0.00    -0.283 OA
ENDBRANCH  11  12
ENDBRANCH   4  10
BRANCH   2  14
HETATM   14  O4  UNL     1       0.208   2.971  -0.184  1.00  0.00    -0.326 OA
HETATM   15  C11 UNL     1       1.570   3.328  -0.232  1.00  0.00     0.181 C 
ENDBRANCH   2  14
TORSDOF 3
