REMARK  2 active torsions:
REMARK  status: ('A' for Active; 'I' for Inactive)
REMARK    1  A    between atoms: C1_1  and  O3_19 
REMARK    2  A    between atoms: C8_10  and  C11_13 
ROOT
HETATM    1  C1  UNL     1      -0.065  -1.651   1.236  1.00  0.00     0.090 C 
HETATM    2  C2  UNL     1       0.428  -0.362   0.955  1.00  0.00     0.022 C 
HETATM    3  C3  UNL     1      -0.227   0.793   1.407  1.00  0.00     0.094 C 
HETATM    4  C4  UNL     1      -1.365   0.610   2.196  1.00  0.00     0.051 C 
HETATM    5  C5  UNL     1      -1.824  -0.646   2.592  1.00  0.00     0.131 C 
HETATM    6  C6  UNL     1      -1.147  -1.782   2.126  1.00  0.00     0.026 C 
HETATM    7  C7  UNL     1      -1.603  -3.153   2.580  1.00  0.00     0.035 C 
HETATM    8  O1  UNL     1      -2.917  -0.744   3.396  1.00  0.00    -0.190 OA
HETATM    9  O2  UNL     1       0.156   2.071   1.091  1.00  0.00    -0.329 OA
HETATM   10  C8  UNL     1       1.142   2.231   0.101  1.00  0.00     0.144 C 
HETATM   11  C9  UNL     1       2.255   1.208   0.305  1.00  0.00     0.040 C 
HETATM   12  C10 UNL     1       1.689  -0.204   0.134  1.00  0.00     0.033 C 
ENDROOT
BRANCH  10  13
HETATM   13  C11 UNL     1       0.612   2.229  -1.324  1.00  0.00     0.005 A 
HETATM   14  C12 UNL     1       1.380   2.821  -2.336  1.00  0.00    -0.002 A 
HETATM   15  C13 UNL     1       0.952   2.834  -3.665  1.00  0.00    -0.000 A 
HETATM   16  C14 UNL     1      -0.265   2.245  -4.010  1.00  0.00    -0.000 A 
HETATM   17  C15 UNL     1      -1.046   1.655  -3.016  1.00  0.00    -0.000 A 
HETATM   18  C16 UNL     1      -0.611   1.652  -1.689  1.00  0.00    -0.002 A 
ENDBRANCH  10  13
BRANCH   1  19
HETATM   19  O3  UNL     1       0.626  -2.757   0.807  1.00  0.00    -0.329 OA
HETATM   20  C17 UNL     1       0.117  -3.311  -0.385  1.00  0.00     0.181 C 
ENDBRANCH   1  19
TORSDOF 2
