REMARK  1 active torsions:
REMARK  status: ('A' for Active; 'I' for Inactive)
REMARK    1  A    between atoms: C8_8  and  O1_9 
ROOT
HETATM    1  C1  UNL     1       1.557  -1.377  -0.107  1.00  0.00     0.134 A 
HETATM    2  C2  UNL     1       2.746  -0.630  -0.027  1.00  0.00     0.023 A 
HETATM    3  C3  UNL     1       2.766   0.757   0.101  1.00  0.00    -0.020 A 
HETATM    4  C4  UNL     1       1.539   1.429   0.150  1.00  0.00    -0.001 A 
HETATM    5  C5  UNL     1       0.337   0.721   0.072  1.00  0.00     0.044 A 
HETATM    6  C6  UNL     1       0.334  -0.684  -0.058  1.00  0.00     0.069 A 
HETATM    7  C7  UNL     1      -0.967  -1.406  -0.139  1.00  0.00     0.220 A 
HETATM    8  C8  UNL     1      -2.245  -0.631  -0.076  1.00  0.00     0.136 A 
HETATM    9  C10 UNL     1      -2.192   0.713   0.049  1.00  0.00     0.070 A 
HETATM   10  C11 UNL     1      -0.931   1.486   0.130  1.00  0.00     0.198 A 
HETATM   11  O2  UNL     1      -0.966   2.708   0.241  1.00  0.00    -0.286 OA
HETATM   12  O3  UNL     1      -1.029  -2.625  -0.254  1.00  0.00    -0.284 OA
HETATM   13  C12 UNL     1       4.057   1.531   0.185  1.00  0.00     0.031 C 
HETATM   14  O4  UNL     1       1.669  -2.728  -0.233  1.00  0.00    -0.190 OA
ENDROOT
BRANCH   8  15
HETATM   15  O1  UNL     1      -3.388  -1.389  -0.156  1.00  0.00    -0.325 OA
HETATM   16  C9  UNL     1      -4.634  -0.733  -0.116  1.00  0.00     0.181 C 
ENDBRANCH   8  15
TORSDOF 1
