REMARK  2 active torsions:
REMARK  status: ('A' for Active; 'I' for Inactive)
REMARK    1  A    between atoms: C9_9  and  O3_19 
REMARK    2  A    between atoms: C10_10  and  O2_17 
ROOT
HETATM    1  C1  UNL     1      -3.529  -1.876  -0.123  1.00  0.00     0.134 A 
HETATM    2  C2  UNL     1      -4.851  -1.456  -0.335  1.00  0.00     0.028 A 
HETATM    3  C3  UNL     1      -5.195  -0.112  -0.432  1.00  0.00     0.002 A 
HETATM    4  C4  UNL     1      -4.195   0.858  -0.342  1.00  0.00     0.003 A 
HETATM    5  C5  UNL     1      -2.866   0.471  -0.145  1.00  0.00     0.044 A 
HETATM    6  C6  UNL     1      -2.527  -0.891  -0.025  1.00  0.00     0.067 A 
HETATM    7  C7  UNL     1      -1.107  -1.277   0.210  1.00  0.00     0.200 C 
HETATM    8  C8  UNL     1      -0.040  -0.249   0.027  1.00  0.00     0.066 A 
HETATM    9  C9  UNL     1       1.321  -0.620  -0.003  1.00  0.00     0.119 A 
HETATM   10  C10 UNL     1       2.309   0.368  -0.241  1.00  0.00     0.112 A 
HETATM   11  C11 UNL     1       1.919   1.699  -0.455  1.00  0.00     0.003 A 
HETATM   12  C12 UNL     1       0.572   2.059  -0.344  1.00  0.00     0.001 A 
HETATM   13  C13 UNL     1      -0.410   1.099  -0.108  1.00  0.00     0.044 A 
HETATM   14  C14 UNL     1      -1.829   1.529  -0.080  1.00  0.00     0.196 C 
HETATM   15  O1  UNL     1      -2.133   2.720  -0.058  1.00  0.00    -0.287 OA
HETATM   16  C15 UNL     1       2.912   2.768  -0.854  1.00  0.00     0.033 C 
HETATM   17  O4  UNL     1      -0.851  -2.407   0.613  1.00  0.00    -0.286 OA
HETATM   18  O5  UNL     1      -3.285  -3.215  -0.074  1.00  0.00    -0.190 OA
ENDROOT
BRANCH   9  19
HETATM   19  O3  UNL     1       1.689  -1.944  -0.029  1.00  0.00    -0.326 OA
HETATM   20  C17 UNL     1       2.096  -2.468   1.215  1.00  0.00     0.181 C 
ENDBRANCH   9  19
BRANCH  10  21
HETATM   21  O2  UNL     1       3.614  -0.018  -0.434  1.00  0.00    -0.326 OA
HETATM   22  C16 UNL     1       4.491   0.307   0.623  1.00  0.00     0.181 C 
ENDBRANCH  10  21
TORSDOF 2
