REMARK  4 active torsions:
REMARK  status: ('A' for Active; 'I' for Inactive)
REMARK    1  A    between atoms: C7_8  and  C8_9 
REMARK    2  A    between atoms: C8_9  and  C9_10 
REMARK    3  A    between atoms: C9_10  and  C10_11 
REMARK    4  A    between atoms: C13_14  and  O2_17 
ROOT
HETATM    1  C1  UNL     1      -4.954   1.769   0.005  1.00  0.00     0.025 A 
HETATM    2  C2  UNL     1      -5.858   2.835   0.010  1.00  0.00     0.002 A 
HETATM    3  C3  UNL     1      -5.388   4.147   0.039  1.00  0.00     0.000 A 
HETATM    4  C4  UNL     1      -4.013   4.380   0.062  1.00  0.00     0.005 A 
HETATM    5  C5  UNL     1      -3.122   3.299   0.057  1.00  0.00     0.062 A 
HETATM    6  C6  UNL     1      -3.568   1.965   0.028  1.00  0.00     0.103 A 
HETATM    7  O1  UNL     1      -2.733   0.883   0.024  1.00  0.00    -0.311 OA
HETATM    8  C7  UNL     1      -1.385   1.105   0.036  1.00  0.00     0.081 A 
HETATM    9  C17 UNL     1      -0.828   2.333   0.063  1.00  0.00     0.062 A 
HETATM   10  C18 UNL     1      -1.664   3.553   0.080  1.00  0.00     0.199 A 
HETATM   11  O3  UNL     1      -1.165   4.674   0.107  1.00  0.00    -0.286 OA
ENDROOT
BRANCH   8  12
HETATM   12  C8  UNL     1      -0.552  -0.166   0.019  1.00  0.00     0.056 C 
BRANCH  12  13
HETATM   13  C9  UNL     1       0.974   0.010  -0.001  1.00  0.00     0.033 C 
BRANCH  13  14
HETATM   14  C10 UNL     1       1.815  -1.248  -0.022  1.00  0.00    -0.022 A 
HETATM   15  C11 UNL     1       3.208  -1.125  -0.048  1.00  0.00    -0.002 A 
HETATM   16  C12 UNL     1       4.043  -2.243  -0.065  1.00  0.00     0.024 A 
HETATM   17  C13 UNL     1       3.532  -3.549  -0.061  1.00  0.00     0.094 A 
HETATM   18  C14 UNL     1       2.134  -3.656  -0.033  1.00  0.00     0.024 A 
HETATM   19  C15 UNL     1       1.291  -2.543  -0.015  1.00  0.00    -0.002 A 
BRANCH  17  20
HETATM   20  O2  UNL     1       4.286  -4.695  -0.074  1.00  0.00    -0.328 OA
HETATM   21  C16 UNL     1       5.689  -4.569  -0.071  1.00  0.00     0.181 C 
ENDBRANCH  17  20
ENDBRANCH  13  14
ENDBRANCH  12  13
ENDBRANCH   8  12
TORSDOF 4
