REMARK  10 active torsions:
REMARK  status: ('A' for Active; 'I' for Inactive)
REMARK    1  A    between atoms: O1_2  and  C2_3 
REMARK    2  A    between atoms: C4_5  and  C8_10 
REMARK    3  A    between atoms: C8_10  and  C9_11 
REMARK    4  A    between atoms: C9_11  and  C10_12 
REMARK    5  A    between atoms: C9_11  and  C11_14 
REMARK    6  A    between atoms: C11_14  and  C12_15 
REMARK    7  A    between atoms: C11_14  and  C21_27 
REMARK    8  A    between atoms: C12_15  and  C13_16 
REMARK    9  A    between atoms: C15_18  and  O6_25 
REMARK   10  A    between atoms: C17_20  and  O4_22 
ROOT
HETATM    1  C11 UNL     1       0.049  -2.272   0.580  1.00  0.00     0.040 C 
ENDROOT
BRANCH   1   2
HETATM    2  C9  UNL     1       1.014  -1.086   0.642  1.00  0.00     0.040 C 
BRANCH   2   3
HETATM    3  C8  UNL     1       1.186  -0.541   2.060  1.00  0.00     0.029 C 
BRANCH   3   4
HETATM    4  C4  UNL     1       1.883   0.771   2.060  1.00  0.00    -0.020 A 
HETATM    5  C3  UNL     1       1.139   1.963   2.060  1.00  0.00     0.022 A 
HETATM    6  C2  UNL     1       1.793   3.209   2.060  1.00  0.00     0.119 A 
HETATM    7  C7  UNL     1       3.199   3.260   2.060  1.00  0.00     0.153 A 
HETATM    8  C6  UNL     1       3.943   2.066   2.060  1.00  0.00     0.029 A 
HETATM    9  O2  UNL     1       3.822   4.422   2.060  1.00  0.00    -0.188 OA
HETATM   10  C5  UNL     1       3.287   0.824   2.060  1.00  0.00    -0.002 A 
BRANCH   6  11
HETATM   11  O1  UNL     1       1.088   4.322   2.060  1.00  0.00    -0.326 OA
HETATM   12  C1  UNL     1      -0.279   4.244   1.687  1.00  0.00     0.181 C 
ENDBRANCH   6  11
ENDBRANCH   3   4
ENDBRANCH   2   3
BRANCH   2  13
HETATM   13  C10 UNL     1       2.348  -1.375  -0.045  1.00  0.00     0.183 C 
HETATM   14  O3  UNL     1       2.830  -0.170  -0.596  1.00  0.00    -0.221 OA
ENDBRANCH   2  13
ENDBRANCH   1   2
BRANCH   1  15
HETATM   15  C12 UNL     1      -1.410  -1.856   0.764  1.00  0.00     0.029 C 
BRANCH  15  16
HETATM   16  C13 UNL     1      -1.949  -1.195  -0.455  1.00  0.00    -0.018 A 
HETATM   17  C14 UNL     1      -2.471  -1.973  -1.504  1.00  0.00     0.022 A 
HETATM   18  C15 UNL     1      -2.980  -1.352  -2.658  1.00  0.00     0.121 A 
HETATM   19  C16 UNL     1      -2.969   0.053  -2.762  1.00  0.00     0.175 A 
HETATM   20  C17 UNL     1      -2.447   0.832  -1.711  1.00  0.00     0.121 A 
HETATM   21  O5  UNL     1      -3.447   0.639  -3.842  1.00  0.00    -0.186 OA
HETATM   22  C18 UNL     1      -1.939   0.207  -0.561  1.00  0.00     0.022 A 
BRANCH  18  23
HETATM   23  O6  UNL     1      -3.467  -2.084  -3.639  1.00  0.00    -0.326 OA
HETATM   24  C20 UNL     1      -3.375  -3.496  -3.524  1.00  0.00     0.181 C 
ENDBRANCH  18  23
BRANCH  20  25
HETATM   25  O4  UNL     1      -2.436   2.146  -1.805  1.00  0.00    -0.326 OA
HETATM   26  C19 UNL     1      -1.451   2.748  -2.633  1.00  0.00     0.181 C 
ENDBRANCH  20  25
ENDBRANCH  15  16
ENDBRANCH   1  15
BRANCH   1  27
HETATM   27  C21 UNL     1       0.457  -3.414   1.508  1.00  0.00     0.183 C 
HETATM   28  O7  UNL     1       1.520  -4.117   0.904  1.00  0.00    -0.221 OA
ENDBRANCH   1  27
TORSDOF 10
