REMARK  1 active torsions:
REMARK  status: ('A' for Active; 'I' for Inactive)
REMARK    1  A    between atoms: C14_15  and  O2_25 
ROOT
HETATM    1  C1  UNL     1       1.119  -1.990  -1.352  1.00  0.00     0.058 A 
HETATM    2  C2  UNL     1       1.674  -0.691  -1.324  1.00  0.00    -0.003 A 
HETATM    3  C3  UNL     1       3.029  -0.600  -1.744  1.00  0.00    -0.003 A 
HETATM    4  C4  UNL     1       3.756  -1.734  -2.180  1.00  0.00    -0.000 A 
HETATM    5  C5  UNL     1       3.139  -3.008  -2.207  1.00  0.00     0.002 A 
HETATM    6  C6  UNL     1       1.799  -3.150  -1.785  1.00  0.00     0.017 A 
HETATM    7  C7  UNL     1       0.707   0.408  -0.875  1.00  0.00     0.073 A 
HETATM    8  C8  UNL     1      -0.523  -0.455  -0.447  1.00  0.00     0.097 A 
HETATM    9  N1  UNL     1      -0.238  -1.826  -0.820  1.00  0.00    -0.301 N 
HETATM   10  C9  UNL     1      -1.148  -2.885  -0.572  1.00  0.00     0.240 C 
HETATM   11  C10 UNL     1      -2.420  -2.377   0.117  1.00  0.00     0.118 C 
HETATM   12  C11 UNL     1      -2.162  -1.307   1.244  1.00  0.00     0.127 C 
HETATM   13  C12 UNL     1      -0.838  -0.533   1.049  1.00  0.00     0.055 C 
HETATM   14  C13 UNL     1      -0.681   0.863   1.652  1.00  0.00     0.053 C 
HETATM   15  C14 UNL     1       0.832   1.227   1.654  1.00  0.00     0.151 C 
HETATM   16  C15 UNL     1       1.223   1.453   0.178  1.00  0.00     0.252 C 
HETATM   17  N2  UNL     1       0.664   2.758  -0.221  1.00  0.00     0.142 N 
HETATM   18  C16 UNL     1       0.668   2.729  -1.672  1.00  0.00     0.251 C 
HETATM   19  C17 UNL     1       0.317   1.309  -2.082  1.00  0.00     0.043 C 
HETATM   20  C18 UNL     1      -0.633   3.125   0.414  1.00  0.00     0.272 C 
HETATM   21  C19 UNL     1      -1.432   1.895   0.816  1.00  0.00    -0.011 C 
HETATM   22  C20 UNL     1      -2.703   1.744   0.379  1.00  0.00    -0.001 C 
HETATM   23  C21 UNL     1      -3.598   0.521   0.508  1.00  0.00     0.168 C 
HETATM   24  O1  UNL     1      -3.267  -0.441   1.500  1.00  0.00    -0.351 OA
HETATM   25  O3  UNL     1      -0.935  -4.041  -0.853  1.00  0.00    -0.272 OA
ENDROOT
BRANCH  15  26
HETATM   26  O2  UNL     1       1.660   0.244   2.250  1.00  0.00    -0.352 OA
HETATM   27  C22 UNL     1       1.412   0.068   3.627  1.00  0.00     0.174 C 
ENDBRANCH  15  26
TORSDOF 1
