REMARK  2 active torsions:
REMARK  status: ('A' for Active; 'I' for Inactive)
REMARK    1  A    between atoms: C1_1  and  O1_9 
REMARK    2  A    between atoms: C4_4  and  C7_7 
ROOT
HETATM    1  C1  UNL     1      -1.427  -0.560  -0.011  1.00  0.00     0.094 A 
HETATM    2  C2  UNL     1      -0.651  -1.733  -0.011  1.00  0.00     0.024 A 
HETATM    3  C3  UNL     1       0.752  -1.652  -0.011  1.00  0.00     0.002 A 
HETATM    4  C4  UNL     1       1.385  -0.396  -0.011  1.00  0.00     0.000 A 
HETATM    5  C5  UNL     1       0.611   0.778  -0.011  1.00  0.00     0.002 A 
HETATM    6  C6  UNL     1      -0.792   0.695  -0.011  1.00  0.00     0.024 A 
ENDROOT
BRANCH   1   7
HETATM    7  O1  UNL     1      -2.743  -0.636  -0.011  1.00  0.00    -0.328 OA
HETATM    8  C9  UNL     1      -3.481   0.575   0.056  1.00  0.00     0.181 C 
ENDBRANCH   1   7
BRANCH   4   9
HETATM    9  C7  UNL     1       2.875  -0.310  -0.011  1.00  0.00     0.000 C 
HETATM   10  C8  UNL     1       3.451   0.904  -0.011  1.00  0.00     0.000 C 
ENDBRANCH   4   9
TORSDOF 2
