REMARK  1 active torsions:
REMARK  status: ('A' for Active; 'I' for Inactive)
REMARK    1  A    between atoms: C5_5  and  C7_7 
ROOT
HETATM    1  C7  UNL     1       0.533  -0.207   0.127  1.00  0.00     0.128 A 
HETATM    2  O1  UNL     1      -0.736   0.225  -0.026  1.00  0.00    -0.305 OA
HETATM    3  C8  UNL     1      -1.820  -0.512   0.295  1.00  0.00     0.105 A 
HETATM    4  C9  UNL     1      -1.666  -1.816   0.824  1.00  0.00     0.066 A 
HETATM    5  C10 UNL     1      -0.291  -2.350   1.014  1.00  0.00     0.225 A 
HETATM    6  C11 UNL     1       0.813  -1.439   0.623  1.00  0.00     0.192 A 
HETATM    7  O2  UNL     1       2.072  -1.855   0.769  1.00  0.00    -0.185 OA
HETATM    8  O3  UNL     1       0.012  -3.438   1.447  1.00  0.00    -0.284 OA
HETATM    9  C12 UNL     1      -2.803  -2.592   1.164  1.00  0.00     0.035 A 
HETATM   10  C13 UNL     1      -4.098  -2.057   0.971  1.00  0.00     0.156 A 
HETATM   11  C14 UNL     1      -4.256  -0.752   0.441  1.00  0.00     0.158 A 
HETATM   12  C15 UNL     1      -3.119   0.020   0.103  1.00  0.00     0.054 A 
HETATM   13  O4  UNL     1      -5.482  -0.244   0.258  1.00  0.00    -0.188 OA
HETATM   14  O5  UNL     1      -5.176  -2.787   1.291  1.00  0.00    -0.188 OA
ENDROOT
BRANCH   1  15
HETATM   15  C5  UNL     1       1.656   0.701  -0.262  1.00  0.00     0.027 A 
HETATM   16  C4  UNL     1       2.717   0.932   0.631  1.00  0.00     0.004 A 
HETATM   17  C3  UNL     1       3.772   1.785   0.263  1.00  0.00     0.030 A 
HETATM   18  C2  UNL     1       3.770   2.410  -0.996  1.00  0.00     0.156 A 
HETATM   19  C1  UNL     1       2.707   2.180  -1.891  1.00  0.00     0.156 A 
HETATM   20  O6  UNL     1       4.762   3.209  -1.334  1.00  0.00    -0.188 OA
HETATM   21  C6  UNL     1       1.654   1.326  -1.522  1.00  0.00     0.032 A 
HETATM   22  O7  UNL     1       2.697   2.762  -3.074  1.00  0.00    -0.188 OA
ENDBRANCH   1  15
TORSDOF 1
