REMARK  4 active torsions:
REMARK  status: ('A' for Active; 'I' for Inactive)
REMARK    1  A    between atoms: C4_4  and  C7_7 
REMARK    2  A    between atoms: C8_8  and  C9_9 
REMARK    3  A    between atoms: C9_9  and  C10_10 
REMARK    4  A    between atoms: C11_11  and  O1_12 
ROOT
HETATM    1  C9  UNL     1       2.143  -0.584  -1.262  1.00  0.00     0.198 C 
HETATM    2  O3  UNL     1       3.244  -0.473  -1.746  1.00  0.00    -0.286 OA
ENDROOT
BRANCH   1   3
HETATM    3  C8  UNL     1       1.475   0.576  -0.658  1.00  0.00     0.042 C 
HETATM    4  C7  UNL     1       1.010   0.521   0.600  1.00  0.00     0.003 C 
BRANCH   4   5
HETATM    5  C4  UNL     1       0.340   1.729   1.170  1.00  0.00     0.002 A 
HETATM    6  C3  UNL     1       0.727   3.014   0.750  1.00  0.00     0.029 A 
HETATM    7  C2  UNL     1       0.098   4.152   1.283  1.00  0.00     0.156 A 
HETATM    8  C1  UNL     1      -0.924   4.004   2.240  1.00  0.00     0.156 A 
HETATM    9  O4  UNL     1       0.465   5.354   0.885  1.00  0.00    -0.188 OA
HETATM   10  C6  UNL     1      -1.311   2.719   2.660  1.00  0.00     0.029 A 
HETATM   11  O5  UNL     1      -1.519   5.066   2.746  1.00  0.00    -0.188 OA
HETATM   12  C5  UNL     1      -0.682   1.582   2.125  1.00  0.00     0.002 A 
ENDBRANCH   4   5
ENDBRANCH   1   3
BRANCH   1  13
HETATM   13  C10 UNL     1       1.432  -1.898  -1.262  1.00  0.00     0.061 A 
HETATM   14  C11 UNL     1       0.023  -1.949  -1.262  1.00  0.00     0.099 A 
HETATM   15  C13 UNL     1      -0.629  -3.195  -1.262  1.00  0.00     0.052 A 
HETATM   16  C14 UNL     1       0.115  -4.389  -1.262  1.00  0.00     0.133 A 
HETATM   17  C15 UNL     1       1.520  -4.334  -1.262  1.00  0.00     0.028 A 
HETATM   18  O2  UNL     1      -0.502  -5.553  -1.262  1.00  0.00    -0.190 OA
HETATM   19  C16 UNL     1       2.176  -3.092  -1.262  1.00  0.00     0.007 A 
BRANCH  14  20
HETATM   20  O1  UNL     1      -0.689  -0.840  -1.262  1.00  0.00    -0.328 OA
HETATM   21  C12 UNL     1      -2.078  -0.939  -1.539  1.00  0.00     0.181 C 
ENDBRANCH  14  20
ENDBRANCH   1  13
TORSDOF 4
