REMARK  2 active torsions:
REMARK  status: ('A' for Active; 'I' for Inactive)
REMARK    1  A    between atoms: C1_1  and  C8_10 
REMARK    2  A    between atoms: C4_4  and  O2_8 
ROOT
HETATM    1  C8  UNL     1      -0.010  -0.564  -0.465  1.00  0.00     0.229 C 
HETATM    2  C9  UNL     1       0.336  -1.648   0.584  1.00  0.00     0.191 C 
HETATM    3  O3  UNL     1       1.578  -2.295   0.283  1.00  0.00    -0.327 OA
HETATM    4  C10 UNL     1       2.660  -1.561  -0.049  1.00  0.00     0.099 A 
HETATM    5  C11 UNL     1       2.529  -0.223  -0.512  1.00  0.00     0.060 A 
HETATM    6  C12 UNL     1       1.174   0.369  -0.701  1.00  0.00     0.209 C 
HETATM    7  O4  UNL     1       0.947   1.512  -1.035  1.00  0.00    -0.288 OA
HETATM    8  C13 UNL     1       3.688   0.541  -0.803  1.00  0.00     0.007 A 
HETATM    9  C14 UNL     1       4.969  -0.041  -0.674  1.00  0.00     0.028 A 
HETATM   10  C15 UNL     1       5.098  -1.385  -0.252  1.00  0.00     0.133 A 
HETATM   11  C16 UNL     1       3.945  -2.143   0.062  1.00  0.00     0.052 A 
HETATM   12  O5  UNL     1       6.315  -1.937  -0.145  1.00  0.00    -0.190 OA
HETATM   13  O6  UNL     1      -0.295  -1.221  -1.684  1.00  0.00    -0.211 OA
ENDROOT
BRANCH   1  14
HETATM   14  C1  UNL     1      -1.246   0.164  -0.049  1.00  0.00     0.040 A 
HETATM   15  C2  UNL     1      -2.467  -0.123  -0.686  1.00  0.00     0.003 A 
HETATM   16  C3  UNL     1      -3.637   0.557  -0.303  1.00  0.00     0.024 A 
HETATM   17  C4  UNL     1      -3.590   1.524   0.717  1.00  0.00     0.096 A 
HETATM   18  C5  UNL     1      -2.367   1.809   1.350  1.00  0.00     0.051 A 
HETATM   19  C6  UNL     1      -1.193   1.131   0.971  1.00  0.00     0.132 A 
HETATM   20  O1  UNL     1      -0.055   1.408   1.574  1.00  0.00    -0.190 OA
BRANCH  17  21
HETATM   21  O2  UNL     1      -4.686   2.162   1.074  1.00  0.00    -0.328 OA
HETATM   22  C7  UNL     1      -5.883   1.883   0.363  1.00  0.00     0.181 C 
ENDBRANCH  17  21
ENDBRANCH   1  14
TORSDOF 2
