REMARK  2 active torsions:
REMARK  status: ('A' for Active; 'I' for Inactive)
REMARK    1  A    between atoms: C8_10  and  C10_12 
REMARK    2  A    between atoms: C11_13  and  O3_14 
ROOT
HETATM    1  C1  UNL     1      -3.908   0.580  -0.533  1.00  0.00     0.069 A 
HETATM    2  C2  UNL     1      -2.813  -0.176  -0.737  1.00  0.00     0.007 A 
HETATM    3  C3  UNL     1      -1.479   0.400  -0.428  1.00  0.00     0.023 A 
HETATM    4  C4  UNL     1      -1.412   1.730   0.068  1.00  0.00     0.103 A 
HETATM    5  O1  UNL     1      -2.543   2.447   0.252  1.00  0.00    -0.273 OA
HETATM    6  C5  UNL     1      -3.774   1.961  -0.016  1.00  0.00     0.300 A 
HETATM    7  O2  UNL     1      -4.776   2.613   0.152  1.00  0.00    -0.259 OA
HETATM    8  C6  UNL     1      -0.152   2.299   0.369  1.00  0.00     0.021 A 
HETATM    9  C7  UNL     1       1.033   1.549   0.177  1.00  0.00    -0.020 A 
HETATM   10  C8  UNL     1       0.957   0.220  -0.319  1.00  0.00    -0.002 A 
HETATM   11  C9  UNL     1      -0.301  -0.358  -0.623  1.00  0.00     0.002 A 
HETATM   12  C13 UNL     1       2.334   2.162   0.500  1.00  0.00     0.031 C 
ENDROOT
BRANCH  10  13
HETATM   13  C10 UNL     1       2.189  -0.572  -0.524  1.00  0.00     0.026 C 
HETATM   14  C11 UNL     1       2.193  -1.864  -0.153  1.00  0.00     0.116 C 
BRANCH  14  15
HETATM   15  O3  UNL     1       1.109  -2.412   0.386  1.00  0.00    -0.326 OA
HETATM   16  C12 UNL     1       1.301  -3.783   0.707  1.00  0.00     0.181 C 
ENDBRANCH  14  15
ENDBRANCH  10  13
TORSDOF 2
