REMARK  3 active torsions:
REMARK  status: ('A' for Active; 'I' for Inactive)
REMARK    1  A    between atoms: N1_2  and  C2_3 
REMARK    2  A    between atoms: C2_3  and  C3_4 
REMARK    3  A    between atoms: C3_4  and  C4_5 
ROOT
HETATM    1  C3  UNL     1       0.941  -0.117   0.588  1.00  0.00     0.423 C 
HETATM    2  N2  UNL     1       1.438   0.424   1.842  1.00  0.00     0.630 N 
ENDROOT
BRANCH   1   3
HETATM    3  C2  UNL     1      -0.584  -0.033   0.537  1.00  0.00     0.341 C 
BRANCH   3   4
HETATM    4  N1  UNL     1      -1.094  -0.735  -0.629  1.00  0.00     0.344 N 
HETATM    5  C1  UNL     1      -2.547  -0.735  -0.629  1.00  0.00     0.328 C 
ENDBRANCH   3   4
ENDBRANCH   1   3
BRANCH   1   6
HETATM    6  C4  UNL     1       1.594   0.584  -0.572  1.00  0.00     0.226 C 
HETATM    7  O1  UNL     1       2.580  -0.092  -1.158  1.00  0.00    -0.646 OA
HETATM    8  O2  UNL     1       1.227   1.679  -0.926  1.00  0.00    -0.646 OA
ENDBRANCH   1   6
TORSDOF 3
