REMARK  5 active torsions:
REMARK  status: ('A' for Active; 'I' for Inactive)
REMARK    1  A    between atoms: C7_7  and  C9_10 
REMARK    2  A    between atoms: C9_10  and  C10_11 
REMARK    3  A    between atoms: C10_11  and  N2_12 
REMARK       I    between atoms: N2_12  and  C11_13 
REMARK    4  A    between atoms: C11_13  and  C12_14 
REMARK    5  A    between atoms: C17_19  and  N3_20 
ROOT
HETATM    1  C10 UNL     1       0.037   0.713  -0.311  1.00  0.00     0.134 C 
ENDROOT
BRANCH   1   2
HETATM    2  C9  UNL     1       0.139   1.232  -1.744  1.00  0.00     0.054 C 
BRANCH   2   3
HETATM    3  C7  UNL     1      -0.291   2.684  -1.836  1.00  0.00     0.000 A 
HETATM    4  C4  UNL     1      -1.551   3.174  -1.873  1.00  0.00     0.015 A 
HETATM    5  C3  UNL     1      -1.576   4.543  -1.957  1.00  0.00     0.081 A 
HETATM    6  C5  UNL     1      -2.750   2.418  -1.832  1.00  0.00     0.001 A 
HETATM    7  C2  UNL     1      -2.795   5.260  -2.006  1.00  0.00     0.019 A 
HETATM    8  N1  UNL     1      -0.258   4.967  -1.977  1.00  0.00    -0.244 NA
HETATM    9  C1  UNL     1      -4.010   4.529  -1.967  1.00  0.00     0.002 A 
HETATM   10  C6  UNL     1      -3.986   3.111  -1.879  1.00  0.00     0.000 A 
HETATM   11  C8  UNL     1       0.555   3.807  -1.901  1.00  0.00     0.095 A 
ENDBRANCH   2   3
ENDBRANCH   1   2
BRANCH   1  12
HETATM   12  N2  UNL     1       0.461  -0.691  -0.227  1.00  0.00    -0.234 NA
HETATM   13  C11 UNL     1       0.436  -1.328   0.982  1.00  0.00     0.276 C 
HETATM   14  O1  UNL     1       0.072  -0.742   1.975  1.00  0.00    -0.266 OA
BRANCH  13  15
HETATM   15  C12 UNL     1       0.869  -2.762   1.049  1.00  0.00     0.075 A 
HETATM   16  C13 UNL     1       0.486  -3.635   0.016  1.00  0.00     0.006 A 
HETATM   17  C14 UNL     1       0.873  -4.982   0.045  1.00  0.00     0.000 A 
HETATM   18  C15 UNL     1       1.649  -5.467   1.109  1.00  0.00     0.002 A 
HETATM   19  C16 UNL     1       2.037  -4.604   2.146  1.00  0.00     0.019 A 
HETATM   20  C17 UNL     1       1.652  -3.248   2.125  1.00  0.00     0.081 A 
BRANCH  20  21
HETATM   21  N3  UNL     1       2.047  -2.428   3.152  1.00  0.00    -0.268 NA
HETATM   22  C18 UNL     1       2.754  -2.988   4.311  1.00  0.00     0.152 C 
ENDBRANCH  20  21
ENDBRANCH  13  15
ENDBRANCH   1  12
TORSDOF 5
