REMARK  2 active torsions:
REMARK  status: ('A' for Active; 'I' for Inactive)
REMARK    1  A    between atoms: C16_18  and  C19_22 
REMARK    2  A    between atoms: C19_22  and  O1_23 
ROOT
HETATM    1  C1  UNL     1       6.064   0.000  -0.502  1.00  0.00     0.002 A 
HETATM    2  C2  UNL     1       4.893  -0.650  -0.033  1.00  0.00     0.019 A 
HETATM    3  C3  UNL     1       3.645  -0.016  -0.238  1.00  0.00     0.081 A 
HETATM    4  C4  UNL     1       3.555   1.201  -0.869  1.00  0.00     0.015 A 
HETATM    5  C5  UNL     1       4.705   1.871  -1.348  1.00  0.00     0.001 A 
HETATM    6  C6  UNL     1       5.971   1.258  -1.158  1.00  0.00     0.000 A 
HETATM    7  C7  UNL     1       2.275   1.621  -0.957  1.00  0.00     0.000 A 
HETATM    8  C8  UNL     1       1.484   0.644  -0.348  1.00  0.00     0.093 A 
HETATM    9  N1  UNL     1       2.350  -0.393   0.096  1.00  0.00    -0.244 NA
HETATM   10  C9  UNL     1       0.002   0.768  -0.244  1.00  0.00     0.080 A 
HETATM   11  N2  UNL     1      -0.580   2.012  -0.545  1.00  0.00    -0.294 N 
HETATM   12  C10 UNL     1       0.297   3.193  -0.900  1.00  0.00     0.114 C 
HETATM   13  C11 UNL     1       1.652   2.855  -1.576  1.00  0.00     0.053 C 
HETATM   14  C12 UNL     1      -1.963   2.195  -0.492  1.00  0.00     0.262 A 
HETATM   15  C13 UNL     1      -2.822   1.031  -0.104  1.00  0.00     0.075 A 
HETATM   16  C14 UNL     1      -2.221  -0.211   0.207  1.00  0.00     0.007 A 
HETATM   17  C15 UNL     1      -0.740  -0.307   0.129  1.00  0.00     0.019 A 
HETATM   18  C16 UNL     1      -3.031  -1.318   0.580  1.00  0.00     0.024 A 
HETATM   19  C17 UNL     1      -4.438  -1.141   0.629  1.00  0.00     0.097 A 
HETATM   20  N3  UNL     1      -5.022   0.074   0.322  1.00  0.00    -0.243 NA
HETATM   21  C18 UNL     1      -4.235   1.150  -0.039  1.00  0.00     0.104 A 
HETATM   22  O2  UNL     1      -2.393   3.295  -0.760  1.00  0.00    -0.267 OA
ENDROOT
BRANCH  18  23
HETATM   23  C19 UNL     1      -2.443  -2.627   0.914  1.00  0.00     0.139 C 
HETATM   24  C21 UNL     1      -2.395  -3.549  -0.307  1.00  0.00     0.037 C 
BRANCH  23  25
HETATM   25  O1  UNL     1      -3.223  -3.254   1.906  1.00  0.00    -0.350 OA
HETATM   26  C20 UNL     1      -3.108  -2.639   3.172  1.00  0.00     0.175 C 
ENDBRANCH  23  25
ENDBRANCH  18  23
TORSDOF 2
