REMARK  2 active torsions:
REMARK  status: ('A' for Active; 'I' for Inactive)
REMARK    1  A    between atoms: C1_1  and  C2_2 
REMARK    2  A    between atoms: C3_3  and  N1_4 
ROOT
HETATM    1  C2  UNL     1      -0.881   0.025   0.072  1.00  0.00     0.077 A 
HETATM    2  C3  UNL     1       0.533   0.078   0.072  1.00  0.00     0.081 A 
HETATM    3  C5  UNL     1       1.274  -1.119   0.072  1.00  0.00     0.019 A 
HETATM    4  C6  UNL     1       0.615  -2.361   0.072  1.00  0.00     0.002 A 
HETATM    5  C7  UNL     1      -0.787  -2.412   0.072  1.00  0.00     0.000 A 
HETATM    6  C8  UNL     1      -1.533  -1.223   0.072  1.00  0.00     0.006 A 
ENDROOT
BRANCH   1   7
HETATM    7  C1  UNL     1      -1.713   1.272   0.072  1.00  0.00     0.298 C 
HETATM    8  N2  UNL     1      -2.844   1.309  -0.694  1.00  0.00    -0.102 N 
HETATM    9  O1  UNL     1      -1.394   2.231   0.734  1.00  0.00    -0.264 OA
ENDBRANCH   1   7
BRANCH   2  10
HETATM   10  N1  UNL     1       1.203   1.275   0.072  1.00  0.00    -0.268 NA
HETATM   11  C4  UNL     1       2.662   1.301   0.262  1.00  0.00     0.152 C 
ENDBRANCH   2  10
TORSDOF 2
