REMARK  12 active torsions:
REMARK  status: ('A' for Active; 'I' for Inactive)
REMARK    1  A    between atoms: C3_3  and  O13_41 
REMARK    2  A    between atoms: C4_4  and  O9_29 
REMARK    3  A    between atoms: C7_7  and  O3_13 
REMARK    4  A    between atoms: C8_8  and  O1_9 
REMARK    5  A    between atoms: O1_9  and  C9_10 
REMARK    6  A    between atoms: O3_13  and  C11_14 
REMARK    7  A    between atoms: C13_17  and  O7_24 
REMARK    8  A    between atoms: O7_24  and  C18_25 
REMARK    9  A    between atoms: O9_29  and  C21_30 
REMARK   10  A    between atoms: C24_34  and  O11_37 
REMARK   11  A    between atoms: O11_37  and  C27_38 
REMARK   12  A    between atoms: O13_41  and  C29_42 
ROOT
HETATM    1  C1  UNL     1       1.305  -0.785  -0.355  1.00  0.00    -0.018 C 
HETATM    2  C2  UNL     1       2.156   0.205   0.420  1.00  0.00     0.043 C 
HETATM    3  C3  UNL     1       1.496   1.578   0.150  1.00  0.00     0.132 C 
HETATM    4  C4  UNL     1       0.066   1.715   0.787  1.00  0.00     0.152 C 
HETATM    5  C5  UNL     1      -1.131   0.957   0.078  1.00  0.00     0.065 C 
HETATM    6  C6  UNL     1      -1.598  -0.398   0.754  1.00  0.00     0.059 C 
HETATM    7  C7  UNL     1      -0.486  -1.324   1.350  1.00  0.00     0.158 C 
HETATM    8  C8  UNL     1       0.592  -1.889   0.387  1.00  0.00     0.170 C 
HETATM    9  C13 UNL     1      -2.439  -1.244  -0.260  1.00  0.00     0.129 C 
HETATM   10  C14 UNL     1      -3.111  -0.441  -1.383  1.00  0.00     0.066 C 
HETATM   11  C15 UNL     1      -3.647   0.906  -0.893  1.00  0.00     0.182 C 
HETATM   12  C16 UNL     1      -2.496   1.686  -0.197  1.00  0.00     0.151 A 
HETATM   13  C17 UNL     1      -2.971   2.967   0.582  1.00  0.00     0.172 A 
HETATM   14  O5  UNL     1      -2.328   2.996  -0.656  1.00  0.00    -0.351 OA
HETATM   15  O6  UNL     1      -4.225   1.580  -2.002  1.00  0.00    -0.221 OA
HETATM   16  C20 UNL     1      -2.479  -0.016   1.963  1.00  0.00     0.005 C 
HETATM   17  C23 UNL     1       1.498   1.902  -1.377  1.00  0.00     0.065 C 
HETATM   18  C24 UNL     1       1.705   0.676  -2.305  1.00  0.00     0.144 C 
HETATM   19  C25 UNL     1       1.166  -0.602  -1.690  1.00  0.00    -0.022 C 
HETATM   20  C26 UNL     1       0.457  -1.596  -2.578  1.00  0.00     0.028 C 
HETATM   21  C31 UNL     1       3.602   0.156  -0.102  1.00  0.00     0.007 C 
HETATM   22  C32 UNL     1       2.272  -0.063   1.928  1.00  0.00     0.007 C 
ENDROOT
BRANCH   3  23
HETATM   23  O13 UNL     1       2.322   2.553   0.781  1.00  0.00    -0.304 OA
BRANCH  23  24
HETATM   24  C29 UNL     1       2.273   3.731   0.166  1.00  0.00     0.272 C 
HETATM   25  C30 UNL     1       3.529   4.555   0.262  1.00  0.00     0.106 C 
HETATM   26  O14 UNL     1       1.307   4.139  -0.434  1.00  0.00    -0.264 OA
ENDBRANCH  23  24
ENDBRANCH   3  23
BRANCH   4  27
HETATM   27  O9  UNL     1      -0.176   3.111   0.846  1.00  0.00    -0.302 OA
BRANCH  27  28
HETATM   28  C21 UNL     1       0.035   3.611   2.059  1.00  0.00     0.272 C 
HETATM   29  C22 UNL     1      -0.236   5.086   2.199  1.00  0.00     0.106 C 
HETATM   30  O10 UNL     1       0.416   2.957   3.002  1.00  0.00    -0.264 OA
ENDBRANCH  27  28
ENDBRANCH   4  27
BRANCH  18  31
HETATM   31  O11 UNL     1       1.078   0.930  -3.553  1.00  0.00    -0.300 OA
BRANCH  31  32
HETATM   32  C27 UNL     1       1.664   0.283  -4.557  1.00  0.00     0.273 C 
HETATM   33  C28 UNL     1       1.328   0.793  -5.932  1.00  0.00     0.106 C 
HETATM   34  O12 UNL     1       2.418  -0.650  -4.406  1.00  0.00    -0.264 OA
ENDBRANCH  31  32
ENDBRANCH  18  31
BRANCH   8  35
HETATM   35  O1  UNL     1       1.539  -2.645   1.129  1.00  0.00    -0.298 OA
BRANCH  35  36
HETATM   36  C9  UNL     1       2.330  -3.373   0.348  1.00  0.00     0.273 C 
HETATM   37  C10 UNL     1       3.395  -4.158   1.066  1.00  0.00     0.106 C 
HETATM   38  O2  UNL     1       2.229  -3.420  -0.856  1.00  0.00    -0.264 OA
ENDBRANCH  35  36
ENDBRANCH   8  35
BRANCH   7  39
HETATM   39  O3  UNL     1      -1.111  -2.441   1.971  1.00  0.00    -0.301 OA
BRANCH  39  40
HETATM   40  C11 UNL     1      -0.488  -2.815   3.086  1.00  0.00     0.272 C 
HETATM   41  O4  UNL     1       0.053  -2.045   3.844  1.00  0.00    -0.264 OA
HETATM   42  C12 UNL     1      -0.494  -4.295   3.357  1.00  0.00     0.106 C 
ENDBRANCH  39  40
ENDBRANCH   7  39
BRANCH   9  43
HETATM   43  O7  UNL     1      -3.434  -1.994   0.430  1.00  0.00    -0.304 OA
BRANCH  43  44
HETATM   44  C18 UNL     1      -3.697  -3.152  -0.168  1.00  0.00     0.272 C 
HETATM   45  C19 UNL     1      -4.609  -4.074   0.598  1.00  0.00     0.106 C 
HETATM   46  O8  UNL     1      -3.254  -3.473  -1.244  1.00  0.00    -0.264 OA
ENDBRANCH  43  44
ENDBRANCH   9  43
TORSDOF 12
