REMARK  2 active torsions:
REMARK  status: ('A' for Active; 'I' for Inactive)
REMARK    1  A    between atoms: C5_5  and  C7_7 
REMARK    2  A    between atoms: C7_7  and  O1_8 
ROOT
HETATM    1  C1  UNL     1      -2.215  -1.432  -0.310  1.00  0.00    -0.000 A 
HETATM    2  C2  UNL     1      -1.469  -2.621  -0.310  1.00  0.00    -0.000 A 
HETATM    3  C3  UNL     1      -0.064  -2.570  -0.310  1.00  0.00    -0.000 A 
HETATM    4  C4  UNL     1       0.594  -1.328  -0.310  1.00  0.00    -0.002 A 
HETATM    5  C5  UNL     1      -0.152  -0.137  -0.310  1.00  0.00     0.007 A 
HETATM    6  C6  UNL     1      -1.557  -0.189  -0.310  1.00  0.00    -0.002 A 
ENDROOT
BRANCH   5   7
HETATM    7  C7  UNL     1       0.545   1.178  -0.310  1.00  0.00     0.169 C 
BRANCH   7   8
HETATM    8  O1  UNL     1       1.039   1.447   0.983  1.00  0.00    -0.346 OA
HETATM    9  C8  UNL     1       1.719   2.678   1.070  1.00  0.00     0.175 C 
ENDBRANCH   7   8
ENDBRANCH   5   7
TORSDOF 2
