REMARK  1 active torsions:
REMARK  status: ('A' for Active; 'I' for Inactive)
REMARK    1  A    between atoms: C14_15  and  O3_19 
ROOT
HETATM    1  C1  UNL     1       4.057   2.121  -0.314  1.00  0.00     0.133 A 
HETATM    2  C2  UNL     1       2.943   2.752  -0.914  1.00  0.00     0.027 A 
HETATM    3  C3  UNL     1       1.785   2.002  -1.219  1.00  0.00     0.000 A 
HETATM    4  C4  UNL     1       1.725   0.615  -0.914  1.00  0.00     0.006 A 
HETATM    5  C5  UNL     1       2.846  -0.012  -0.303  1.00  0.00     0.093 A 
HETATM    6  C6  UNL     1       4.008   0.742  -0.014  1.00  0.00     0.051 A 
HETATM    7  O1  UNL     1       2.840  -1.326   0.004  1.00  0.00    -0.328 OA
HETATM    8  C7  UNL     1       1.609  -2.045   0.088  1.00  0.00     0.180 C 
HETATM    9  C8  UNL     1       0.684  -1.725  -1.104  1.00  0.00     0.166 C 
HETATM   10  C9  UNL     1       0.508  -0.178  -1.262  1.00  0.00     0.077 C 
HETATM   11  C10 UNL     1      -0.709   0.094  -0.393  1.00  0.00    -0.018 A 
HETATM   12  C11 UNL     1      -1.412  -1.102  -0.141  1.00  0.00    -0.021 A 
HETATM   13  C12 UNL     1      -0.734  -2.281  -0.789  1.00  0.00     0.060 C 
HETATM   14  C13 UNL     1      -2.592  -1.068   0.645  1.00  0.00     0.022 A 
HETATM   15  C14 UNL     1      -3.082   0.139   1.184  1.00  0.00     0.119 A 
HETATM   16  C15 UNL     1      -2.385   1.338   0.936  1.00  0.00     0.153 A 
HETATM   17  C16 UNL     1      -1.213   1.309   0.152  1.00  0.00     0.025 A 
HETATM   18  O2  UNL     1      -2.828   2.498   1.439  1.00  0.00    -0.188 OA
HETATM   19  O4  UNL     1       1.209  -2.309  -2.283  1.00  0.00    -0.222 OA
HETATM   20  O5  UNL     1       5.158   2.832  -0.033  1.00  0.00    -0.190 OA
ENDROOT
BRANCH  15  21
HETATM   21  O3  UNL     1      -4.199   0.143   1.924  1.00  0.00    -0.326 OA
HETATM   22  C17 UNL     1      -4.887  -1.086   2.098  1.00  0.00     0.181 C 
ENDBRANCH  15  21
TORSDOF 1
