REMARK  0 active torsions:
REMARK  status: ('A' for Active; 'I' for Inactive)
ROOT
HETATM    1  C1  UNL     1       0.840   0.726   0.955  1.00  0.00     0.026 C 
HETATM    2  C2  UNL     1       0.328   0.025  -0.276  1.00  0.00    -0.048 C 
HETATM    3  C3  UNL     1      -0.879  -0.551  -0.393  1.00  0.00    -0.034 C 
HETATM    4  C4  UNL     1      -1.826  -0.479   0.775  1.00  0.00     0.030 C 
HETATM    5  C5  UNL     1       1.264  -0.020  -1.454  1.00  0.00     0.026 C 
ENDROOT
TORSDOF 0
