REMARK  2 active torsions:
REMARK  status: ('A' for Active; 'I' for Inactive)
REMARK    1  A    between atoms: C3_3  and  C4_4 
REMARK    2  A    between atoms: C4_4  and  N1_5 
REMARK       I    between atoms: N1_5  and  C5_6 
ROOT
HETATM    1  C4  UNL     1      -0.197   0.437  -0.838  1.00  0.00     0.156 C 
ENDROOT
BRANCH   1   2
HETATM    2  C3  UNL     1      -0.127  -0.238   0.504  1.00  0.00    -0.008 C 
HETATM    3  C2  UNL     1      -0.920  -1.297   0.732  1.00  0.00    -0.046 C 
HETATM    4  C1  UNL     1      -1.807  -1.783  -0.383  1.00  0.00     0.026 C 
HETATM    5  C6  UNL     1      -0.883  -1.945   2.090  1.00  0.00     0.026 C 
ENDBRANCH   1   2
BRANCH   1   6
HETATM    6  N1  UNL     1       0.524   1.719  -0.838  1.00  0.00    -0.211 NA
HETATM    7  C5  UNL     1       1.891   1.719  -0.838  1.00  0.00     0.383 C 
HETATM    8  N2  UNL     1       2.559   2.908  -0.838  1.00  0.00    -0.084 N 
HETATM    9  O1  UNL     1       2.500   0.674  -0.838  1.00  0.00    -0.241 OA
ENDBRANCH   1   6
TORSDOF 2
