REMARK  2 active torsions:
REMARK  status: ('A' for Active; 'I' for Inactive)
REMARK    1  A    between atoms: C2_2  and  C3_3 
REMARK    2  A    between atoms: C3_3  and  C4_4 
ROOT
HETATM    1  C3  UNL     1      -0.158   0.160   0.473  1.00  0.00     0.087 C 
HETATM    2  C5  UNL     1       0.381   0.902   1.696  1.00  0.00     0.011 C 
ENDROOT
BRANCH   1   3
HETATM    3  C2  UNL     1       0.293   0.791  -0.845  1.00  0.00     0.011 C 
HETATM    4  C1  UNL     1      -0.416   0.188  -2.058  1.00  0.00     0.001 C 
ENDBRANCH   1   3
BRANCH   1   5
HETATM    5  C4  UNL     1       0.119  -1.318   0.528  1.00  0.00     0.185 C 
HETATM    6  O1  UNL     1      -0.732  -2.027   1.264  1.00  0.00    -0.647 OA
HETATM    7  O2  UNL     1       1.057  -1.797  -0.064  1.00  0.00    -0.647 OA
ENDBRANCH   1   5
TORSDOF 2
