REMARK  14 active torsions:
REMARK  status: ('A' for Active; 'I' for Inactive)
REMARK    1  A    between atoms: C1_1  and  C2_2 
REMARK    2  A    between atoms: C3_3  and  C4_4 
REMARK    3  A    between atoms: C5_5  and  C6_6 
REMARK    4  A    between atoms: C7_7  and  C8_8 
REMARK    5  A    between atoms: C9_9  and  C10_10 
REMARK    6  A    between atoms: C11_11  and  C12_12 
REMARK    7  A    between atoms: C12_12  and  O1_13 
REMARK    8  A    between atoms: C12_12  and  C18_20 
REMARK    9  A    between atoms: O1_13  and  C13_14 
REMARK   10  A    between atoms: C13_14  and  C14_15 
REMARK   11  A    between atoms: C14_15  and  C15_16 
REMARK   12  A    between atoms: C18_20  and  C19_21 
REMARK   13  A    between atoms: C19_21  and  O3_22 
REMARK   14  A    between atoms: O3_22  and  C20_23 
ROOT
HETATM    1  C12 UNL     1      -1.428   0.494   0.410  1.00  0.00     0.149 C 
ENDROOT
BRANCH   1   2
HETATM    2  C11 UNL     1      -2.149  -0.826   0.410  1.00  0.00     0.004 C 
HETATM    3  C10 UNL     1      -1.420  -1.955   0.410  1.00  0.00    -0.002 C 
BRANCH   3   4
HETATM    4  C9  UNL     1      -2.076  -3.268   0.410  1.00  0.00     0.009 C 
HETATM    5  C8  UNL     1      -1.348  -4.397   0.410  1.00  0.00     0.050 C 
BRANCH   5   6
HETATM    6  C7  UNL     1       0.088  -4.342   0.410  1.00  0.00    -0.050 C 
HETATM    7  C6  UNL     1       1.277  -4.297   0.410  1.00  0.00    -0.009 C 
BRANCH   7   8
HETATM    8  C5  UNL     1       2.656  -4.244   0.410  1.00  0.00    -0.009 C 
HETATM    9  C4  UNL     1       3.846  -4.199   0.410  1.00  0.00    -0.051 C 
BRANCH   9  10
HETATM   10  C3  UNL     1       5.281  -4.145   0.410  1.00  0.00     0.048 C 
HETATM   11  C2  UNL     1       5.922  -2.965   0.410  1.00  0.00     0.018 C 
BRANCH  11  12
HETATM   12  C1  UNL     1       7.428  -2.965   0.410  1.00  0.00     0.209 C 
HETATM   13  O5  UNL     1       7.897  -1.699   0.004  1.00  0.00    -0.215 OA
ENDBRANCH  11  12
ENDBRANCH   9  10
ENDBRANCH   7   8
ENDBRANCH   5   6
ENDBRANCH   3   4
ENDBRANCH   1   2
BRANCH   1  14
HETATM   14  O1  UNL     1      -1.951   1.320  -0.621  1.00  0.00    -0.300 OA
BRANCH  14  15
HETATM   15  C13 UNL     1      -1.647   0.869  -1.834  1.00  0.00     0.272 C 
HETATM   16  O2  UNL     1      -0.965  -0.107  -2.039  1.00  0.00    -0.264 OA
BRANCH  15  17
HETATM   17  C14 UNL     1      -2.219   1.668  -2.975  1.00  0.00     0.086 C 
HETATM   18  C17 UNL     1      -1.272   1.730  -4.174  1.00  0.00     0.010 C 
BRANCH  17  19
HETATM   19  C15 UNL     1      -3.627   1.211  -3.360  1.00  0.00     0.010 C 
HETATM   20  C16 UNL     1      -4.623   1.340  -2.205  1.00  0.00     0.001 C 
ENDBRANCH  17  19
ENDBRANCH  15  17
ENDBRANCH  14  15
ENDBRANCH   1  14
BRANCH   1  21
HETATM   21  C18 UNL     1      -1.539   1.221   1.750  1.00  0.00     0.068 C 
BRANCH  21  22
HETATM   22  C19 UNL     1      -0.746   2.527   1.781  1.00  0.00     0.155 C 
BRANCH  22  23
HETATM   23  O3  UNL     1      -0.887   3.135   3.056  1.00  0.00    -0.302 OA
BRANCH  23  24
HETATM   24  C20 UNL     1      -0.217   4.281   3.148  1.00  0.00     0.272 C 
HETATM   25  C21 UNL     1      -0.322   4.981   4.476  1.00  0.00     0.106 C 
HETATM   26  O4  UNL     1       0.437   4.752   2.248  1.00  0.00    -0.264 OA
ENDBRANCH  23  24
ENDBRANCH  22  23
ENDBRANCH  21  22
ENDBRANCH   1  21
TORSDOF 14
