REMARK  10 active torsions:
REMARK  status: ('A' for Active; 'I' for Inactive)
REMARK    1  A    between atoms: C4_4  and  O7_27 
REMARK    2  A    between atoms: C8_8  and  O1_9 
REMARK    3  A    between atoms: O1_9  and  C9_10 
REMARK    4  A    between atoms: C11_13  and  O5_22 
REMARK    5  A    between atoms: C13_15  and  O3_18 
REMARK    6  A    between atoms: O3_18  and  C16_19 
REMARK    7  A    between atoms: O5_22  and  C18_23 
REMARK    8  A    between atoms: O7_27  and  C21_28 
REMARK    9  A    between atoms: C21_28  and  C22_30 
REMARK   10  A    between atoms: C22_30  and  C24_32 
ROOT
HETATM    1  C1  UNL     1       4.639   1.061   0.016  1.00  0.00    -0.025 C 
HETATM    2  C2  UNL     1       3.935   0.027  -0.221  1.00  0.00     0.019 C 
HETATM    3  C3  UNL     1       4.061  -1.320  -0.206  1.00  0.00     0.032 C 
HETATM    4  C4  UNL     1       2.343  -1.855  -0.539  1.00  0.00     0.128 C 
HETATM    5  C5  UNL     1       0.935  -0.902   0.206  1.00  0.00     0.051 C 
HETATM    6  C6  UNL     1       0.627   0.892  -0.395  1.00  0.00     0.034 C 
HETATM    7  C7  UNL     1       1.921   2.204  -0.782  1.00  0.00     0.037 C 
HETATM    8  C8  UNL     1       3.622   2.479  -0.048  1.00  0.00     0.142 C 
HETATM    9  C11 UNL     1      -0.489   1.429   0.682  1.00  0.00     0.127 C 
HETATM   10  C12 UNL     1      -1.542   0.315   1.122  1.00  0.00     0.065 C 
HETATM   11  C13 UNL     1      -1.823  -0.858   0.182  1.00  0.00     0.145 C 
HETATM   12  C14 UNL     1      -0.450  -1.655   0.186  1.00  0.00    -0.015 C 
HETATM   13  C15 UNL     1      -0.463  -2.824   0.819  1.00  0.00    -0.007 C 
HETATM   14  C20 UNL     1       0.028   0.756  -1.843  1.00  0.00     0.003 C 
HETATM   15  C26 UNL     1       4.854  -1.529   1.101  1.00  0.00     0.007 C 
HETATM   16  C27 UNL     1       6.279  -0.671   0.829  1.00  0.00     0.022 C 
HETATM   17  C28 UNL     1       5.865   0.863   0.540  1.00  0.00    -0.050 C 
HETATM   18  C29 UNL     1       6.729   2.001   1.004  1.00  0.00     0.026 C 
HETATM   19  C30 UNL     1       3.295   0.399   1.335  1.00  0.00     0.004 C 
HETATM   20  C31 UNL     1       3.651   0.120  -1.831  1.00  0.00     0.004 C 
ENDROOT
BRANCH   4  21
HETATM   21  O7  UNL     1       2.634  -3.241  -0.203  1.00  0.00    -0.304 OA
BRANCH  21  22
HETATM   22  C21 UNL     1       1.861  -4.301  -0.647  1.00  0.00     0.271 C 
HETATM   23  O8  UNL     1       0.864  -4.144  -1.361  1.00  0.00    -0.264 OA
BRANCH  22  24
HETATM   24  C22 UNL     1       2.398  -5.672  -0.335  1.00  0.00     0.086 C 
HETATM   25  C23 UNL     1       3.397  -5.571   0.838  1.00  0.00     0.010 C 
BRANCH  24  26
HETATM   26  C24 UNL     1       1.288  -6.691  -0.052  1.00  0.00     0.010 C 
HETATM   27  C25 UNL     1       1.943  -8.068   0.209  1.00  0.00     0.001 C 
ENDBRANCH  24  26
ENDBRANCH  22  24
ENDBRANCH  21  22
ENDBRANCH   4  21
BRANCH   9  28
HETATM   28  O5  UNL     1      -1.264   2.590   0.187  1.00  0.00    -0.304 OA
BRANCH  28  29
HETATM   29  C18 UNL     1      -0.664   3.871   0.250  1.00  0.00     0.272 C 
HETATM   30  C19 UNL     1      -1.410   5.059  -0.288  1.00  0.00     0.106 C 
HETATM   31  O6  UNL     1       0.430   4.041   0.796  1.00  0.00    -0.264 OA
ENDBRANCH  28  29
ENDBRANCH   9  28
BRANCH  11  32
HETATM   32  O3  UNL     1      -2.938  -1.647   0.727  1.00  0.00    -0.300 OA
BRANCH  32  33
HETATM   33  C16 UNL     1      -3.498  -2.691  -0.100  1.00  0.00     0.273 C 
HETATM   34  O4  UNL     1      -4.411  -3.381   0.366  1.00  0.00    -0.264 OA
HETATM   35  C17 UNL     1      -3.044  -2.959  -1.525  1.00  0.00     0.106 C 
ENDBRANCH  32  33
ENDBRANCH  11  32
BRANCH   8  36
HETATM   36  O1  UNL     1       4.394   3.493  -0.713  1.00  0.00    -0.300 OA
BRANCH  36  37
HETATM   37  C9  UNL     1       3.868   4.772  -0.559  1.00  0.00     0.273 C 
HETATM   38  C10 UNL     1       4.604   5.938  -1.152  1.00  0.00     0.106 C 
HETATM   39  O2  UNL     1       2.855   4.968   0.121  1.00  0.00    -0.264 OA
ENDBRANCH  36  37
ENDBRANCH   8  36
TORSDOF 10
