REMARK  6 active torsions:
REMARK  status: ('A' for Active; 'I' for Inactive)
REMARK    1  A    between atoms: C9_10  and  C11_13 
REMARK    2  A    between atoms: C11_13  and  C12_14 
REMARK    3  A    between atoms: C11_13  and  O3_18 
REMARK    4  A    between atoms: O3_18  and  C16_19 
REMARK    5  A    between atoms: C16_19  and  C17_20 
REMARK    6  A    between atoms: C17_20  and  C18_21 
ROOT
HETATM    1  C1  UNL     1      -3.137  -3.895  -2.958  1.00  0.00     0.030 A 
HETATM    2  C2  UNL     1      -3.850  -2.675  -2.973  1.00  0.00     0.030 A 
HETATM    3  C3  UNL     1      -3.289  -1.517  -2.389  1.00  0.00     0.134 A 
HETATM    4  C4  UNL     1      -2.005  -1.575  -1.783  1.00  0.00     0.069 A 
HETATM    5  C5  UNL     1      -1.286  -2.805  -1.768  1.00  0.00     0.069 A 
HETATM    6  C6  UNL     1      -1.859  -3.964  -2.359  1.00  0.00     0.134 A 
HETATM    7  O1  UNL     1      -1.202  -5.134  -2.359  1.00  0.00    -0.190 OA
HETATM    8  C7  UNL     1       0.064  -2.877  -1.131  1.00  0.00     0.198 A 
HETATM    9  C8  UNL     1       0.599  -1.639  -0.529  1.00  0.00     0.044 A 
HETATM   10  C9  UNL     1      -0.074  -0.472  -0.541  1.00  0.00     0.051 A 
HETATM   11  C10 UNL     1      -1.412  -0.348  -1.165  1.00  0.00     0.196 A 
HETATM   12  O2  UNL     1      -1.920   0.750  -1.123  1.00  0.00    -0.287 OA
HETATM   13  O5  UNL     1       0.778  -3.850  -1.054  1.00  0.00    -0.286 OA
HETATM   14  O6  UNL     1      -3.987  -0.372  -2.418  1.00  0.00    -0.190 OA
ENDROOT
BRANCH  10  15
HETATM   15  C11 UNL     1       0.562   0.735   0.103  1.00  0.00     0.171 C 
BRANCH  15  16
HETATM   16  C12 UNL     1       1.901   1.022  -0.522  1.00  0.00    -0.000 C 
HETATM   17  C13 UNL     1       1.933   1.570  -1.748  1.00  0.00    -0.045 C 
HETATM   18  C14 UNL     1       0.724   1.930  -2.569  1.00  0.00     0.026 C 
HETATM   19  C15 UNL     1       3.272   1.856  -2.372  1.00  0.00     0.026 C 
ENDBRANCH  15  16
BRANCH  15  20
HETATM   20  O3  UNL     1       0.729   0.498   1.493  1.00  0.00    -0.295 OA
BRANCH  20  21
HETATM   21  C16 UNL     1       1.055   1.602   2.159  1.00  0.00     0.272 C 
HETATM   22  O4  UNL     1       1.161   2.692   1.647  1.00  0.00    -0.264 OA
BRANCH  21  23
HETATM   23  C17 UNL     1       1.292   1.413   3.634  1.00  0.00     0.086 C 
HETATM   24  C20 UNL     1       2.438   2.280   4.156  1.00  0.00     0.010 C 
BRANCH  23  25
HETATM   25  C18 UNL     1       0.012   1.570   4.455  1.00  0.00     0.010 C 
HETATM   26  C19 UNL     1      -1.071   0.566   4.058  1.00  0.00     0.001 C 
ENDBRANCH  23  25
ENDBRANCH  21  23
ENDBRANCH  20  21
ENDBRANCH  15  20
ENDBRANCH  10  15
TORSDOF 6
