REMARK  3 active torsions:
REMARK  status: ('A' for Active; 'I' for Inactive)
REMARK    1  A    between atoms: C5_5  and  C7_7 
REMARK    2  A    between atoms: C8_8  and  C9_9 
REMARK    3  A    between atoms: C9_9  and  O1_10 
ROOT
HETATM    1  C1  UNL     1      -2.887  -1.602  -0.003  1.00  0.00     0.156 A 
HETATM    2  C2  UNL     1      -2.141  -2.793  -0.003  1.00  0.00     0.156 A 
HETATM    3  C3  UNL     1      -0.734  -2.739  -0.003  1.00  0.00     0.029 A 
HETATM    4  C4  UNL     1      -0.074  -1.498  -0.003  1.00  0.00     0.002 A 
HETATM    5  C5  UNL     1      -0.820  -0.307  -0.003  1.00  0.00     0.002 A 
HETATM    6  C6  UNL     1      -2.227  -0.360  -0.003  1.00  0.00     0.029 A 
HETATM    7  O3  UNL     1      -2.752  -3.961  -0.003  1.00  0.00    -0.188 OA
HETATM    8  O4  UNL     1      -4.205  -1.643  -0.003  1.00  0.00    -0.188 OA
ENDROOT
BRANCH   5   9
HETATM    9  C7  UNL     1      -0.121   1.013  -0.003  1.00  0.00     0.005 C 
HETATM   10  C8  UNL     1       1.221   1.033  -0.003  1.00  0.00     0.068 C 
BRANCH  10  11
HETATM   11  C9  UNL     1       1.951   2.306  -0.003  1.00  0.00     0.296 C 
HETATM   12  O2  UNL     1       1.352   3.355  -0.003  1.00  0.00    -0.259 OA
BRANCH  11  13
HETATM   13  O1  UNL     1       3.277   2.211  -0.003  1.00  0.00    -0.296 OA
HETATM   14  C10 UNL     1       3.910   3.482  -0.008  1.00  0.00     0.185 C 
ENDBRANCH  11  13
ENDBRANCH  10  11
ENDBRANCH   5   9
TORSDOF 3
