REMARK  4 active torsions:
REMARK  status: ('A' for Active; 'I' for Inactive)
REMARK    1  A    between atoms: C9_10  and  C12_14 
REMARK    2  A    between atoms: C12_14  and  C13_15 
REMARK    3  A    between atoms: C13_15  and  C14_16 
REMARK    4  A    between atoms: C14_16  and  O1_17 
ROOT
HETATM    1  C1  UNL     1       3.578  -2.201  -0.721  1.00  0.00     0.000 A 
HETATM    2  C2  UNL     1       3.928  -1.402   0.404  1.00  0.00     0.002 A 
HETATM    3  C3  UNL     1       2.930  -0.682   1.111  1.00  0.00     0.019 A 
HETATM    4  C4  UNL     1       1.588  -0.776   0.676  1.00  0.00     0.081 A 
HETATM    5  C5  UNL     1       1.254  -1.559  -0.426  1.00  0.00     0.019 A 
HETATM    6  C6  UNL     1       2.229  -2.287  -1.148  1.00  0.00     0.002 A 
HETATM    7  C7  UNL     1      -0.076  -1.477  -0.629  1.00  0.00     0.022 A 
HETATM    8  C8  UNL     1      -0.621  -0.637   0.338  1.00  0.00     0.095 A 
HETATM    9  N1  UNL     1       0.412  -0.178   1.180  1.00  0.00    -0.244 NA
HETATM   10  C9  UNL     1      -2.013  -0.414   0.305  1.00  0.00     0.077 A 
HETATM   11  N2  UNL     1      -2.853  -0.981  -0.635  1.00  0.00    -0.247 NA
HETATM   12  C10 UNL     1      -2.287  -1.815  -1.592  1.00  0.00     0.099 A 
HETATM   13  C11 UNL     1      -0.886  -2.090  -1.623  1.00  0.00     0.022 A 
ENDROOT
BRANCH  10  14
HETATM   14  C12 UNL     1      -2.621   0.469   1.315  1.00  0.00     0.058 C 
BRANCH  14  15
HETATM   15  C13 UNL     1      -2.775   1.896   0.795  1.00  0.00     0.102 C 
BRANCH  15  16
HETATM   16  C14 UNL     1      -1.449   2.586   0.604  1.00  0.00     0.272 C 
HETATM   17  O2  UNL     1      -0.963   3.254   1.486  1.00  0.00    -0.264 OA
BRANCH  16  18
HETATM   18  O1  UNL     1      -0.881   2.398  -0.584  1.00  0.00    -0.299 OA
HETATM   19  C15 UNL     1       0.367   3.064  -0.695  1.00  0.00     0.184 C 
ENDBRANCH  16  18
ENDBRANCH  15  16
ENDBRANCH  14  15
ENDBRANCH  10  14
TORSDOF 4
