REMARK  2 active torsions:
REMARK  status: ('A' for Active; 'I' for Inactive)
REMARK    1  A    between atoms: C3_3  and  C11_13 
REMARK    2  A    between atoms: C11_13  and  C12_14 
ROOT
HETATM    1  C1  UNL     1      -2.481  -1.250   0.260  1.00  0.00     0.133 A 
HETATM    2  C2  UNL     1      -2.391   0.014  -0.365  1.00  0.00     0.024 A 
HETATM    3  C3  UNL     1      -1.141   0.668  -0.481  1.00  0.00    -0.005 A 
HETATM    4  C4  UNL     1       0.029   0.047   0.039  1.00  0.00     0.054 A 
HETATM    5  C5  UNL     1      -0.059  -1.244   0.633  1.00  0.00     0.098 A 
HETATM    6  C6  UNL     1      -1.317  -1.877   0.756  1.00  0.00     0.052 A 
HETATM    7  O1  UNL     1       1.041  -1.887   1.084  1.00  0.00    -0.333 OA
HETATM    8  C7  UNL     1       2.348  -1.500   0.641  1.00  0.00     0.129 C 
HETATM    9  C8  UNL     1       2.494   0.029   0.691  1.00  0.00     0.099 C 
HETATM   10  C9  UNL     1       1.357   0.732  -0.018  1.00  0.00     0.177 C 
HETATM   11  O2  UNL     1       1.617   1.779  -0.565  1.00  0.00    -0.291 OA
HETATM   12  C10 UNL     1       2.588  -2.061  -0.768  1.00  0.00     0.033 C 
HETATM   13  O5  UNL     1      -3.670  -1.858   0.375  1.00  0.00    -0.190 OA
ENDROOT
BRANCH   3  14
HETATM   14  C11 UNL     1      -1.092   1.988  -1.133  1.00  0.00     0.124 C 
BRANCH  14  15
HETATM   15  C12 UNL     1      -1.000   3.111  -0.135  1.00  0.00     0.190 C 
HETATM   16  O3  UNL     1      -0.147   3.961  -0.232  1.00  0.00    -0.647 OA
HETATM   17  O4  UNL     1      -1.914   3.084   0.830  1.00  0.00    -0.647 OA
ENDBRANCH  14  15
ENDBRANCH   3  14
TORSDOF 2
