REMARK  4 active torsions:
REMARK  status: ('A' for Active; 'I' for Inactive)
REMARK    1  A    between atoms: C10_10  and  C11_11 
REMARK    2  A    between atoms: C13_13  and  O3_21 
REMARK    3  A    between atoms: C14_14  and  O2_19 
REMARK    4  A    between atoms: C15_15  and  O1_17 
ROOT
HETATM    1  C1  UNL     1      -3.047   2.257  -1.884  1.00  0.00     0.119 A 
HETATM    2  C2  UNL     1      -3.091   0.923  -1.904  1.00  0.00     0.119 A 
HETATM    3  C3  UNL     1      -1.964   0.203  -1.858  1.00  0.00     0.022 A 
HETATM    4  C4  UNL     1      -0.774   0.834  -1.792  1.00  0.00    -0.016 A 
HETATM    5  C5  UNL     1      -0.731   2.188  -1.770  1.00  0.00    -0.019 A 
HETATM    6  C6  UNL     1      -1.876   2.899  -1.817  1.00  0.00     0.022 A 
HETATM    7  C7  UNL     1       0.563   2.971  -1.691  1.00  0.00     0.050 C 
HETATM    8  C8  UNL     1       1.768   2.103  -1.802  1.00  0.00    -0.008 A 
HETATM    9  C9  UNL     1       1.734   0.771  -1.822  1.00  0.00     0.044 A 
HETATM   10  C10 UNL     1       0.475  -0.031  -1.729  1.00  0.00     0.071 C 
HETATM   11  C20 UNL     1       3.024   0.372  -1.905  1.00  0.00     0.292 A 
HETATM   12  O4  UNL     1       3.943   1.387  -1.943  1.00  0.00    -0.294 OA
HETATM   13  C21 UNL     1       3.185   2.588  -1.876  1.00  0.00     0.175 A 
HETATM   14  O5  UNL     1       3.339  -0.798  -1.936  1.00  0.00    -0.259 OA
HETATM   15  O6  UNL     1      -4.248   0.516  -1.966  1.00  0.00    -0.300 OA
HETATM   16  C22 UNL     1      -5.103   1.661  -1.992  1.00  0.00     0.304 A 
HETATM   17  O7  UNL     1      -4.173   2.745  -1.932  1.00  0.00    -0.300 OA
ENDROOT
BRANCH  10  18
HETATM   18  C11 UNL     1       0.503  -0.822  -0.436  1.00  0.00    -0.010 A 
HETATM   19  C12 UNL     1       0.510  -2.159  -0.418  1.00  0.00     0.023 A 
HETATM   20  C13 UNL     1       0.553  -2.885   0.715  1.00  0.00     0.118 A 
HETATM   21  C14 UNL     1       0.604  -2.231   1.909  1.00  0.00     0.138 A 
HETATM   22  C15 UNL     1       0.582  -0.868   1.926  1.00  0.00     0.118 A 
HETATM   23  C16 UNL     1       0.540  -0.208   0.752  1.00  0.00     0.023 A 
BRANCH  20  24
HETATM   24  O3  UNL     1       0.558  -4.252   0.504  1.00  0.00    -0.326 OA
HETATM   25  C19 UNL     1       0.666  -5.188   1.548  1.00  0.00     0.181 C 
ENDBRANCH  20  24
BRANCH  21  26
HETATM   26  O2  UNL     1       0.643  -3.011   3.044  1.00  0.00    -0.324 OA
HETATM   27  C18 UNL     1       0.467  -2.509   4.346  1.00  0.00     0.182 C 
ENDBRANCH  21  26
BRANCH  22  28
HETATM   28  O1  UNL     1       0.643  -0.186   3.119  1.00  0.00    -0.326 OA
HETATM   29  C17 UNL     1       0.808   1.213   3.138  1.00  0.00     0.181 C 
ENDBRANCH  22  28
ENDBRANCH  10  18
TORSDOF 4
