REMARK  2 active torsions:
REMARK  status: ('A' for Active; 'I' for Inactive)
REMARK    1  A    between atoms: C12_13  and  O3_22 
REMARK    2  A    between atoms: C15_17  and  O2_20 
ROOT
HETATM    1  C1  UNL     1       2.773   3.688  -0.226  1.00  0.00     0.285 C 
HETATM    2  N1  UNL     1       2.043   2.436  -0.414  1.00  0.00     0.138 N 
HETATM    3  C2  UNL     1       1.590   1.818   0.856  1.00  0.00     0.228 C 
HETATM    4  C3  UNL     1       2.480   0.555   1.109  1.00  0.00     0.060 C 
HETATM    5  C4  UNL     1       1.930  -0.709   0.551  1.00  0.00    -0.022 C 
HETATM    6  C5  UNL     1       0.654  -0.656  -0.041  1.00  0.00     0.000 C 
HETATM    7  C6  UNL     1      -0.168   0.570  -0.348  1.00  0.00     0.056 C 
HETATM    8  C7  UNL     1       0.275   1.213  -1.689  1.00  0.00     0.042 C 
HETATM    9  C8  UNL     1       1.051   2.531  -1.490  1.00  0.00     0.251 C 
HETATM   10  C9  UNL     1       0.043   1.537   0.836  1.00  0.00     0.060 C 
HETATM   11  C10 UNL     1      -0.529   0.951   2.109  1.00  0.00    -0.026 C 
HETATM   12  C11 UNL     1      -1.701   0.285   2.063  1.00  0.00     0.001 C 
HETATM   13  C12 UNL     1      -2.455   0.164   0.750  1.00  0.00     0.165 C 
HETATM   14  C13 UNL     1      -1.578  -0.117  -0.496  1.00  0.00     0.157 C 
HETATM   15  O1  UNL     1      -1.315  -1.531  -0.660  1.00  0.00    -0.329 OA
HETATM   16  C14 UNL     1      -0.053  -1.818  -0.346  1.00  0.00     0.112 C 
HETATM   17  C15 UNL     1       0.623  -3.070  -0.271  1.00  0.00     0.116 C 
HETATM   18  C16 UNL     1       1.965  -3.109   0.195  1.00  0.00     0.026 C 
HETATM   19  C17 UNL     1       2.617  -1.937   0.629  1.00  0.00    -0.002 C 
ENDROOT
BRANCH  13  20
HETATM   20  O3  UNL     1      -3.473  -0.814   0.856  1.00  0.00    -0.347 OA
HETATM   21  C19 UNL     1      -4.412  -0.752  -0.195  1.00  0.00     0.175 C 
ENDBRANCH  13  20
BRANCH  17  22
HETATM   22  O2  UNL     1       0.119  -4.270  -0.596  1.00  0.00    -0.326 OA
HETATM   23  C18 UNL     1      -1.219  -4.324  -1.066  1.00  0.00     0.181 C 
ENDBRANCH  17  22
TORSDOF 2
