REMARK  2 active torsions:
REMARK  status: ('A' for Active; 'I' for Inactive)
REMARK    1  A    between atoms: C4_5  and  C6_7 
REMARK    2  A    between atoms: C6_7  and  C7_8 
ROOT
HETATM    1  C1  UNL     1       2.172  -1.586   0.305  1.00  0.00     0.004 C 
HETATM    2  C2  UNL     1       2.604  -0.324   1.063  1.00  0.00     0.035 C 
HETATM    3  C3  UNL     1       2.026   0.959   0.426  1.00  0.00     0.250 C 
HETATM    4  N1  UNL     1       0.678   0.775  -0.145  1.00  0.00     0.137 N 
HETATM    5  C4  UNL     1      -0.074  -0.330   0.469  1.00  0.00     0.219 C 
HETATM    6  C5  UNL     1       0.635  -1.684   0.215  1.00  0.00     0.033 C 
HETATM    7  C9  UNL     1       0.697   0.693  -1.607  1.00  0.00     0.285 C 
ENDROOT
BRANCH   5   8
HETATM    8  C6  UNL     1      -1.533  -0.344  -0.014  1.00  0.00     0.033 C 
BRANCH   8   9
HETATM    9  C7  UNL     1      -2.236   0.998   0.197  1.00  0.00     0.002 C 
HETATM   10  C8  UNL     1      -3.715   0.955  -0.188  1.00  0.00     0.000 C 
ENDBRANCH   8   9
ENDBRANCH   5   8
TORSDOF 2
