REMARK  2 active torsions:
REMARK  status: ('A' for Active; 'I' for Inactive)
REMARK    1  A    between atoms: C7_8  and  O2_13 
REMARK    2  A    between atoms: C8_9  and  O1_11 
ROOT
HETATM    1  N1  UNL     1      -2.373  -1.297   0.988  1.00  0.00     0.144 N 
HETATM    2  C1  UNL     1      -2.939  -0.262   0.117  1.00  0.00     0.255 C 
HETATM    3  C2  UNL     1      -2.055   1.000   0.148  1.00  0.00     0.061 C 
HETATM    4  C3  UNL     1      -0.607   0.709  -0.010  1.00  0.00    -0.020 A 
HETATM    5  C4  UNL     1      -0.115  -0.613   0.193  1.00  0.00     0.009 A 
HETATM    6  C5  UNL     1      -1.039  -1.727   0.541  1.00  0.00     0.277 C 
HETATM    7  C6  UNL     1       1.274  -0.871   0.055  1.00  0.00     0.024 A 
HETATM    8  C7  UNL     1       2.164   0.172  -0.289  1.00  0.00     0.116 A 
HETATM    9  C8  UNL     1       1.672   1.481  -0.496  1.00  0.00     0.116 A 
HETATM   10  C9  UNL     1       0.291   1.748  -0.355  1.00  0.00     0.022 A 
HETATM   11  C12 UNL     1      -3.279  -2.430   1.147  1.00  0.00     0.286 C 
ENDROOT
BRANCH   8  12
HETATM   12  O2  UNL     1       3.473  -0.086  -0.420  1.00  0.00    -0.326 OA
HETATM   13  C11 UNL     1       3.914  -1.418  -0.205  1.00  0.00     0.181 C 
ENDBRANCH   8  12
BRANCH   9  14
HETATM   14  O1  UNL     1       2.514   2.473  -0.826  1.00  0.00    -0.326 OA
HETATM   15  C10 UNL     1       1.963   3.756  -1.080  1.00  0.00     0.181 C 
ENDBRANCH   9  14
TORSDOF 2
