REMARK  3 active torsions:
REMARK  status: ('A' for Active; 'I' for Inactive)
REMARK    1  A    between atoms: C1_2  and  O2_3 
REMARK    2  A    between atoms: C1_2  and  C3_5 
REMARK    3  A    between atoms: C4_6  and  C5_7 
ROOT
HETATM    1  C5  UNL     1       0.174  -1.053   0.003  1.00  0.00     0.000 A 
HETATM    2  C6  UNL     1      -1.232  -1.105   0.003  1.00  0.00     0.002 A 
HETATM    3  C7  UNL     1      -1.889  -2.348   0.003  1.00  0.00     0.027 A 
HETATM    4  C8  UNL     1      -1.146  -3.543   0.003  1.00  0.00     0.131 A 
HETATM    5  C9  UNL     1       0.260  -3.486   0.003  1.00  0.00     0.027 A 
HETATM    6  C10 UNL     1       0.918  -2.246   0.003  1.00  0.00     0.002 A 
HETATM    7  O3  UNL     1      -1.764  -4.707   0.003  1.00  0.00    -0.190 OA
ENDROOT
BRANCH   1   8
HETATM    8  C4  UNL     1       0.873   0.266   0.003  1.00  0.00     0.005 C 
HETATM    9  C3  UNL     1       0.133   1.387   0.003  1.00  0.00     0.068 C 
BRANCH   9  10
HETATM   10  C1  UNL     1       0.776   2.707   0.003  1.00  0.00     0.296 C 
HETATM   11  O1  UNL     1       1.981   2.801   0.003  1.00  0.00    -0.259 OA
BRANCH  10  12
HETATM   12  O2  UNL     1      -0.049   3.750   0.003  1.00  0.00    -0.296 OA
HETATM   13  C2  UNL     1       0.647   4.989   0.009  1.00  0.00     0.185 C 
ENDBRANCH  10  12
ENDBRANCH   9  10
ENDBRANCH   1   8
TORSDOF 3
