REMARK  8 active torsions:
REMARK  status: ('A' for Active; 'I' for Inactive)
REMARK    1  A    between atoms: C5_5  and  O2_7 
REMARK    2  A    between atoms: O2_7  and  C6_8 
REMARK    3  A    between atoms: C7_10  and  C11_17 
REMARK    4  A    between atoms: C12_19  and  O9_24 
REMARK    5  A    between atoms: O9_24  and  C16_25 
REMARK    6  A    between atoms: C16_25  and  C17_26 
REMARK    7  A    between atoms: C18_27  and  C19_28 
REMARK    8  A    between atoms: C22_31  and  O10_34 
ROOT
HETATM    1  C1  UNL     1       3.824   2.930  -0.192  1.00  0.00     0.117 C 
HETATM    2  C2  UNL     1       2.938   3.678   0.496  1.00  0.00     0.032 C 
HETATM    3  C3  UNL     1       1.531   3.176   0.734  1.00  0.00     0.182 C 
HETATM    4  C4  UNL     1       1.352   1.676   0.400  1.00  0.00     0.117 C 
HETATM    5  C5  UNL     1       2.160   1.379  -0.883  1.00  0.00     0.247 C 
HETATM    6  O1  UNL     1       3.539   1.734  -0.731  1.00  0.00    -0.304 OA
HETATM    7  C12 UNL     1      -0.182   1.535   0.289  1.00  0.00     0.112 C 
HETATM    8  C13 UNL     1      -0.685   2.861  -0.291  1.00  0.00     0.064 C 
HETATM    9  C14 UNL     1       0.496   3.832  -0.197  1.00  0.00     0.186 C 
HETATM   10  O8  UNL     1       0.078   5.117   0.232  1.00  0.00    -0.220 OA
HETATM   11  C15 UNL     1      -0.682   0.353  -0.545  1.00  0.00     0.031 C 
HETATM   12  O12 UNL     1       1.221   3.383   2.107  1.00  0.00    -0.218 OA
ENDROOT
BRANCH   7  13
HETATM   13  O9  UNL     1      -0.719   1.387   1.601  1.00  0.00    -0.303 OA
BRANCH  13  14
HETATM   14  C16 UNL     1      -2.014   1.084   1.588  1.00  0.00     0.296 C 
HETATM   15  O11 UNL     1      -2.810   1.570   0.820  1.00  0.00    -0.259 OA
BRANCH  14  16
HETATM   16  C17 UNL     1      -2.447   0.096   2.584  1.00  0.00     0.068 C 
HETATM   17  C18 UNL     1      -3.734  -0.281   2.656  1.00  0.00     0.005 C 
BRANCH  17  18
HETATM   18  C19 UNL     1      -4.129  -1.287   3.685  1.00  0.00     0.000 A 
HETATM   19  C20 UNL     1      -5.469  -1.703   3.789  1.00  0.00     0.002 A 
HETATM   20  C21 UNL     1      -5.838  -2.652   4.758  1.00  0.00     0.024 A 
HETATM   21  C22 UNL     1      -4.871  -3.188   5.629  1.00  0.00     0.094 A 
HETATM   22  C23 UNL     1      -3.533  -2.772   5.523  1.00  0.00     0.024 A 
HETATM   23  C24 UNL     1      -3.160  -1.822   4.555  1.00  0.00     0.002 A 
BRANCH  21  24
HETATM   24  O10 UNL     1      -5.219  -4.076   6.537  1.00  0.00    -0.328 OA
HETATM   25  C25 UNL     1      -4.197  -4.637   7.348  1.00  0.00     0.181 C 
ENDBRANCH  21  24
ENDBRANCH  17  18
ENDBRANCH  14  16
ENDBRANCH  13  14
ENDBRANCH   7  13
BRANCH   5  26
HETATM   26  O2  UNL     1       2.110   0.002  -1.180  1.00  0.00    -0.304 OA
BRANCH  26  27
HETATM   27  C6  UNL     1       2.742  -0.330  -2.401  1.00  0.00     0.272 C 
HETATM   28  O3  UNL     1       1.957   0.187  -3.467  1.00  0.00    -0.326 OA
HETATM   29  C7  UNL     1       2.494  -0.022  -4.766  1.00  0.00     0.184 C 
HETATM   30  C8  UNL     1       2.604  -1.539  -5.037  1.00  0.00     0.215 C 
HETATM   31  C9  UNL     1       3.424  -2.248  -3.938  1.00  0.00     0.220 C 
HETATM   32  O6  UNL     1       3.223  -1.731  -6.297  1.00  0.00    -0.218 OA
HETATM   33  C10 UNL     1       2.879  -1.867  -2.543  1.00  0.00     0.241 C 
HETATM   34  O5  UNL     1       3.350  -3.654  -4.113  1.00  0.00    -0.218 OA
HETATM   35  O4  UNL     1       3.760  -2.356  -1.543  1.00  0.00    -0.215 OA
BRANCH  29  36
HETATM   36  C11 UNL     1       1.561   0.695  -5.746  1.00  0.00     0.214 C 
HETATM   37  O7  UNL     1       1.662   2.082  -5.520  1.00  0.00    -0.218 OA
ENDBRANCH  29  36
ENDBRANCH  26  27
ENDBRANCH   5  26
TORSDOF 8
