REMARK  1 active torsions:
REMARK  status: ('A' for Active; 'I' for Inactive)
REMARK    1  A    between atoms: C14_16  and  C16_18 
ROOT
HETATM    1  C1  UNL     1       2.454  -4.837  -0.150  1.00  0.00     0.133 A 
HETATM    2  C2  UNL     1       1.038  -4.824  -0.151  1.00  0.00     0.028 A 
HETATM    3  C3  UNL     1       0.337  -3.596  -0.152  1.00  0.00     0.006 A 
HETATM    4  C4  UNL     1       1.063  -2.382  -0.153  1.00  0.00     0.046 A 
HETATM    5  C5  UNL     1       2.496  -2.383  -0.151  1.00  0.00     0.107 A 
HETATM    6  C6  UNL     1       3.180  -3.621  -0.150  1.00  0.00     0.052 A 
HETATM    7  O1  UNL     1       3.210  -1.222  -0.150  1.00  0.00    -0.273 OA
HETATM    8  C7  UNL     1       2.653   0.016  -0.152  1.00  0.00     0.302 A 
HETATM    9  C8  UNL     1       1.173   0.083  -0.157  1.00  0.00     0.088 A 
HETATM   10  C9  UNL     1       0.383  -1.058  -0.156  1.00  0.00     0.107 A 
HETATM   11  O2  UNL     1      -1.011  -0.845  -0.162  1.00  0.00    -0.307 OA
HETATM   12  C10 UNL     1      -1.027   0.553  -0.166  1.00  0.00     0.100 A 
HETATM   13  C11 UNL     1       0.253   1.081  -0.164  1.00  0.00     0.030 A 
HETATM   14  C12 UNL     1       0.462   2.480  -0.168  1.00  0.00     0.002 A 
HETATM   15  C13 UNL     1      -0.681   3.327  -0.177  1.00  0.00    -0.004 A 
HETATM   16  C14 UNL     1      -1.995   2.773  -0.180  1.00  0.00    -0.020 A 
HETATM   17  C15 UNL     1      -2.181   1.365  -0.174  1.00  0.00     0.020 A 
HETATM   18  O3  UNL     1       3.307   1.033  -0.151  1.00  0.00    -0.259 OA
HETATM   19  O4  UNL     1       3.110  -6.006  -0.150  1.00  0.00    -0.190 OA
ENDROOT
BRANCH  16  20
HETATM   20  C16 UNL     1      -3.165   3.665  -0.189  1.00  0.00     0.026 C 
HETATM   21  C17 UNL     1      -3.411   4.285   1.188  1.00  0.00     0.005 C 
ENDBRANCH  16  20
TORSDOF 1
