REMARK  3 active torsions:
REMARK  status: ('A' for Active; 'I' for Inactive)
REMARK    1  A    between atoms: C4_5  and  C6_7 
REMARK    2  A    between atoms: C13_14  and  O3_19 
REMARK    3  A    between atoms: C14_15  and  O2_17 
ROOT
HETATM    1  C1  UNL     1       1.826  -2.951  -0.828  1.00  0.00     0.300 A 
HETATM    2  O1  UNL     1       0.496  -3.123  -0.688  1.00  0.00    -0.273 OA
HETATM    3  C2  UNL     1      -0.348  -2.115  -0.373  1.00  0.00     0.105 A 
HETATM    4  C3  UNL     1       0.144  -0.795  -0.172  1.00  0.00     0.025 A 
HETATM    5  C4  UNL     1       1.615  -0.557  -0.320  1.00  0.00     0.007 A 
HETATM    6  C5  UNL     1       2.408  -1.603  -0.635  1.00  0.00     0.069 A 
HETATM    7  C12 UNL     1      -0.754   0.254   0.158  1.00  0.00     0.028 A 
HETATM    8  C13 UNL     1      -2.137  -0.017   0.285  1.00  0.00     0.116 A 
HETATM    9  C14 UNL     1      -2.625  -1.330   0.082  1.00  0.00     0.118 A 
HETATM   10  C15 UNL     1      -1.733  -2.377  -0.244  1.00  0.00     0.051 A 
HETATM   11  O4  UNL     1       2.570  -3.861  -1.107  1.00  0.00    -0.259 OA
ENDROOT
BRANCH   5  12
HETATM   12  C6  UNL     1       2.213   0.805  -0.127  1.00  0.00     0.000 A 
HETATM   13  C7  UNL     1       1.660   1.916  -0.785  1.00  0.00     0.000 A 
HETATM   14  C8  UNL     1       2.221   3.194  -0.605  1.00  0.00     0.000 A 
HETATM   15  C9  UNL     1       3.336   3.358   0.234  1.00  0.00     0.000 A 
HETATM   16  C10 UNL     1       3.891   2.246   0.893  1.00  0.00     0.000 A 
HETATM   17  C11 UNL     1       3.330   0.971   0.713  1.00  0.00     0.000 A 
ENDBRANCH   5  12
BRANCH   8  18
HETATM   18  O3  UNL     1      -2.984   0.975   0.596  1.00  0.00    -0.326 OA
HETATM   19  C17 UNL     1      -2.447   2.274   0.789  1.00  0.00     0.181 C 
ENDBRANCH   8  18
BRANCH   9  20
HETATM   20  O2  UNL     1      -3.936  -1.586   0.201  1.00  0.00    -0.326 OA
HETATM   21  C16 UNL     1      -4.383  -2.908  -0.057  1.00  0.00     0.181 C 
ENDBRANCH   9  20
TORSDOF 3
