REMARK  8 active torsions:
REMARK  status: ('A' for Active; 'I' for Inactive)
REMARK    1  A    between atoms: C1_1  and  O14_34 
REMARK    2  A    between atoms: C2_3  and  C6_10 
REMARK    3  A    between atoms: C6_10  and  O5_11 
REMARK    4  A    between atoms: O5_11  and  C7_12 
REMARK    5  A    between atoms: C7_12  and  C8_14 
REMARK    6  A    between atoms: C11_17  and  O8_21 
REMARK    7  A    between atoms: O8_21  and  C14_22 
REMARK    8  A    between atoms: C14_22  and  C15_24 
ROOT
HETATM    1  C8  UNL     1       3.274   0.053   1.290  1.00  0.00     0.067 C 
HETATM    2  C9  UNL     1       4.002   0.997   0.575  1.00  0.00     0.035 C 
HETATM    3  C10 UNL     1       4.356   0.734  -0.754  1.00  0.00     0.156 C 
HETATM    4  C11 UNL     1       3.979  -0.475  -1.357  1.00  0.00     0.154 C 
HETATM    5  C12 UNL     1       3.380  -1.487  -0.579  1.00  0.00     0.156 C 
HETATM    6  C13 UNL     1       3.012  -1.199   0.736  1.00  0.00     0.035 C 
HETATM    7  O7  UNL     1       3.100  -2.711  -1.100  1.00  0.00    -0.188 OA
HETATM    8  O13 UNL     1       4.987   1.684  -1.496  1.00  0.00    -0.188 OA
ENDROOT
BRANCH   1   9
HETATM    9  C7  UNL     1       2.750   0.383   2.673  1.00  0.00     0.296 C 
HETATM   10  O6  UNL     1       3.569   0.409   3.581  1.00  0.00    -0.259 OA
BRANCH   9  11
HETATM   11  O5  UNL     1       1.433   0.653   2.917  1.00  0.00    -0.296 OA
BRANCH  11  12
HETATM   12  C6  UNL     1       0.573   0.756   1.808  1.00  0.00     0.184 C 
BRANCH  12  13
HETATM   13  C2  UNL     1      -0.873   0.858   2.287  1.00  0.00     0.181 C 
HETATM   14  O1  UNL     1      -1.614   1.579   1.336  1.00  0.00    -0.326 OA
HETATM   15  C1  UNL     1      -2.935   1.824   1.776  1.00  0.00     0.270 C 
HETATM   16  C5  UNL     1      -3.675   0.516   1.951  1.00  0.00     0.241 C 
HETATM   17  C4  UNL     1      -2.944  -0.340   2.963  1.00  0.00     0.220 C 
HETATM   18  O2  UNL     1      -4.973   0.770   2.426  1.00  0.00    -0.215 OA
HETATM   19  C3  UNL     1      -1.514  -0.509   2.496  1.00  0.00     0.215 C 
HETATM   20  O3  UNL     1      -3.563  -1.597   3.055  1.00  0.00    -0.218 OA
HETATM   21  O4  UNL     1      -0.819  -1.252   3.464  1.00  0.00    -0.218 OA
BRANCH  15  22
HETATM   22  O14 UNL     1      -3.567   2.554   0.748  1.00  0.00    -0.326 OA
HETATM   23  C21 UNL     1      -3.240   3.927   0.770  1.00  0.00     0.177 C 
ENDBRANCH  15  22
ENDBRANCH  12  13
ENDBRANCH  11  12
ENDBRANCH   9  11
ENDBRANCH   1   9
BRANCH   4  24
HETATM   24  O8  UNL     1       4.197  -0.604  -2.702  1.00  0.00    -0.269 OA
BRANCH  24  25
HETATM   25  C14 UNL     1       3.333  -1.405  -3.400  1.00  0.00     0.300 C 
HETATM   26  O9  UNL     1       3.805  -2.364  -4.005  1.00  0.00    -0.259 OA
BRANCH  25  27
HETATM   27  C15 UNL     1       1.843  -1.292  -3.336  1.00  0.00     0.068 A 
HETATM   28  C16 UNL     1       1.049  -2.215  -4.029  1.00  0.00     0.035 A 
HETATM   29  C17 UNL     1      -0.346  -2.197  -3.918  1.00  0.00     0.158 A 
HETATM   30  C18 UNL     1      -0.951  -1.258  -3.081  1.00  0.00     0.181 A 
HETATM   31  O12 UNL     1      -1.128  -3.103  -4.562  1.00  0.00    -0.188 OA
HETATM   32  C19 UNL     1      -0.181  -0.307  -2.397  1.00  0.00     0.158 A 
HETATM   33  O11 UNL     1      -2.299  -1.257  -2.917  1.00  0.00    -0.186 OA
HETATM   34  C20 UNL     1       1.205  -0.320  -2.548  1.00  0.00     0.035 A 
HETATM   35  O10 UNL     1      -0.800   0.568  -1.563  1.00  0.00    -0.188 OA
ENDBRANCH  25  27
ENDBRANCH  24  25
ENDBRANCH   4  24
TORSDOF 8
