REMARK  8 active torsions:
REMARK  status: ('A' for Active; 'I' for Inactive)
REMARK    1  A    between atoms: C1_1  and  O14_34 
REMARK    2  A    between atoms: C2_3  and  C6_10 
REMARK    3  A    between atoms: C6_10  and  O5_11 
REMARK    4  A    between atoms: O5_11  and  C7_12 
REMARK    5  A    between atoms: C7_12  and  C8_14 
REMARK    6  A    between atoms: C10_16  and  O9_22 
REMARK    7  A    between atoms: O9_22  and  C14_23 
REMARK    8  A    between atoms: C14_23  and  C15_25 
ROOT
HETATM    1  C8  UNL     1       1.940   1.415  -1.605  1.00  0.00     0.067 A 
HETATM    2  C9  UNL     1       2.899   0.461  -1.264  1.00  0.00     0.032 A 
HETATM    3  C10 UNL     1       3.260  -0.547  -2.175  1.00  0.00     0.131 A 
HETATM    4  C11 UNL     1       2.727  -0.470  -3.473  1.00  0.00     0.179 A 
HETATM    5  C12 UNL     1       1.848   0.552  -3.854  1.00  0.00     0.158 A 
HETATM    6  C13 UNL     1       1.433   1.479  -2.901  1.00  0.00     0.035 A 
HETATM    7  O7  UNL     1       1.349   0.589  -5.115  1.00  0.00    -0.188 OA
HETATM    8  O8  UNL     1       3.053  -1.405  -4.407  1.00  0.00    -0.186 OA
ENDROOT
BRANCH   1   9
HETATM    9  C7  UNL     1       1.379   2.358  -0.558  1.00  0.00     0.296 C 
HETATM   10  O6  UNL     1       2.113   3.253  -0.165  1.00  0.00    -0.259 OA
BRANCH   9  11
HETATM   11  O5  UNL     1       0.102   2.235  -0.069  1.00  0.00    -0.296 OA
BRANCH  11  12
HETATM   12  C6  UNL     1      -0.595   1.071  -0.439  1.00  0.00     0.184 C 
BRANCH  12  13
HETATM   13  C2  UNL     1      -1.932   0.981   0.292  1.00  0.00     0.181 C 
HETATM   14  O1  UNL     1      -2.842   1.847  -0.338  1.00  0.00    -0.326 OA
HETATM   15  C1  UNL     1      -4.115   1.863   0.274  1.00  0.00     0.270 C 
HETATM   16  C5  UNL     1      -4.733   0.481   0.257  1.00  0.00     0.241 C 
HETATM   17  C4  UNL     1      -3.814  -0.489   0.962  1.00  0.00     0.220 C 
HETATM   18  O2  UNL     1      -5.966   0.506   0.929  1.00  0.00    -0.215 OA
HETATM   19  C3  UNL     1      -2.475  -0.444   0.261  1.00  0.00     0.215 C 
HETATM   20  O3  UNL     1      -4.334  -1.791   0.890  1.00  0.00    -0.218 OA
HETATM   21  O4  UNL     1      -1.616  -1.339   0.924  1.00  0.00    -0.218 OA
BRANCH  15  22
HETATM   22  O14 UNL     1      -4.924   2.695  -0.531  1.00  0.00    -0.326 OA
HETATM   23  C21 UNL     1      -4.670   4.070  -0.344  1.00  0.00     0.177 C 
ENDBRANCH  15  22
ENDBRANCH  12  13
ENDBRANCH  11  12
ENDBRANCH   9  11
ENDBRANCH   1   9
BRANCH   3  24
HETATM   24  O9  UNL     1       4.054  -1.628  -1.886  1.00  0.00    -0.271 OA
BRANCH  24  25
HETATM   25  C14 UNL     1       4.756  -1.683  -0.716  1.00  0.00     0.300 C 
HETATM   26  O10 UNL     1       5.985  -1.628  -0.768  1.00  0.00    -0.259 OA
BRANCH  25  27
HETATM   27  C15 UNL     1       4.138  -1.867   0.630  1.00  0.00     0.068 A 
HETATM   28  C16 UNL     1       4.961  -2.002   1.756  1.00  0.00     0.035 A 
HETATM   29  C17 UNL     1       4.422  -2.110   3.039  1.00  0.00     0.158 A 
HETATM   30  C18 UNL     1       3.036  -2.055   3.199  1.00  0.00     0.181 A 
HETATM   31  O13 UNL     1       5.207  -2.224   4.142  1.00  0.00    -0.188 OA
HETATM   32  C19 UNL     1       2.194  -1.947   2.086  1.00  0.00     0.158 A 
HETATM   33  O12 UNL     1       2.490  -2.102   4.441  1.00  0.00    -0.186 OA
HETATM   34  C20 UNL     1       2.745  -1.881   0.807  1.00  0.00     0.035 A 
HETATM   35  O11 UNL     1       0.853  -1.861   2.285  1.00  0.00    -0.188 OA
ENDBRANCH  25  27
ENDBRANCH  24  25
ENDBRANCH   3  24
TORSDOF 8
