REMARK  7 active torsions:
REMARK  status: ('A' for Active; 'I' for Inactive)
REMARK    1  A    between atoms: C1_1  and  C9_12 
REMARK    2  A    between atoms: C2_2  and  C6_7 
REMARK    3  A    between atoms: C6_7  and  C7_8 
REMARK    4  A    between atoms: C7_8  and  O3_10 
REMARK    5  A    between atoms: C9_12  and  C10_13 
REMARK    6  A    between atoms: C10_13  and  C11_14 
REMARK    7  A    between atoms: C11_14  and  C12_15 
ROOT
HETATM    1  C1  UNL     1       1.473  -0.070   0.423  1.00  0.00     0.058 C 
HETATM    2  C2  UNL     1       1.728   1.257   1.175  1.00  0.00     0.017 C 
HETATM    3  C3  UNL     1       3.019   0.947   1.964  1.00  0.00     0.009 C 
HETATM    4  C4  UNL     1       2.852  -0.500   2.450  1.00  0.00     0.065 C 
HETATM    5  C5  UNL     1       1.947  -1.129   1.409  1.00  0.00     0.150 C 
HETATM    6  O1  UNL     1       1.651  -2.300   1.392  1.00  0.00    -0.296 OA
ENDROOT
BRANCH   1   7
HETATM    7  C9  UNL     1       0.059  -0.284  -0.131  1.00  0.00     0.007 C 
BRANCH   7   8
HETATM    8  C10 UNL     1      -0.026  -1.395  -1.192  1.00  0.00     0.000 C 
BRANCH   8   9
HETATM    9  C11 UNL     1      -1.476  -1.634  -1.646  1.00  0.00     0.000 C 
BRANCH   9  10
HETATM   10  C12 UNL     1      -1.560  -2.678  -2.771  1.00  0.00     0.000 C 
HETATM   11  C13 UNL     1      -3.013  -2.971  -3.169  1.00  0.00     0.000 C 
ENDBRANCH   9  10
ENDBRANCH   8   9
ENDBRANCH   7   8
ENDBRANCH   1   7
BRANCH   2  12
HETATM   12  C6  UNL     1       0.601   1.696   2.132  1.00  0.00     0.096 C 
BRANCH  12  13
HETATM   13  C7  UNL     1      -0.657   2.244   1.478  1.00  0.00     0.272 C 
HETATM   14  O2  UNL     1      -1.781   1.888   1.755  1.00  0.00    -0.264 OA
BRANCH  13  15
HETATM   15  O3  UNL     1      -0.355   3.207   0.567  1.00  0.00    -0.299 OA
HETATM   16  C8  UNL     1      -1.444   3.808  -0.093  1.00  0.00     0.184 C 
ENDBRANCH  13  15
ENDBRANCH  12  13
ENDBRANCH   2  12
TORSDOF 7
