REMARK  3 active torsions:
REMARK  status: ('A' for Active; 'I' for Inactive)
REMARK    1  A    between atoms: C1_1  and  C10_14 
REMARK    2  A    between atoms: C3_3  and  C8_10 
REMARK    3  A    between atoms: C4_4  and  O2_8 
ROOT
HETATM    1  C1  UNL     1       0.995   1.829  -0.436  1.00  0.00     0.093 A 
HETATM    2  C2  UNL     1       1.513   0.587  -0.021  1.00  0.00     0.141 A 
HETATM    3  C3  UNL     1       0.620  -0.459   0.272  1.00  0.00     0.083 A 
HETATM    4  C4  UNL     1      -0.775  -0.316   0.137  1.00  0.00     0.101 A 
HETATM    5  C5  UNL     1      -1.228   0.950  -0.256  1.00  0.00     0.052 A 
HETATM    6  C6  UNL     1      -0.392   2.027  -0.559  1.00  0.00     0.138 A 
HETATM    7  O1  UNL     1      -0.963   3.206  -0.934  1.00  0.00    -0.190 OA
HETATM    8  O4  UNL     1       2.861   0.419   0.082  1.00  0.00    -0.190 OA
ENDROOT
BRANCH   3   9
HETATM    9  C8  UNL     1       1.177  -1.778   0.722  1.00  0.00     0.177 C 
HETATM   10  C9  UNL     1       0.584  -3.076   0.203  1.00  0.00     0.077 C 
HETATM   11  O3  UNL     1       2.161  -1.822   1.447  1.00  0.00    -0.291 OA
ENDBRANCH   3   9
BRANCH   4  12
HETATM   12  O2  UNL     1      -1.609  -1.352   0.475  1.00  0.00    -0.328 OA
HETATM   13  C7  UNL     1      -2.992  -1.113   0.591  1.00  0.00     0.181 C 
ENDBRANCH   4  12
BRANCH   1  14
HETATM   14  C10 UNL     1       1.949   2.928  -0.745  1.00  0.00     0.238 C 
HETATM   15  O5  UNL     1       1.619   4.053  -1.090  1.00  0.00    -0.283 OA
ENDBRANCH   1  14
TORSDOF 3
