REMARK  2 active torsions:
REMARK  status: ('A' for Active; 'I' for Inactive)
REMARK    1  A    between atoms: C2_2  and  C10_11 
REMARK    2  A    between atoms: C4_4  and  C8_8 
ROOT
HETATM    1  C1  UNL     1      -1.398   1.358  -0.415  1.00  0.00     0.003 C 
HETATM    2  C2  UNL     1      -0.394   1.247   0.755  1.00  0.00     0.033 C 
HETATM    3  C3  UNL     1       0.834   0.394   0.393  1.00  0.00     0.005 C 
HETATM    4  C4  UNL     1       0.573  -0.889  -0.450  1.00  0.00     0.031 C 
HETATM    5  C5  UNL     1       0.471   0.090  -1.653  1.00  0.00     0.003 C 
HETATM    6  C6  UNL     1      -0.875   0.819  -1.766  1.00  0.00     0.000 C 
HETATM    7  C7  UNL     1       1.455   1.015  -0.892  1.00  0.00     0.000 C 
HETATM    8  C9  UNL     1      -0.670  -1.737  -0.154  1.00  0.00     0.003 C 
ENDROOT
BRANCH   4   9
HETATM    9  C8  UNL     1       1.791  -1.821  -0.534  1.00  0.00     0.182 C 
HETATM   10  O1  UNL     1       1.963  -2.506   0.690  1.00  0.00    -0.221 OA
ENDBRANCH   4   9
BRANCH   2  11
HETATM   11  C10 UNL     1      -1.036   0.808   2.071  1.00  0.00     0.182 C 
HETATM   12  O2  UNL     1      -2.047   1.724   2.442  1.00  0.00    -0.221 OA
ENDBRANCH   2  11
TORSDOF 2
