REMARK  2 active torsions:
REMARK  status: ('A' for Active; 'I' for Inactive)
REMARK    1  A    between atoms: C3_3  and  C10_11 
REMARK    2  A    between atoms: C5_5  and  C8_8 
ROOT
HETATM    1  C1  UNL     1       1.693   1.085   0.516  1.00  0.00     0.025 C 
HETATM    2  C2  UNL     1       1.985  -0.194  -0.234  1.00  0.00    -0.032 C 
HETATM    3  C3  UNL     1       0.998  -0.805  -0.911  1.00  0.00    -0.016 C 
HETATM    4  C4  UNL     1      -0.357  -0.138  -0.919  1.00  0.00     0.023 C 
HETATM    5  C5  UNL     1      -0.774   0.284   0.524  1.00  0.00     0.035 C 
HETATM    6  C6  UNL     1       0.217   1.473   0.318  1.00  0.00     0.007 C 
HETATM    7  C7  UNL     1      -0.116   1.373  -1.197  1.00  0.00     0.005 C 
HETATM    8  C9  UNL     1      -0.448  -0.719   1.641  1.00  0.00     0.003 C 
ENDROOT
BRANCH   5   9
HETATM    9  C8  UNL     1      -2.246   0.700   0.632  1.00  0.00     0.182 C 
HETATM   10  O1  UNL     1      -2.469   1.376   1.853  1.00  0.00    -0.221 OA
ENDBRANCH   5   9
BRANCH   3  11
HETATM   11  C10 UNL     1       1.156  -2.118  -1.625  1.00  0.00     0.204 C 
HETATM   12  O2  UNL     1       0.284  -3.092  -1.065  1.00  0.00    -0.216 OA
ENDBRANCH   3  11
TORSDOF 2
