REMARK  9 active torsions:
REMARK  status: ('A' for Active; 'I' for Inactive)
REMARK    1  A    between atoms: C2_2  and  C4_4 
REMARK    2  A    between atoms: C4_4  and  C5_5 
REMARK    3  A    between atoms: C5_5  and  C6_6 
REMARK    4  A    between atoms: C6_6  and  C7_8 
REMARK    5  A    between atoms: C7_8  and  C8_9 
REMARK    6  A    between atoms: C8_9  and  C9_10 
REMARK    7  A    between atoms: C9_10  and  C10_11 
REMARK    8  A    between atoms: C10_11  and  C11_12 
REMARK    9  A    between atoms: C11_12  and  C12_13 
ROOT
HETATM    1  C6  UNL     1       0.048  -3.012   0.913  1.00  0.00     0.151 C 
HETATM    2  O1  UNL     1       0.781  -3.970   1.021  1.00  0.00    -0.296 OA
ENDROOT
BRANCH   1   3
HETATM    3  C5  UNL     1      -0.514  -2.330   2.152  1.00  0.00     0.065 C 
BRANCH   3   4
HETATM    4  C4  UNL     1       0.496  -1.356   2.779  1.00  0.00     0.008 C 
BRANCH   4   5
HETATM    5  C2  UNL     1       0.062  -0.773   4.138  1.00  0.00     0.000 C 
HETATM    6  C1  UNL     1       1.161   0.158   4.684  1.00  0.00     0.000 C 
HETATM    7  C3  UNL     1      -1.270  -0.011   4.053  1.00  0.00     0.000 C 
ENDBRANCH   4   5
ENDBRANCH   3   4
ENDBRANCH   1   3
BRANCH   1   8
HETATM    8  C7  UNL     1      -0.350  -2.483  -0.459  1.00  0.00     0.065 C 
BRANCH   8   9
HETATM    9  C8  UNL     1      -0.008  -0.999  -0.650  1.00  0.00     0.008 C 
BRANCH   9  10
HETATM   10  C9  UNL     1      -0.212  -0.522  -2.098  1.00  0.00     0.000 C 
BRANCH  10  11
HETATM   11  C10 UNL     1       0.076   0.982  -2.236  1.00  0.00     0.000 C 
BRANCH  11  12
HETATM   12  C11 UNL     1      -0.002   1.464  -3.693  1.00  0.00     0.000 C 
BRANCH  12  13
HETATM   13  C12 UNL     1       0.247   2.976  -3.807  1.00  0.00     0.000 C 
HETATM   14  C13 UNL     1       0.229   3.452  -5.265  1.00  0.00     0.000 C 
ENDBRANCH  12  13
ENDBRANCH  11  12
ENDBRANCH  10  11
ENDBRANCH   9  10
ENDBRANCH   8   9
ENDBRANCH   1   8
TORSDOF 9
