REMARK  2 active torsions:
REMARK  status: ('A' for Active; 'I' for Inactive)
REMARK    1  A    between atoms: C11_12  and  O2_17 
REMARK    2  A    between atoms: C12_13  and  O1_15 
ROOT
HETATM    1  C1  UNL     1       3.578  -1.859  -0.427  1.00  0.00     0.255 C 
HETATM    2  C2  UNL     1       3.817  -0.357  -0.239  1.00  0.00     0.061 C 
HETATM    3  C3  UNL     1       2.516   0.401  -0.213  1.00  0.00    -0.020 C 
HETATM    4  C4  UNL     1       1.292  -0.261  -0.130  1.00  0.00     0.007 C 
HETATM    5  C5  UNL     1       1.228  -1.768   0.006  1.00  0.00     0.246 C 
HETATM    6  N1  UNL     1       2.502  -2.361   0.415  1.00  0.00     0.142 N 
HETATM    7  C6  UNL     1       2.801  -2.194   1.830  1.00  0.00     0.286 C 
HETATM    8  C7  UNL     1       0.056  -2.129   0.935  1.00  0.00     0.064 C 
HETATM    9  C8  UNL     1      -1.210  -1.570   0.338  1.00  0.00    -0.018 A 
HETATM   10  C9  UNL     1      -1.167  -0.297  -0.268  1.00  0.00    -0.000 A 
HETATM   11  C10 UNL     1       0.100   0.484  -0.186  1.00  0.00     0.022 C 
HETATM   12  C11 UNL     1       0.121   1.895  -0.092  1.00  0.00     0.116 C 
HETATM   13  C12 UNL     1       1.355   2.573  -0.206  1.00  0.00     0.116 C 
HETATM   14  C13 UNL     1       2.516   1.793  -0.283  1.00  0.00     0.022 C 
HETATM   15  C16 UNL     1      -2.288   0.156  -0.988  1.00  0.00     0.026 A 
HETATM   16  C17 UNL     1      -3.453  -0.603  -0.951  1.00  0.00     0.119 A 
HETATM   17  C18 UNL     1      -3.510  -1.814  -0.271  1.00  0.00     0.119 A 
HETATM   18  C19 UNL     1      -2.386  -2.333   0.360  1.00  0.00     0.022 A 
HETATM   19  O3  UNL     1      -4.773  -2.356  -0.407  1.00  0.00    -0.300 OA
HETATM   20  C20 UNL     1      -5.551  -1.447  -1.196  1.00  0.00     0.304 A 
HETATM   21  O4  UNL     1      -4.679  -0.364  -1.543  1.00  0.00    -0.300 OA
ENDROOT
BRANCH  12  22
HETATM   22  O2  UNL     1      -1.053   2.598  -0.043  1.00  0.00    -0.326 OA
HETATM   23  C15 UNL     1      -1.567   2.752   1.260  1.00  0.00     0.181 C 
ENDBRANCH  12  22
BRANCH  13  24
HETATM   24  O1  UNL     1       1.540   3.935  -0.289  1.00  0.00    -0.326 OA
HETATM   25  C14 UNL     1       0.546   4.759  -0.851  1.00  0.00     0.181 C 
ENDBRANCH  13  24
TORSDOF 2
