REMARK  5 active torsions:
REMARK  status: ('A' for Active; 'I' for Inactive)
REMARK    1  A    between atoms: C1_1  and  O12_33 
REMARK    2  A    between atoms: C4_4  and  O2_8 
REMARK    3  A    between atoms: O2_8  and  C7_9 
REMARK    4  A    between atoms: C18_23  and  O7_27 
REMARK    5  A    between atoms: O12_33  and  C22_34 
ROOT
HETATM    1  C7  UNL     1       1.002  -0.589   1.325  1.00  0.00     0.145 A 
HETATM    2  C8  UNL     1       0.765   0.113   2.522  1.00  0.00     0.155 A 
HETATM    3  C9  UNL     1       1.073   1.470   2.634  1.00  0.00     0.035 A 
HETATM    4  C10 UNL     1       1.592   2.156   1.537  1.00  0.00     0.068 A 
HETATM    5  C11 UNL     1       1.806   1.476   0.335  1.00  0.00     0.032 A 
HETATM    6  C12 UNL     1       1.525   0.104   0.206  1.00  0.00     0.128 A 
HETATM    7  O3  UNL     1       1.769  -0.558  -0.965  1.00  0.00    -0.271 OA
HETATM    8  C13 UNL     1       2.230   0.135  -2.041  1.00  0.00     0.300 A 
HETATM    9  C14 UNL     1       2.516   1.587  -1.993  1.00  0.00     0.068 A 
HETATM   10  C15 UNL     1       2.319   2.264  -0.786  1.00  0.00     0.032 A 
HETATM   11  C16 UNL     1       2.582   3.639  -0.664  1.00  0.00     0.128 A 
HETATM   12  O4  UNL     1       2.386   4.292   0.522  1.00  0.00    -0.271 OA
HETATM   13  C17 UNL     1       1.914   3.600   1.595  1.00  0.00     0.300 A 
HETATM   14  O5  UNL     1       1.749   4.191   2.661  1.00  0.00    -0.259 OA
HETATM   15  C18 UNL     1       3.017   4.351  -1.809  1.00  0.00     0.142 A 
HETATM   16  C19 UNL     1       3.221   3.655  -3.018  1.00  0.00     0.155 A 
HETATM   17  C20 UNL     1       2.966   2.286  -3.111  1.00  0.00     0.035 A 
HETATM   18  O6  UNL     1       3.653   4.316  -4.128  1.00  0.00    -0.188 OA
HETATM   19  O8  UNL     1       2.427  -0.465  -3.097  1.00  0.00    -0.259 OA
HETATM   20  O9  UNL     1       0.240  -0.531   3.601  1.00  0.00    -0.188 OA
ENDROOT
BRANCH   1  21
HETATM   21  O2  UNL     1       0.612  -1.911   1.336  1.00  0.00    -0.299 OA
BRANCH  21  22
HETATM   22  C4  UNL     1       0.167  -2.564   0.171  1.00  0.00     0.274 C 
HETATM   23  C3  UNL     1      -0.395  -3.929   0.511  1.00  0.00     0.241 C 
HETATM   24  C2  UNL     1      -1.772  -3.853   1.141  1.00  0.00     0.217 C 
HETATM   25  O10 UNL     1      -0.504  -4.700  -0.663  1.00  0.00    -0.215 OA
HETATM   26  C1  UNL     1      -2.683  -2.949   0.324  1.00  0.00     0.184 C 
HETATM   27  O11 UNL     1      -2.306  -5.156   1.179  1.00  0.00    -0.218 OA
HETATM   28  C5  UNL     1      -2.001  -1.595   0.158  1.00  0.00     0.148 C 
HETATM   29  O1  UNL     1      -0.767  -1.739  -0.489  1.00  0.00    -0.329 OA
HETATM   30  C6  UNL     1      -2.832  -0.615  -0.672  1.00  0.00     0.035 C 
BRANCH  26  31
HETATM   31  O12 UNL     1      -3.902  -2.803   1.000  1.00  0.00    -0.299 OA
BRANCH  31  32
HETATM   32  C22 UNL     1      -5.060  -2.888   0.290  1.00  0.00     0.273 C 
HETATM   33  C23 UNL     1      -6.253  -2.771   1.218  1.00  0.00     0.106 C 
HETATM   34  O13 UNL     1      -5.142  -3.034  -0.908  1.00  0.00    -0.264 OA
ENDBRANCH  31  32
ENDBRANCH  26  31
ENDBRANCH  21  22
ENDBRANCH   1  21
BRANCH  15  35
HETATM   35  O7  UNL     1       3.337   5.690  -1.847  1.00  0.00    -0.324 OA
HETATM   36  C21 UNL     1       3.625   6.397  -0.666  1.00  0.00     0.182 C 
ENDBRANCH  15  35
TORSDOF 5
