REMARK  3 active torsions:
REMARK  status: ('A' for Active; 'I' for Inactive)
REMARK    1  A    between atoms: C4_4  and  O2_8 
REMARK    2  A    between atoms: O2_8  and  C7_9 
REMARK    3  A    between atoms: C18_23  and  O7_27 
ROOT
HETATM    1  C7  UNL     1       0.431  -0.899   1.392  1.00  0.00     0.145 A 
HETATM    2  C8  UNL     1       0.252  -0.212   2.608  1.00  0.00     0.155 A 
HETATM    3  C9  UNL     1       0.583   1.139   2.725  1.00  0.00     0.035 A 
HETATM    4  C10 UNL     1       1.068   1.832   1.618  1.00  0.00     0.068 A 
HETATM    5  C11 UNL     1       1.229   1.167   0.400  1.00  0.00     0.032 A 
HETATM    6  C12 UNL     1       0.927  -0.200   0.265  1.00  0.00     0.128 A 
HETATM    7  O3  UNL     1       1.126  -0.851  -0.921  1.00  0.00    -0.271 OA
HETATM    8  C13 UNL     1       1.535  -0.145  -2.010  1.00  0.00     0.300 A 
HETATM    9  C14 UNL     1       1.838   1.303  -1.954  1.00  0.00     0.068 A 
HETATM   10  C15 UNL     1       1.703   1.965  -0.731  1.00  0.00     0.032 A 
HETATM   11  C16 UNL     1       1.984   3.337  -0.602  1.00  0.00     0.128 A 
HETATM   12  O4  UNL     1       1.847   3.974   0.601  1.00  0.00    -0.271 OA
HETATM   13  C17 UNL     1       1.410   3.272   1.683  1.00  0.00     0.300 A 
HETATM   14  O5  UNL     1       1.295   3.849   2.763  1.00  0.00    -0.259 OA
HETATM   15  C18 UNL     1       2.375   4.060  -1.756  1.00  0.00     0.142 A 
HETATM   16  C19 UNL     1       2.513   3.380  -2.982  1.00  0.00     0.155 A 
HETATM   17  C20 UNL     1       2.240   2.015  -3.082  1.00  0.00     0.035 A 
HETATM   18  O6  UNL     1       2.897   4.051  -4.104  1.00  0.00    -0.188 OA
HETATM   19  O8  UNL     1       1.671  -0.731  -3.083  1.00  0.00    -0.259 OA
HETATM   20  O9  UNL     1      -0.241  -0.863   3.698  1.00  0.00    -0.188 OA
ENDROOT
BRANCH   1  21
HETATM   21  O2  UNL     1       0.016  -2.213   1.402  1.00  0.00    -0.299 OA
BRANCH  21  22
HETATM   22  C4  UNL     1      -0.452  -2.858   0.242  1.00  0.00     0.274 C 
HETATM   23  C3  UNL     1      -1.036  -4.211   0.599  1.00  0.00     0.241 C 
HETATM   24  C2  UNL     1      -2.402  -4.094   1.242  1.00  0.00     0.220 C 
HETATM   25  O10 UNL     1      -1.177  -4.991  -0.566  1.00  0.00    -0.215 OA
HETATM   26  C1  UNL     1      -3.286  -3.184   0.418  1.00  0.00     0.212 C 
HETATM   27  O11 UNL     1      -3.002  -5.366   1.297  1.00  0.00    -0.218 OA
HETATM   28  C5  UNL     1      -2.601  -1.843   0.226  1.00  0.00     0.151 C 
HETATM   29  O12 UNL     1      -4.507  -3.031   1.100  1.00  0.00    -0.218 OA
HETATM   30  O1  UNL     1      -1.371  -2.017  -0.420  1.00  0.00    -0.329 OA
HETATM   31  C6  UNL     1      -3.435  -0.886  -0.627  1.00  0.00     0.035 C 
ENDBRANCH  21  22
ENDBRANCH   1  21
BRANCH  15  32
HETATM   32  O7  UNL     1       2.703   5.398  -1.796  1.00  0.00    -0.324 OA
HETATM   33  C21 UNL     1       2.987   6.111  -0.617  1.00  0.00     0.182 C 
ENDBRANCH  15  32
TORSDOF 3
