REMARK  8 active torsions:
REMARK  status: ('A' for Active; 'I' for Inactive)
REMARK    1  A    between atoms: C2_2  and  O1_32 
REMARK    2  A    between atoms: C15_15  and  C18_18 
REMARK    3  A    between atoms: C18_18  and  C19_19 
REMARK    4  A    between atoms: C19_19  and  C20_20 
REMARK    5  A    between atoms: C20_20  and  C21_21 
REMARK    6  A    between atoms: C21_21  and  C22_22 
REMARK    7  A    between atoms: C21_21  and  C25_25 
REMARK    8  A    between atoms: O1_32  and  C32_33 
ROOT
HETATM    1  C1  UNL     1      -5.162  -0.599  -2.049  1.00  0.00     0.030 C 
HETATM    2  C2  UNL     1      -5.149  -1.864  -2.913  1.00  0.00     0.124 C 
HETATM    3  C3  UNL     1      -3.842  -2.647  -2.704  1.00  0.00     0.028 C 
HETATM    4  C4  UNL     1      -3.565  -2.909  -1.201  1.00  0.00     0.007 C 
HETATM    5  C5  UNL     1      -3.663  -1.690  -0.246  1.00  0.00     0.004 C 
HETATM    6  C6  UNL     1      -4.973  -0.929  -0.563  1.00  0.00     0.003 C 
HETATM    7  C7  UNL     1      -2.406  -0.776  -0.360  1.00  0.00     0.018 C 
HETATM    8  C8  UNL     1      -1.100  -1.556  -0.452  1.00  0.00    -0.049 C 
HETATM    9  C9  UNL     1      -1.074  -2.867  -0.743  1.00  0.00    -0.035 C 
HETATM   10  C10 UNL     1      -2.289  -3.725  -0.943  1.00  0.00     0.025 C 
HETATM   11  C11 UNL     1       0.181  -0.740  -0.347  1.00  0.00     0.015 C 
HETATM   12  C12 UNL     1       0.146   0.110   0.956  1.00  0.00     0.003 C 
HETATM   13  C13 UNL     1      -1.013   1.111   0.794  1.00  0.00     0.001 C 
HETATM   14  C14 UNL     1      -2.360   0.376   0.673  1.00  0.00     0.004 C 
HETATM   15  C15 UNL     1       1.577   0.714   1.039  1.00  0.00     0.000 C 
HETATM   16  C16 UNL     1       2.451  -0.436   0.469  1.00  0.00     0.000 C 
HETATM   17  C17 UNL     1       1.513  -1.490  -0.153  1.00  0.00     0.004 C 
HETATM   18  C28 UNL     1      -0.102  -0.780   2.204  1.00  0.00     0.000 C 
HETATM   19  C29 UNL     1       0.322   0.030  -1.686  1.00  0.00     0.004 C 
HETATM   20  C30 UNL     1      -3.804  -2.232   1.202  1.00  0.00     0.000 C 
HETATM   21  C31 UNL     1      -2.686  -2.044  -3.522  1.00  0.00     0.003 C 
ENDROOT
BRANCH  15  22
HETATM   22  C18 UNL     1       2.102   1.240   2.400  1.00  0.00     0.000 C 
HETATM   23  C27 UNL     1       1.212   2.319   3.043  1.00  0.00     0.000 C 
BRANCH  22  24
HETATM   24  C19 UNL     1       3.574   1.726   2.353  1.00  0.00     0.000 C 
BRANCH  24  25
HETATM   25  C20 UNL     1       3.804   3.170   1.864  1.00  0.00     0.004 C 
BRANCH  25  26
HETATM   26  C21 UNL     1       5.294   3.588   1.743  1.00  0.00     0.018 C 
BRANCH  26  27
HETATM   27  C22 UNL     1       6.026   3.016   0.532  1.00  0.00    -0.044 C 
HETATM   28  C23 UNL     1       7.486   3.373   0.367  1.00  0.00     0.026 C 
HETATM   29  C24 UNL     1       5.439   2.269  -0.420  1.00  0.00    -0.009 C 
ENDBRANCH  26  27
BRANCH  26  30
HETATM   30  C25 UNL     1       6.025   3.350   3.087  1.00  0.00     0.004 C 
HETATM   31  C26 UNL     1       7.095   4.384   3.471  1.00  0.00     0.000 C 
ENDBRANCH  26  30
ENDBRANCH  25  26
ENDBRANCH  24  25
ENDBRANCH  22  24
ENDBRANCH  15  22
BRANCH   2  32
HETATM   32  O1  UNL     1      -6.254  -2.646  -2.551  1.00  0.00    -0.304 OA
BRANCH  32  33
HETATM   33  C32 UNL     1      -6.921  -3.467  -3.411  1.00  0.00     0.272 C 
HETATM   34  O2  UNL     1      -7.844  -4.164  -3.045  1.00  0.00    -0.264 OA
HETATM   35  C33 UNL     1      -6.476  -3.461  -4.863  1.00  0.00     0.106 C 
ENDBRANCH  32  33
ENDBRANCH   2  32
TORSDOF 8
