REMARK  4 active torsions:
REMARK  status: ('A' for Active; 'I' for Inactive)
REMARK    1  A    between atoms: C2_2  and  C3_3 
REMARK    2  A    between atoms: C3_3  and  C4_4 
REMARK    3  A    between atoms: C4_4  and  C5_5 
REMARK    4  A    between atoms: C4_4  and  C8_8 
ROOT
HETATM    1  C4  UNL     1       0.111   0.285   0.117  1.00  0.00     0.000 C 
HETATM    2  C7  UNL     1       0.894  -0.077   1.396  1.00  0.00     0.000 C 
ENDROOT
BRANCH   1   3
HETATM    3  C3  UNL     1      -1.229  -0.520   0.104  1.00  0.00     0.000 C 
BRANCH   3   4
HETATM    4  C2  UNL     1      -1.164  -2.058   0.133  1.00  0.00     0.000 C 
HETATM    5  C1  UNL     1      -2.571  -2.677   0.161  1.00  0.00     0.000 C 
ENDBRANCH   3   4
ENDBRANCH   1   3
BRANCH   1   6
HETATM    6  C5  UNL     1      -0.315   1.782   0.150  1.00  0.00     0.000 C 
HETATM    7  C6  UNL     1       0.749   2.875   0.320  1.00  0.00     0.000 C 
ENDBRANCH   1   6
BRANCH   1   8
HETATM    8  C8  UNL     1       0.923  -0.092  -1.149  1.00  0.00     0.000 C 
HETATM    9  C9  UNL     1       2.332   0.488  -1.330  1.00  0.00     0.000 C 
ENDBRANCH   1   8
TORSDOF 4
