REMARK  3 active torsions:
REMARK  status: ('A' for Active; 'I' for Inactive)
REMARK    1  A    between atoms: C3_3  and  O3_8 
REMARK    2  A    between atoms: C3_3  and  C7_10 
REMARK    3  A    between atoms: C4_5  and  C5_6 
ROOT
HETATM    1  C1  UNL     1      -1.404  -0.318   0.811  1.00  0.00     0.217 C 
HETATM    2  C2  UNL     1       0.018  -0.277   1.337  1.00  0.00     0.238 C 
HETATM    3  C3  UNL     1       0.841  -0.299   0.059  1.00  0.00     0.250 C 
HETATM    4  O1  UNL     1       0.086   0.464  -0.844  1.00  0.00    -0.328 OA
HETATM    5  C4  UNL     1      -1.273   0.218  -0.608  1.00  0.00     0.184 C 
HETATM    6  O5  UNL     1       0.186   0.932   2.041  1.00  0.00    -0.215 OA
HETATM    7  O6  UNL     1      -1.877  -1.644   0.796  1.00  0.00    -0.218 OA
ENDROOT
BRANCH   3   8
HETATM    8  O3  UNL     1       0.867  -1.637  -0.391  1.00  0.00    -0.328 OA
HETATM    9  C6  UNL     1       1.634  -1.905  -1.543  1.00  0.00     0.177 C 
ENDBRANCH   3   8
BRANCH   3  10
HETATM   10  C7  UNL     1       2.222   0.311   0.205  1.00  0.00     0.241 C 
HETATM   11  O4  UNL     1       2.687   0.738  -1.061  1.00  0.00    -0.215 OA
ENDBRANCH   3  10
BRANCH   5  12
HETATM   12  C5  UNL     1      -2.062   1.495  -0.840  1.00  0.00     0.214 C 
HETATM   13  O2  UNL     1      -3.440   1.224  -0.680  1.00  0.00    -0.218 OA
ENDBRANCH   5  12
TORSDOF 3
