REMARK  3 active torsions:
REMARK  status: ('A' for Active; 'I' for Inactive)
REMARK    1  A    between atoms: C3_3  and  C4_4 
REMARK    2  A    between atoms: C4_4  and  C5_5 
REMARK    3  A    between atoms: C5_5  and  C6_6 
ROOT
HETATM    1  C4  UNL     1       0.444  -0.100  -0.000  1.00  0.00     0.033 C 
ENDROOT
BRANCH   1   2
HETATM    2  C3  UNL     1      -0.842   0.689  -0.000  1.00  0.00    -0.034 C 
HETATM    3  C2  UNL     1      -0.908   2.032   0.000  1.00  0.00    -0.048 C 
HETATM    4  C1  UNL     1      -2.250   2.725   0.000  1.00  0.00     0.026 C 
HETATM    5  C8  UNL     1       0.334   2.890   0.000  1.00  0.00     0.026 C 
ENDBRANCH   1   2
BRANCH   1   6
HETATM    6  C5  UNL     1       0.204  -1.618   0.000  1.00  0.00     0.069 C 
BRANCH   6   7
HETATM    7  C6  UNL     1       1.483  -2.441   0.000  1.00  0.00     0.151 C 
HETATM    8  C7  UNL     1       1.340  -3.951   0.000  1.00  0.00     0.072 C 
HETATM    9  O1  UNL     1       2.579  -1.928   0.000  1.00  0.00    -0.296 OA
ENDBRANCH   6   7
ENDBRANCH   1   6
TORSDOF 3
