REMARK  3 active torsions:
REMARK  status: ('A' for Active; 'I' for Inactive)
REMARK    1  A    between atoms: C2_2  and  C3_3 
REMARK    2  A    between atoms: C3_3  and  C4_4 
REMARK    3  A    between atoms: C4_4  and  C5_5 
ROOT
HETATM    1  C3  UNL     1       0.877   0.087  -0.603  1.00  0.00     0.000 C 
HETATM    2  C7  UNL     1       2.280   0.726  -0.603  1.00  0.00     0.000 C 
ENDROOT
BRANCH   1   3
HETATM    3  C2  UNL     1       1.022  -1.449  -0.635  1.00  0.00     0.000 C 
HETATM    4  C1  UNL     1      -0.303  -2.209  -0.759  1.00  0.00     0.000 C 
ENDBRANCH   1   3
BRANCH   1   5
HETATM    5  C4  UNL     1       0.058   0.595   0.604  1.00  0.00     0.000 C 
BRANCH   5   6
HETATM    6  C5  UNL     1      -1.404   0.925   0.260  1.00  0.00     0.000 C 
HETATM    7  C6  UNL     1      -2.195   1.372   1.497  1.00  0.00     0.000 C 
ENDBRANCH   5   6
ENDBRANCH   1   5
TORSDOF 3
