REMARK  3 active torsions:
REMARK  status: ('A' for Active; 'I' for Inactive)
REMARK    1  A    between atoms: C3_3  and  C31_33 
REMARK    2  A    between atoms: C21_21  and  C23_23 
REMARK    3  A    between atoms: C23_23  and  O2_25 
ROOT
HETATM    1  C1  UNL     1      -5.115   1.171  -0.061  1.00  0.00     0.033 C 
HETATM    2  C2  UNL     1      -5.870  -0.133   0.169  1.00  0.00     0.154 C 
HETATM    3  C3  UNL     1      -5.089  -1.354  -0.359  1.00  0.00     0.059 C 
HETATM    4  C4  UNL     1      -3.546  -1.096  -0.343  1.00  0.00     0.005 C 
HETATM    5  C5  UNL     1      -2.953  -0.106   0.705  1.00  0.00     0.001 C 
HETATM    6  C6  UNL     1      -3.751   1.233   0.644  1.00  0.00     0.003 C 
HETATM    7  C7  UNL     1      -1.454   0.179   0.315  1.00  0.00     0.005 C 
HETATM    8  C8  UNL     1      -0.508  -1.018   0.001  1.00  0.00     0.004 C 
HETATM    9  C9  UNL     1      -1.247  -2.046  -0.892  1.00  0.00     0.000 C 
HETATM   10  C10 UNL     1      -2.685  -2.368  -0.461  1.00  0.00     0.000 C 
HETATM   11  C11 UNL     1       0.797  -0.473  -0.723  1.00  0.00     0.015 C 
HETATM   12  C12 UNL     1       1.506   0.476   0.239  1.00  0.00    -0.049 C 
HETATM   13  C13 UNL     1       0.773   1.265   1.044  1.00  0.00    -0.035 C 
HETATM   14  C14 UNL     1      -0.727   1.224   1.189  1.00  0.00     0.025 C 
HETATM   15  C15 UNL     1       3.012   0.696   0.180  1.00  0.00     0.018 C 
HETATM   16  C16 UNL     1       3.805  -0.588  -0.135  1.00  0.00     0.004 C 
HETATM   17  C17 UNL     1       3.194  -1.258  -1.381  1.00  0.00     0.001 C 
HETATM   18  C18 UNL     1       1.717  -1.633  -1.188  1.00  0.00     0.004 C 
HETATM   19  C19 UNL     1       5.301  -0.269  -0.370  1.00  0.00     0.001 C 
HETATM   20  C20 UNL     1       5.564   0.911  -1.316  1.00  0.00     0.009 C 
HETATM   21  C21 UNL     1       4.861   2.195  -0.832  1.00  0.00     0.078 C 
HETATM   22  C22 UNL     1       3.353   1.888  -0.736  1.00  0.00     0.013 C 
HETATM   23  C25 UNL     1       5.107   3.330  -1.847  1.00  0.00     0.010 C 
HETATM   24  C26 UNL     1       3.747  -1.552   1.076  1.00  0.00     0.000 C 
HETATM   25  C27 UNL     1       0.500   0.375  -1.994  1.00  0.00     0.004 C 
HETATM   26  C28 UNL     1      -0.118  -1.746   1.316  1.00  0.00     0.000 C 
HETATM   27  C29 UNL     1      -3.089  -0.638   2.153  1.00  0.00     0.000 C 
HETATM   28  C30 UNL     1      -5.515  -1.525  -1.854  1.00  0.00     0.005 C 
HETATM   29  O4  UNL     1      -6.215  -0.244   1.530  1.00  0.00    -0.223 OA
ENDROOT
BRANCH  21  30
HETATM   30  C23 UNL     1       5.478   2.667   0.488  1.00  0.00     0.271 C 
HETATM   31  O1  UNL     1       6.634   2.489   0.803  1.00  0.00    -0.264 OA
BRANCH  30  32
HETATM   32  O2  UNL     1       4.587   3.358   1.248  1.00  0.00    -0.299 OA
HETATM   33  C24 UNL     1       5.074   3.876   2.463  1.00  0.00     0.184 C 
ENDBRANCH  30  32
ENDBRANCH  21  30
BRANCH   3  34
HETATM   34  C31 UNL     1      -5.560  -2.669   0.296  1.00  0.00     0.185 C 
HETATM   35  O3  UNL     1      -5.202  -2.760   1.656  1.00  0.00    -0.221 OA
ENDBRANCH   3  34
TORSDOF 3
