REMARK  8 active torsions:
REMARK  status: ('A' for Active; 'I' for Inactive)
REMARK    1  A    between atoms: C4_4  and  C27_28 
REMARK    2  A    between atoms: C27_28  and  O3_30 
REMARK    3  A    between atoms: O3_30  and  C28_31 
REMARK    4  A    between atoms: C32_36  and  O5_37 
REMARK    5  A    between atoms: O5_37  and  C33_38 
REMARK    6  A    between atoms: C37_43  and  O7_44 
REMARK    7  A    between atoms: O7_44  and  C38_45 
REMARK    8  A    between atoms: C39_47  and  C43_54 
ROOT
HETATM    1  C27 UNL     1       2.164   0.427  -0.560  1.00  0.00     0.273 C 
HETATM    2  O2  UNL     1       3.006   0.347   0.305  1.00  0.00    -0.264 OA
ENDROOT
BRANCH   1   3
HETATM    3  C4  UNL     1       2.473   0.370  -2.069  1.00  0.00     0.082 C 
HETATM    4  C3  UNL     1       1.342   0.964  -2.932  1.00  0.00     0.027 C 
HETATM    5  C2  UNL     1       1.756   1.237  -4.393  1.00  0.00     0.004 C 
HETATM    6  C10 UNL     1       0.078   0.123  -2.925  1.00  0.00    -0.049 C 
HETATM    7  C1  UNL     1       3.025   2.101  -4.535  1.00  0.00     0.000 C 
HETATM    8  C6  UNL     1       4.156   1.440  -3.725  1.00  0.00     0.001 C 
HETATM    9  C44 UNL     1       3.436   2.157  -6.024  1.00  0.00     0.000 C 
HETATM   10  C45 UNL     1       2.776   3.552  -4.069  1.00  0.00     0.000 C 
HETATM   11  C5  UNL     1       3.773   1.186  -2.261  1.00  0.00     0.010 C 
HETATM   12  C9  UNL     1       0.137  -1.388  -2.909  1.00  0.00     0.018 C 
HETATM   13  C11 UNL     1      -1.075   0.719  -3.259  1.00  0.00    -0.035 C 
HETATM   14  C8  UNL     1       1.409  -1.921  -2.209  1.00  0.00     0.004 C 
HETATM   15  C14 UNL     1      -1.200  -2.111  -2.475  1.00  0.00     0.004 C 
HETATM   16  C7  UNL     1       2.676  -1.101  -2.481  1.00  0.00     0.010 C 
HETATM   17  C13 UNL     1      -2.501  -1.246  -2.586  1.00  0.00     0.005 C 
HETATM   18  C15 UNL     1      -1.353  -3.345  -3.387  1.00  0.00     0.000 C 
HETATM   19  C26 UNL     1      -1.052  -2.587  -1.006  1.00  0.00     0.000 C 
HETATM   20  C12 UNL     1      -2.309  -0.071  -3.561  1.00  0.00     0.025 C 
HETATM   21  C18 UNL     1      -3.909  -1.970  -2.694  1.00  0.00     0.001 C 
HETATM   22  C17 UNL     1      -3.919  -3.376  -3.381  1.00  0.00     0.002 C 
HETATM   23  C19 UNL     1      -4.981  -1.075  -3.379  1.00  0.00     0.003 C 
HETATM   24  C25 UNL     1      -4.455  -2.161  -1.240  1.00  0.00     0.000 C 
HETATM   25  C16 UNL     1      -2.619  -4.157  -3.121  1.00  0.00     0.000 C 
HETATM   26  C22 UNL     1      -4.530  -3.487  -4.816  1.00  0.00     0.028 C 
HETATM   27  C21 UNL     1      -5.977  -2.925  -4.808  1.00  0.00     0.152 C 
HETATM   28  C23 UNL     1      -4.584  -4.965  -5.299  1.00  0.00     0.003 C 
HETATM   29  C24 UNL     1      -3.701  -2.775  -5.911  1.00  0.00     0.003 C 
HETATM   30  C20 UNL     1      -6.252  -1.825  -3.782  1.00  0.00     0.033 C 
HETATM   31  O1  UNL     1      -6.923  -3.946  -4.570  1.00  0.00    -0.224 OA
ENDBRANCH   1   3
BRANCH   1  32
HETATM   32  O3  UNL     1       0.844   0.623  -0.299  1.00  0.00    -0.273 OA
BRANCH  32  33
HETATM   33  C28 UNL     1       0.445   0.834   1.038  1.00  0.00     0.273 C 
HETATM   34  O4  UNL     1      -0.949   0.604   1.060  1.00  0.00    -0.326 OA
HETATM   35  C29 UNL     1      -1.685   1.529   0.302  1.00  0.00     0.181 C 
HETATM   36  C30 UNL     1      -1.462   2.948   0.786  1.00  0.00     0.214 C 
HETATM   37  C31 UNL     1       0.010   3.312   0.822  1.00  0.00     0.217 C 
HETATM   38  O16 UNL     1      -2.118   3.841  -0.083  1.00  0.00    -0.218 OA
HETATM   39  C32 UNL     1       0.798   2.224   1.550  1.00  0.00     0.207 C 
HETATM   40  O15 UNL     1       0.468   3.482  -0.497  1.00  0.00    -0.218 OA
BRANCH  39  41
HETATM   41  O5  UNL     1       0.492   2.412   2.905  1.00  0.00    -0.324 OA
BRANCH  41  42
HETATM   42  C33 UNL     1       1.082   1.542   3.845  1.00  0.00     0.267 C 
HETATM   43  O6  UNL     1       0.151   0.514   4.113  1.00  0.00    -0.326 OA
HETATM   44  C34 UNL     1      -1.087   0.959   4.617  1.00  0.00     0.181 C 
HETATM   45  C35 UNL     1      -0.942   1.817   5.861  1.00  0.00     0.214 C 
HETATM   46  C36 UNL     1       0.130   2.881   5.717  1.00  0.00     0.217 C 
HETATM   47  O14 UNL     1      -0.653   0.990   6.963  1.00  0.00    -0.218 OA
HETATM   48  C37 UNL     1       1.412   2.328   5.104  1.00  0.00     0.207 C 
HETATM   49  O13 UNL     1      -0.366   3.925   4.908  1.00  0.00    -0.218 OA
BRANCH  48  50
HETATM   50  O7  UNL     1       2.079   1.568   6.078  1.00  0.00    -0.324 OA
BRANCH  50  51
HETATM   51  C38 UNL     1       3.370   1.121   5.721  1.00  0.00     0.270 C 
HETATM   52  O8  UNL     1       3.297  -0.255   5.418  1.00  0.00    -0.326 OA
HETATM   53  C39 UNL     1       3.127  -1.129   6.505  1.00  0.00     0.184 C 
HETATM   54  C40 UNL     1       4.137  -0.889   7.620  1.00  0.00     0.215 C 
HETATM   55  C41 UNL     1       4.254   0.568   8.027  1.00  0.00     0.220 C 
HETATM   56  O11 UNL     1       5.402  -1.316   7.164  1.00  0.00    -0.218 OA
HETATM   57  C42 UNL     1       4.400   1.423   6.787  1.00  0.00     0.241 C 
HETATM   58  O10 UNL     1       3.131   0.979   8.767  1.00  0.00    -0.218 OA
HETATM   59  O9  UNL     1       5.685   1.205   6.243  1.00  0.00    -0.215 OA
BRANCH  53  60
HETATM   60  C43 UNL     1       1.685  -1.216   6.978  1.00  0.00     0.214 C 
HETATM   61  O12 UNL     1       1.502  -2.383   7.754  1.00  0.00    -0.218 OA
ENDBRANCH  53  60
ENDBRANCH  50  51
ENDBRANCH  48  50
ENDBRANCH  41  42
ENDBRANCH  39  41
ENDBRANCH  32  33
ENDBRANCH   1  32
TORSDOF 8
