REMARK  8 active torsions:
REMARK  status: ('A' for Active; 'I' for Inactive)
REMARK    1  A    between atoms: C4_4  and  O3_9 
REMARK    2  A    between atoms: C5_6  and  C6_7 
REMARK    3  A    between atoms: O3_9  and  C7_10 
REMARK    4  A    between atoms: C7_10  and  C8_11 
REMARK    5  A    between atoms: C7_10  and  C11_16 
REMARK    6  A    between atoms: C8_11  and  C9_12 
REMARK    7  A    between atoms: C9_12  and  O4_13 
REMARK    8  A    between atoms: C11_16  and  C12_17 
ROOT
HETATM    1  C1  UNL     1      -3.388  -0.062  -1.743  1.00  0.00     0.215 C 
HETATM    2  C2  UNL     1      -2.899  -1.352  -1.115  1.00  0.00     0.220 C 
HETATM    3  C3  UNL     1      -1.454  -1.622  -1.476  1.00  0.00     0.241 C 
HETATM    4  C4  UNL     1      -0.558  -0.408  -1.362  1.00  0.00     0.270 C 
HETATM    5  O1  UNL     1      -1.096   0.770  -1.921  1.00  0.00    -0.326 OA
HETATM    6  C5  UNL     1      -2.416   1.096  -1.574  1.00  0.00     0.184 C 
HETATM    7  O7  UNL     1      -1.376  -2.139  -2.786  1.00  0.00    -0.215 OA
HETATM    8  O8  UNL     1      -3.018  -1.276   0.285  1.00  0.00    -0.218 OA
HETATM    9  O9  UNL     1      -3.621  -0.271  -3.118  1.00  0.00    -0.218 OA
ENDROOT
BRANCH   4  10
HETATM   10  O3  UNL     1      -0.212  -0.151  -0.017  1.00  0.00    -0.331 OA
BRANCH  10  11
HETATM   11  C7  UNL     1       1.085   0.354   0.187  1.00  0.00     0.130 C 
BRANCH  11  12
HETATM   12  C8  UNL     1       0.972   1.621   1.050  1.00  0.00     0.126 C 
BRANCH  12  13
HETATM   13  C9  UNL     1       2.308   2.236   1.439  1.00  0.00     0.274 C 
HETATM   14  O5  UNL     1       3.253   2.351   0.692  1.00  0.00    -0.264 OA
BRANCH  13  15
HETATM   15  O4  UNL     1       2.300   2.624   2.743  1.00  0.00    -0.299 OA
HETATM   16  C10 UNL     1       3.490   3.200   3.229  1.00  0.00     0.184 C 
ENDBRANCH  13  15
ENDBRANCH  12  13
ENDBRANCH  11  12
BRANCH  11  17
HETATM   17  C11 UNL     1       1.953  -0.700   0.896  1.00  0.00     0.063 C 
BRANCH  17  18
HETATM   18  C12 UNL     1       1.950  -2.110   0.300  1.00  0.00     0.155 C 
HETATM   19  C13 UNL     1       2.977  -3.017   0.977  1.00  0.00     0.036 C 
HETATM   20  O6  UNL     1       2.239  -2.063  -1.077  1.00  0.00    -0.223 OA
ENDBRANCH  17  18
ENDBRANCH  11  17
ENDBRANCH  10  11
ENDBRANCH   4  10
BRANCH   6  21
HETATM   21  C6  UNL     1      -2.507   1.812  -0.232  1.00  0.00     0.214 C 
HETATM   22  O2  UNL     1      -3.777   2.420  -0.101  1.00  0.00    -0.218 OA
ENDBRANCH   6  21
TORSDOF 8
