REMARK  7 active torsions:
REMARK  status: ('A' for Active; 'I' for Inactive)
REMARK    1  A    between atoms: C3_3  and  C26_34 
REMARK    2  A    between atoms: C6_6  and  O1_7 
REMARK    3  A    between atoms: C10_11  and  O2_12 
REMARK    4  A    between atoms: C13_15  and  O3_16 
REMARK    5  A    between atoms: N1_19  and  C17_21 
REMARK    6  A    between atoms: C20_25  and  O5_26 
REMARK    7  A    between atoms: C23_29  and  O6_30 
ROOT
HETATM    1  C1  UNL     1      -3.594   0.860   0.478  1.00  0.00     0.030 C 
HETATM    2  C2  UNL     1      -3.515   0.157   1.827  1.00  0.00     0.007 C 
HETATM    3  C3  UNL     1      -2.458  -0.977   1.822  1.00  0.00     0.065 C 
HETATM    4  C4  UNL     1      -1.070  -0.267   1.758  1.00  0.00     0.041 C 
HETATM    5  C5  UNL     1      -0.962   0.460   0.388  1.00  0.00     0.086 C 
HETATM    6  C6  UNL     1      -2.222   1.263  -0.068  1.00  0.00     0.120 C 
HETATM    7  C8  UNL     1       0.234   1.502   0.378  1.00  0.00     0.135 C 
HETATM    8  C9  UNL     1       1.604   0.842   0.301  1.00  0.00     0.083 C 
HETATM    9  C10 UNL     1       1.953  -0.586  -0.089  1.00  0.00     0.130 C 
HETATM   10  C12 UNL     1       0.660  -1.364   0.305  1.00  0.00     0.203 C 
HETATM   11  C13 UNL     1       0.201  -1.173   1.798  1.00  0.00     0.148 C 
HETATM   12  C15 UNL     1      -0.675  -0.871  -0.417  1.00  0.00     0.256 C 
HETATM   13  N1  UNL     1      -2.043  -1.392  -0.650  1.00  0.00     0.138 N 
HETATM   14  C16 UNL     1      -2.704  -1.893   0.586  1.00  0.00     0.253 C 
HETATM   15  O4  UNL     1       0.941  -2.723   0.001  1.00  0.00    -0.219 OA
HETATM   16  C19 UNL     1       2.316  -0.487  -1.630  1.00  0.00     0.060 C 
HETATM   17  C20 UNL     1       1.866   0.835  -2.382  1.00  0.00     0.120 C 
HETATM   18  C22 UNL     1       1.827   2.161  -1.524  1.00  0.00     0.057 C 
HETATM   19  C23 UNL     1       2.566   1.930  -0.208  1.00  0.00     0.122 C 
HETATM   20  C25 UNL     1       0.430   2.483  -0.862  1.00  0.00     0.036 C 
HETATM   21  O7  UNL     1       0.215   2.249   1.565  1.00  0.00    -0.226 OA
ENDROOT
BRANCH   3  22
HETATM   22  C26 UNL     1      -2.716  -1.723   3.148  1.00  0.00     0.184 C 
HETATM   23  O8  UNL     1      -1.883  -2.846   3.336  1.00  0.00    -0.221 OA
ENDBRANCH   3  22
BRANCH  11  24
HETATM   24  O3  UNL     1       1.181  -0.579   2.603  1.00  0.00    -0.351 OA
HETATM   25  C14 UNL     1       1.000  -0.823   3.982  1.00  0.00     0.174 C 
ENDBRANCH  11  24
BRANCH  13  26
HETATM   26  C17 UNL     1      -2.102  -2.375  -1.730  1.00  0.00     0.250 C 
HETATM   27  C18 UNL     1      -1.472  -1.835  -3.024  1.00  0.00     0.037 C 
ENDBRANCH  13  26
BRANCH   6  28
HETATM   28  O1  UNL     1      -2.295   1.266  -1.475  1.00  0.00    -0.354 OA
HETATM   29  C7  UNL     1      -3.043   2.336  -2.014  1.00  0.00     0.174 C 
ENDBRANCH   6  28
BRANCH   9  30
HETATM   30  O2  UNL     1       3.087  -0.923   0.663  1.00  0.00    -0.354 OA
HETATM   31  C11 UNL     1       3.613  -2.222   0.515  1.00  0.00     0.174 C 
ENDBRANCH   9  30
BRANCH  19  32
HETATM   32  O6  UNL     1       3.899   1.572  -0.413  1.00  0.00    -0.354 OA
HETATM   33  C24 UNL     1       4.669   1.679   0.766  1.00  0.00     0.174 C 
ENDBRANCH  19  32
BRANCH  17  34
HETATM   34  O5  UNL     1       2.696   0.991  -3.504  1.00  0.00    -0.354 OA
HETATM   35  C21 UNL     1       2.073   1.680  -4.569  1.00  0.00     0.174 C 
ENDBRANCH  17  34
TORSDOF 7
