REMARK  1 active torsions:
REMARK  status: ('A' for Active; 'I' for Inactive)
REMARK    1  A    between atoms: C9_9  and  C11_11 
ROOT
HETATM    1  C1  UNL     1      -3.311   0.935   0.210  1.00  0.00     0.005 C 
HETATM    2  C2  UNL     1      -3.223  -0.483  -0.355  1.00  0.00     0.021 C 
HETATM    3  C3  UNL     1      -1.866  -1.126  -0.168  1.00  0.00    -0.052 C 
HETATM    4  C4  UNL     1      -0.750  -0.415   0.105  1.00  0.00    -0.050 C 
HETATM    5  C5  UNL     1      -0.767   1.107   0.274  1.00  0.00     0.043 C 
HETATM    6  C6  UNL     1      -2.086   1.719  -0.257  1.00  0.00     0.006 C 
HETATM    7  C7  UNL     1       0.383   1.724  -0.551  1.00  0.00     0.156 C 
HETATM    8  C8  UNL     1       1.753   1.101  -0.293  1.00  0.00     0.038 C 
HETATM    9  C9  UNL     1       1.693  -0.413  -0.537  1.00  0.00     0.025 C 
HETATM   10  C10 UNL     1       0.612  -1.044   0.352  1.00  0.00     0.025 C 
HETATM   11  O1  UNL     1       0.466   3.112  -0.326  1.00  0.00    -0.223 OA
HETATM   12  C14 UNL     1      -0.629   1.442   1.777  1.00  0.00     0.007 C 
HETATM   13  C15 UNL     1      -1.935  -2.627  -0.363  1.00  0.00     0.026 C 
ENDROOT
BRANCH   9  14
HETATM   14  C11 UNL     1       3.064  -1.048  -0.367  1.00  0.00    -0.044 C 
HETATM   15  C12 UNL     1       3.802  -1.395  -1.434  1.00  0.00    -0.009 C 
HETATM   16  C13 UNL     1       3.595  -1.243   1.034  1.00  0.00     0.026 C 
ENDBRANCH   9  14
TORSDOF 1
