REMARK  2 active torsions:
REMARK  status: ('A' for Active; 'I' for Inactive)
REMARK    1  A    between atoms: C16_17  and  C25_27 
REMARK    2  A    between atoms: C25_27  and  O3_28 
ROOT
HETATM    1  C1  UNL     1      -0.467  -3.114  -1.305  1.00  0.00     0.182 C 
HETATM    2  C2  UNL     1      -0.696  -3.258   0.391  1.00  0.00     0.182 C 
HETATM    3  C3  UNL     1      -2.204  -2.916   1.206  1.00  0.00     0.031 C 
HETATM    4  C4  UNL     1      -3.262  -1.763   0.216  1.00  0.00     0.003 A 
HETATM    5  C5  UNL     1      -2.786  -1.145  -1.501  1.00  0.00     0.005 C 
HETATM    6  C6  UNL     1      -1.391  -2.047  -2.315  1.00  0.00     0.036 C 
HETATM    7  C7  UNL     1      -1.951   0.013  -1.206  1.00  0.00     0.035 C 
HETATM    8  C8  UNL     1      -1.369  -1.148  -0.361  1.00  0.00     0.006 C 
HETATM    9  C9  UNL     1      -2.489  -2.804  -0.798  1.00  0.00     0.001 A 
HETATM   10  C10 UNL     1      -4.008  -2.817  -0.470  1.00  0.00     0.000 A 
HETATM   11  C11 UNL     1       0.256  -0.406  -0.689  1.00  0.00     0.018 C 
HETATM   12  C12 UNL     1       0.194   1.220  -0.460  1.00  0.00    -0.030 C 
HETATM   13  C13 UNL     1      -0.974   1.909  -0.409  1.00  0.00     0.001 C 
HETATM   14  C14 UNL     1      -2.349   1.324  -0.603  1.00  0.00     0.174 C 
HETATM   15  O1  UNL     1      -3.054   2.110  -1.547  1.00  0.00    -0.219 OA
HETATM   16  C15 UNL     1       1.518   2.023  -0.409  1.00  0.00    -0.013 C 
HETATM   17  C16 UNL     1       2.569   1.466   0.578  1.00  0.00     0.095 C 
HETATM   18  C17 UNL     1       2.723  -0.050   0.346  1.00  0.00     0.014 C 
HETATM   19  C18 UNL     1       1.400  -0.833   0.308  1.00  0.00     0.005 C 
HETATM   20  C19 UNL     1       3.958   2.095   0.291  1.00  0.00     0.013 C 
HETATM   21  C20 UNL     1       3.960   3.625   0.227  1.00  0.00     0.004 C 
HETATM   22  C21 UNL     1       2.908   4.150  -0.767  1.00  0.00     0.032 C 
HETATM   23  C22 UNL     1       1.501   3.577  -0.448  1.00  0.00     0.142 C 
HETATM   24  O2  UNL     1       0.657   3.975  -1.506  1.00  0.00    -0.222 OA
HETATM   25  C23 UNL     1       0.992   4.273   0.829  1.00  0.00     0.037 C 
HETATM   26  C24 UNL     1       3.392   3.944  -2.220  1.00  0.00     0.003 C 
HETATM   27  C27 UNL     1       0.920  -0.382  -2.117  1.00  0.00     0.004 C 
HETATM   28  C28 UNL     1      -1.389  -0.529   1.122  1.00  0.00     0.000 C 
HETATM   29  C29 UNL     1      -3.885  -0.750  -2.506  1.00  0.00     0.000 C 
HETATM   30  C30 UNL     1      -2.099  -2.559   2.746  1.00  0.00     0.003 C 
HETATM   31  C31 UNL     1      -2.832  -4.364   1.513  1.00  0.00     0.003 C 
HETATM   32  O5  UNL     1      -0.273  -4.574   0.678  1.00  0.00    -0.221 OA
HETATM   33  O6  UNL     1       0.902  -3.221  -1.603  1.00  0.00    -0.221 OA
ENDROOT
BRANCH  17  34
HETATM   34  C25 UNL     1       2.096   1.677   2.021  1.00  0.00     0.275 C 
HETATM   35  O4  UNL     1       0.946   1.579   2.384  1.00  0.00    -0.264 OA
BRANCH  34  36
HETATM   36  O3  UNL     1       3.112   2.002   2.863  1.00  0.00    -0.299 OA
HETATM   37  C26 UNL     1       2.750   2.283   4.195  1.00  0.00     0.184 C 
ENDBRANCH  34  36
ENDBRANCH  17  34
TORSDOF 2
