REMARK  6 active torsions:
REMARK  status: ('A' for Active; 'I' for Inactive)
REMARK    1  A    between atoms: C2_2  and  C3_3 
REMARK    2  A    between atoms: C3_3  and  C4_4 
REMARK    3  A    between atoms: C4_4  and  C5_5 
REMARK    4  A    between atoms: C5_5  and  C6_6 
REMARK    5  A    between atoms: C5_5  and  C9_9 
REMARK    6  A    between atoms: C10_10  and  C11_11 
ROOT
HETATM    1  C5  UNL     1       0.308  -0.519   0.020  1.00  0.00     0.022 C 
ENDROOT
BRANCH   1   2
HETATM    2  C4  UNL     1      -1.023   0.264  -0.029  1.00  0.00     0.012 C 
BRANCH   2   3
HETATM    3  C3  UNL     1      -2.294  -0.594   0.057  1.00  0.00     0.065 C 
BRANCH   3   4
HETATM    4  C2  UNL     1      -3.570   0.196   0.310  1.00  0.00     0.151 C 
HETATM    5  C1  UNL     1      -4.843  -0.615   0.468  1.00  0.00     0.072 C 
HETATM    6  O1  UNL     1      -3.584   1.404   0.380  1.00  0.00    -0.296 OA
ENDBRANCH   3   4
ENDBRANCH   2   3
ENDBRANCH   1   2
BRANCH   1   7
HETATM    7  C6  UNL     1       0.595  -1.509  -1.135  1.00  0.00     0.004 C 
HETATM    8  C7  UNL     1       0.222  -0.973  -2.526  1.00  0.00     0.000 C 
HETATM    9  C8  UNL     1      -0.018  -2.904  -0.909  1.00  0.00     0.000 C 
ENDBRANCH   1   7
BRANCH   1  10
HETATM   10  C9  UNL     1       1.436   0.494   0.133  1.00  0.00    -0.027 C 
HETATM   11  C10 UNL     1       1.800   1.068   1.296  1.00  0.00    -0.009 C 
BRANCH  11  12
HETATM   12  C11 UNL     1       2.875   2.068   1.428  1.00  0.00    -0.022 C 
HETATM   13  C12 UNL     1       2.999   2.730   2.598  1.00  0.00    -0.005 C 
HETATM   14  C13 UNL     1       3.850   2.329   0.305  1.00  0.00     0.031 C 
ENDBRANCH  11  12
ENDBRANCH   1  10
TORSDOF 6
