REMARK  1 active torsions:
REMARK  status: ('A' for Active; 'I' for Inactive)
REMARK    1  A    between atoms: C1_2  and  C2_3 
ROOT
HETATM    1  N1  UNL     1      -0.659   0.259   0.102  1.00  0.00    -0.266 NA
HETATM    2  C1  UNL     1       0.602   0.224   0.002  1.00  0.00     0.105 C 
HETATM    3  C3  UNL     1      -1.347  -1.049   0.050  1.00  0.00     0.152 C 
ENDROOT
BRANCH   2   4
HETATM    4  C2  UNL     1       1.332   1.361   0.045  1.00  0.00     0.085 C 
HETATM    5  S1  UNL     1       2.894   1.536  -0.033  1.00  0.00    -0.076 SA
ENDBRANCH   2   4
TORSDOF 1
