REMARK  5 active torsions:
REMARK  status: ('A' for Active; 'I' for Inactive)
REMARK    1  A    between atoms: C1_1  and  C22_33 
REMARK    2  A    between atoms: C5_5  and  O2_7 
REMARK    3  A    between atoms: O2_7  and  C6_8 
REMARK    4  A    between atoms: C11_13  and  O3_14 
REMARK    5  A    between atoms: C13_17  and  C16_21 
ROOT
HETATM    1  C6  UNL     1      -0.394  -0.735   0.953  1.00  0.00     0.144 C 
HETATM    2  C7  UNL     1      -1.272  -0.239  -0.042  1.00  0.00     0.160 C 
HETATM    3  C8  UNL     1      -1.054   1.025  -0.624  1.00  0.00     0.085 C 
HETATM    4  C9  UNL     1       0.008   1.838  -0.203  1.00  0.00     0.101 C 
HETATM    5  C10 UNL     1       0.692   1.405   0.929  1.00  0.00     0.051 C 
HETATM    6  C11 UNL     1       0.502   0.171   1.565  1.00  0.00     0.120 C 
HETATM    7  O4  UNL     1       0.303   3.067  -0.721  1.00  0.00    -0.328 OA
HETATM    8  C13 UNL     1      -0.733   3.736  -1.389  1.00  0.00     0.151 C 
HETATM    9  C14 UNL     1      -1.384   2.811  -2.412  1.00  0.00     0.104 C 
HETATM   10  C15 UNL     1      -1.866   1.524  -1.766  1.00  0.00     0.180 C 
HETATM   11  O5  UNL     1      -2.850   0.952  -2.216  1.00  0.00    -0.291 OA
HETATM   12  O8  UNL     1      -2.304  -1.034  -0.444  1.00  0.00    -0.188 OA
ENDROOT
BRANCH   1  13
HETATM   13  O2  UNL     1      -0.556  -2.026   1.400  1.00  0.00    -0.299 OA
BRANCH  13  14
HETATM   14  C5  UNL     1      -0.392  -3.049   0.432  1.00  0.00     0.274 C 
HETATM   15  C4  UNL     1      -1.462  -4.109   0.578  1.00  0.00     0.241 C 
HETATM   16  C3  UNL     1      -1.199  -5.000   1.769  1.00  0.00     0.220 C 
HETATM   17  O9  UNL     1      -2.724  -3.505   0.742  1.00  0.00    -0.215 OA
HETATM   18  C2  UNL     1       0.186  -5.583   1.613  1.00  0.00     0.215 C 
HETATM   19  O10 UNL     1      -2.140  -6.043   1.801  1.00  0.00    -0.218 OA
HETATM   20  C1  UNL     1       1.189  -4.443   1.565  1.00  0.00     0.184 C 
HETATM   21  O11 UNL     1       0.427  -6.419   2.718  1.00  0.00    -0.218 OA
HETATM   22  O1  UNL     1       0.919  -3.569   0.501  1.00  0.00    -0.326 OA
BRANCH  20  23
HETATM   23  C22 UNL     1       2.611  -4.961   1.394  1.00  0.00     0.214 C 
HETATM   24  O12 UNL     1       3.521  -3.880   1.370  1.00  0.00    -0.218 OA
ENDBRANCH  20  23
ENDBRANCH  13  14
ENDBRANCH   1  13
BRANCH   6  25
HETATM   25  O3  UNL     1       1.309  -0.027   2.661  1.00  0.00    -0.326 OA
HETATM   26  C12 UNL     1       1.586  -1.311   3.148  1.00  0.00     0.181 C 
ENDBRANCH   6  25
BRANCH   8  27
HETATM   27  C16 UNL     1      -0.156   4.992  -2.015  1.00  0.00     0.008 A 
HETATM   28  C17 UNL     1      -0.587   6.265  -1.628  1.00  0.00     0.028 A 
HETATM   29  C18 UNL     1      -0.016   7.430  -2.149  1.00  0.00     0.156 A 
HETATM   30  C19 UNL     1       1.019   7.330  -3.085  1.00  0.00     0.156 A 
HETATM   31  O7  UNL     1      -0.427   8.664  -1.754  1.00  0.00    -0.188 OA
HETATM   32  C20 UNL     1       1.455   6.063  -3.481  1.00  0.00     0.029 A 
HETATM   33  O6  UNL     1       1.595   8.454  -3.583  1.00  0.00    -0.188 OA
HETATM   34  C21 UNL     1       0.879   4.909  -2.952  1.00  0.00     0.000 A 
ENDBRANCH   8  27
TORSDOF 5
