REMARK  4 active torsions:
REMARK  status: ('A' for Active; 'I' for Inactive)
REMARK    1  A    between atoms: C1_2  and  C2_3 
REMARK    2  A    between atoms: C2_3  and  C3_4 
REMARK    3  A    between atoms: C3_4  and  S1_5 
REMARK    4  A    between atoms: S1_5  and  S2_6 
ROOT
HETATM    1  C2  UNL     1      -0.224   1.437   0.128  1.00  0.00     0.399 C 
HETATM    2  N1  UNL     1      -0.105   2.059  -1.201  1.00  0.00     0.629 N 
ENDROOT
BRANCH   1   3
HETATM    3  C1  UNL     1      -1.498   1.924   0.794  1.00  0.00     0.225 C 
HETATM    4  O1  UNL     1      -2.562   1.783  -0.018  1.00  0.00    -0.646 OA
HETATM    5  O2  UNL     1      -1.605   2.389   1.903  1.00  0.00    -0.646 OA
ENDBRANCH   1   3
BRANCH   1   6
HETATM    6  C3  UNL     1      -0.186  -0.096   0.012  1.00  0.00     0.119 C 
BRANCH   6   7
HETATM    7  S1  UNL     1       1.379  -0.592  -0.786  1.00  0.00    -0.079 SA
BRANCH   7   8
HETATM    8  S2  UNL     1       1.182  -2.598  -0.999  1.00  0.00    -0.081 SA
HETATM    9  C4  UNL     1       1.853  -3.260   0.553  1.00  0.00     0.081 C 
ENDBRANCH   7   8
ENDBRANCH   6   7
ENDBRANCH   1   6
TORSDOF 4
