REMARK  6 active torsions:
REMARK  status: ('A' for Active; 'I' for Inactive)
REMARK    1  A    between atoms: C1_1  and  O3_15 
REMARK    2  A    between atoms: C2_2  and  O2_13 
REMARK    3  A    between atoms: C4_4  and  C8_9 
REMARK    4  A    between atoms: C6_6  and  O1_7 
REMARK    5  A    between atoms: C8_9  and  C9_10 
REMARK    6  A    between atoms: C9_10  and  N1_11 
ROOT
HETATM    1  C1  UNL     1       1.353   1.426  -0.846  1.00  0.00     0.138 C 
HETATM    2  C2  UNL     1       1.899   0.201  -0.410  1.00  0.00     0.118 C 
HETATM    3  C3  UNL     1       1.015  -0.858  -0.156  1.00  0.00     0.022 C 
HETATM    4  C4  UNL     1      -0.370  -0.717  -0.258  1.00  0.00    -0.016 C 
HETATM    5  C5  UNL     1      -0.873   0.538  -0.598  1.00  0.00     0.022 C 
HETATM    6  C6  UNL     1      -0.037   1.642  -0.800  1.00  0.00     0.118 C 
ENDROOT
BRANCH   4   7
HETATM    7  C8  UNL     1      -1.302  -1.882  -0.010  1.00  0.00     0.065 C 
BRANCH   7   8
HETATM    8  C9  UNL     1      -1.956  -1.786   1.377  1.00  0.00     0.295 C 
BRANCH   8   9
HETATM    9  N1  UNL     1      -2.833  -2.936   1.603  1.00  0.00     0.342 N 
HETATM   10  C10 UNL     1      -3.528  -2.892   2.887  1.00  0.00     0.328 C 
ENDBRANCH   8   9
ENDBRANCH   7   8
ENDBRANCH   4   7
BRANCH   2  11
HETATM   11  O2  UNL     1       3.268   0.083  -0.373  1.00  0.00    -0.326 OA
HETATM   12  C11 UNL     1       3.834  -1.205  -0.316  1.00  0.00     0.181 C 
ENDBRANCH   2  11
BRANCH   6  13
HETATM   13  O1  UNL     1      -0.573   2.839  -1.199  1.00  0.00    -0.326 OA
HETATM   14  C7  UNL     1      -0.787   3.741  -0.138  1.00  0.00     0.181 C 
ENDBRANCH   6  13
BRANCH   1  15
HETATM   15  O3  UNL     1       2.191   2.489  -1.082  1.00  0.00    -0.324 OA
HETATM   16  C12 UNL     1       2.563   2.624  -2.435  1.00  0.00     0.182 C 
ENDBRANCH   1  15
TORSDOF 6
