REMARK  0 active torsions:
REMARK  status: ('A' for Active; 'I' for Inactive)
ROOT
HETATM    1  C1  UNL     1      -1.978   1.755  -0.303  1.00  0.00     0.000 C 
HETATM    2  C2  UNL     1      -3.069   0.763   0.143  1.00  0.00     0.003 C 
HETATM    3  C3  UNL     1      -2.656  -0.022   1.393  1.00  0.00     0.031 C 
HETATM    4  C4  UNL     1      -1.411  -0.886   1.140  1.00  0.00     0.129 C 
HETATM    5  C5  UNL     1      -0.553  -0.302   0.002  1.00  0.00     0.056 C 
HETATM    6  C6  UNL     1      -0.522   1.253  -0.086  1.00  0.00     0.005 C 
HETATM    7  C7  UNL     1       0.375   1.722  -1.275  1.00  0.00     0.001 C 
HETATM    8  C8  UNL     1       1.774   1.070  -1.347  1.00  0.00     0.007 C 
HETATM    9  C9  UNL     1       1.541  -0.436  -1.364  1.00  0.00     0.056 C 
HETATM   10  C10 UNL     1       0.860  -0.865  -0.070  1.00  0.00     0.131 C 
HETATM   11  O1  UNL     1       0.977  -2.261  -0.034  1.00  0.00    -0.301 OA
HETATM   12  C11 UNL     1       2.138  -2.522  -0.719  1.00  0.00     0.292 C 
HETATM   13  C12 UNL     1       2.624  -1.468  -1.424  1.00  0.00     0.043 C 
HETATM   14  C13 UNL     1       3.779  -1.424  -2.098  1.00  0.00     0.001 C 
HETATM   15  O2  UNL     1       2.678  -3.606  -0.674  1.00  0.00    -0.260 OA
HETATM   16  C14 UNL     1       0.048   1.931   1.184  1.00  0.00     0.000 C 
HETATM   17  C15 UNL     1      -0.682  -1.146   2.463  1.00  0.00     0.033 C 
HETATM   18  O3  UNL     1      -1.847  -2.149   0.693  1.00  0.00    -0.226 OA
ENDROOT
TORSDOF 0
