REMARK  4 active torsions:
REMARK  status: ('A' for Active; 'I' for Inactive)
REMARK    1  A    between atoms: C1_1  and  O2_21 
REMARK    2  A    between atoms: C9_10  and  C10_11 
REMARK    3  A    between atoms: C10_11  and  C11_12 
REMARK    4  A    between atoms: C14_15  and  O1_18 
ROOT
HETATM    1  C1  UNL     1      -3.130   2.687   0.211  1.00  0.00     0.094 A 
HETATM    2  C2  UNL     1      -3.067   1.293   0.337  1.00  0.00     0.024 A 
HETATM    3  C3  UNL     1      -1.857   0.612   0.467  1.00  0.00    -0.001 A 
HETATM    4  C4  UNL     1      -0.643   1.304   0.497  1.00  0.00     0.005 A 
HETATM    5  C5  UNL     1      -0.671   2.697   0.379  1.00  0.00    -0.020 A 
HETATM    6  C6  UNL     1      -1.899   3.359   0.253  1.00  0.00     0.020 A 
HETATM    7  C7  UNL     1       0.608   3.493   0.435  1.00  0.00     0.061 C 
HETATM    8  C8  UNL     1       1.866   2.616   0.355  1.00  0.00     0.255 C 
HETATM    9  N1  UNL     1       1.701   1.429   1.177  1.00  0.00     0.142 N 
HETATM   10  C9  UNL     1       0.664   0.546   0.643  1.00  0.00     0.246 C 
HETATM   11  C18 UNL     1       2.962   0.739   1.405  1.00  0.00     0.286 C 
ENDROOT
BRANCH  10  12
HETATM   12  C10 UNL     1       1.002  -0.153  -0.698  1.00  0.00     0.064 C 
BRANCH  12  13
HETATM   13  C11 UNL     1       0.996  -1.669  -0.793  1.00  0.00    -0.020 A 
HETATM   14  C12 UNL     1       1.161  -2.252  -2.055  1.00  0.00    -0.002 A 
HETATM   15  C13 UNL     1       1.176  -3.636  -2.229  1.00  0.00     0.024 A 
HETATM   16  C14 UNL     1       1.026  -4.529  -1.161  1.00  0.00     0.094 A 
HETATM   17  C15 UNL     1       0.865  -3.938   0.101  1.00  0.00     0.024 A 
HETATM   18  C16 UNL     1       0.856  -2.552   0.283  1.00  0.00    -0.002 A 
BRANCH  16  19
HETATM   19  O1  UNL     1       1.051  -5.878  -1.413  1.00  0.00    -0.328 OA
HETATM   20  C17 UNL     1       0.891  -6.764  -0.330  1.00  0.00     0.181 C 
ENDBRANCH  16  19
ENDBRANCH  12  13
ENDBRANCH  10  12
BRANCH   1  21
HETATM   21  O2  UNL     1      -4.360   3.288   0.120  1.00  0.00    -0.328 OA
HETATM   22  C19 UNL     1      -4.431   4.689   0.252  1.00  0.00     0.181 C 
ENDBRANCH   1  21
TORSDOF 4
