REMARK  5 active torsions:
REMARK  status: ('A' for Active; 'I' for Inactive)
REMARK    1  A    between atoms: C2_2  and  C3_3 
REMARK    2  A    between atoms: C3_3  and  C5_5 
REMARK    3  A    between atoms: C5_5  and  C6_6 
REMARK    4  A    between atoms: C6_6  and  C7_7 
REMARK    5  A    between atoms: C8_8  and  C9_9 
ROOT
HETATM    1  C6  UNL     1       0.364   0.324   0.001  1.00  0.00     0.030 C 
ENDROOT
BRANCH   1   2
HETATM    2  C5  UNL     1      -1.056   0.913   0.001  1.00  0.00     0.031 C 
BRANCH   2   3
HETATM    3  C3  UNL     1      -1.173   2.427   0.000  1.00  0.00    -0.022 C 
HETATM    4  C4  UNL     1      -0.094   3.239  -0.000  1.00  0.00    -0.005 C 
BRANCH   3   5
HETATM    5  C2  UNL     1      -2.499   3.075   0.000  1.00  0.00    -0.004 C 
HETATM    6  C1  UNL     1      -3.673   2.415   0.000  1.00  0.00    -0.000 C 
ENDBRANCH   3   5
ENDBRANCH   2   3
ENDBRANCH   1   2
BRANCH   1   7
HETATM    7  C7  UNL     1       0.382  -1.187   0.002  1.00  0.00    -0.032 C 
HETATM    8  C8  UNL     1       1.495  -1.943   0.001  1.00  0.00    -0.015 C 
HETATM    9  C10 UNL     1       2.891  -1.364  -0.001  1.00  0.00     0.029 C 
BRANCH   8  10
HETATM   10  C9  UNL     1       1.463  -3.456   0.001  1.00  0.00     0.204 C 
HETATM   11  O1  UNL     1       0.154  -4.011   0.010  1.00  0.00    -0.216 OA
ENDBRANCH   8  10
ENDBRANCH   1   7
TORSDOF 5
