REMARK  7 active torsions:
REMARK  status: ('A' for Active; 'I' for Inactive)
REMARK    1  A    between atoms: C2_2  and  C3_3 
REMARK    2  A    between atoms: C3_3  and  C5_5 
REMARK    3  A    between atoms: C5_5  and  C6_6 
REMARK    4  A    between atoms: C6_6  and  C7_7 
REMARK    5  A    between atoms: C8_8  and  C9_9 
REMARK    6  A    between atoms: C9_9  and  O1_10 
REMARK    7  A    between atoms: O1_10  and  C10_11 
ROOT
HETATM    1  C7  UNL     1       0.261  -0.197   0.002  1.00  0.00    -0.032 C 
HETATM    2  C8  UNL     1       1.369  -0.962   0.002  1.00  0.00    -0.018 C 
HETATM    3  C12 UNL     1       2.769  -0.390   0.001  1.00  0.00     0.029 C 
ENDROOT
BRANCH   1   4
HETATM    4  C6  UNL     1       0.249   1.314   0.001  1.00  0.00     0.030 C 
BRANCH   4   5
HETATM    5  C5  UNL     1      -1.172   1.905   0.001  1.00  0.00     0.031 C 
BRANCH   5   6
HETATM    6  C3  UNL     1      -1.287   3.419   0.000  1.00  0.00    -0.022 C 
HETATM    7  C4  UNL     1      -0.206   4.228  -0.000  1.00  0.00    -0.005 C 
BRANCH   6   8
HETATM    8  C2  UNL     1      -2.612   4.069  -0.000  1.00  0.00    -0.004 C 
HETATM    9  C1  UNL     1      -3.788   3.413   0.000  1.00  0.00    -0.000 C 
ENDBRANCH   6   8
ENDBRANCH   5   6
ENDBRANCH   4   5
ENDBRANCH   1   4
BRANCH   2  10
HETATM   10  C9  UNL     1       1.323  -2.479   0.002  1.00  0.00     0.174 C 
BRANCH  10  11
HETATM   11  O1  UNL     1       0.008  -2.991   0.007  1.00  0.00    -0.297 OA
BRANCH  11  12
HETATM   12  C10 UNL     1      -0.239  -4.332   0.005  1.00  0.00     0.273 C 
HETATM   13  O2  UNL     1      -1.366  -4.782   0.008  1.00  0.00    -0.264 OA
HETATM   14  C11 UNL     1       0.976  -5.243  -0.001  1.00  0.00     0.106 C 
ENDBRANCH  11  12
ENDBRANCH  10  11
ENDBRANCH   2  10
TORSDOF 7
