REMARK  0 active torsions:
REMARK  status: ('A' for Active; 'I' for Inactive)
ROOT
HETATM    1  C1  UNL     1       3.062   0.527   0.081  1.00  0.00     0.000 A 
HETATM    2  C2  UNL     1       3.103  -0.859  -0.051  1.00  0.00     0.000 A 
HETATM    3  C3  UNL     1       1.911  -1.589  -0.132  1.00  0.00     0.003 A 
HETATM    4  C4  UNL     1       0.678  -0.931  -0.082  1.00  0.00     0.042 A 
HETATM    5  C5  UNL     1       0.634   0.470   0.052  1.00  0.00     0.042 A 
HETATM    6  C6  UNL     1       1.830   1.191   0.132  1.00  0.00     0.003 A 
HETATM    7  C7  UNL     1      -0.664   1.190   0.107  1.00  0.00     0.192 A 
HETATM    8  C8  UNL     1      -1.912   0.386   0.018  1.00  0.00     0.020 A 
HETATM    9  C9  UNL     1      -1.849  -0.956  -0.110  1.00  0.00     0.041 A 
HETATM   10  C10 UNL     1      -0.576  -1.716  -0.169  1.00  0.00     0.196 A 
HETATM   11  O1  UNL     1      -0.586  -2.938  -0.285  1.00  0.00    -0.287 OA
HETATM   12  C11 UNL     1      -3.237   1.109   0.073  1.00  0.00     0.035 C 
HETATM   13  O2  UNL     1      -0.722   2.410   0.223  1.00  0.00    -0.287 OA
ENDROOT
TORSDOF 0
