REMARK  1 active torsions:
REMARK  status: ('A' for Active; 'I' for Inactive)
REMARK    1  A    between atoms: C4_5  and  C6_7 
REMARK       I    between atoms: C6_7  and  N2_9 
ROOT
HETATM    1  C1  UNL     1       1.843  -1.823  -0.217  1.00  0.00     0.021 A 
HETATM    2  C2  UNL     1       0.821  -2.622   0.309  1.00  0.00     0.099 A 
HETATM    3  N1  UNL     1      -0.308  -2.134   0.837  1.00  0.00    -0.242 NA
HETATM    4  C3  UNL     1      -0.453  -0.802   0.850  1.00  0.00     0.104 A 
HETATM    5  C4  UNL     1       0.498   0.086   0.336  1.00  0.00     0.077 A 
HETATM    6  C5  UNL     1       1.682  -0.439  -0.202  1.00  0.00     0.008 A 
ENDROOT
BRANCH   5   7
HETATM    7  C6  UNL     1       0.298   1.568   0.372  1.00  0.00     0.276 C 
HETATM    8  O1  UNL     1       1.183   2.296   0.787  1.00  0.00    -0.266 OA
HETATM    9  N2  UNL     1      -0.829   2.137  -0.144  1.00  0.00    -0.232 NA
HETATM   10  C7  UNL     1      -1.937   1.408  -0.760  1.00  0.00     0.155 C 
ENDBRANCH   5   7
TORSDOF 1
