REMARK  5 active torsions:
REMARK  status: ('A' for Active; 'I' for Inactive)
REMARK    1  A    between atoms: C2_2  and  C3_3 
REMARK    2  A    between atoms: C3_3  and  C5_5 
REMARK    3  A    between atoms: C5_5  and  C6_6 
REMARK    4  A    between atoms: C6_6  and  C7_7 
REMARK    5  A    between atoms: C7_7  and  C8_8 
ROOT
HETATM    1  C5  UNL     1       0.146  -0.271   0.689  1.00  0.00     0.000 C 
ENDROOT
BRANCH   1   2
HETATM    2  C3  UNL     1      -1.215  -1.007   0.749  1.00  0.00     0.000 C 
HETATM    3  C4  UNL     1      -2.025  -0.547   1.973  1.00  0.00     0.000 C 
BRANCH   2   4
HETATM    4  C2  UNL     1      -1.021  -2.537   0.723  1.00  0.00     0.000 C 
HETATM    5  C1  UNL     1      -2.330  -3.331   0.611  1.00  0.00     0.000 C 
ENDBRANCH   2   4
ENDBRANCH   1   2
BRANCH   1   6
HETATM    6  C6  UNL     1       0.239   0.692  -0.507  1.00  0.00     0.000 C 
BRANCH   6   7
HETATM    7  C7  UNL     1       1.579   1.443  -0.559  1.00  0.00     0.000 C 
BRANCH   7   8
HETATM    8  C8  UNL     1       1.672   2.349  -1.797  1.00  0.00     0.000 C 
HETATM    9  C9  UNL     1       2.994   3.124  -1.849  1.00  0.00     0.000 C 
ENDBRANCH   7   8
ENDBRANCH   6   7
ENDBRANCH   1   6
TORSDOF 5
