REMARK  17 active torsions:
REMARK  status: ('A' for Active; 'I' for Inactive)
REMARK    1  A    between atoms: C2_2  and  C3_3 
REMARK    2  A    between atoms: C3_3  and  C4_4 
REMARK    3  A    between atoms: C4_4  and  C5_5 
REMARK    4  A    between atoms: C5_5  and  C6_6 
REMARK    5  A    between atoms: C6_6  and  C7_7 
REMARK    6  A    between atoms: C7_7  and  C8_8 
REMARK    7  A    between atoms: C8_8  and  C9_9 
REMARK    8  A    between atoms: C9_9  and  C10_10 
REMARK    9  A    between atoms: C10_10  and  C11_11 
REMARK   10  A    between atoms: C11_11  and  C12_12 
REMARK   11  A    between atoms: C12_12  and  C13_13 
REMARK   12  A    between atoms: C13_13  and  C14_14 
REMARK   13  A    between atoms: C14_14  and  C15_15 
REMARK   14  A    between atoms: C15_15  and  C16_16 
REMARK   15  A    between atoms: C16_16  and  C17_17 
REMARK   16  A    between atoms: C17_17  and  C18_18 
REMARK   17  A    between atoms: C18_18  and  O1_19 
ROOT
HETATM    1  C11 UNL     1      -0.648  -0.123   1.103  1.00  0.00     0.000 C 
ENDROOT
BRANCH   1   2
HETATM    2  C10 UNL     1       0.309   0.221  -0.037  1.00  0.00     0.000 C 
BRANCH   2   3
HETATM    3  C9  UNL     1      -0.131  -0.371  -1.377  1.00  0.00     0.000 C 
BRANCH   3   4
HETATM    4  C8  UNL     1       0.826  -0.027  -2.518  1.00  0.00     0.000 C 
BRANCH   4   5
HETATM    5  C7  UNL     1       0.385  -0.621  -3.858  1.00  0.00     0.000 C 
BRANCH   5   6
HETATM    6  C6  UNL     1       1.344  -0.277  -4.998  1.00  0.00     0.000 C 
BRANCH   6   7
HETATM    7  C5  UNL     1       0.902  -0.869  -6.336  1.00  0.00     0.000 C 
BRANCH   7   8
HETATM    8  C4  UNL     1       1.859  -0.525  -7.479  1.00  0.00     0.000 C 
BRANCH   8   9
HETATM    9  C3  UNL     1       1.420  -1.119  -8.817  1.00  0.00     0.000 C 
BRANCH   9  10
HETATM   10  C2  UNL     1       2.377  -0.775  -9.959  1.00  0.00     0.000 C 
HETATM   11  C1  UNL     1       1.945  -1.383 -11.293  1.00  0.00     0.000 C 
ENDBRANCH   9  10
ENDBRANCH   8   9
ENDBRANCH   7   8
ENDBRANCH   6   7
ENDBRANCH   5   6
ENDBRANCH   4   5
ENDBRANCH   3   4
ENDBRANCH   2   3
ENDBRANCH   1   2
BRANCH   1  12
HETATM   12  C12 UNL     1      -0.207   0.469   2.441  1.00  0.00     0.000 C 
BRANCH  12  13
HETATM   13  C13 UNL     1      -1.166   0.127   3.584  1.00  0.00     0.000 C 
BRANCH  13  14
HETATM   14  C14 UNL     1      -0.725   0.719   4.922  1.00  0.00     0.000 C 
BRANCH  14  15
HETATM   15  C15 UNL     1      -1.682   0.375   6.063  1.00  0.00     0.001 C 
BRANCH  15  16
HETATM   16  C16 UNL     1      -1.238   0.963   7.402  1.00  0.00     0.010 C 
BRANCH  16  17
HETATM   17  C17 UNL     1      -2.211   0.643   8.539  1.00  0.00     0.096 C 
BRANCH  17  18
HETATM   18  C18 UNL     1      -1.777   1.238   9.852  1.00  0.00     0.272 C 
HETATM   19  O2  UNL     1      -1.065   2.215   9.887  1.00  0.00    -0.264 OA
BRANCH  18  20
HETATM   20  O1  UNL     1      -2.232   0.615  10.934  1.00  0.00    -0.299 OA
HETATM   21  C19 UNL     1      -1.787   1.225  12.137  1.00  0.00     0.184 C 
ENDBRANCH  18  20
ENDBRANCH  17  18
ENDBRANCH  16  17
ENDBRANCH  15  16
ENDBRANCH  14  15
ENDBRANCH  13  14
ENDBRANCH  12  13
ENDBRANCH   1  12
TORSDOF 17
