REMARK  5 active torsions:
REMARK  status: ('A' for Active; 'I' for Inactive)
REMARK    1  A    between atoms: C2_2  and  C3_3 
REMARK    2  A    between atoms: C3_3  and  C4_4 
REMARK    3  A    between atoms: C4_4  and  C5_5 
REMARK    4  A    between atoms: C5_5  and  C6_6 
REMARK    5  A    between atoms: C6_6  and  C7_7 
ROOT
HETATM    1  C4  UNL     1      -0.164   0.352   0.037  1.00  0.00     0.000 C 
ENDROOT
BRANCH   1   2
HETATM    2  C3  UNL     1       0.332   1.160  -1.162  1.00  0.00     0.000 C 
BRANCH   2   3
HETATM    3  C2  UNL     1      -0.115   2.623  -1.113  1.00  0.00     0.000 C 
HETATM    4  C1  UNL     1       0.426   3.363   0.109  1.00  0.00     0.000 C 
HETATM    5  C9  UNL     1       0.156   3.365  -2.422  1.00  0.00     0.000 C 
ENDBRANCH   2   3
ENDBRANCH   1   2
BRANCH   1   6
HETATM    6  C5  UNL     1       0.158  -1.137  -0.082  1.00  0.00     0.000 C 
BRANCH   6   7
HETATM    7  C6  UNL     1      -0.332  -1.945   1.119  1.00  0.00     0.000 C 
BRANCH   7   8
HETATM    8  C7  UNL     1      -0.010  -3.436   1.002  1.00  0.00     0.000 C 
HETATM    9  C8  UNL     1      -0.502  -4.242   2.203  1.00  0.00     0.000 C 
ENDBRANCH   7   8
ENDBRANCH   6   7
ENDBRANCH   1   6
TORSDOF 5
