REMARK  6 active torsions:
REMARK  status: ('A' for Active; 'I' for Inactive)
REMARK    1  A    between atoms: C2_2  and  C3_3 
REMARK    2  A    between atoms: C3_3  and  C5_5 
REMARK    3  A    between atoms: C5_5  and  C6_6 
REMARK    4  A    between atoms: C6_6  and  C7_7 
REMARK    5  A    between atoms: C7_7  and  C8_8 
REMARK    6  A    between atoms: C8_8  and  C9_9 
ROOT
HETATM    1  C5  UNL     1      -0.834   0.268   0.014  1.00  0.00     0.000 C 
ENDROOT
BRANCH   1   2
HETATM    2  C3  UNL     1      -1.383  -0.285   1.328  1.00  0.00     0.000 C 
HETATM    3  C4  UNL     1      -0.842   0.455   2.553  1.00  0.00     0.000 C 
BRANCH   2   4
HETATM    4  C2  UNL     1      -2.906  -0.396   1.332  1.00  0.00     0.000 C 
HETATM    5  C1  UNL     1      -3.440  -1.166   2.541  1.00  0.00     0.000 C 
ENDBRANCH   2   4
ENDBRANCH   1   2
BRANCH   1   6
HETATM    6  C6  UNL     1       0.644  -0.064  -0.197  1.00  0.00     0.000 C 
BRANCH   6   7
HETATM    7  C7  UNL     1       1.170   0.410  -1.551  1.00  0.00     0.003 C 
BRANCH   7   8
HETATM    8  C8  UNL     1       2.648   0.080  -1.760  1.00  0.00     0.036 C 
BRANCH   8   9
HETATM    9  C9  UNL     1       3.174   0.555  -3.115  1.00  0.00     0.182 C 
HETATM   10  O1  UNL     1       4.535   0.205  -3.207  1.00  0.00    -0.221 OA
ENDBRANCH   8   9
ENDBRANCH   7   8
ENDBRANCH   6   7
ENDBRANCH   1   6
TORSDOF 6
