REMARK  2 active torsions:
REMARK  status: ('A' for Active; 'I' for Inactive)
REMARK    1  A    between atoms: C8_9  and  C10_12 
REMARK    2  A    between atoms: C10_12  and  C11_13 
ROOT
HETATM    1  C1  UNL     1       2.293  -1.953   1.824  1.00  0.00     0.026 A 
HETATM    2  C2  UNL     1       3.447  -1.195   1.508  1.00  0.00     0.127 A 
HETATM    3  C3  UNL     1       3.322   0.150   1.084  1.00  0.00     0.029 A 
HETATM    4  C4  UNL     1       2.039   0.738   0.961  1.00  0.00     0.134 A 
HETATM    5  C5  UNL     1       0.879  -0.025   1.260  1.00  0.00     0.082 A 
HETATM    6  C6  UNL     1       1.008  -1.365   1.721  1.00  0.00     0.097 A 
HETATM    7  O1  UNL     1      -0.078  -2.090   2.062  1.00  0.00    -0.330 OA
HETATM    8  C7  UNL     1      -1.316  -1.436   2.361  1.00  0.00     0.157 C 
HETATM    9  C8  UNL     1      -1.650  -0.381   1.295  1.00  0.00     0.097 C 
HETATM   10  C9  UNL     1      -0.482   0.561   1.084  1.00  0.00     0.179 C 
HETATM   11  O2  UNL     1      -0.746   1.705   0.785  1.00  0.00    -0.291 OA
HETATM   12  O5  UNL     1       1.932   2.012   0.551  1.00  0.00    -0.190 OA
HETATM   13  C18 UNL     1       4.527   0.937   0.773  1.00  0.00     0.035 C 
HETATM   14  O6  UNL     1       4.664  -1.754   1.611  1.00  0.00    -0.191 OA
HETATM   15  C19 UNL     1       2.428  -3.352   2.266  1.00  0.00     0.035 C 
ENDROOT
BRANCH   9  16
HETATM   16  C10 UNL     1      -2.049  -1.031  -0.033  1.00  0.00     0.037 C 
BRANCH  16  17
HETATM   17  C11 UNL     1      -2.520  -0.035  -1.006  1.00  0.00    -0.020 A 
HETATM   18  C12 UNL     1      -1.672   0.396  -2.053  1.00  0.00     0.022 A 
HETATM   19  C13 UNL     1      -2.107   1.355  -3.002  1.00  0.00     0.119 A 
HETATM   20  C14 UNL     1      -3.398   1.887  -2.902  1.00  0.00     0.119 A 
HETATM   21  O4  UNL     1      -1.494   1.900  -4.055  1.00  0.00    -0.300 OA
HETATM   22  C15 UNL     1      -4.250   1.455  -1.852  1.00  0.00     0.026 A 
HETATM   23  O3  UNL     1      -3.588   2.760  -3.893  1.00  0.00    -0.300 OA
HETATM   24  C16 UNL     1      -3.820   0.500  -0.906  1.00  0.00    -0.002 A 
HETATM   25  C17 UNL     1      -2.393   2.830  -4.699  1.00  0.00     0.304 A 
ENDBRANCH  16  17
ENDBRANCH   9  16
TORSDOF 2
