REMARK  8 active torsions:
REMARK  status: ('A' for Active; 'I' for Inactive)
REMARK    1  A    between atoms: C2_2  and  C3_3 
REMARK    2  A    between atoms: C3_3  and  C4_4 
REMARK    3  A    between atoms: C4_4  and  C5_5 
REMARK    4  A    between atoms: C5_5  and  C6_6 
REMARK    5  A    between atoms: C6_6  and  C7_7 
REMARK    6  A    between atoms: C7_7  and  C8_8 
REMARK    7  A    between atoms: C8_8  and  C9_9 
REMARK    8  A    between atoms: C9_9  and  O1_10 
ROOT
HETATM    1  C6  UNL     1      -0.506  -0.024   0.428  1.00  0.00     0.151 C 
HETATM    2  O3  UNL     1      -1.549  -0.627   0.330  1.00  0.00    -0.296 OA
ENDROOT
BRANCH   1   3
HETATM    3  C5  UNL     1       0.445   0.076  -0.734  1.00  0.00     0.065 C 
BRANCH   3   4
HETATM    4  C4  UNL     1      -0.125  -0.547  -2.010  1.00  0.00     0.008 C 
BRANCH   4   5
HETATM    5  C3  UNL     1       0.850  -0.481  -3.185  1.00  0.00     0.000 C 
BRANCH   5   6
HETATM    6  C2  UNL     1       0.271  -1.088  -4.465  1.00  0.00     0.000 C 
HETATM    7  C1  UNL     1       1.242  -1.014  -5.644  1.00  0.00     0.000 C 
ENDBRANCH   5   6
ENDBRANCH   4   5
ENDBRANCH   3   4
ENDBRANCH   1   3
BRANCH   1   8
HETATM    8  C7  UNL     1      -0.119   0.652   1.717  1.00  0.00     0.075 C 
BRANCH   8   9
HETATM    9  C8  UNL     1      -1.119   0.379   2.840  1.00  0.00     0.104 C 
BRANCH   9  10
HETATM   10  C9  UNL     1      -0.686   0.975   4.153  1.00  0.00     0.272 C 
HETATM   11  O2  UNL     1       0.027   1.951   4.188  1.00  0.00    -0.264 OA
BRANCH  10  12
HETATM   12  O1  UNL     1      -1.141   0.350   5.237  1.00  0.00    -0.299 OA
HETATM   13  C10 UNL     1      -0.695   0.959   6.438  1.00  0.00     0.184 C 
ENDBRANCH  10  12
ENDBRANCH   9  10
ENDBRANCH   8   9
ENDBRANCH   1   8
TORSDOF 8
