REMARK  14 active torsions:
REMARK  status: ('A' for Active; 'I' for Inactive)
REMARK    1  A    between atoms: C9_9  and  C11_12 
REMARK    2  A    between atoms: C11_12  and  C12_13 
REMARK    3  A    between atoms: C12_13  and  C13_14 
REMARK    4  A    between atoms: C13_14  and  C14_15 
REMARK    5  A    between atoms: C14_15  and  C15_16 
REMARK    6  A    between atoms: C15_16  and  C16_17 
REMARK    7  A    between atoms: C16_17  and  C17_18 
REMARK    8  A    between atoms: C17_18  and  C18_19 
REMARK    9  A    between atoms: C18_19  and  C19_20 
REMARK   10  A    between atoms: C19_20  and  C20_21 
REMARK   11  A    between atoms: C20_21  and  C21_22 
REMARK   12  A    between atoms: C21_22  and  C22_23 
REMARK   13  A    between atoms: C22_23  and  C23_24 
REMARK   14  A    between atoms: C23_24  and  C24_25 
ROOT
HETATM    1  C12 UNL     1      -3.567  -0.213   1.898  1.00  0.00     0.006 C 
ENDROOT
BRANCH   1   2
HETATM    2  C11 UNL     1      -4.729   0.643   2.404  1.00  0.00     0.044 C 
BRANCH   2   3
HETATM    3  C9  UNL     1      -5.998  -0.156   2.584  1.00  0.00     0.040 A 
HETATM    4  C8  UNL     1      -5.885  -1.498   2.719  1.00  0.00     0.055 A 
HETATM    5  C7  UNL     1      -7.070  -2.357   2.900  1.00  0.00     0.198 A 
HETATM    6  C4  UNL     1      -8.375  -1.639   2.922  1.00  0.00     0.055 A 
HETATM    7  O1  UNL     1      -6.883  -3.547   3.012  1.00  0.00    -0.286 OA
HETATM    8  C3  UNL     1      -8.401  -0.217   2.770  1.00  0.00     0.063 A 
HETATM    9  C5  UNL     1      -9.576  -2.369   3.094  1.00  0.00     0.005 A 
HETATM   10  C2  UNL     1      -9.664   0.443   2.793  1.00  0.00     0.017 A 
HETATM   11  N1  UNL     1      -7.231   0.482   2.607  1.00  0.00    -0.329 N 
HETATM   12  C1  UNL     1     -10.862  -0.293   2.965  1.00  0.00     0.002 A 
HETATM   13  C6  UNL     1     -10.817  -1.695   3.115  1.00  0.00     0.000 A 
HETATM   14  C10 UNL     1      -7.244   1.955   2.449  1.00  0.00     0.130 C 
ENDBRANCH   2   3
ENDBRANCH   1   2
BRANCH   1  15
HETATM   15  C13 UNL     1      -2.400   0.627   1.379  1.00  0.00     0.000 C 
BRANCH  15  16
HETATM   16  C14 UNL     1      -1.231  -0.227   0.891  1.00  0.00     0.000 C 
BRANCH  16  17
HETATM   17  C15 UNL     1      -0.063   0.611   0.371  1.00  0.00     0.000 C 
BRANCH  17  18
HETATM   18  C16 UNL     1       1.107  -0.242  -0.119  1.00  0.00     0.000 C 
BRANCH  18  19
HETATM   19  C17 UNL     1       2.273   0.598  -0.639  1.00  0.00     0.000 C 
BRANCH  19  20
HETATM   20  C18 UNL     1       3.443  -0.258  -1.129  1.00  0.00     0.000 C 
BRANCH  20  21
HETATM   21  C19 UNL     1       4.611   0.582  -1.648  1.00  0.00     0.000 C 
BRANCH  21  22
HETATM   22  C20 UNL     1       5.781  -0.273  -2.137  1.00  0.00     0.000 C 
BRANCH  22  23
HETATM   23  C21 UNL     1       6.947   0.566  -2.656  1.00  0.00     0.000 C 
BRANCH  23  24
HETATM   24  C22 UNL     1       8.117  -0.289  -3.147  1.00  0.00     0.000 C 
BRANCH  24  25
HETATM   25  C23 UNL     1       9.285   0.551  -3.666  1.00  0.00     0.000 C 
BRANCH  25  26
HETATM   26  C24 UNL     1      10.455  -0.303  -4.156  1.00  0.00     0.000 C 
HETATM   27  C25 UNL     1      11.621   0.535  -4.676  1.00  0.00     0.000 C 
ENDBRANCH  25  26
ENDBRANCH  24  25
ENDBRANCH  23  24
ENDBRANCH  22  23
ENDBRANCH  21  22
ENDBRANCH  20  21
ENDBRANCH  19  20
ENDBRANCH  18  19
ENDBRANCH  17  18
ENDBRANCH  16  17
ENDBRANCH  15  16
ENDBRANCH   1  15
TORSDOF 14
