REMARK  10 active torsions:
REMARK  status: ('A' for Active; 'I' for Inactive)
REMARK    1  A    between atoms: C1_1  and  C27_37 
REMARK    2  A    between atoms: C5_5  and  O2_7 
REMARK    3  A    between atoms: O2_7  and  C6_8 
REMARK    4  A    between atoms: C9_11  and  C13_16 
REMARK    5  A    between atoms: C11_13  and  O3_14 
REMARK    6  A    between atoms: C13_16  and  C14_17 
REMARK    7  A    between atoms: C15_18  and  C16_19 
REMARK    8  A    between atoms: C16_19  and  C17_20 
REMARK    9  A    between atoms: C19_22  and  O5_28 
REMARK   10  A    between atoms: C20_23  and  O4_26 
ROOT
HETATM    1  C6  UNL     1       1.702  -0.985   2.914  1.00  0.00     0.119 A 
HETATM    2  C7  UNL     1       0.966  -0.902   1.719  1.00  0.00     0.026 A 
HETATM    3  C8  UNL     1       1.494  -0.221   0.609  1.00  0.00    -0.002 A 
HETATM    4  C9  UNL     1       2.762   0.379   0.691  1.00  0.00    -0.020 A 
HETATM    5  C10 UNL     1       3.500   0.296   1.885  1.00  0.00     0.022 A 
HETATM    6  C11 UNL     1       2.973  -0.384   2.997  1.00  0.00     0.116 A 
ENDROOT
BRANCH   4   7
HETATM    7  C13 UNL     1       3.323   1.099  -0.482  1.00  0.00     0.036 C 
BRANCH   7   8
HETATM    8  C14 UNL     1       2.284   2.005  -1.135  1.00  0.00     0.093 C 
HETATM    9  C15 UNL     1       1.632   1.311  -2.335  1.00  0.00     0.044 C 
HETATM   10  C25 UNL     1       2.565   1.789  -3.456  1.00  0.00     0.153 C 
HETATM   11  O6  UNL     1       3.010   3.096  -3.103  1.00  0.00    -0.302 OA
HETATM   12  C26 UNL     1       2.927   3.196  -1.781  1.00  0.00     0.272 C 
HETATM   13  O7  UNL     1       3.312   4.146  -1.140  1.00  0.00    -0.264 OA
BRANCH   9  14
HETATM   14  C16 UNL     1       0.225   1.855  -2.574  1.00  0.00     0.029 C 
BRANCH  14  15
HETATM   15  C17 UNL     1      -0.424   1.199  -3.739  1.00  0.00    -0.020 A 
HETATM   16  C18 UNL     1      -0.684   1.937  -4.907  1.00  0.00     0.022 A 
HETATM   17  C19 UNL     1      -1.298   1.322  -6.012  1.00  0.00     0.116 A 
HETATM   18  C20 UNL     1      -1.654  -0.039  -5.948  1.00  0.00     0.116 A 
HETATM   19  C21 UNL     1      -1.394  -0.776  -4.779  1.00  0.00     0.026 A 
HETATM   20  C22 UNL     1      -0.780  -0.159  -3.676  1.00  0.00    -0.002 A 
BRANCH  17  21
HETATM   21  O5  UNL     1      -1.539   2.020  -7.104  1.00  0.00    -0.326 OA
HETATM   22  C24 UNL     1      -2.144   1.353  -8.202  1.00  0.00     0.181 C 
ENDBRANCH  17  21
BRANCH  18  23
HETATM   23  O4  UNL     1      -2.230  -0.624  -6.979  1.00  0.00    -0.326 OA
HETATM   24  C23 UNL     1      -2.479  -2.020  -6.899  1.00  0.00     0.181 C 
ENDBRANCH  18  23
ENDBRANCH  14  15
ENDBRANCH   9  14
ENDBRANCH   7   8
ENDBRANCH   4   7
BRANCH   6  25
HETATM   25  O3  UNL     1       3.670  -0.458   4.114  1.00  0.00    -0.326 OA
HETATM   26  C12 UNL     1       3.685  -1.695   4.810  1.00  0.00     0.181 C 
ENDBRANCH   6  25
BRANCH   1  27
HETATM   27  O2  UNL     1       1.201  -1.625   3.951  1.00  0.00    -0.302 OA
BRANCH  27  28
HETATM   28  C5  UNL     1      -0.212  -1.646   4.103  1.00  0.00     0.274 C 
HETATM   29  C4  UNL     1      -0.590  -2.278   5.459  1.00  0.00     0.241 C 
HETATM   30  C3  UNL     1      -2.112  -2.195   5.709  1.00  0.00     0.220 C 
HETATM   31  O8  UNL     1      -0.172  -3.631   5.459  1.00  0.00    -0.215 OA
HETATM   32  C2  UNL     1      -2.596  -0.745   5.490  1.00  0.00     0.215 C 
HETATM   33  O9  UNL     1      -2.404  -2.606   7.035  1.00  0.00    -0.218 OA
HETATM   34  C1  UNL     1      -2.113  -0.187   4.131  1.00  0.00     0.184 C 
HETATM   35  O10 UNL     1      -4.012  -0.701   5.521  1.00  0.00    -0.218 OA
HETATM   36  O1  UNL     1      -0.700  -0.313   4.042  1.00  0.00    -0.326 OA
BRANCH  34  37
HETATM   37  C27 UNL     1      -2.436   1.300   3.946  1.00  0.00     0.214 C 
HETATM   38  O11 UNL     1      -2.176   1.643   2.604  1.00  0.00    -0.218 OA
ENDBRANCH  34  37
ENDBRANCH  27  28
ENDBRANCH   1  27
TORSDOF 10
