REMARK  3 active torsions:
REMARK  status: ('A' for Active; 'I' for Inactive)
REMARK    1  A    between atoms: C15_15  and  C18_19 
REMARK    2  A    between atoms: C18_19  and  C19_21 
REMARK    3  A    between atoms: C19_21  and  O3_22 
ROOT
HETATM    1  C1  UNL     1      -5.043  -0.082  -1.355  1.00  0.00     0.034 C 
HETATM    2  C2  UNL     1      -5.598   0.982  -0.389  1.00  0.00     0.156 C 
HETATM    3  C3  UNL     1      -5.065   0.801   1.043  1.00  0.00     0.055 C 
HETATM    4  C4  UNL     1      -3.553   0.731   0.990  1.00  0.00    -0.046 C 
HETATM    5  C5  UNL     1      -2.965  -0.389   0.135  1.00  0.00     0.015 C 
HETATM    6  C6  UNL     1      -3.504  -0.160  -1.301  1.00  0.00     0.006 C 
HETATM    7  C7  UNL     1      -1.410  -0.430   0.197  1.00  0.00     0.007 C 
HETATM    8  C8  UNL     1      -0.799   0.979   0.262  1.00  0.00     0.023 C 
HETATM    9  C9  UNL     1      -1.295   1.672   1.539  1.00  0.00     0.029 C 
HETATM   10  C10 UNL     1      -2.803   1.645   1.643  1.00  0.00    -0.034 C 
HETATM   11  C11 UNL     1       0.711   0.922   0.191  1.00  0.00    -0.047 C 
HETATM   12  C12 UNL     1       1.475  -0.379   0.117  1.00  0.00     0.043 C 
HETATM   13  C13 UNL     1       0.750  -1.508  -0.664  1.00  0.00     0.006 C 
HETATM   14  C14 UNL     1      -0.748  -1.250  -0.926  1.00  0.00     0.001 C 
HETATM   15  C15 UNL     1       2.855   0.086  -0.439  1.00  0.00     0.164 C 
HETATM   16  C16 UNL     1       2.957   1.533   0.090  1.00  0.00     0.059 C 
HETATM   17  C17 UNL     1       1.525   1.984   0.184  1.00  0.00    -0.032 C 
HETATM   18  O1  UNL     1       2.832   0.152  -1.857  1.00  0.00    -0.223 OA
HETATM   19  C21 UNL     1       1.689  -0.818   1.570  1.00  0.00     0.007 C 
HETATM   20  C22 UNL     1      -3.492  -1.736   0.656  1.00  0.00     0.004 C 
HETATM   21  O4  UNL     1      -7.010   0.912  -0.373  1.00  0.00    -0.223 OA
ENDROOT
BRANCH  15  22
HETATM   22  C18 UNL     1       4.055  -0.777  -0.055  1.00  0.00     0.210 C 
HETATM   23  O2  UNL     1       3.842  -2.076  -0.559  1.00  0.00    -0.218 OA
BRANCH  22  24
HETATM   24  C19 UNL     1       5.318  -0.213  -0.705  1.00  0.00     0.178 C 
BRANCH  24  25
HETATM   25  O3  UNL     1       6.436  -0.822  -0.100  1.00  0.00    -0.349 OA
HETATM   26  C20 UNL     1       7.664  -0.373  -0.623  1.00  0.00     0.174 C 
ENDBRANCH  24  25
ENDBRANCH  22  24
ENDBRANCH  15  22
TORSDOF 3
