REMARK  2 active torsions:
REMARK  status: ('A' for Active; 'I' for Inactive)
REMARK    1  A    between atoms: C3_3  and  S1_4 
REMARK    2  A    between atoms: S1_4  and  S2_5 
ROOT
HETATM    1  S1  UNL     1      -1.709   0.342   0.521  1.00  0.00     0.116 S 
HETATM    2  O1  UNL     1      -2.191   0.689  -0.805  1.00  0.00    -0.241 OA
ENDROOT
BRANCH   1   3
HETATM    3  C3  UNL     1       0.057   0.389   0.521  1.00  0.00     0.070 C 
HETATM    4  C2  UNL     1       0.697   1.568   0.521  1.00  0.00    -0.016 C 
HETATM    5  C1  UNL     1       2.201   1.568   0.521  1.00  0.00     0.031 C 
ENDBRANCH   1   3
BRANCH   1   6
HETATM    6  S2  UNL     1      -2.158  -1.643   0.650  1.00  0.00    -0.045 SA
HETATM    7  C4  UNL     1      -1.510  -2.311  -0.907  1.00  0.00     0.084 C 
ENDBRANCH   1   6
TORSDOF 2
