REMARK  7 active torsions:
REMARK  status: ('A' for Active; 'I' for Inactive)
REMARK    1  A    between atoms: C6_6  and  O1_7 
REMARK    2  A    between atoms: C18_23  and  C22_28 
REMARK    3  A    between atoms: C22_28  and  C23_29 
REMARK    4  A    between atoms: C26_32  and  O5_35 
REMARK    5  A    between atoms: O5_35  and  C29_36 
REMARK    6  A    between atoms: C30_37  and  O7_44 
REMARK    7  A    between atoms: C33_40  and  C35_42 
ROOT
HETATM    1  C1  UNL     1      -1.770   1.757  -2.433  1.00  0.00     0.022 A 
HETATM    2  C2  UNL     1      -0.375   1.837  -2.303  1.00  0.00    -0.018 A 
HETATM    3  C3  UNL     1       0.399   0.659  -2.260  1.00  0.00     0.019 A 
HETATM    4  C4  UNL     1      -0.253  -0.584  -2.303  1.00  0.00     0.122 A 
HETATM    5  C5  UNL     1      -1.643  -0.650  -2.420  1.00  0.00     0.144 A 
HETATM    6  C6  UNL     1      -2.401   0.516  -2.489  1.00  0.00     0.118 A 
HETATM    7  O2  UNL     1      -2.323  -1.841  -2.470  1.00  0.00    -0.301 OA
HETATM    8  C8  UNL     1      -1.548  -2.970  -2.394  1.00  0.00     0.122 A 
HETATM    9  C9  UNL     1      -0.164  -2.911  -2.270  1.00  0.00     0.123 A 
HETATM   10  O3  UNL     1       0.516  -1.722  -2.219  1.00  0.00    -0.303 OA
HETATM   11  C10 UNL     1       0.585  -4.085  -2.193  1.00  0.00     0.031 A 
HETATM   12  C11 UNL     1      -0.053  -5.334  -2.234  1.00  0.00     0.054 A 
HETATM   13  C12 UNL     1      -1.453  -5.389  -2.379  1.00  0.00    -0.014 A 
HETATM   14  C13 UNL     1      -2.197  -4.202  -2.446  1.00  0.00     0.023 A 
HETATM   15  C14 UNL     1      -2.154  -6.725  -2.395  1.00  0.00     0.051 C 
HETATM   16  C15 UNL     1      -1.196  -7.883  -2.696  1.00  0.00     0.109 C 
HETATM   17  N1  UNL     1       0.003  -7.802  -1.859  1.00  0.00    -0.314 N 
HETATM   18  C16 UNL     1       0.774  -6.599  -2.193  1.00  0.00     0.257 C 
HETATM   19  O4  UNL     1       1.962  -6.618  -2.415  1.00  0.00    -0.267 OA
HETATM   20  C17 UNL     1       0.374  -8.771  -0.846  1.00  0.00     0.129 C 
HETATM   21  C18 UNL     1       1.901   0.729  -2.097  1.00  0.00     0.106 C 
HETATM   22  N2  UNL     1       2.481   2.044  -2.408  1.00  0.00    -0.364 N 
HETATM   23  C19 UNL     1       1.732   3.102  -1.728  1.00  0.00     0.102 C 
HETATM   24  C20 UNL     1       0.302   3.185  -2.268  1.00  0.00     0.050 C 
HETATM   25  C21 UNL     1       3.620   2.260  -3.258  1.00  0.00     0.121 C 
ENDROOT
BRANCH  21  26
HETATM   26  C22 UNL     1       2.241   0.387  -0.652  1.00  0.00     0.053 C 
BRANCH  26  27
HETATM   27  C23 UNL     1       1.622   1.400   0.260  1.00  0.00    -0.020 A 
HETATM   28  C24 UNL     1       1.796   1.295   1.640  1.00  0.00    -0.002 A 
HETATM   29  C25 UNL     1       1.220   2.239   2.490  1.00  0.00     0.024 A 
HETATM   30  C26 UNL     1       0.469   3.288   1.960  1.00  0.00     0.100 A 
HETATM   31  C27 UNL     1       0.294   3.393   0.580  1.00  0.00     0.024 A 
HETATM   32  C28 UNL     1       0.871   2.449  -0.270  1.00  0.00    -0.002 A 
BRANCH  30  33
HETATM   33  O5  UNL     1      -0.091   4.205   2.785  1.00  0.00    -0.305 OA
BRANCH  33  34
HETATM   34  C29 UNL     1       0.078   4.102   4.126  1.00  0.00     0.122 A 
HETATM   35  C30 UNL     1      -0.499   5.046   4.976  1.00  0.00     0.117 A 
HETATM   36  C31 UNL     1      -0.324   4.941   6.356  1.00  0.00     0.026 A 
HETATM   37  C32 UNL     1       0.427   3.892   6.885  1.00  0.00     0.005 A 
HETATM   38  C33 UNL     1       1.004   2.948   6.036  1.00  0.00     0.044 A 
HETATM   39  C34 UNL     1       0.829   3.053   4.656  1.00  0.00     0.030 A 
BRANCH  35  40
HETATM   40  O7  UNL     1      -1.228   6.065   4.461  1.00  0.00    -0.326 OA
HETATM   41  C36 UNL     1      -1.808   7.014   5.315  1.00  0.00     0.181 C 
ENDBRANCH  35  40
BRANCH  38  42
HETATM   42  C35 UNL     1       1.731   1.932   6.549  1.00  0.00     0.234 C 
HETATM   43  O6  UNL     1       2.230   1.114   5.813  1.00  0.00    -0.283 OA
ENDBRANCH  38  42
ENDBRANCH  33  34
ENDBRANCH  30  33
ENDBRANCH  26  27
ENDBRANCH  21  26
BRANCH   6  44
HETATM   44  O1  UNL     1      -3.749   0.444  -2.611  1.00  0.00    -0.326 OA
HETATM   45  C7  UNL     1      -4.382  -0.806  -2.667  1.00  0.00     0.181 C 
ENDBRANCH   6  44
TORSDOF 7
