REMARK  3 active torsions:
REMARK  status: ('A' for Active; 'I' for Inactive)
REMARK    1  A    between atoms: O1_2  and  C2_3 
REMARK    2  A    between atoms: C3_4  and  O2_5 
REMARK    3  A    between atoms: C14_17  and  O3_23 
ROOT
HETATM    1  C2  UNL     1      -1.600   0.234   2.686  1.00  0.00     0.112 C 
HETATM    2  C3  UNL     1      -1.205  -0.843   1.999  1.00  0.00     0.112 C 
HETATM    3  C5  UNL     1      -0.223  -0.739   1.098  1.00  0.00     0.002 C 
HETATM    4  C6  UNL     1       0.457   0.569   0.833  1.00  0.00     0.061 C 
HETATM    5  C7  UNL     1      -0.554   1.701   0.959  1.00  0.00     0.030 C 
HETATM    6  C8  UNL     1      -1.473   1.424   2.108  1.00  0.00     0.000 C 
HETATM    7  C9  UNL     1      -1.364   1.803  -0.326  1.00  0.00     0.007 C 
HETATM    8  C10 UNL     1      -0.736   2.848  -1.240  1.00  0.00     0.036 C 
HETATM    9  C11 UNL     1       0.529   2.323  -2.000  1.00  0.00     0.251 C 
HETATM   10  N1  UNL     1       1.411   1.901  -0.945  1.00  0.00     0.137 N 
HETATM   11  C12 UNL     1       1.040   0.562  -0.574  1.00  0.00     0.213 C 
HETATM   12  C13 UNL     1      -0.002   0.035  -1.552  1.00  0.00     0.065 C 
HETATM   13  C14 UNL     1      -0.072  -1.483  -1.448  1.00  0.00     0.122 C 
HETATM   14  C15 UNL     1       1.111  -2.334  -0.574  1.00  0.00     0.055 C 
HETATM   15  C16 UNL     1       2.369  -1.523  -0.574  1.00  0.00    -0.030 C 
HETATM   16  C17 UNL     1       2.336  -0.186  -0.574  1.00  0.00    -0.018 C 
HETATM   17  C18 UNL     1       3.499   0.756  -0.561  1.00  0.00     0.059 C 
HETATM   18  C19 UNL     1       2.726   1.754  -1.507  1.00  0.00     0.255 C 
ENDROOT
BRANCH   1  19
HETATM   19  O1  UNL     1      -2.114   0.115   3.934  1.00  0.00    -0.327 OA
HETATM   20  C1  UNL     1      -1.693   0.984   4.950  1.00  0.00     0.181 C 
ENDBRANCH   1  19
BRANCH   2  21
HETATM   21  O2  UNL     1      -1.801  -2.041   2.215  1.00  0.00    -0.327 OA
HETATM   22  C4  UNL     1      -1.387  -3.170   1.495  1.00  0.00     0.181 C 
ENDBRANCH   2  21
BRANCH  13  23
HETATM   23  O3  UNL     1      -0.040  -1.979  -2.759  1.00  0.00    -0.354 OA
HETATM   24  C20 UNL     1      -1.149  -2.662  -3.278  1.00  0.00     0.174 C 
ENDBRANCH  13  23
TORSDOF 3
