REMARK  0 active torsions:
REMARK  status: ('A' for Active; 'I' for Inactive)
ROOT
HETATM    1  C1  UNL     1      -3.805  -0.078   0.611  1.00  0.00    -0.000 A 
HETATM    2  C2  UNL     1      -2.647  -0.747   0.624  1.00  0.00    -0.003 A 
HETATM    3  C3  UNL     1      -1.490  -0.079   0.636  1.00  0.00    -0.003 A 
HETATM    4  C4  UNL     1      -1.490   1.258   0.636  1.00  0.00     0.072 A 
HETATM    5  C5  UNL     1      -2.647   1.927   0.624  1.00  0.00     0.018 A 
HETATM    6  C6  UNL     1      -3.805   1.259   0.611  1.00  0.00     0.002 A 
HETATM    7  N1  UNL     1      -0.308   1.712   0.660  1.00  0.00    -0.271 NA
HETATM    8  C7  UNL     1       0.782   0.632   0.649  1.00  0.00     0.129 A 
HETATM    9  C8  UNL     1      -0.092  -0.615   0.636  1.00  0.00     0.050 A 
HETATM   10  C9  UNL     1       0.153  -1.393  -0.650  1.00  0.00     0.030 C 
HETATM   11  C10 UNL     1       1.643  -1.677  -0.796  1.00  0.00     0.098 C 
HETATM   12  N2  UNL     1       2.447  -0.456  -0.724  1.00  0.00    -0.365 N 
HETATM   13  C11 UNL     1       1.593   0.698  -0.637  1.00  0.00     0.122 C 
HETATM   14  C12 UNL     1       3.885  -0.416  -0.739  1.00  0.00     0.121 C 
ENDROOT
TORSDOF 0
