REMARK  11 active torsions:
REMARK  status: ('A' for Active; 'I' for Inactive)
REMARK    1  A    between atoms: C2_2  and  C3_3 
REMARK    2  A    between atoms: C3_3  and  C4_4 
REMARK    3  A    between atoms: C4_4  and  C5_5 
REMARK    4  A    between atoms: C6_6  and  C7_7 
REMARK    5  A    between atoms: C7_7  and  C8_8 
REMARK    6  A    between atoms: C8_8  and  C9_9 
REMARK    7  A    between atoms: C9_9  and  C10_10 
REMARK    8  A    between atoms: C10_10  and  C11_11 
REMARK    9  A    between atoms: C11_11  and  C12_12 
REMARK   10  A    between atoms: C12_12  and  C13_13 
REMARK   11  A    between atoms: C13_13  and  C14_14 
ROOT
HETATM    1  C11 UNL     1       1.565   1.527   0.606  1.00  0.00     0.000 C 
ENDROOT
BRANCH   1   2
HETATM    2  C10 UNL     1       0.660   0.295   0.606  1.00  0.00     0.000 C 
BRANCH   2   3
HETATM    3  C9  UNL     1       1.447  -1.016   0.606  1.00  0.00     0.000 C 
BRANCH   3   4
HETATM    4  C8  UNL     1       0.541  -2.248   0.606  1.00  0.00     0.005 C 
BRANCH   4   5
HETATM    5  C7  UNL     1       1.328  -3.559   0.602  1.00  0.00     0.026 C 
BRANCH   5   6
HETATM    6  C6  UNL     1       0.432  -4.768   0.614  1.00  0.00    -0.031 C 
HETATM    7  C5  UNL     1       0.606  -5.703  -0.336  1.00  0.00    -0.031 C 
BRANCH   7   8
HETATM    8  C4  UNL     1      -0.293  -6.910  -0.324  1.00  0.00     0.026 C 
BRANCH   8   9
HETATM    9  C3  UNL     1      -0.984  -7.135  -1.670  1.00  0.00     0.005 C 
BRANCH   9  10
HETATM   10  C2  UNL     1      -1.889  -8.369  -1.670  1.00  0.00     0.000 C 
HETATM   11  C1  UNL     1      -2.584  -8.590  -3.013  1.00  0.00     0.000 C 
ENDBRANCH   9  10
ENDBRANCH   8   9
ENDBRANCH   7   8
ENDBRANCH   5   6
ENDBRANCH   4   5
ENDBRANCH   3   4
ENDBRANCH   2   3
ENDBRANCH   1   2
BRANCH   1  12
HETATM   12  C12 UNL     1       0.777   2.838   0.606  1.00  0.00     0.005 C 
BRANCH  12  13
HETATM   13  C13 UNL     1       1.684   4.070   0.606  1.00  0.00     0.026 C 
BRANCH  13  14
HETATM   14  C14 UNL     1       0.895   5.330   0.606  1.00  0.00    -0.018 A 
HETATM   15  C15 UNL     1      -0.510   5.279   0.606  1.00  0.00     0.023 A 
HETATM   16  C16 UNL     1      -1.260   6.469   0.606  1.00  0.00     0.129 A 
HETATM   17  C17 UNL     1      -0.600   7.713   0.606  1.00  0.00     0.029 A 
HETATM   18  O2  UNL     1      -2.578   6.410   0.606  1.00  0.00    -0.190 OA
HETATM   19  C18 UNL     1       0.809   7.766   0.606  1.00  0.00     0.129 A 
HETATM   20  C20 UNL     1      -1.391   8.975   0.606  1.00  0.00     0.035 C 
HETATM   21  C19 UNL     1       1.551   6.572   0.606  1.00  0.00     0.023 A 
HETATM   22  O1  UNL     1       1.434   8.926   0.606  1.00  0.00    -0.190 OA
ENDBRANCH  13  14
ENDBRANCH  12  13
ENDBRANCH   1  12
TORSDOF 11
