REMARK  1 active torsions:
REMARK  status: ('A' for Active; 'I' for Inactive)
REMARK    1  A    between atoms: C33_38  and  O4_39 
ROOT
HETATM    1  C1  UNL     1      -1.232   4.832   0.737  1.00  0.00     0.124 A 
HETATM    2  C2  UNL     1      -2.390   4.163   0.737  1.00  0.00     0.022 A 
HETATM    3  C3  UNL     1      -2.390   2.826   0.737  1.00  0.00    -0.018 A 
HETATM    4  C4  UNL     1      -1.232   2.158   0.737  1.00  0.00     0.019 A 
HETATM    5  C5  UNL     1      -0.074   2.826   0.737  1.00  0.00     0.122 A 
HETATM    6  C6  UNL     1      -0.074   4.163   0.737  1.00  0.00     0.145 A 
HETATM    7  O1  UNL     1       1.100   4.841   0.737  1.00  0.00    -0.299 OA
HETATM    8  C7  UNL     1       1.100   6.243   0.737  1.00  0.00     0.149 A 
HETATM    9  O2  UNL     1       1.099   2.149   0.725  1.00  0.00    -0.306 OA
HETATM   10  C8  UNL     1       0.912   0.811   0.615  1.00  0.00     0.096 C 
HETATM   11  C9  UNL     1       0.601   0.276  -0.570  1.00  0.00     0.003 C 
HETATM   12  C10 UNL     1       1.988  -0.792  -0.664  1.00  0.00     0.052 C 
HETATM   13  C11 UNL     1       2.139  -1.557   0.422  1.00  0.00    -0.022 C 
HETATM   14  C12 UNL     1       1.641  -1.155   1.597  1.00  0.00    -0.024 C 
HETATM   15  C13 UNL     1       1.028   0.029   1.693  1.00  0.00     0.020 C 
HETATM   16  C14 UNL     1       1.764  -2.001   2.826  1.00  0.00     0.050 C 
HETATM   17  C15 UNL     1       2.726  -3.150   2.558  1.00  0.00     0.102 C 
HETATM   18  N1  UNL     1       4.276  -2.614   0.036  1.00  0.00    -0.363 N 
HETATM   19  C16 UNL     1       2.881  -2.850   0.291  1.00  0.00     0.099 C 
HETATM   20  C17 UNL     1       2.621  -4.895   1.208  1.00  0.00     0.054 C 
HETATM   21  C18 UNL     1       1.683  -4.331   0.187  1.00  0.00    -0.022 A 
HETATM   22  C19 UNL     1       2.008  -3.216  -0.476  1.00  0.00    -0.002 A 
HETATM   23  C20 UNL     1       1.165  -2.706  -1.380  1.00  0.00     0.022 A 
HETATM   24  C21 UNL     1       0.006  -3.323  -1.636  1.00  0.00     0.100 A 
HETATM   25  C22 UNL     1      -0.314  -4.444  -0.981  1.00  0.00     0.024 A 
HETATM   26  C23 UNL     1       0.524  -4.947  -0.070  1.00  0.00    -0.002 A 
HETATM   27  O3  UNL     1      -0.848  -2.806  -2.552  1.00  0.00    -0.305 OA
HETATM   28  C24 UNL     1      -1.260  -1.560  -2.215  1.00  0.00     0.118 C 
HETATM   29  C25 UNL     1      -0.961  -1.059  -1.012  1.00  0.00     0.003 C 
HETATM   30  C26 UNL     1      -1.367   0.170  -0.679  1.00  0.00     0.057 C 
HETATM   31  C27 UNL     1      -1.195   0.661   0.724  1.00  0.00     0.106 C 
HETATM   32  N2  UNL     1      -2.214   0.120   1.582  1.00  0.00    -0.364 N 
HETATM   33  C28 UNL     1      -3.465   0.615   0.559  1.00  0.00     0.102 C 
HETATM   34  C29 UNL     1      -3.704   2.110   0.724  1.00  0.00     0.050 C 
HETATM   35  C30 UNL     1      -2.182  -0.580   2.838  1.00  0.00     0.121 C 
HETATM   36  C31 UNL     1      -1.917   0.965  -1.603  1.00  0.00     0.052 C 
HETATM   37  C32 UNL     1      -2.071   0.526  -2.857  1.00  0.00     0.004 C 
HETATM   38  C33 UNL     1      -1.976  -0.836  -3.081  1.00  0.00     0.113 C 
HETATM   39  C35 UNL     1       5.442  -2.344  -0.762  1.00  0.00     0.121 C 
HETATM   40  O5  UNL     1      -0.437   0.487  -1.414  1.00  0.00     0.000 OA
HETATM   41  C36 UNL     1      -1.086   1.730  -1.430  1.00  0.00    -0.026 C 
HETATM   42  O6  UNL     1      -1.232   6.187   0.737  1.00  0.00    -0.301 OA
HETATM   43  C37 UNL     1      -0.018   6.888   0.737  1.00  0.00     0.149 A 
ENDROOT
BRANCH  38  44
HETATM   44  O4  UNL     1      -2.589  -1.415  -4.142  1.00  0.00    -0.326 OA
HETATM   45  C34 UNL     1      -2.477  -2.798  -4.346  1.00  0.00     0.181 C 
ENDBRANCH  38  44
TORSDOF 1
