REMARK  6 active torsions:
REMARK  status: ('A' for Active; 'I' for Inactive)
REMARK    1  A    between atoms: S1_2  and  C2_3 
REMARK    2  A    between atoms: C2_3  and  C3_4 
REMARK    3  A    between atoms: C3_4  and  C4_5 
REMARK    4  A    between atoms: C4_5  and  C5_6 
REMARK    5  A    between atoms: C5_6  and  C6_7 
REMARK    6  A    between atoms: C6_7  and  C7_8 
ROOT
HETATM    1  C7  UNL     1       3.885   0.877   0.000  1.00  0.00     0.105 C 
HETATM    2  C8  UNL     1       5.158   0.142   0.000  1.00  0.00     0.074 C 
HETATM    3  N1  UNL     1       6.161  -0.437   0.000  1.00  0.00    -0.196 NA
ENDROOT
BRANCH   1   4
HETATM    4  C6  UNL     1       2.727  -0.112   0.000  1.00  0.00     0.016 C 
BRANCH   4   5
HETATM    5  C5  UNL     1       1.408   0.649   0.000  1.00  0.00     0.001 C 
BRANCH   5   6
HETATM    6  C4  UNL     1       0.250  -0.340   0.000  1.00  0.00     0.001 C 
BRANCH   6   7
HETATM    7  C3  UNL     1      -1.069   0.421   0.000  1.00  0.00     0.012 C 
BRANCH   7   8
HETATM    8  C2  UNL     1      -2.227  -0.568   0.000  1.00  0.00     0.058 C 
BRANCH   8   9
HETATM    9  S1  UNL     1      -3.799   0.340   0.000  1.00  0.00    -0.139 SA
HETATM   10  C1  UNL     1      -5.371  -0.568   0.000  1.00  0.00     0.069 C 
ENDBRANCH   8   9
ENDBRANCH   7   8
ENDBRANCH   6   7
ENDBRANCH   5   6
ENDBRANCH   4   5
ENDBRANCH   1   4
TORSDOF 6
