REMARK  4 active torsions:
REMARK  status: ('A' for Active; 'I' for Inactive)
REMARK    1  A    between atoms: C15_16  and  C18_19 
REMARK    2  A    between atoms: C20_21  and  C23_26 
REMARK    3  A    between atoms: C21_23  and  O3_24 
REMARK    4  A    between atoms: C23_26  and  C24_28 
ROOT
HETATM    1  C1  UNL     1      -5.008  -2.278   1.527  1.00  0.00     0.033 C 
HETATM    2  C2  UNL     1      -4.776  -3.801   1.461  1.00  0.00     0.152 C 
HETATM    3  C3  UNL     1      -3.989  -4.173   0.211  1.00  0.00     0.028 C 
HETATM    4  C4  UNL     1      -2.668  -3.414   0.200  1.00  0.00     0.005 C 
HETATM    5  C5  UNL     1      -2.942  -1.916   0.190  1.00  0.00     0.001 C 
HETATM    6  C6  UNL     1      -3.684  -1.528   1.462  1.00  0.00     0.003 C 
HETATM    7  C7  UNL     1      -1.623  -1.159   0.120  1.00  0.00     0.006 C 
HETATM    8  C8  UNL     1      -0.466  -2.147   0.182  1.00  0.00     0.043 C 
HETATM    9  C9  UNL     1      -0.520  -3.069  -1.029  1.00  0.00     0.155 C 
HETATM   10  C10 UNL     1      -1.876  -3.793  -1.045  1.00  0.00     0.033 C 
HETATM   11  O1  UNL     1      -0.378  -2.313  -2.201  1.00  0.00    -0.223 OA
HETATM   12  C11 UNL     1       0.830  -1.399   0.182  1.00  0.00    -0.047 C 
HETATM   13  C12 UNL     1       0.757   0.097   0.182  1.00  0.00     0.015 C 
HETATM   14  C13 UNL     1      -0.156   0.560   1.309  1.00  0.00     0.004 C 
HETATM   15  C14 UNL     1      -1.529  -0.193   1.295  1.00  0.00     0.001 C 
HETATM   16  C15 UNL     1       2.186   0.535   0.474  1.00  0.00     0.013 C 
HETATM   17  C16 UNL     1       3.047  -0.656   0.177  1.00  0.00     0.026 C 
HETATM   18  C17 UNL     1       2.100  -1.816   0.170  1.00  0.00    -0.035 C 
HETATM   19  C27 UNL     1       0.215   0.665  -1.122  1.00  0.00     0.004 C 
HETATM   20  C28 UNL     1      -0.574  -2.976   1.456  1.00  0.00     0.007 C 
HETATM   21  C29 UNL     1      -3.795  -1.564  -1.022  1.00  0.00     0.000 C 
HETATM   22  C30 UNL     1      -3.713  -5.670   0.212  1.00  0.00     0.003 C 
HETATM   23  C31 UNL     1      -4.796  -3.805  -1.026  1.00  0.00     0.003 C 
HETATM   24  O6  UNL     1      -6.016  -4.454   1.433  1.00  0.00    -0.224 OA
ENDROOT
BRANCH  16  25
HETATM   25  C18 UNL     1       2.574   1.706  -0.419  1.00  0.00     0.060 C 
HETATM   26  C19 UNL     1       1.719   2.928  -0.111  1.00  0.00     0.037 C 
HETATM   27  C20 UNL     1       2.729   4.061   0.019  1.00  0.00     0.151 C 
HETATM   28  O2  UNL     1       3.975   3.538  -0.407  1.00  0.00    -0.331 OA
HETATM   29  C21 UNL     1       3.995   2.166  -0.121  1.00  0.00     0.235 C 
BRANCH  27  30
HETATM   30  C23 UNL     1       2.321   5.233  -0.864  1.00  0.00     0.207 C 
HETATM   31  O4  UNL     1       1.073   5.717  -0.449  1.00  0.00    -0.218 OA
BRANCH  30  32
HETATM   32  C24 UNL     1       3.360   6.341  -0.747  1.00  0.00     0.157 C 
HETATM   33  C25 UNL     1       4.716   5.815  -1.198  1.00  0.00     0.036 C 
HETATM   34  C26 UNL     1       3.450   6.801   0.702  1.00  0.00     0.036 C 
HETATM   35  O5  UNL     1       2.984   7.420  -1.559  1.00  0.00    -0.223 OA
ENDBRANCH  30  32
ENDBRANCH  27  30
BRANCH  29  36
HETATM   36  O3  UNL     1       4.916   1.500  -0.943  1.00  0.00    -0.328 OA
HETATM   37  C22 UNL     1       5.958   0.757  -0.369  1.00  0.00     0.177 C 
ENDBRANCH  29  36
ENDBRANCH  16  25
TORSDOF 4
