REMARK  21 active torsions:
REMARK  status: ('A' for Active; 'I' for Inactive)
REMARK    1  A    between atoms: C2_2  and  C3_3 
REMARK    2  A    between atoms: C3_3  and  C4_4 
REMARK    3  A    between atoms: C4_4  and  C5_5 
REMARK    4  A    between atoms: C5_5  and  C6_6 
REMARK    5  A    between atoms: C6_6  and  C7_7 
REMARK    6  A    between atoms: C7_7  and  C8_8 
REMARK    7  A    between atoms: C8_8  and  C9_9 
REMARK    8  A    between atoms: C9_9  and  C10_10 
REMARK    9  A    between atoms: C10_10  and  C11_11 
REMARK   10  A    between atoms: C11_11  and  C12_12 
REMARK   11  A    between atoms: C12_12  and  C13_13 
REMARK   12  A    between atoms: C13_13  and  C14_14 
REMARK   13  A    between atoms: C14_14  and  C15_15 
REMARK   14  A    between atoms: C15_15  and  C16_16 
REMARK   15  A    between atoms: C16_16  and  C17_17 
REMARK   16  A    between atoms: C17_17  and  C18_18 
REMARK   17  A    between atoms: C18_18  and  C19_19 
REMARK   18  A    between atoms: C19_19  and  C20_20 
REMARK   19  A    between atoms: C20_20  and  C21_21 
REMARK   20  A    between atoms: C21_21  and  C22_22 
REMARK   21  A    between atoms: C22_22  and  C23_23 
ROOT
HETATM    1  C13 UNL     1       0.393   0.872   0.331  1.00  0.00     0.000 C 
ENDROOT
BRANCH   1   2
HETATM    2  C12 UNL     1      -0.765  -0.117   0.331  1.00  0.00     0.000 C 
BRANCH   2   3
HETATM    3  C11 UNL     1      -0.686  -0.994  -0.912  1.00  0.00     0.000 C 
BRANCH   3   4
HETATM    4  C10 UNL     1      -1.844  -1.983  -0.912  1.00  0.00     0.000 C 
BRANCH   4   5
HETATM    5  C9  UNL     1      -1.764  -2.859  -2.155  1.00  0.00     0.000 C 
BRANCH   5   6
HETATM    6  C8  UNL     1      -2.922  -3.848  -2.155  1.00  0.00     0.000 C 
BRANCH   6   7
HETATM    7  C7  UNL     1      -2.843  -4.724  -3.398  1.00  0.00     0.000 C 
BRANCH   7   8
HETATM    8  C6  UNL     1      -4.001  -5.713  -3.398  1.00  0.00     0.000 C 
BRANCH   8   9
HETATM    9  C5  UNL     1      -3.921  -6.589  -4.642  1.00  0.00     0.000 C 
BRANCH   9  10
HETATM   10  C4  UNL     1      -5.079  -7.578  -4.642  1.00  0.00     0.000 C 
BRANCH  10  11
HETATM   11  C3  UNL     1      -5.000  -8.454  -5.885  1.00  0.00     0.000 C 
BRANCH  11  12
HETATM   12  C2  UNL     1      -6.158  -9.443  -5.885  1.00  0.00     0.000 C 
HETATM   13  C1  UNL     1      -7.477  -8.682  -5.885  1.00  0.00     0.000 C 
ENDBRANCH  11  12
ENDBRANCH  10  11
ENDBRANCH   9  10
ENDBRANCH   8   9
ENDBRANCH   7   8
ENDBRANCH   6   7
ENDBRANCH   5   6
ENDBRANCH   4   5
ENDBRANCH   3   4
ENDBRANCH   2   3
ENDBRANCH   1   2
BRANCH   1  14
HETATM   14  C14 UNL     1       0.313   1.748   1.575  1.00  0.00     0.000 C 
BRANCH  14  15
HETATM   15  C15 UNL     1       1.471   2.737   1.575  1.00  0.00     0.000 C 
BRANCH  15  16
HETATM   16  C16 UNL     1       1.392   3.613   2.818  1.00  0.00     0.000 C 
BRANCH  16  17
HETATM   17  C17 UNL     1       2.550   4.602   2.818  1.00  0.00     0.000 C 
BRANCH  17  18
HETATM   18  C18 UNL     1       2.470   5.478   4.061  1.00  0.00     0.000 C 
BRANCH  18  19
HETATM   19  C19 UNL     1       3.628   6.467   4.061  1.00  0.00     0.000 C 
BRANCH  19  20
HETATM   20  C20 UNL     1       4.947   5.705   4.061  1.00  0.00     0.001 C 
BRANCH  20  21
HETATM   21  C21 UNL     1       6.105   6.695   4.061  1.00  0.00     0.011 C 
HETATM   22  C24 UNL     1       7.423   5.932   4.062  1.00  0.00     0.001 C 
BRANCH  21  23
HETATM   23  C22 UNL     1       6.026   7.571   5.305  1.00  0.00     0.098 C 
BRANCH  23  24
HETATM   24  C23 UNL     1       5.893   9.017   4.894  1.00  0.00     0.185 C 
HETATM   25  O1  UNL     1       5.806   9.972   5.827  1.00  0.00    -0.647 OA
HETATM   26  O2  UNL     1       5.866   9.312   3.723  1.00  0.00    -0.647 OA
ENDBRANCH  23  24
ENDBRANCH  21  23
ENDBRANCH  20  21
ENDBRANCH  19  20
ENDBRANCH  18  19
ENDBRANCH  17  18
ENDBRANCH  16  17
ENDBRANCH  15  16
ENDBRANCH  14  15
ENDBRANCH   1  14
TORSDOF 21
