REMARK  0 active torsions:
REMARK  status: ('A' for Active; 'I' for Inactive)
ROOT
HETATM    1  C1  UNL     1      -2.015   0.852   0.214  1.00  0.00     0.278 A 
HETATM    2  C2  UNL     1      -1.767  -0.635   0.184  1.00  0.00     0.053 A 
HETATM    3  C3  UNL     1      -0.531  -1.124   0.043  1.00  0.00     0.077 A 
HETATM    4  N1  UNL     1       0.518  -0.257  -0.069  1.00  0.00    -0.315 N 
HETATM    5  C4  UNL     1       0.298   1.101  -0.093  1.00  0.00     0.124 A 
HETATM    6  N2  UNL     1      -0.827   1.716   0.024  1.00  0.00    -0.195 NA
HETATM    7  C5  UNL     1       1.595   1.833  -0.315  1.00  0.00     0.066 C 
HETATM    8  C6  UNL     1       2.615   0.740   0.018  1.00  0.00     0.033 C 
HETATM    9  C7  UNL     1       1.909  -0.581  -0.306  1.00  0.00     0.108 C 
HETATM   10  C8  UNL     1      -2.923  -1.578   0.315  1.00  0.00     0.038 C 
HETATM   11  O1  UNL     1      -3.119   1.312   0.383  1.00  0.00    -0.265 OA
ENDROOT
TORSDOF 0
