REMARK  0 active torsions:
REMARK  status: ('A' for Active; 'I' for Inactive)
ROOT
HETATM    1  C1  UNL     1      -2.684  -1.907   0.003  1.00  0.00     0.005 A 
HETATM    2  C2  UNL     1      -3.998  -1.529  -0.268  1.00  0.00     0.028 A 
HETATM    3  C3  UNL     1      -4.323  -0.181  -0.387  1.00  0.00     0.131 A 
HETATM    4  C4  UNL     1      -3.333   0.789  -0.234  1.00  0.00     0.031 A 
HETATM    5  C5  UNL     1      -2.003   0.420   0.029  1.00  0.00     0.044 A 
HETATM    6  C6  UNL     1      -1.676  -0.940   0.148  1.00  0.00     0.042 A 
HETATM    7  C7  UNL     1      -0.269  -1.380   0.475  1.00  0.00     0.198 C 
HETATM    8  C8  UNL     1       0.799  -0.334   0.260  1.00  0.00     0.067 A 
HETATM    9  C9  UNL     1       0.472   1.026   0.140  1.00  0.00     0.046 A 
HETATM   10  C10 UNL     1      -0.961   1.496   0.222  1.00  0.00     0.196 C 
HETATM   11  O1  UNL     1      -1.252   2.650   0.427  1.00  0.00    -0.287 OA
HETATM   12  C11 UNL     1       1.498   1.971  -0.017  1.00  0.00     0.030 A 
HETATM   13  C12 UNL     1       2.833   1.569  -0.066  1.00  0.00     0.129 A 
HETATM   14  C13 UNL     1       3.157   0.221   0.053  1.00  0.00     0.029 A 
HETATM   15  C14 UNL     1       2.147  -0.725   0.220  1.00  0.00     0.132 A 
HETATM   16  O2  UNL     1       2.469  -2.035   0.345  1.00  0.00    -0.190 OA
HETATM   17  C15 UNL     1       4.589  -0.212   0.001  1.00  0.00     0.035 C 
HETATM   18  O3  UNL     1       3.813   2.491  -0.229  1.00  0.00    -0.190 OA
HETATM   19  O4  UNL     1      -0.016  -2.490   0.880  1.00  0.00    -0.286 OA
HETATM   20  O5  UNL     1      -5.599   0.189  -0.651  1.00  0.00    -0.190 OA
ENDROOT
TORSDOF 0
