REMARK  7 active torsions:
REMARK  status: ('A' for Active; 'I' for Inactive)
REMARK    1  A    between atoms: C12_13  and  O3_18 
REMARK    2  A    between atoms: O3_18  and  C16_19 
REMARK    3  A    between atoms: C17_21  and  C26_37 
REMARK    4  A    between atoms: C20_24  and  O5_25 
REMARK    5  A    between atoms: O5_25  and  C21_26 
REMARK    6  A    between atoms: C26_37  and  O12_38 
REMARK    7  A    between atoms: O12_38  and  C27_39 
ROOT
HETATM    1  C16 UNL     1      -0.571   1.620   0.806  1.00  0.00     0.271 C 
HETATM    2  O4  UNL     1      -1.272   2.834   0.806  1.00  0.00    -0.326 OA
HETATM    3  C17 UNL     1      -1.812   2.990   2.090  1.00  0.00     0.181 C 
HETATM    4  C18 UNL     1      -2.971   2.010   2.222  1.00  0.00     0.214 C 
HETATM    5  C19 UNL     1      -2.453   0.591   2.064  1.00  0.00     0.217 C 
HETATM    6  C20 UNL     1      -1.600   0.497   0.806  1.00  0.00     0.207 C 
HETATM    7  O10 UNL     1      -3.537  -0.292   1.960  1.00  0.00    -0.218 OA
HETATM    8  O11 UNL     1      -3.563   2.154   3.485  1.00  0.00    -0.218 OA
ENDROOT
BRANCH   1   9
HETATM    9  O3  UNL     1       0.233   1.532  -0.339  1.00  0.00    -0.304 OA
BRANCH   9  10
HETATM   10  C12 UNL     1       1.001   0.435  -0.545  1.00  0.00     0.095 A 
HETATM   11  C11 UNL     1       0.993  -0.606   0.382  1.00  0.00     0.027 A 
HETATM   12  C9  UNL     1       1.776  -1.754   0.177  1.00  0.00     0.046 A 
HETATM   13  C8  UNL     1       2.581  -1.842  -0.970  1.00  0.00     0.067 A 
HETATM   14  C10 UNL     1       1.771  -2.849   1.216  1.00  0.00     0.196 C 
HETATM   15  C7  UNL     1       3.473  -3.037  -1.209  1.00  0.00     0.198 C 
HETATM   16  C14 UNL     1       2.589  -0.782  -1.891  1.00  0.00     0.132 A 
HETATM   17  C6  UNL     1       3.144  -4.261  -0.388  1.00  0.00     0.042 A 
HETATM   18  O14 UNL     1       4.385  -3.016  -2.001  1.00  0.00    -0.286 OA
HETATM   19  C1  UNL     1       3.687  -5.503  -0.754  1.00  0.00     0.005 A 
HETATM   20  C5  UNL     1       2.339  -4.172   0.759  1.00  0.00     0.044 A 
HETATM   21  C2  UNL     1       3.426  -6.644   0.003  1.00  0.00     0.028 A 
HETATM   22  C3  UNL     1       2.628  -6.556   1.139  1.00  0.00     0.131 A 
HETATM   23  C4  UNL     1       2.091  -5.327   1.519  1.00  0.00     0.031 A 
HETATM   24  O15 UNL     1       2.372  -7.665   1.876  1.00  0.00    -0.190 OA
HETATM   25  C13 UNL     1       1.799   0.347  -1.681  1.00  0.00     0.026 A 
HETATM   26  O2  UNL     1       3.372  -0.858  -2.994  1.00  0.00    -0.190 OA
HETATM   27  C15 UNL     1       1.810   1.464  -2.678  1.00  0.00     0.035 C 
HETATM   28  O1  UNL     1       1.343  -2.680   2.332  1.00  0.00    -0.287 OA
ENDBRANCH   9  10
ENDBRANCH   1   9
BRANCH   6  29
HETATM   29  O5  UNL     1      -2.421   0.616  -0.324  1.00  0.00    -0.324 OA
BRANCH  29  30
HETATM   30  C21 UNL     1      -1.859   0.561  -1.607  1.00  0.00     0.270 C 
HETATM   31  O6  UNL     1      -2.425  -0.498  -2.332  1.00  0.00    -0.326 OA
HETATM   32  C22 UNL     1      -1.627  -0.682  -3.470  1.00  0.00     0.181 C 
HETATM   33  C23 UNL     1      -1.909   0.475  -4.419  1.00  0.00     0.215 C 
HETATM   34  C24 UNL     1      -1.530   1.784  -3.748  1.00  0.00     0.220 C 
HETATM   35  O9  UNL     1      -1.153   0.314  -5.589  1.00  0.00    -0.218 OA
HETATM   36  C25 UNL     1      -2.163   1.847  -2.364  1.00  0.00     0.241 C 
HETATM   37  O8  UNL     1      -1.994   2.857  -4.522  1.00  0.00    -0.218 OA
HETATM   38  O7  UNL     1      -3.551   1.997  -2.491  1.00  0.00    -0.215 OA
ENDBRANCH  29  30
ENDBRANCH   6  29
BRANCH   3  39
HETATM   39  C26 UNL     1      -0.752   2.686   3.140  1.00  0.00     0.184 C 
BRANCH  39  40
HETATM   40  O12 UNL     1      -0.563   3.811   3.955  1.00  0.00    -0.299 OA
BRANCH  40  41
HETATM   41  C27 UNL     1       0.328   3.773   4.952  1.00  0.00     0.273 C 
HETATM   42  C28 UNL     1       0.532   4.984   5.829  1.00  0.00     0.106 C 
HETATM   43  O13 UNL     1       0.969   2.768   5.152  1.00  0.00    -0.264 OA
ENDBRANCH  40  41
ENDBRANCH  39  40
ENDBRANCH   3  39
TORSDOF 7
