REMARK  2 active torsions:
REMARK  status: ('A' for Active; 'I' for Inactive)
REMARK    1  A    between atoms: O1_2  and  C2_3 
REMARK    2  A    between atoms: C11_13  and  O3_14 
ROOT
HETATM    1  C2  UNL     1       2.057  -0.709   0.295  1.00  0.00     0.119 A 
HETATM    2  C3  UNL     1       1.522   0.535  -0.038  1.00  0.00     0.147 A 
HETATM    3  O2  UNL     1       2.346   1.575  -0.313  1.00  0.00    -0.299 OA
HETATM    4  C4  UNL     1       1.824   2.870  -0.434  1.00  0.00     0.149 C 
HETATM    5  C5  UNL     1       0.139   0.710  -0.086  1.00  0.00     0.147 A 
HETATM    6  C6  UNL     1      -0.709  -0.360   0.198  1.00  0.00     0.127 A 
HETATM    7  C7  UNL     1      -0.174  -1.605   0.530  1.00  0.00     0.027 A 
HETATM    8  C8  UNL     1       1.209  -1.780   0.579  1.00  0.00     0.028 A 
HETATM    9  C9  UNL     1      -0.988  -2.631   0.802  1.00  0.00     0.006 A 
HETATM   10  C10 UNL     1      -2.313  -2.464   0.755  1.00  0.00     0.050 A 
HETATM   11  C11 UNL     1      -2.831  -1.258   0.434  1.00  0.00     0.199 A 
HETATM   12  O4  UNL     1      -2.096  -0.331   0.188  1.00  0.00    -0.283 OA
HETATM   13  O5  UNL     1      -0.380   1.919  -0.409  1.00  0.00    -0.299 OA
HETATM   14  C13 UNL     1       0.473   2.995  -0.695  1.00  0.00     0.149 C 
ENDROOT
BRANCH   1  15
HETATM   15  O1  UNL     1       3.401  -0.879   0.342  1.00  0.00    -0.326 OA
HETATM   16  C1  UNL     1       3.994  -1.961  -0.322  1.00  0.00     0.181 C 
ENDBRANCH   1  15
BRANCH  11  17
HETATM   17  O3  UNL     1      -4.158  -1.091   0.387  1.00  0.00    -0.308 OA
HETATM   18  C12 UNL     1      -4.695   0.160   0.053  1.00  0.00     0.184 C 
ENDBRANCH  11  17
TORSDOF 2
