REMARK  9 active torsions:
REMARK  status: ('A' for Active; 'I' for Inactive)
REMARK    1  A    between atoms: C2_2  and  C3_3 
REMARK    2  A    between atoms: C3_3  and  C4_4 
REMARK    3  A    between atoms: C4_4  and  C5_5 
REMARK    4  A    between atoms: C5_5  and  C6_6 
REMARK    5  A    between atoms: C6_6  and  C7_7 
REMARK    6  A    between atoms: C7_7  and  C8_8 
REMARK    7  A    between atoms: C8_8  and  C9_9 
REMARK    8  A    between atoms: C9_9  and  C10_10 
REMARK    9  A    between atoms: C10_10  and  O1_11 
ROOT
HETATM    1  C7  UNL     1      -0.669   1.446   1.296  1.00  0.00     0.001 C 
HETATM    2  C13 UNL     1      -1.467   1.814   2.540  1.00  0.00     0.000 C 
ENDROOT
BRANCH   1   3
HETATM    3  C6  UNL     1       0.661   0.832   1.710  1.00  0.00     0.000 C 
BRANCH   3   4
HETATM    4  C5  UNL     1       1.460   0.463   0.467  1.00  0.00     0.000 C 
HETATM    5  C14 UNL     1       2.780   1.223   0.468  1.00  0.00     0.000 C 
BRANCH   4   6
HETATM    6  C4  UNL     1       1.737  -1.035   0.467  1.00  0.00     0.000 C 
BRANCH   6   7
HETATM    7  C3  UNL     1       0.418  -1.796   0.467  1.00  0.00     0.000 C 
BRANCH   7   8
HETATM    8  C2  UNL     1       0.696  -3.294   0.467  1.00  0.00     0.000 C 
HETATM    9  C1  UNL     1      -0.623  -4.055   0.467  1.00  0.00     0.000 C 
ENDBRANCH   7   8
ENDBRANCH   6   7
ENDBRANCH   4   6
ENDBRANCH   3   4
ENDBRANCH   1   3
BRANCH   1  10
HETATM   10  C8  UNL     1      -1.458   0.440   0.467  1.00  0.00     0.010 C 
BRANCH  10  11
HETATM   11  C9  UNL     1      -1.728   1.021  -0.914  1.00  0.00     0.086 C 
HETATM   12  C12 UNL     1      -2.516   0.013  -1.742  1.00  0.00     0.010 C 
BRANCH  11  13
HETATM   13  C10 UNL     1      -0.418   1.320  -1.601  1.00  0.00     0.271 C 
HETATM   14  O2  UNL     1       0.625   1.090  -1.037  1.00  0.00    -0.264 OA
BRANCH  13  15
HETATM   15  O1  UNL     1      -0.412   1.840  -2.834  1.00  0.00    -0.299 OA
HETATM   16  C11 UNL     1       0.805   2.118  -3.471  1.00  0.00     0.184 C 
ENDBRANCH  13  15
ENDBRANCH  11  13
ENDBRANCH  10  11
ENDBRANCH   1  10
TORSDOF 9
