REMARK  1 active torsions:
REMARK  status: ('A' for Active; 'I' for Inactive)
REMARK    1  A    between atoms: C4_5  and  C6_7 
ROOT
HETATM    1  C1  UNL     1       0.770  -1.873   0.002  1.00  0.00     0.061 C 
HETATM    2  C2  UNL     1       1.590  -0.613  -0.320  1.00  0.00     0.255 C 
HETATM    3  N1  UNL     1       1.059   0.531   0.420  1.00  0.00     0.144 N 
HETATM    4  C3  UNL     1      -0.324   0.840   0.029  1.00  0.00     0.282 C 
HETATM    5  C4  UNL     1      -1.232  -0.379   0.039  1.00  0.00     0.071 C 
HETATM    6  C5  UNL     1      -0.722  -1.629   0.008  1.00  0.00    -0.020 C 
HETATM    7  C7  UNL     1       1.920   1.701   0.303  1.00  0.00     0.286 C 
ENDROOT
BRANCH   5   8
HETATM    8  C6  UNL     1      -2.687  -0.164   0.078  1.00  0.00     0.208 C 
HETATM    9  O1  UNL     1      -3.435  -1.086   0.303  1.00  0.00    -0.644 OA
HETATM   10  O2  UNL     1      -3.094   1.084  -0.144  1.00  0.00    -0.644 OA
ENDBRANCH   5   8
TORSDOF 1
