REMARK  17 active torsions:
REMARK  status: ('A' for Active; 'I' for Inactive)
REMARK    1  A    between atoms: C2_2  and  C3_3 
REMARK    2  A    between atoms: C3_3  and  C4_4 
REMARK    3  A    between atoms: C4_4  and  C5_5 
REMARK    4  A    between atoms: C5_5  and  C6_6 
REMARK    5  A    between atoms: C6_6  and  C8_8 
REMARK    6  A    between atoms: C8_8  and  C10_10 
REMARK    7  A    between atoms: C11_11  and  C12_12 
REMARK    8  A    between atoms: C13_13  and  C14_14 
REMARK    9  A    between atoms: C15_15  and  C16_16 
REMARK   10  A    between atoms: C17_17  and  C18_18 
REMARK   11  A    between atoms: C19_19  and  C20_20 
REMARK   12  A    between atoms: C21_21  and  C22_22 
REMARK   13  A    between atoms: C23_23  and  C24_24 
REMARK   14  A    between atoms: C25_25  and  C26_26 
REMARK   15  A    between atoms: C27_27  and  C28_28 
REMARK   16  A    between atoms: C29_29  and  C30_30 
REMARK   17  A    between atoms: C31_31  and  C32_32 
ROOT
HETATM    1  C32 UNL     1      -8.806  -9.718  -4.590  1.00  0.00    -0.013 C 
HETATM    2  C33 UNL     1      -7.829 -10.410  -4.781  1.00  0.00    -0.077 C 
HETATM    3  C34 UNL     1      -6.771 -11.159  -4.988  1.00  0.00     0.091 C 
ENDROOT
BRANCH   1   4
HETATM    4  C31 UNL     1      -9.783  -9.027  -4.398  1.00  0.00    -0.001 C 
HETATM    5  C30 UNL     1     -10.760  -8.335  -4.207  1.00  0.00    -0.000 C 
BRANCH   5   6
HETATM    6  C29 UNL     1     -11.737  -7.644  -4.016  1.00  0.00    -0.000 C 
HETATM    7  C28 UNL     1     -12.713  -6.952  -3.825  1.00  0.00    -0.000 C 
BRANCH   7   8
HETATM    8  C27 UNL     1     -13.690  -6.261  -3.633  1.00  0.00     0.000 C 
HETATM    9  C26 UNL     1     -14.667  -5.569  -3.442  1.00  0.00     0.000 C 
BRANCH   9  10
HETATM   10  C25 UNL     1     -15.644  -4.878  -3.251  1.00  0.00     0.000 C 
HETATM   11  C24 UNL     1     -16.621  -4.186  -3.059  1.00  0.00     0.000 C 
BRANCH  11  12
HETATM   12  C23 UNL     1     -17.598  -3.495  -2.868  1.00  0.00     0.000 C 
HETATM   13  C22 UNL     1     -18.574  -2.803  -2.677  1.00  0.00     0.000 C 
BRANCH  13  14
HETATM   14  C21 UNL     1     -19.551  -2.112  -2.486  1.00  0.00     0.000 C 
HETATM   15  C20 UNL     1     -20.528  -1.420  -2.294  1.00  0.00     0.000 C 
BRANCH  15  16
HETATM   16  C19 UNL     1     -21.505  -0.729  -2.103  1.00  0.00     0.000 C 
HETATM   17  C18 UNL     1     -22.482  -0.037  -1.912  1.00  0.00     0.000 C 
BRANCH  17  18
HETATM   18  C17 UNL     1     -23.459   0.654  -1.720  1.00  0.00     0.000 C 
HETATM   19  C16 UNL     1     -24.435   1.346  -1.529  1.00  0.00     0.000 C 
BRANCH  19  20
HETATM   20  C15 UNL     1     -25.412   2.037  -1.338  1.00  0.00    -0.000 C 
HETATM   21  C14 UNL     1     -26.389   2.729  -1.147  1.00  0.00    -0.000 C 
BRANCH  21  22
HETATM   22  C13 UNL     1     -27.366   3.420  -0.955  1.00  0.00    -0.000 C 
HETATM   23  C12 UNL     1     -28.343   4.112  -0.764  1.00  0.00    -0.001 C 
BRANCH  23  24
HETATM   24  C11 UNL     1     -29.320   4.803  -0.573  1.00  0.00    -0.013 C 
HETATM   25  C10 UNL     1     -30.296   5.495  -0.382  1.00  0.00    -0.079 C 
BRANCH  25  26
HETATM   26  C8  UNL     1     -31.355   6.244  -0.174  1.00  0.00     0.065 C 
HETATM   27  C9  UNL     1     -32.481   6.237  -1.160  1.00  0.00     0.014 C 
BRANCH  26  28
HETATM   28  C6  UNL     1     -31.434   7.105   1.048  1.00  0.00     0.012 C 
HETATM   29  C7  UNL     1     -30.277   8.095   1.047  1.00  0.00     0.001 C 
BRANCH  28  30
HETATM   30  C5  UNL     1     -32.754   7.866   1.048  1.00  0.00     0.001 C 
BRANCH  30  31
HETATM   31  C4  UNL     1     -33.912   6.877   1.048  1.00  0.00     0.000 C 
BRANCH  31  32
HETATM   32  C3  UNL     1     -35.231   7.639   1.048  1.00  0.00     0.000 C 
BRANCH  32  33
HETATM   33  C2  UNL     1     -36.389   6.649   1.048  1.00  0.00     0.000 C 
HETATM   34  C1  UNL     1     -37.708   7.411   1.048  1.00  0.00     0.000 C 
ENDBRANCH  32  33
ENDBRANCH  31  32
ENDBRANCH  30  31
ENDBRANCH  28  30
ENDBRANCH  26  28
ENDBRANCH  25  26
ENDBRANCH  23  24
ENDBRANCH  21  22
ENDBRANCH  19  20
ENDBRANCH  17  18
ENDBRANCH  15  16
ENDBRANCH  13  14
ENDBRANCH  11  12
ENDBRANCH   9  10
ENDBRANCH   7   8
ENDBRANCH   5   6
ENDBRANCH   1   4
TORSDOF 17
