REMARK  3 active torsions:
REMARK  status: ('A' for Active; 'I' for Inactive)
REMARK    1  A    between atoms: C1_1  and  C9_11 
REMARK    2  A    between atoms: C4_4  and  O2_9 
REMARK    3  A    between atoms: C5_5  and  O1_7 
ROOT
HETATM    1  C1  UNL     1       1.875   0.892  -0.210  1.00  0.00     0.044 A 
HETATM    2  C2  UNL     1       2.409  -0.352   0.123  1.00  0.00     0.005 A 
HETATM    3  C3  UNL     1       1.561  -1.422   0.407  1.00  0.00     0.026 A 
HETATM    4  C4  UNL     1       0.178  -1.248   0.358  1.00  0.00     0.116 A 
HETATM    5  C5  UNL     1      -0.357  -0.003   0.026  1.00  0.00     0.116 A 
HETATM    6  C6  UNL     1       0.491   1.067  -0.258  1.00  0.00     0.029 A 
ENDROOT
BRANCH   1   7
HETATM    7  C9  UNL     1       2.696   1.929  -0.485  1.00  0.00     0.234 C 
HETATM    8  O3  UNL     1       2.233   3.007  -0.773  1.00  0.00    -0.283 OA
ENDBRANCH   1   7
BRANCH   5   9
HETATM    9  O1  UNL     1      -1.700   0.166  -0.021  1.00  0.00    -0.326 OA
HETATM   10  C7  UNL     1      -2.252   1.445   0.140  1.00  0.00     0.181 C 
ENDBRANCH   5   9
BRANCH   4  11
HETATM   11  O2  UNL     1      -0.646  -2.287   0.634  1.00  0.00    -0.326 OA
HETATM   12  C8  UNL     1      -1.911  -2.358   0.032  1.00  0.00     0.181 C 
ENDBRANCH   4  11
TORSDOF 3
