REMARK  16 active torsions:
REMARK  status: ('A' for Active; 'I' for Inactive)
REMARK    1  A    between atoms: C4_4  and  O10_42 
REMARK    2  A    between atoms: C7_7  and  O3_13 
REMARK    3  A    between atoms: C8_8  and  O1_9 
REMARK    4  A    between atoms: O1_9  and  C9_10 
REMARK    5  A    between atoms: O3_13  and  C11_14 
REMARK    6  A    between atoms: C13_17  and  O8_37 
REMARK    7  A    between atoms: C15_19  and  O5_22 
REMARK    8  A    between atoms: O5_22  and  C18_23 
REMARK    9  A    between atoms: C18_23  and  C19_25 
REMARK   10  A    between atoms: C19_25  and  C20_26 
REMARK   11  A    between atoms: C20_26  and  C21_27 
REMARK   12  A    between atoms: C20_26  and  N1_33 
REMARK   13  A    between atoms: O8_37  and  C29_38 
REMARK   14  A    between atoms: O10_42  and  C32_43 
REMARK   15  A    between atoms: C35_47  and  O12_50 
REMARK   16  A    between atoms: O12_50  and  C38_51 
ROOT
HETATM    1  C1  UNL     1       4.597   1.375  -0.100  1.00  0.00    -0.021 C 
HETATM    2  C2  UNL     1       3.945   0.313  -0.401  1.00  0.00     0.020 C 
HETATM    3  C3  UNL     1       4.178  -1.026  -0.559  1.00  0.00     0.038 C 
HETATM    4  C4  UNL     1       2.497  -1.675  -0.751  1.00  0.00     0.143 C 
HETATM    5  C5  UNL     1       1.135  -0.913   0.208  1.00  0.00    -0.015 C 
HETATM    6  C6  UNL     1       0.481   0.924  -0.173  1.00  0.00     0.071 C 
HETATM    7  C7  UNL     1       1.734   2.501  -0.445  1.00  0.00     0.161 C 
HETATM    8  C8  UNL     1       3.493   2.720   0.216  1.00  0.00     0.170 C 
HETATM    9  C13 UNL     1      -0.658   0.923   1.032  1.00  0.00     0.133 C 
HETATM   10  C14 UNL     1      -1.684  -0.392   0.968  1.00  0.00     0.065 C 
HETATM   11  C15 UNL     1      -1.252  -1.641   0.107  1.00  0.00     0.148 C 
HETATM   12  C16 UNL     1       0.068  -1.883   0.390  1.00  0.00    -0.000 C 
HETATM   13  C17 UNL     1       0.300  -2.866   1.260  1.00  0.00    -0.003 C 
HETATM   14  C31 UNL     1      -0.329   1.005  -1.506  1.00  0.00     0.009 C 
HETATM   15  C34 UNL     1       5.156  -1.316   0.607  1.00  0.00     0.038 C 
HETATM   16  C35 UNL     1       6.440  -0.356   0.150  1.00  0.00     0.142 C 
HETATM   17  C36 UNL     1       5.894   1.200   0.230  1.00  0.00    -0.022 C 
HETATM   18  C37 UNL     1       6.689   2.337   0.842  1.00  0.00     0.028 C 
HETATM   19  C40 UNL     1       3.481   0.461   1.224  1.00  0.00     0.004 C 
HETATM   20  C41 UNL     1       3.434   0.531  -1.904  1.00  0.00     0.004 C 
ENDROOT
BRANCH  11  21
HETATM   21  O5  UNL     1      -1.821  -2.926   0.419  1.00  0.00    -0.298 OA
BRANCH  21  22
HETATM   22  C18 UNL     1      -3.101  -3.294   0.112  1.00  0.00     0.305 C 
HETATM   23  O6  UNL     1      -3.856  -2.541  -0.508  1.00  0.00    -0.261 OA
BRANCH  22  24
HETATM   24  C19 UNL     1      -3.334  -4.809   0.343  1.00  0.00     0.273 C 
HETATM   25  O7  UNL     1      -2.073  -5.251  -0.261  1.00  0.00    -0.210 OA
BRANCH  24  26
HETATM   26  C20 UNL     1      -4.731  -5.539  -0.235  1.00  0.00     0.281 C 
BRANCH  26  27
HETATM   27  C21 UNL     1      -4.638  -7.186  -0.040  1.00  0.00     0.012 A 
HETATM   28  C22 UNL     1      -3.474  -7.824  -0.154  1.00  0.00    -0.002 A 
HETATM   29  C23 UNL     1      -3.343  -9.276   0.020  1.00  0.00    -0.000 A 
HETATM   30  C24 UNL     1      -4.411 -10.018   0.284  1.00  0.00    -0.000 A 
HETATM   31  C25 UNL     1      -5.705  -9.376   0.406  1.00  0.00    -0.000 A 
HETATM   32  C26 UNL     1      -5.815  -8.056   0.265  1.00  0.00    -0.002 A 
ENDBRANCH  26  27
BRANCH  26  33
HETATM   33  N1  UNL     1      -6.086  -4.997   0.409  1.00  0.00     0.146 N 
HETATM   34  C27 UNL     1      -7.300  -5.463  -0.316  1.00  0.00     0.286 C 
HETATM   35  C28 UNL     1      -6.281  -3.551   0.425  1.00  0.00     0.286 C 
ENDBRANCH  26  33
ENDBRANCH  24  26
ENDBRANCH  22  24
ENDBRANCH  21  22
ENDBRANCH  11  21
BRANCH   9  36
HETATM   36  O8  UNL     1      -1.692   1.968   0.953  1.00  0.00    -0.304 OA
BRANCH  36  37
HETATM   37  C29 UNL     1      -1.454   3.292   1.180  1.00  0.00     0.272 C 
HETATM   38  C30 UNL     1      -2.597   4.255   0.960  1.00  0.00     0.106 C 
HETATM   39  O9  UNL     1      -0.359   3.698   1.565  1.00  0.00    -0.264 OA
ENDBRANCH  36  37
ENDBRANCH   9  36
BRANCH   4  40
HETATM   40  O10 UNL     1       2.824  -3.101  -0.554  1.00  0.00    -0.300 OA
BRANCH  40  41
HETATM   41  C32 UNL     1       1.920  -4.052  -1.090  1.00  0.00     0.273 C 
HETATM   42  C33 UNL     1       2.188  -5.517  -0.889  1.00  0.00     0.106 C 
HETATM   43  O11 UNL     1       0.916  -3.695  -1.717  1.00  0.00    -0.264 OA
ENDBRANCH  40  41
ENDBRANCH   4  40
BRANCH   7  44
HETATM   44  O3  UNL     1       1.147   3.833  -0.303  1.00  0.00    -0.301 OA
BRANCH  44  45
HETATM   45  C11 UNL     1       0.434   4.368  -1.380  1.00  0.00     0.272 C 
HETATM   46  O4  UNL     1       0.306   3.748  -2.436  1.00  0.00    -0.264 OA
HETATM   47  C12 UNL     1      -0.079   5.782  -1.274  1.00  0.00     0.106 C 
ENDBRANCH  44  45
ENDBRANCH   7  44
BRANCH   8  48
HETATM   48  O1  UNL     1       4.221   3.839  -0.355  1.00  0.00    -0.298 OA
BRANCH  48  49
HETATM   49  C9  UNL     1       3.819   5.098   0.066  1.00  0.00     0.273 C 
HETATM   50  C10 UNL     1       4.560   6.303  -0.443  1.00  0.00     0.106 C 
HETATM   51  O2  UNL     1       2.929   5.233   0.911  1.00  0.00    -0.264 OA
ENDBRANCH  48  49
ENDBRANCH   8  48
BRANCH  16  52
HETATM   52  O12 UNL     1       7.629  -0.632   0.944  1.00  0.00    -0.300 OA
BRANCH  52  53
HETATM   53  C38 UNL     1       8.892  -0.189   0.395  1.00  0.00     0.273 C 
HETATM   54  O13 UNL     1       9.918  -0.398   1.049  1.00  0.00    -0.264 OA
HETATM   55  C39 UNL     1       9.037   0.448  -0.983  1.00  0.00     0.106 C 
ENDBRANCH  52  53
ENDBRANCH  16  52
TORSDOF 16
