REMARK  2 active torsions:
REMARK  status: ('A' for Active; 'I' for Inactive)
REMARK    1  A    between atoms: C1_1  and  O2_10 
REMARK    2  A    between atoms: C5_6  and  O1_7 
ROOT
HETATM    1  C1  UNL     1      -0.802   1.100   0.212  1.00  0.00     0.116 A 
HETATM    2  C2  UNL     1       0.440   1.873   0.395  1.00  0.00     0.044 A 
HETATM    3  C3  UNL     1       1.649   1.279   0.438  1.00  0.00     0.074 A 
HETATM    4  N1  UNL     1       1.782  -0.084   0.320  1.00  0.00    -0.339 N 
HETATM    5  C4  UNL     1       0.595  -0.965   0.147  1.00  0.00     0.155 A 
HETATM    6  C5  UNL     1      -0.744  -0.244   0.090  1.00  0.00     0.116 A 
HETATM    7  C7  UNL     1       3.123  -0.691   0.367  1.00  0.00     0.126 C 
ENDROOT
BRANCH   1   8
HETATM    8  O2  UNL     1      -1.972   1.732   0.169  1.00  0.00    -0.326 OA
HETATM    9  C8  UNL     1      -2.391   2.003  -1.161  1.00  0.00     0.181 C 
ENDBRANCH   1   8
BRANCH   6  10
HETATM   10  O1  UNL     1      -1.863  -0.943  -0.082  1.00  0.00    -0.329 OA
HETATM   11  C6  UNL     1      -1.703  -2.312   0.261  1.00  0.00     0.181 C 
ENDBRANCH   6  10
TORSDOF 2
