REMARK  2 active torsions:
REMARK  status: ('A' for Active; 'I' for Inactive)
REMARK    1  A    between atoms: C6_6  and  O1_7 
REMARK    2  A    between atoms: C12_16  and  C14_18 
ROOT
HETATM    1  C1  UNL     1      -0.179   0.247   0.566  1.00  0.00     0.025 A 
HETATM    2  C2  UNL     1      -0.179  -1.090   0.566  1.00  0.00     0.094 A 
HETATM    3  C3  UNL     1       0.979  -1.759   0.566  1.00  0.00     0.049 A 
HETATM    4  C4  UNL     1       2.136  -1.090   0.566  1.00  0.00     0.106 A 
HETATM    5  C5  UNL     1       2.136   0.247   0.566  1.00  0.00     0.084 A 
HETATM    6  C6  UNL     1       0.979   0.915   0.566  1.00  0.00     0.097 A 
HETATM    7  C8  UNL     1       3.334   0.873   0.554  1.00  0.00     0.201 C 
HETATM    8  C9  UNL     1       4.339   0.171  -0.014  1.00  0.00     0.062 C 
HETATM    9  C10 UNL     1       4.349  -1.146   0.179  1.00  0.00     0.081 C 
HETATM   10  O2  UNL     1       3.256  -1.854   0.554  1.00  0.00    -0.311 OA
HETATM   11  C11 UNL     1       5.635  -1.884  -0.028  1.00  0.00     0.058 C 
HETATM   12  O3  UNL     1       3.493   1.977   1.017  1.00  0.00    -0.286 OA
HETATM   13  O4  UNL     1      -1.323  -1.529   0.555  1.00  0.00    -0.331 OA
HETATM   14  C12 UNL     1      -2.450  -0.464   0.571  1.00  0.00     0.154 A 
HETATM   15  C13 UNL     1      -1.577   0.783   0.579  1.00  0.00     0.063 A 
ENDROOT
BRANCH  14  16
HETATM   16  C14 UNL     1      -3.466  -0.556  -0.560  1.00  0.00     0.152 C 
HETATM   17  O5  UNL     1      -4.193  -1.749  -0.439  1.00  0.00    -0.224 OA
HETATM   18  C15 UNL     1      -4.419   0.630  -0.484  1.00  0.00     0.036 C 
HETATM   19  C16 UNL     1      -2.740  -0.539  -1.899  1.00  0.00     0.036 C 
ENDBRANCH  14  16
BRANCH   6  20
HETATM   20  O1  UNL     1       0.979   2.270   0.566  1.00  0.00    -0.328 OA
HETATM   21  C7  UNL     1      -0.236   2.971   0.566  1.00  0.00     0.181 C 
ENDBRANCH   6  20
TORSDOF 2
