REMARK  1 active torsions:
REMARK  status: ('A' for Active; 'I' for Inactive)
REMARK    1  A    between atoms: C4_4  and  O2_7 
ROOT
HETATM    1  C1  UNL     1      -1.895   0.397  -0.578  1.00  0.00     0.215 C 
HETATM    2  C2  UNL     1      -1.133  -0.922  -0.578  1.00  0.00     0.220 C 
HETATM    3  C3  UNL     1      -0.083  -0.902   0.525  1.00  0.00     0.241 C 
HETATM    4  C4  UNL     1       0.735   0.379   0.424  1.00  0.00     0.270 C 
HETATM    5  O1  UNL     1      -0.145   1.460   0.596  1.00  0.00    -0.326 OA
HETATM    6  C5  UNL     1      -0.905   1.554  -0.578  1.00  0.00     0.181 C 
HETATM    7  O3  UNL     1       0.764  -2.010   0.383  1.00  0.00    -0.215 OA
HETATM    8  O4  UNL     1      -2.028  -1.978  -0.352  1.00  0.00    -0.218 OA
HETATM    9  O5  UNL     1      -2.700   0.471  -1.724  1.00  0.00    -0.218 OA
ENDROOT
BRANCH   4  10
HETATM   10  O2  UNL     1       1.717   0.398   1.424  1.00  0.00    -0.326 OA
HETATM   11  C6  UNL     1       3.072   0.486   1.074  1.00  0.00     0.177 C 
ENDBRANCH   4  10
TORSDOF 1
