REMARK  5 active torsions:
REMARK  status: ('A' for Active; 'I' for Inactive)
REMARK    1  A    between atoms: C6_7  and  O7_38 
REMARK    2  A    between atoms: C8_9  and  O6_36 
REMARK    3  A    between atoms: C9_10  and  C10_11 
REMARK    4  A    between atoms: C11_12  and  C12_13 
REMARK    5  A    between atoms: C24_26  and  O4_31 
ROOT
HETATM    1  C12 UNL     1      -1.388  -1.744   0.091  1.00  0.00     0.047 C 
HETATM    2  C13 UNL     1      -1.911  -3.038   0.708  1.00  0.00     0.013 C 
HETATM    3  C14 UNL     1      -3.119  -3.575  -0.063  1.00  0.00     0.022 C 
HETATM    4  C15 UNL     1      -2.952  -3.492  -1.552  1.00  0.00    -0.048 C 
HETATM    5  C16 UNL     1      -1.987  -2.771  -2.142  1.00  0.00    -0.030 C 
HETATM    6  C17 UNL     1      -0.996  -1.944  -1.375  1.00  0.00     0.055 C 
HETATM    7  C18 UNL     1      -0.892  -0.601  -2.028  1.00  0.00     0.028 A 
HETATM    8  C19 UNL     1       0.328  -0.178  -2.560  1.00  0.00     0.103 A 
HETATM    9  O2  UNL     1       1.369  -1.055  -2.438  1.00  0.00    -0.273 OA
HETATM   10  C20 UNL     1       2.644  -0.672  -2.968  1.00  0.00     0.300 A 
HETATM   11  C21 UNL     1       2.742   0.674  -3.619  1.00  0.00     0.069 A 
HETATM   12  C22 UNL     1       1.705   1.510  -3.722  1.00  0.00     0.009 A 
HETATM   13  C23 UNL     1       0.431   1.075  -3.170  1.00  0.00     0.045 A 
HETATM   14  C24 UNL     1      -0.697   1.901  -3.243  1.00  0.00     0.098 A 
HETATM   15  C25 UNL     1      -1.917   1.476  -2.710  1.00  0.00     0.049 A 
HETATM   16  C26 UNL     1      -2.014   0.225  -2.103  1.00  0.00     0.100 A 
HETATM   17  O3  UNL     1      -3.196  -0.188  -1.586  1.00  0.00    -0.306 OA
HETATM   18  C27 UNL     1      -3.445  -0.057  -0.212  1.00  0.00     0.118 C 
HETATM   19  O5  UNL     1       3.602  -1.404  -2.891  1.00  0.00    -0.259 OA
HETATM   20  C29 UNL     1      -3.907  -4.251  -2.420  1.00  0.00     0.026 C 
HETATM   21  C30 UNL     1      -2.496  -0.700   0.153  1.00  0.00     0.005 C 
ENDROOT
BRANCH   1  22
HETATM   22  C11 UNL     1      -0.186  -1.288   0.858  1.00  0.00    -0.022 C 
HETATM   23  C10 UNL     1      -0.198  -0.103   1.477  1.00  0.00    -0.000 C 
BRANCH  23  24
HETATM   24  C9  UNL     1       0.876   0.303   2.163  1.00  0.00     0.045 A 
HETATM   25  C3  UNL     1       0.862   1.541   2.808  1.00  0.00     0.107 A 
HETATM   26  O1  UNL     1      -0.290   2.267   2.684  1.00  0.00    -0.273 OA
HETATM   27  C4  UNL     1       1.981   1.971   3.526  1.00  0.00     0.045 A 
HETATM   28  C2  UNL     1      -0.358   3.546   3.328  1.00  0.00     0.300 A 
HETATM   29  C1  UNL     1       0.848   3.995   4.094  1.00  0.00     0.069 A 
HETATM   30  O8  UNL     1      -1.349   4.234   3.255  1.00  0.00    -0.259 OA
HETATM   31  C5  UNL     1       1.960   3.262   4.197  1.00  0.00     0.009 A 
HETATM   32  C6  UNL     1       3.114   1.151   3.592  1.00  0.00     0.098 A 
HETATM   33  C7  UNL     1       3.126  -0.087   2.945  1.00  0.00     0.049 A 
HETATM   34  C8  UNL     1       2.006  -0.511   2.231  1.00  0.00     0.098 A 
BRANCH  32  35
HETATM   35  O7  UNL     1       4.204   1.560   4.286  1.00  0.00    -0.328 OA
HETATM   36  C32 UNL     1       4.195   2.802   4.936  1.00  0.00     0.181 C 
ENDBRANCH  32  35
BRANCH  34  37
HETATM   37  O6  UNL     1       2.017  -1.712   1.603  1.00  0.00    -0.328 OA
HETATM   38  C31 UNL     1       3.179  -2.155   0.956  1.00  0.00     0.181 C 
ENDBRANCH  34  37
ENDBRANCH  23  24
ENDBRANCH   1  22
BRANCH  14  39
HETATM   39  O4  UNL     1      -0.606   3.117  -3.833  1.00  0.00    -0.328 OA
HETATM   40  C28 UNL     1       0.616   3.547  -4.369  1.00  0.00     0.181 C 
ENDBRANCH  14  39
TORSDOF 5
