REMARK  11 active torsions:
REMARK  status: ('A' for Active; 'I' for Inactive)
REMARK    1  A    between atoms: C5_5  and  C7_7 
REMARK    2  A    between atoms: C8_8  and  C9_9 
REMARK    3  A    between atoms: C10_10  and  C11_11 
REMARK    4  A    between atoms: C11_11  and  O1_12 
REMARK    5  A    between atoms: O1_12  and  C12_13 
REMARK    6  A    between atoms: C14_15  and  C32_36 
REMARK    7  A    between atoms: C15_16  and  C28_32 
REMARK    8  A    between atoms: C24_27  and  C25_29 
REMARK    9  A    between atoms: C24_27  and  C26_30 
REMARK   10  A    between atoms: C29_33  and  C30_34 
REMARK   11  A    between atoms: C29_33  and  C37_45 
ROOT
HETATM    1  C12 UNL     1       0.334  -0.161  -0.372  1.00  0.00     0.114 A 
HETATM    2  C13 UNL     1      -0.662  -1.031   0.597  1.00  0.00     0.029 C 
HETATM    3  C14 UNL     1      -0.581  -1.906  -0.647  1.00  0.00     0.016 C 
HETATM    4  C15 UNL     1       0.738  -2.668  -0.647  1.00  0.00     0.060 C 
HETATM    5  C16 UNL     1       1.776  -1.884  -1.439  1.00  0.00     0.151 A 
HETATM    6  C17 UNL     1       1.429  -0.402  -1.403  1.00  0.00     0.132 A 
HETATM    7  O2  UNL     1       0.597  -0.097  -3.281  1.00  0.00    -0.336 OA
HETATM    8  C18 UNL     1       0.765  -0.865  -2.120  1.00  0.00     0.197 A 
HETATM    9  O3  UNL     1      -0.577  -1.056  -1.762  1.00  0.00     0.000 OA
HETATM   10  C19 UNL     1       1.506  -0.394  -0.908  1.00  0.00     0.113 A 
HETATM   11  C20 UNL     1       1.624  -1.227   0.204  1.00  0.00    -0.017 A 
HETATM   12  C21 UNL     1       2.315  -0.788   1.334  1.00  0.00    -0.009 A 
HETATM   13  C22 UNL     1       2.888   0.484   1.351  1.00  0.00    -0.027 A 
HETATM   14  C23 UNL     1       2.770   1.317   0.238  1.00  0.00     0.028 A 
HETATM   15  C24 UNL     1       2.079   0.878  -0.891  1.00  0.00     0.046 A 
HETATM   16  O4  UNL     1       1.630  -2.235  -2.788  1.00  0.00    -0.334 OA
HETATM   17  C25 UNL     1       2.598   0.474  -1.075  1.00  0.00     0.053 A 
HETATM   18  C26 UNL     1       2.454   1.565  -0.060  1.00  0.00     0.014 A 
HETATM   19  C27 UNL     1       3.770   0.282  -1.688  1.00  0.00    -0.029 C 
HETATM   20  C38 UNL     1      -0.738   0.035  -1.436  1.00  0.00     0.031 C 
ENDROOT
BRANCH   1  21
HETATM   21  O1  UNL     1       0.994   0.655   0.557  1.00  0.00    -0.303 OA
BRANCH  21  22
HETATM   22  C11 UNL     1       0.699   1.958   0.632  1.00  0.00     0.296 C 
HETATM   23  O10 UNL     1      -0.135   2.431  -0.102  1.00  0.00    -0.259 OA
BRANCH  22  24
HETATM   24  C10 UNL     1       1.335   2.744   1.528  1.00  0.00     0.068 C 
HETATM   25  C9  UNL     1       1.040   4.046   1.602  1.00  0.00     0.005 C 
BRANCH  25  26
HETATM   26  C8  UNL     1       1.669   4.824   2.489  1.00  0.00     0.000 C 
HETATM   27  C7  UNL     1       1.375   6.127   2.563  1.00  0.00     0.000 C 
BRANCH  27  28
HETATM   28  C5  UNL     1       0.451   6.650   1.750  1.00  0.00     0.000 A 
HETATM   29  C4  UNL     1       0.144   8.009   1.828  1.00  0.00     0.000 A 
HETATM   30  C3  UNL     1      -0.820   8.555   0.981  1.00  0.00     0.000 A 
HETATM   31  C2  UNL     1      -1.476   7.743   0.056  1.00  0.00     0.000 A 
HETATM   32  C1  UNL     1      -1.169   6.385  -0.022  1.00  0.00     0.000 A 
HETATM   33  C6  UNL     1      -0.205   5.838   0.825  1.00  0.00     0.000 A 
ENDBRANCH  27  28
ENDBRANCH  25  26
ENDBRANCH  22  24
ENDBRANCH  21  22
ENDBRANCH   1  21
BRANCH   3  34
HETATM   34  C32 UNL     1      -1.739  -2.896  -0.647  1.00  0.00     0.085 A 
HETATM   35  C31 UNL     1      -1.466  -3.996   0.371  1.00  0.00     0.214 A 
HETATM   36  C30 UNL     1      -1.934  -3.690  -1.051  1.00  0.00     0.192 A 
HETATM   37  C35 UNL     1      -2.678  -3.968   1.271  1.00  0.00     0.199 C 
HETATM   38  O6  UNL     1      -0.508  -4.695   1.118  1.00  0.00    -0.215 OA
HETATM   39  O7  UNL     1      -3.203  -4.171  -1.403  1.00  0.00    -0.220 OA
HETATM   40  C34 UNL     1      -3.652  -3.030   0.689  1.00  0.00     0.011 C 
HETATM   41  O5  UNL     1      -2.822  -4.603   2.288  1.00  0.00    -0.289 OA
HETATM   42  C33 UNL     1      -2.972  -2.222  -0.131  1.00  0.00    -0.023 C 
HETATM   43  C36 UNL     1      -5.124  -2.989   0.962  1.00  0.00     0.034 C 
BRANCH  36  44
HETATM   44  C29 UNL     1      -0.772  -4.601  -1.343  1.00  0.00     0.177 A 
HETATM   45  C28 UNL     1       0.584  -4.080  -1.143  1.00  0.00     0.147 A 
HETATM   46  O8  UNL     1       0.051  -4.203  -2.469  1.00  0.00    -0.351 OA
BRANCH  44  47
HETATM   47  C37 UNL     1      -1.496  -5.842  -0.895  1.00  0.00     0.214 C 
HETATM   48  O9  UNL     1      -0.654  -6.954  -1.040  1.00  0.00    -0.218 OA
ENDBRANCH  44  47
ENDBRANCH  36  44
ENDBRANCH   3  34
TORSDOF 11
