REMARK  0 active torsions:
REMARK  status: ('A' for Active; 'I' for Inactive)
ROOT
HETATM    1  C1  UNL     1       0.095   0.301   1.960  1.00  0.00     0.030 C 
HETATM    2  C2  UNL     1       0.919  -0.883   1.472  1.00  0.00     0.010 C 
HETATM    3  C3  UNL     1       1.779  -0.451   0.292  1.00  0.00     0.058 C 
HETATM    4  C4  UNL     1       1.064  -0.792  -1.009  1.00  0.00     0.158 C 
HETATM    5  C5  UNL     1       0.397   0.407  -1.628  1.00  0.00     0.168 A 
HETATM    6  C6  UNL     1      -1.069   0.462  -1.628  1.00  0.00     0.120 A 
HETATM    7  C7  UNL     1      -1.730   1.814  -1.628  1.00  0.00     0.032 C 
HETATM    8  C8  UNL     1      -2.491   2.048  -0.328  1.00  0.00     0.035 C 
HETATM    9  C9  UNL     1      -1.652   1.827   0.901  1.00  0.00     0.140 A 
HETATM   10  C10 UNL     1      -1.185   0.466   1.187  1.00  0.00     0.118 A 
HETATM   11  O1  UNL     1      -2.277   1.022   1.934  1.00  0.00    -0.357 OA
HETATM   12  C11 UNL     1      -0.954  -0.754   0.337  1.00  0.00     0.032 C 
HETATM   13  O2  UNL     1      -0.363   0.132  -2.833  1.00  0.00    -0.354 OA
HETATM   14  C12 UNL     1      -2.134  -0.177  -0.777  1.00  0.00     0.032 C 
HETATM   15  O3  UNL     1       2.085  -1.271  -1.842  1.00  0.00    -0.298 OA
HETATM   16  C13 UNL     1       3.018  -1.712  -0.990  1.00  0.00     0.292 C 
HETATM   17  C14 UNL     1       3.023  -1.283   0.250  1.00  0.00     0.043 C 
HETATM   18  C15 UNL     1       3.908  -1.526   1.222  1.00  0.00     0.001 C 
HETATM   19  O4  UNL     1       3.853  -2.502  -1.362  1.00  0.00    -0.260 OA
ENDROOT
TORSDOF 0
