REMARK  0 active torsions:
REMARK  status: ('A' for Active; 'I' for Inactive)
ROOT
HETATM    1  C1  UNL     1      -2.167   0.638   0.317  1.00  0.00     0.119 A 
HETATM    2  C2  UNL     1      -1.009  -0.031   0.317  1.00  0.00     0.022 A 
HETATM    3  C3  UNL     1       0.149   0.638   0.317  1.00  0.00    -0.001 A 
HETATM    4  C4  UNL     1       0.149   1.975   0.317  1.00  0.00    -0.016 A 
HETATM    5  C5  UNL     1      -1.009   2.643   0.317  1.00  0.00     0.022 A 
HETATM    6  C6  UNL     1      -2.167   1.975   0.317  1.00  0.00     0.119 A 
HETATM    7  O1  UNL     1      -3.310   2.414   0.327  1.00  0.00    -0.300 OA
HETATM    8  C7  UNL     1      -4.119   1.347   0.161  1.00  0.00     0.304 C 
HETATM    9  O2  UNL     1      -3.310   0.199   0.327  1.00  0.00    -0.300 OA
HETATM   10  C8  UNL     1       1.427   2.755   0.304  1.00  0.00     0.071 C 
HETATM   11  C9  UNL     1       2.591   1.827   0.626  1.00  0.00     0.050 C 
HETATM   12  N1  UNL     1       2.492   0.754  -0.260  1.00  0.00    -0.344 N 
HETATM   13  C10 UNL     1       1.463  -0.079   0.304  1.00  0.00     0.138 C 
HETATM   14  C11 UNL     1       1.337  -1.355  -0.517  1.00  0.00     0.199 C 
HETATM   15  C12 UNL     1       0.041  -2.032  -0.189  1.00  0.00     0.010 A 
HETATM   16  C13 UNL     1      -1.009  -1.368   0.305  1.00  0.00     0.000 A 
HETATM   17  C14 UNL     1      -2.063  -2.040   0.777  1.00  0.00    -0.000 A 
HETATM   18  C15 UNL     1      -2.063  -3.377   0.766  1.00  0.00    -0.000 A 
HETATM   19  C16 UNL     1      -1.009  -4.042   0.282  1.00  0.00    -0.000 A 
HETATM   20  C17 UNL     1       0.041  -3.369  -0.201  1.00  0.00    -0.002 A 
HETATM   21  O3  UNL     1       1.367  -1.038  -1.882  1.00  0.00    -0.216 OA
HETATM   22  C18 UNL     1       3.247   0.530  -1.463  1.00  0.00     0.126 C 
ENDROOT
TORSDOF 0
