REMARK  0 active torsions:
REMARK  status: ('A' for Active; 'I' for Inactive)
ROOT
HETATM    1  C1  UNL     1      -3.403  -0.575   0.258  1.00  0.00     0.176 A 
HETATM    2  C2  UNL     1      -2.603  -1.484   1.086  1.00  0.00     0.172 A 
HETATM    3  C3  UNL     1      -1.176  -1.323   1.086  1.00  0.00     0.068 A 
HETATM    4  C4  UNL     1      -0.537  -0.148   1.086  1.00  0.00     0.007 A 
HETATM    5  C5  UNL     1       0.947  -0.346   1.086  1.00  0.00     0.153 A 
HETATM    6  C6  UNL     1       1.525   0.149  -0.234  1.00  0.00     0.087 C 
HETATM    7  C7  UNL     1       0.882   1.480  -0.602  1.00  0.00     0.134 C 
HETATM    8  C8  UNL     1      -0.698   1.685  -1.339  1.00  0.00     0.060 C 
HETATM    9  C9  UNL     1      -1.478   0.412  -1.146  1.00  0.00     0.123 A 
HETATM   10  C10 UNL     1      -2.813   0.503  -0.545  1.00  0.00     0.170 A 
HETATM   11  O1  UNL     1      -2.675   0.298  -1.958  1.00  0.00    -0.354 OA
HETATM   12  C11 UNL     1      -0.256  -0.419  -0.866  1.00  0.00     0.032 C 
HETATM   13  O2  UNL     1       1.823   2.090  -1.444  1.00  0.00    -0.301 OA
HETATM   14  C12 UNL     1       3.297   1.612  -0.721  1.00  0.00     0.292 C 
HETATM   15  C13 UNL     1       2.972   0.485  -0.050  1.00  0.00     0.046 C 
HETATM   16  C14 UNL     1       3.830  -0.235   0.682  1.00  0.00     0.001 C 
HETATM   17  O3  UNL     1       4.374   2.154  -0.792  1.00  0.00    -0.260 OA
HETATM   18  O4  UNL     1       1.104  -1.739   1.118  1.00  0.00    -0.296 OA
HETATM   19  C15 UNL     1      -0.300  -2.351   1.075  1.00  0.00     0.294 A 
HETATM   20  O5  UNL     1      -0.571  -3.528   1.037  1.00  0.00    -0.259 OA
HETATM   21  O6  UNL     1      -3.334  -0.411   1.698  1.00  0.00    -0.347 OA
ENDROOT
TORSDOF 0
