REMARK  4 active torsions:
REMARK  status: ('A' for Active; 'I' for Inactive)
REMARK    1  A    between atoms: C2_2  and  O1_3 
REMARK    2  A    between atoms: O1_3  and  C3_4 
REMARK    3  A    between atoms: C13_16  and  O4_21 
REMARK    4  A    between atoms: O4_21  and  C18_22 
ROOT
HETATM    1  C1  UNL     1      -2.610   2.369   0.745  1.00  0.00     0.056 C 
HETATM    2  C2  UNL     1      -2.614   1.582  -0.558  1.00  0.00     0.129 C 
HETATM    3  C5  UNL     1      -1.474   0.611  -0.558  1.00  0.00     0.032 A 
HETATM    4  C6  UNL     1      -0.157   1.028  -1.134  1.00  0.00     0.007 A 
HETATM    5  C7  UNL     1      -1.608  -0.621  -0.056  1.00  0.00     0.034 A 
HETATM    6  C8  UNL     1      -0.469  -1.591  -0.056  1.00  0.00     0.127 C 
HETATM    7  O3  UNL     1      -0.453  -2.295  -1.268  1.00  0.00    -0.304 OA
HETATM    8  C9  UNL     1       0.791  -2.780  -1.345  1.00  0.00     0.271 C 
HETATM    9  C10 UNL     1       1.810  -1.751  -0.793  1.00  0.00     0.091 C 
HETATM   10  C11 UNL     1       2.550  -1.027  -1.910  1.00  0.00     0.011 C 
HETATM   11  C12 UNL     1       0.849  -0.828  -0.056  1.00  0.00     0.065 C 
HETATM   12  C13 UNL     1       1.326  -0.639   1.378  1.00  0.00     0.128 C 
HETATM   13  C14 UNL     1       0.492   0.478   2.059  1.00  0.00     0.052 C 
HETATM   14  C15 UNL     1      -0.632   0.954   1.193  1.00  0.00    -0.046 C 
HETATM   15  C16 UNL     1      -1.485   1.894   1.612  1.00  0.00    -0.032 C 
HETATM   16  C17 UNL     1      -0.805   0.364  -0.172  1.00  0.00     0.020 A 
HETATM   17  O5  UNL     1       1.081  -3.867  -1.784  1.00  0.00    -0.264 OA
ENDROOT
BRANCH   2  18
HETATM   18  O1  UNL     1      -2.474   2.466  -1.638  1.00  0.00    -0.304 OA
BRANCH  18  19
HETATM   19  C3  UNL     1      -3.427   2.533  -2.575  1.00  0.00     0.272 C 
HETATM   20  O2  UNL     1      -3.307   3.295  -3.505  1.00  0.00    -0.264 OA
HETATM   21  C4  UNL     1      -4.652   1.659  -2.469  1.00  0.00     0.106 C 
ENDBRANCH  18  19
ENDBRANCH   2  18
BRANCH  12  22
HETATM   22  O4  UNL     1       2.680  -0.275   1.375  1.00  0.00    -0.337 OA
BRANCH  22  23
HETATM   23  C18 UNL     1       3.593  -1.056   2.001  1.00  0.00     0.072 C 
HETATM   24  C19 UNL     1       4.884  -0.709   1.998  1.00  0.00     0.021 C 
HETATM   25  C20 UNL     1       3.156  -2.308   2.696  1.00  0.00     0.058 C 
ENDBRANCH  22  23
ENDBRANCH  12  22
TORSDOF 4
