REMARK  6 active torsions:
REMARK  status: ('A' for Active; 'I' for Inactive)
REMARK    1  A    between atoms: C4_5  and  C12_18 
REMARK    2  A    between atoms: C5_6  and  O2_7 
REMARK    3  A    between atoms: O2_7  and  C6_8 
REMARK    4  A    between atoms: C17_26  and  O10_27 
REMARK    5  A    between atoms: O10_27  and  C18_28 
REMARK    6  A    between atoms: C19_30  and  C23_37 
ROOT
HETATM    1  C1  UNL     1      -1.702  -1.560  -1.617  1.00  0.00     0.187 A 
HETATM    2  C2  UNL     1      -2.199  -0.309  -0.904  1.00  0.00     0.238 C 
HETATM    3  C3  UNL     1      -3.721  -0.288  -0.916  1.00  0.00     0.270 C 
HETATM    4  O1  UNL     1      -4.131  -0.249  -2.256  1.00  0.00    -0.326 OA
HETATM    5  C4  UNL     1      -3.894  -1.527  -2.790  1.00  0.00     0.180 C 
HETATM    6  C5  UNL     1      -2.390  -1.679  -2.970  1.00  0.00     0.178 C 
HETATM    7  O8  UNL     1      -4.220  -1.443  -0.297  1.00  0.00    -0.326 OA
HETATM    8  C13 UNL     1      -5.054  -1.333   0.825  1.00  0.00     0.183 C 
HETATM    9  C14 UNL     1      -5.451  -2.721   1.298  1.00  0.00     0.209 C 
HETATM   10  C15 UNL     1      -4.237  -3.420   1.895  1.00  0.00     0.151 C 
HETATM   11  O9  UNL     1      -3.811  -2.660   2.994  1.00  0.00    -0.329 OA
HETATM   12  C16 UNL     1      -3.204  -1.507   2.478  1.00  0.00     0.266 C 
HETATM   13  C17 UNL     1      -4.310  -0.609   1.940  1.00  0.00     0.204 C 
HETATM   14  O16 UNL     1      -2.322  -1.853   1.444  1.00  0.00    -0.332 OA
HETATM   15  C24 UNL     1      -0.964  -1.521   1.541  1.00  0.00     0.118 C 
HETATM   16  C25 UNL     1      -0.251  -2.013   0.288  1.00  0.00     0.028 C 
HETATM   17  C26 UNL     1       1.185  -1.506   0.288  1.00  0.00     0.003 C 
HETATM   18  C27 UNL     1       1.185   0.017   0.288  1.00  0.00     0.004 C 
HETATM   19  C28 UNL     1       0.597   0.525   1.598  1.00  0.00     0.003 C 
HETATM   20  C29 UNL     1      -0.838   0.033   1.735  1.00  0.00     0.030 C 
HETATM   21  C30 UNL     1       2.613   0.525   0.142  1.00  0.00     0.022 C 
HETATM   22  C31 UNL     1       3.582  -0.643   0.265  1.00  0.00     0.006 C 
HETATM   23  C32 UNL     1       3.409  -1.575  -0.928  1.00  0.00     0.000 C 
HETATM   24  C33 UNL     1       1.903  -2.013  -0.956  1.00  0.00     0.000 C 
HETATM   25  C34 UNL     1       5.011  -0.117   0.294  1.00  0.00     0.027 C 
HETATM   26  C35 UNL     1       4.997   1.398   0.140  1.00  0.00     0.111 C 
HETATM   27  C36 UNL     1       4.135   2.000   1.206  1.00  0.00    -0.004 C 
HETATM   28  C37 UNL     1       2.899   1.526   1.218  1.00  0.00    -0.029 C 
HETATM   29  C38 UNL     1       6.416   1.935   0.273  1.00  0.00     0.031 C 
HETATM   30  C39 UNL     1       6.362   2.820   1.511  1.00  0.00     0.030 C 
HETATM   31  C40 UNL     1       6.203   1.949   2.751  1.00  0.00     0.003 C 
HETATM   32  C41 UNL     1       5.661  -0.487   1.621  1.00  0.00     0.003 C 
HETATM   33  C42 UNL     1       7.650   3.624   1.617  1.00  0.00     0.003 C 
HETATM   34  C43 UNL     1       7.832   4.461   0.357  1.00  0.00     0.000 C 
HETATM   35  C44 UNL     1       8.083   3.493  -0.718  1.00  0.00     0.000 C 
HETATM   36  C45 UNL     1       6.753   2.786  -0.945  1.00  0.00     0.003 C 
HETATM   37  C46 UNL     1       8.527   4.209  -1.986  1.00  0.00     0.000 C 
HETATM   38  C47 UNL     1       9.190   2.513  -0.352  1.00  0.00     0.000 C 
HETATM   39  C48 UNL     1       5.103   3.654   1.312  1.00  0.00     0.142 C 
HETATM   40  O17 UNL     1       4.456   1.689  -1.120  1.00  0.00    -0.355 OA
HETATM   41  C49 UNL     1       5.804  -0.736  -0.850  1.00  0.00     0.003 C 
HETATM   42  C50 UNL     1       3.296  -1.407   1.551  1.00  0.00     0.000 C 
HETATM   43  C51 UNL     1       0.344   0.525  -0.876  1.00  0.00     0.000 C 
HETATM   44  C52 UNL     1      -0.974  -1.489  -0.946  1.00  0.00     0.038 A 
HETATM   45  O18 UNL     1      -1.419  -2.569  -1.722  1.00  0.00     0.000 OA
HETATM   46  C53 UNL     1      -0.252  -3.536   0.269  1.00  0.00     0.003 C 
HETATM   47  C54 UNL     1      -3.124  -3.504   0.859  1.00  0.00     0.035 C 
HETATM   48  O19 UNL     1      -5.931  -3.465   0.211  1.00  0.00    -0.218 OA
HETATM   49  O20 UNL     1      -1.711   0.829  -1.562  1.00  0.00    -0.215 OA
HETATM   50  O21 UNL     1      -1.999  -2.689  -0.841  1.00  0.00    -0.221 OA
ENDROOT
BRANCH  13  51
HETATM   51  O10 UNL     1      -5.205  -0.299   2.973  1.00  0.00    -0.324 OA
BRANCH  51  52
HETATM   52  C18 UNL     1      -4.750   0.372   4.117  1.00  0.00     0.270 C 
HETATM   53  O11 UNL     1      -4.994  -0.405   5.257  1.00  0.00    -0.326 OA
HETATM   54  C19 UNL     1      -6.315  -0.865   5.159  1.00  0.00     0.184 C 
HETATM   55  C20 UNL     1      -7.234   0.317   5.436  1.00  0.00     0.215 C 
HETATM   56  C21 UNL     1      -6.999   1.397   4.393  1.00  0.00     0.220 C 
HETATM   57  O14 UNL     1      -6.959   0.832   6.711  1.00  0.00    -0.218 OA
HETATM   58  C22 UNL     1      -5.507   1.683   4.285  1.00  0.00     0.241 C 
HETATM   59  O13 UNL     1      -7.482   0.959   3.152  1.00  0.00    -0.218 OA
HETATM   60  O12 UNL     1      -5.070   2.329   5.450  1.00  0.00    -0.215 OA
BRANCH  54  61
HETATM   61  C23 UNL     1      -6.573  -1.406   3.759  1.00  0.00     0.214 C 
HETATM   62  O15 UNL     1      -6.958  -2.752   3.840  1.00  0.00    -0.218 OA
ENDBRANCH  54  61
ENDBRANCH  51  52
ENDBRANCH  13  51
BRANCH   5  63
HETATM   63  C12 UNL     1      -4.413  -2.593  -1.833  1.00  0.00     0.214 C 
HETATM   64  O7  UNL     1      -5.377  -3.377  -2.483  1.00  0.00    -0.218 OA
ENDBRANCH   5  63
BRANCH   6  65
HETATM   65  O2  UNL     1      -1.918  -0.673  -3.825  1.00  0.00    -0.326 OA
BRANCH  65  66
HETATM   66  C6  UNL     1      -0.554  -0.606  -4.143  1.00  0.00     0.270 C 
HETATM   67  O3  UNL     1      -0.031   0.633  -3.749  1.00  0.00    -0.329 OA
HETATM   68  C7  UNL     1      -0.932   1.612  -4.191  1.00  0.00     0.151 C 
HETATM   69  C8  UNL     1      -0.782   1.724  -5.702  1.00  0.00     0.212 C 
HETATM   70  C11 UNL     1      -0.610   2.949  -3.536  1.00  0.00     0.035 C 
HETATM   71  C9  UNL     1      -1.131   0.393  -6.346  1.00  0.00     0.220 C 
HETATM   72  O6  UNL     1      -1.646   2.718  -6.185  1.00  0.00    -0.218 OA
HETATM   73  C10 UNL     1      -0.366  -0.725  -5.650  1.00  0.00     0.241 C 
HETATM   74  O5  UNL     1      -0.780   0.425  -7.703  1.00  0.00    -0.218 OA
HETATM   75  O4  UNL     1       0.997  -0.620  -5.960  1.00  0.00    -0.215 OA
ENDBRANCH  65  66
ENDBRANCH   6  65
TORSDOF 6
