REMARK  10 active torsions:
REMARK  status: ('A' for Active; 'I' for Inactive)
REMARK    1  A    between atoms: C5_6  and  O2_7 
REMARK    2  A    between atoms: O2_7  and  C6_8 
REMARK    3  A    between atoms: C16_25  and  O16_39 
REMARK    4  A    between atoms: C17_26  and  O10_27 
REMARK    5  A    between atoms: O10_27  and  C18_28 
REMARK    6  A    between atoms: C19_30  and  C23_37 
REMARK    7  A    between atoms: O16_39  and  C24_40 
REMARK    8  A    between atoms: C25_41  and  C53_71 
REMARK    9  A    between atoms: C37_53  and  O17_54 
REMARK   10  A    between atoms: C40_57  and  C49_66 
ROOT
HETATM    1  C1  UNL     1      -3.130   1.972  -1.294  1.00  0.00     0.217 C 
HETATM    2  C2  UNL     1      -1.607   1.972  -1.294  1.00  0.00     0.241 C 
HETATM    3  C3  UNL     1      -1.100   2.891  -0.191  1.00  0.00     0.270 C 
HETATM    4  O1  UNL     1      -1.561   4.184  -0.474  1.00  0.00    -0.326 OA
HETATM    5  C4  UNL     1      -2.938   4.194  -0.193  1.00  0.00     0.181 C 
HETATM    6  C5  UNL     1      -3.638   3.408  -1.294  1.00  0.00     0.181 C 
HETATM    7  C12 UNL     1      -3.196   3.538   1.157  1.00  0.00     0.214 A 
HETATM    8  O7  UNL     1      -3.829   4.454   2.009  1.00  0.00    -0.218 OA
HETATM    9  O8  UNL     1      -1.595   2.468   1.050  1.00  0.00    -0.329 OA
HETATM   10  C13 UNL     1      -1.257   3.169   2.216  1.00  0.00     0.153 C 
HETATM   11  C14 UNL     1      -2.521   3.692   2.877  1.00  0.00     0.062 C 
HETATM   12  C15 UNL     1      -3.316   2.526   3.449  1.00  0.00     0.121 C 
HETATM   13  O9  UNL     1      -2.513   1.903   4.415  1.00  0.00    -0.332 OA
HETATM   14  C16 UNL     1      -1.512   1.206   3.722  1.00  0.00     0.266 C 
HETATM   15  C17 UNL     1      -0.531   2.235   3.176  1.00  0.00     0.201 C 
HETATM   16  C55 UNL     1      -3.658   1.537   2.342  1.00  0.00     0.032 C 
HETATM   17  O20 UNL     1      -3.300   4.365   1.925  1.00  0.00     0.000 OA
HETATM   18  O21 UNL     1      -1.140   2.429  -2.534  1.00  0.00    -0.215 OA
HETATM   19  O22 UNL     1      -3.597   1.312  -0.149  1.00  0.00    -0.218 OA
ENDROOT
BRANCH  14  20
HETATM   20  O16 UNL     1      -2.080   0.479   2.666  1.00  0.00    -0.332 OA
BRANCH  20  21
HETATM   21  C24 UNL     1      -1.264  -0.298   1.832  1.00  0.00     0.120 C 
HETATM   22  C25 UNL     1      -1.708  -1.754   1.877  1.00  0.00     0.056 C 
HETATM   23  C26 UNL     1      -0.751  -2.603   1.051  1.00  0.00     0.005 C 
HETATM   24  C54 UNL     1      -1.703  -2.241   3.320  1.00  0.00     0.005 C 
HETATM   25  C27 UNL     1      -0.738  -2.100  -0.386  1.00  0.00     0.003 C 
HETATM   26  C33 UNL     1      -1.208  -4.055   1.077  1.00  0.00     0.000 C 
HETATM   27  C28 UNL     1      -0.379  -0.620  -0.404  1.00  0.00     0.003 C 
HETATM   28  C30 UNL     1       0.293  -2.882  -1.189  1.00  0.00     0.032 C 
HETATM   29  C52 UNL     1      -2.117  -2.295  -1.004  1.00  0.00     0.000 C 
HETATM   30  C29 UNL     1      -1.397   0.159   0.418  1.00  0.00     0.030 C 
HETATM   31  C31 UNL     1       0.805  -4.050  -0.356  1.00  0.00     0.006 C 
HETATM   32  C37 UNL     1       1.456  -1.968  -1.549  1.00  0.00     0.137 C 
HETATM   33  C32 UNL     1      -0.374  -4.882   0.131  1.00  0.00     0.000 C 
HETATM   34  C34 UNL     1       1.722  -4.918  -1.208  1.00  0.00     0.015 C 
HETATM   35  C51 UNL     1       1.580  -3.518   0.843  1.00  0.00     0.000 C 
HETATM   36  C35 UNL     1       2.784  -4.065  -1.826  1.00  0.00    -0.047 C 
HETATM   37  C42 UNL     1       2.370  -5.983  -0.333  1.00  0.00     0.004 C 
HETATM   38  C50 UNL     1       0.908  -5.590  -2.305  1.00  0.00     0.004 C 
HETATM   39  C36 UNL     1       2.742  -2.731  -1.745  1.00  0.00    -0.006 C 
HETATM   40  C39 UNL     1       3.905  -4.768  -2.527  1.00  0.00     0.021 C 
HETATM   41  C40 UNL     1       4.513  -5.808  -1.596  1.00  0.00     0.034 C 
HETATM   42  C46 UNL     1       4.971  -3.755  -2.923  1.00  0.00     0.004 C 
HETATM   43  C41 UNL     1       3.427  -6.769  -1.131  1.00  0.00     0.003 C 
HETATM   44  C43 UNL     1       5.594  -6.583  -2.338  1.00  0.00     0.003 C 
HETATM   45  C44 UNL     1       6.686  -5.624  -2.792  1.00  0.00     0.000 C 
HETATM   46  C45 UNL     1       6.104  -4.468  -3.648  1.00  0.00     0.000 C 
HETATM   47  C47 UNL     1       7.212  -3.465  -3.944  1.00  0.00     0.000 C 
HETATM   48  C48 UNL     1       5.551  -5.059  -4.939  1.00  0.00     0.000 C 
BRANCH  22  49
HETATM   49  C53 UNL     1      -3.115  -1.873   1.305  1.00  0.00     0.184 C 
HETATM   50  O19 UNL     1      -3.974  -2.395   2.282  1.00  0.00    -0.221 OA
ENDBRANCH  22  49
BRANCH  41  51
HETATM   51  C49 UNL     1       5.126  -5.112  -0.389  1.00  0.00     0.182 C 
HETATM   52  O18 UNL     1       4.520  -3.860  -0.212  1.00  0.00    -0.221 OA
ENDBRANCH  41  51
BRANCH  32  53
HETATM   53  O17 UNL     1       1.636  -1.038  -0.515  1.00  0.00    -0.350 OA
HETATM   54  C38 UNL     1       1.497   0.333  -0.774  1.00  0.00     0.175 C 
ENDBRANCH  32  53
ENDBRANCH  20  21
ENDBRANCH  14  20
BRANCH  15  55
HETATM   55  O10 UNL     1       0.002   2.980   4.238  1.00  0.00    -0.324 OA
BRANCH  55  56
HETATM   56  C18 UNL     1       0.719   2.335   5.255  1.00  0.00     0.270 C 
HETATM   57  O11 UNL     1       0.104   2.566   6.494  1.00  0.00    -0.326 OA
HETATM   58  C19 UNL     1      -0.178   3.938   6.556  1.00  0.00     0.184 C 
HETATM   59  C20 UNL     1       1.141   4.668   6.771  1.00  0.00     0.215 C 
HETATM   60  C21 UNL     1       2.065   4.399   5.595  1.00  0.00     0.220 C 
HETATM   61  O14 UNL     1       1.742   4.209   7.952  1.00  0.00    -0.218 OA
HETATM   62  C22 UNL     1       2.132   2.900   5.334  1.00  0.00     0.241 C 
HETATM   63  O13 UNL     1       1.573   5.050   4.456  1.00  0.00    -0.218 OA
HETATM   64  O12 UNL     1       2.828   2.274   6.377  1.00  0.00    -0.215 OA
BRANCH  58  65
HETATM   65  C23 UNL     1      -0.820   4.396   5.253  1.00  0.00     0.214 C 
HETATM   66  O15 UNL     1      -2.084   4.940   5.520  1.00  0.00    -0.218 OA
ENDBRANCH  58  65
ENDBRANCH  55  56
ENDBRANCH  15  55
BRANCH   6  67
HETATM   67  O2  UNL     1      -3.365   3.999  -2.535  1.00  0.00    -0.326 OA
BRANCH  67  68
HETATM   68  C6  UNL     1      -3.904   3.450  -3.707  1.00  0.00     0.270 C 
HETATM   69  O3  UNL     1      -2.872   3.089  -4.585  1.00  0.00    -0.329 OA
HETATM   70  C7  UNL     1      -1.981   4.170  -4.629  1.00  0.00     0.151 C 
HETATM   71  C8  UNL     1      -2.646   5.278  -5.435  1.00  0.00     0.212 C 
HETATM   72  C11 UNL     1      -0.682   3.746  -5.302  1.00  0.00     0.035 C 
HETATM   73  C9  UNL     1      -3.926   5.711  -4.742  1.00  0.00     0.220 C 
HETATM   74  O6  UNL     1      -1.774   6.372  -5.532  1.00  0.00    -0.218 OA
HETATM   75  C10 UNL     1      -4.768   4.484  -4.417  1.00  0.00     0.241 C 
HETATM   76  O5  UNL     1      -4.651   6.563  -5.588  1.00  0.00    -0.218 OA
HETATM   77  O4  UNL     1      -5.272   3.936  -5.604  1.00  0.00    -0.215 OA
ENDBRANCH  67  68
ENDBRANCH   6  67
TORSDOF 10
