REMARK  4 active torsions:
REMARK  status: ('A' for Active; 'I' for Inactive)
REMARK    1  A    between atoms: C4_4  and  O4_10 
REMARK    2  A    between atoms: C5_6  and  C6_7 
REMARK    3  A    between atoms: O4_10  and  C7_11 
REMARK    4  A    between atoms: C13_19  and  C16_24 
ROOT
HETATM    1  C7  UNL     1       0.711  -1.866   1.701  1.00  0.00     0.126 A 
HETATM    2  C8  UNL     1       1.689  -1.847   2.696  1.00  0.00     0.054 A 
HETATM    3  C9  UNL     1       2.563  -0.763   2.798  1.00  0.00     0.138 A 
HETATM    4  C10 UNL     1       2.465   0.311   1.904  1.00  0.00     0.091 A 
HETATM    5  C11 UNL     1       1.480   0.282   0.908  1.00  0.00     0.132 A 
HETATM    6  C12 UNL     1       0.607  -0.802   0.806  1.00  0.00     0.176 A 
HETATM    7  O5  UNL     1      -0.342  -0.819  -0.161  1.00  0.00    -0.186 OA
HETATM    8  O6  UNL     1       1.318   1.296  -0.009  1.00  0.00    -0.303 OA
HETATM    9  C13 UNL     1       2.165   2.377   0.068  1.00  0.00     0.128 A 
HETATM   10  C14 UNL     1       3.143   2.524   0.969  1.00  0.00     0.192 A 
HETATM   11  C15 UNL     1       3.404   1.482   2.009  1.00  0.00     0.227 A 
HETATM   12  O7  UNL     1       4.274   1.570   2.843  1.00  0.00    -0.284 OA
HETATM   13  O8  UNL     1       3.911   3.639   0.939  1.00  0.00    -0.185 OA
HETATM   14  O10 UNL     1       3.510  -0.750   3.767  1.00  0.00    -0.190 OA
ENDROOT
BRANCH   1  15
HETATM   15  O4  UNL     1      -0.136  -2.919   1.603  1.00  0.00    -0.301 OA
BRANCH  15  16
HETATM   16  C4  UNL     1      -1.118  -2.939   0.603  1.00  0.00     0.275 C 
HETATM   17  C3  UNL     1      -1.936  -4.219   0.704  1.00  0.00     0.241 C 
HETATM   18  C2  UNL     1      -2.986  -4.239  -0.399  1.00  0.00     0.221 C 
HETATM   19  O11 UNL     1      -1.088  -5.327   0.562  1.00  0.00    -0.215 OA
HETATM   20  C1  UNL     1      -3.747  -2.921  -0.399  1.00  0.00     0.223 C 
HETATM   21  O12 UNL     1      -3.881  -5.295  -0.173  1.00  0.00    -0.218 OA
HETATM   22  C5  UNL     1      -2.758  -1.763  -0.399  1.00  0.00     0.237 C 
HETATM   23  O13 UNL     1      -4.553  -2.846  -1.544  1.00  0.00    -0.217 OA
HETATM   24  O1  UNL     1      -1.998  -1.857   0.776  1.00  0.00    -0.318 OA
BRANCH  22  25
HETATM   25  C6  UNL     1      -3.501  -0.450  -0.427  1.00  0.00     0.217 C 
HETATM   26  O2  UNL     1      -3.298   0.413  -1.429  1.00  0.00    -0.646 OA
HETATM   27  O3  UNL     1      -4.280  -0.178   0.456  1.00  0.00    -0.646 OA
ENDBRANCH  22  25
ENDBRANCH  15  16
ENDBRANCH   1  15
BRANCH   9  28
HETATM   28  C16 UNL     1       1.999   3.357  -0.826  1.00  0.00     0.025 A 
HETATM   29  C17 UNL     1       0.996   3.258  -1.790  1.00  0.00     0.004 A 
HETATM   30  C18 UNL     1       0.823   4.280  -2.724  1.00  0.00     0.028 A 
HETATM   31  C19 UNL     1       1.653   5.400  -2.694  1.00  0.00     0.131 A 
HETATM   32  C20 UNL     1       2.656   5.499  -1.730  1.00  0.00     0.028 A 
HETATM   33  O9  UNL     1       1.485   6.393  -3.600  1.00  0.00    -0.190 OA
HETATM   34  C21 UNL     1       2.829   4.477  -0.796  1.00  0.00     0.004 A 
ENDBRANCH   9  28
TORSDOF 4
