REMARK  1 active torsions:
REMARK  status: ('A' for Active; 'I' for Inactive)
REMARK    1  A    between atoms: C19_21  and  C22_25 
ROOT
HETATM    1  C1  UNL     1      -4.900  -0.710   0.653  1.00  0.00     0.033 C 
HETATM    2  C2  UNL     1      -4.949  -2.250   0.572  1.00  0.00     0.152 C 
HETATM    3  C3  UNL     1      -4.234  -2.749  -0.677  1.00  0.00     0.031 C 
HETATM    4  C4  UNL     1      -2.798  -2.241  -0.677  1.00  0.00     0.033 C 
HETATM    5  C5  UNL     1      -2.798  -0.718  -0.677  1.00  0.00     0.003 C 
HETATM    6  C6  UNL     1      -3.462  -0.211   0.596  1.00  0.00     0.003 C 
HETATM    7  C7  UNL     1      -1.363  -0.211  -0.738  1.00  0.00     0.003 C 
HETATM    8  C8  UNL     1      -0.579  -0.762   0.445  1.00  0.00     0.003 C 
HETATM    9  C9  UNL     1      -0.678  -2.282   0.457  1.00  0.00     0.033 C 
HETATM   10  C10 UNL     1      -2.080  -2.749   0.567  1.00  0.00     0.152 C 
HETATM   11  O1  UNL     1      -2.122  -4.150   0.614  1.00  0.00    -0.224 OA
HETATM   12  C11 UNL     1       0.882  -0.350   0.322  1.00  0.00     0.003 C 
HETATM   13  C12 UNL     1       1.003   0.800  -0.669  1.00  0.00     0.031 C 
HETATM   14  C13 UNL     1      -0.028   1.870  -0.334  1.00  0.00     0.152 C 
HETATM   15  C14 UNL     1      -1.361   1.311  -0.684  1.00  0.00     0.033 C 
HETATM   16  O2  UNL     1       0.220   3.029  -1.082  1.00  0.00    -0.224 OA
HETATM   17  C15 UNL     1       2.401   1.399  -0.584  1.00  0.00     0.005 C 
HETATM   18  C16 UNL     1       2.625   1.971   0.810  1.00  0.00     0.028 C 
HETATM   19  C17 UNL     1       2.878   0.833   1.791  1.00  0.00     0.002 C 
HETATM   20  C18 UNL     1       1.400   0.096   1.683  1.00  0.00     0.000 C 
HETATM   21  C19 UNL     1       3.888   2.808   0.666  1.00  0.00     0.127 C 
HETATM   22  C20 UNL     1       3.525   3.506  -0.827  1.00  0.00     0.030 C 
HETATM   23  C21 UNL     1       2.490   2.613  -1.499  1.00  0.00     0.003 C 
HETATM   24  O3  UNL     1       4.013   3.764   1.685  1.00  0.00    -0.226 OA
HETATM   25  C25 UNL     1       3.399   0.307  -0.946  1.00  0.00     0.000 C 
HETATM   26  C26 UNL     1       1.704  -1.533  -0.171  1.00  0.00     0.000 C 
HETATM   27  C27 UNL     1      -1.156  -0.206   1.740  1.00  0.00     0.000 C 
HETATM   28  C28 UNL     1      -3.568  -0.211  -1.888  1.00  0.00     0.000 C 
HETATM   29  C29 UNL     1      -4.233  -4.272  -0.686  1.00  0.00     0.003 C 
HETATM   30  C30 UNL     1      -4.955  -2.233  -1.915  1.00  0.00     0.003 C 
HETATM   31  O4  UNL     1      -6.287  -2.665   0.532  1.00  0.00    -0.224 OA
ENDROOT
BRANCH  21  32
HETATM   32  C22 UNL     1       5.210   2.056   0.754  1.00  0.00     0.028 C 
HETATM   33  C23 UNL     1       5.931   2.139  -0.584  1.00  0.00     0.003 C 
HETATM   34  C24 UNL     1       6.077   2.680   1.839  1.00  0.00     0.003 C 
ENDBRANCH  21  32
TORSDOF 1
