REMARK  11 active torsions:
REMARK  status: ('A' for Active; 'I' for Inactive)
REMARK    1  A    between atoms: C4_4  and  O3_9 
REMARK    2  A    between atoms: C5_6  and  C6_7 
REMARK    3  A    between atoms: O3_9  and  C7_10 
REMARK    4  A    between atoms: C7_10  and  C8_11 
REMARK    5  A    between atoms: C12_15  and  O5_17 
REMARK    6  A    between atoms: O5_17  and  C13_18 
REMARK    7  A    between atoms: C27_32  and  C30_35 
REMARK    8  A    between atoms: C30_35  and  C31_36 
REMARK    9  A    between atoms: C31_36  and  C32_37 
REMARK   10  A    between atoms: C32_37  and  C33_38 
REMARK   11  A    between atoms: C33_38  and  C34_39 
ROOT
HETATM    1  C13 UNL     1      -2.402  -1.389  -2.388  1.00  0.00     0.121 C 
HETATM    2  C14 UNL     1      -1.476  -2.064  -3.391  1.00  0.00     0.040 C 
HETATM    3  C15 UNL     1      -0.144  -1.379  -3.378  1.00  0.00    -0.043 C 
HETATM    4  C16 UNL     1      -0.144   0.117  -3.378  1.00  0.00     0.019 C 
HETATM    5  C17 UNL     1      -1.327   0.625  -2.564  1.00  0.00     0.006 C 
HETATM    6  C18 UNL     1      -2.592  -0.102  -2.998  1.00  0.00     0.030 C 
HETATM    7  C19 UNL     1       1.153   0.625  -2.761  1.00  0.00     0.007 C 
HETATM    8  C20 UNL     1       2.094  -0.548  -2.521  1.00  0.00     0.022 C 
HETATM    9  C21 UNL     1       2.136  -1.428  -3.763  1.00  0.00    -0.027 C 
HETATM   10  C22 UNL     1       0.997  -2.076  -3.378  1.00  0.00    -0.013 C 
HETATM   11  C23 UNL     1       3.492  -0.024  -2.222  1.00  0.00     0.004 C 
HETATM   12  C24 UNL     1       3.390   1.337  -1.546  1.00  0.00     0.000 C 
HETATM   13  C25 UNL     1       2.175   1.359  -0.628  1.00  0.00     0.000 C 
HETATM   14  C26 UNL     1       0.849   1.313  -1.437  1.00  0.00     0.001 C 
HETATM   15  C27 UNL     1       4.659   1.429  -0.709  1.00  0.00     0.003 C 
HETATM   16  C28 UNL     1       4.923   0.071  -0.297  1.00  0.00     0.000 C 
HETATM   17  C29 UNL     1       4.152  -0.908  -1.172  1.00  0.00     0.000 C 
HETATM   18  C38 UNL     1       3.248   2.485  -2.537  1.00  0.00     0.000 C 
HETATM   19  C39 UNL     1       4.264   0.020  -3.534  1.00  0.00     0.000 C 
HETATM   20  C40 UNL     1       1.811   1.618  -3.710  1.00  0.00     0.001 C 
HETATM   21  C41 UNL     1      -1.297  -3.528  -3.012  1.00  0.00     0.006 C 
HETATM   22  C42 UNL     1      -2.081  -1.970  -4.785  1.00  0.00     0.006 C 
ENDROOT
BRANCH   1  23
HETATM   23  O5  UNL     1      -3.615  -2.082  -2.266  1.00  0.00    -0.331 OA
BRANCH  23  24
HETATM   24  C12 UNL     1      -4.603  -1.615  -1.387  1.00  0.00     0.270 C 
HETATM   25  C11 UNL     1      -5.884  -1.321  -2.156  1.00  0.00     0.241 C 
HETATM   26  C10 UNL     1      -6.944  -0.796  -1.196  1.00  0.00     0.220 C 
HETATM   27  O10 UNL     1      -5.627  -0.356  -3.141  1.00  0.00    -0.215 OA
HETATM   28  C9  UNL     1      -7.046  -1.727   0.005  1.00  0.00     0.215 C 
HETATM   29  O11 UNL     1      -8.182  -0.742  -1.852  1.00  0.00    -0.218 OA
HETATM   30  C8  UNL     1      -5.655  -1.980   0.571  1.00  0.00     0.180 C 
HETATM   31  O12 UNL     1      -7.616  -2.944  -0.395  1.00  0.00    -0.218 OA
HETATM   32  O4  UNL     1      -4.899  -2.602  -0.431  1.00  0.00    -0.326 OA
BRANCH  30  33
HETATM   33  C7  UNL     1      -5.748  -2.888   1.791  1.00  0.00     0.177 C 
BRANCH  33  34
HETATM   34  O3  UNL     1      -5.209  -2.230   2.905  1.00  0.00    -0.326 OA
BRANCH  34  35
HETATM   35  C4  UNL     1      -5.184  -2.871   4.152  1.00  0.00     0.270 C 
HETATM   36  C3  UNL     1      -3.748  -2.981   4.649  1.00  0.00     0.241 C 
HETATM   37  C2  UNL     1      -3.730  -3.696   5.994  1.00  0.00     0.220 C 
HETATM   38  O13 UNL     1      -2.988  -3.709   3.723  1.00  0.00    -0.215 OA
HETATM   39  C1  UNL     1      -4.747  -3.050   6.926  1.00  0.00     0.215 C 
HETATM   40  O14 UNL     1      -2.451  -3.598   6.558  1.00  0.00    -0.218 OA
HETATM   41  C5  UNL     1      -6.088  -2.937   6.215  1.00  0.00     0.184 C 
HETATM   42  O15 UNL     1      -4.301  -1.771   7.289  1.00  0.00    -0.218 OA
HETATM   43  O1  UNL     1      -5.902  -2.115   5.093  1.00  0.00    -0.326 OA
BRANCH  41  44
HETATM   44  C6  UNL     1      -7.120  -2.317   7.147  1.00  0.00     0.214 C 
HETATM   45  O2  UNL     1      -8.191  -3.205   7.317  1.00  0.00    -0.218 OA
ENDBRANCH  41  44
ENDBRANCH  34  35
ENDBRANCH  33  34
ENDBRANCH  30  33
ENDBRANCH  23  24
ENDBRANCH   1  23
BRANCH  15  46
HETATM   46  C30 UNL     1       5.814   1.970  -1.541  1.00  0.00     0.033 C 
HETATM   47  C37 UNL     1       6.913   0.919  -1.630  1.00  0.00     0.003 C 
BRANCH  46  48
HETATM   48  C31 UNL     1       6.366   3.229  -0.885  1.00  0.00     0.185 C 
HETATM   49  O9  UNL     1       7.716   3.034  -0.563  1.00  0.00    -0.221 OA
BRANCH  48  50
HETATM   50  C32 UNL     1       5.580   3.527   0.385  1.00  0.00     0.215 C 
HETATM   51  O8  UNL     1       5.699   2.447   1.272  1.00  0.00    -0.218 OA
BRANCH  50  52
HETATM   52  C33 UNL     1       6.131   4.785   1.041  1.00  0.00     0.212 C 
HETATM   53  O7  UNL     1       6.013   5.865   0.155  1.00  0.00    -0.218 OA
BRANCH  52  54
HETATM   54  C34 UNL     1       5.345   5.083   2.311  1.00  0.00     0.157 C 
HETATM   55  C35 UNL     1       5.897   6.342   2.968  1.00  0.00     0.036 C 
HETATM   56  O6  UNL     1       3.995   5.278   1.989  1.00  0.00    -0.223 OA
HETATM   57  C36 UNL     1       5.474   3.910   3.275  1.00  0.00     0.036 C 
ENDBRANCH  52  54
ENDBRANCH  50  52
ENDBRANCH  48  50
ENDBRANCH  46  48
ENDBRANCH  15  46
TORSDOF 11
