REMARK  25 active torsions:
REMARK  status: ('A' for Active; 'I' for Inactive)
REMARK    1  A    between atoms: C2_2  and  C3_3 
REMARK    2  A    between atoms: C3_3  and  C4_4 
REMARK    3  A    between atoms: C4_4  and  C5_5 
REMARK    4  A    between atoms: C5_5  and  C6_6 
REMARK    5  A    between atoms: C6_6  and  C7_7 
REMARK    6  A    between atoms: C7_7  and  C8_8 
REMARK    7  A    between atoms: C8_8  and  C9_9 
REMARK    8  A    between atoms: C9_9  and  C10_10 
REMARK    9  A    between atoms: C10_10  and  C11_11 
REMARK   10  A    between atoms: C11_11  and  C12_12 
REMARK   11  A    between atoms: C12_12  and  C13_13 
REMARK   12  A    between atoms: C13_13  and  C14_14 
REMARK   13  A    between atoms: C18_18  and  C19_20 
REMARK   14  A    between atoms: C19_20  and  C20_21 
REMARK   15  A    between atoms: C20_21  and  C21_22 
REMARK   16  A    between atoms: C21_22  and  C22_23 
REMARK   17  A    between atoms: C22_23  and  C23_24 
REMARK   18  A    between atoms: C23_24  and  C24_25 
REMARK   19  A    between atoms: C24_25  and  C25_26 
REMARK   20  A    between atoms: C25_26  and  C26_27 
REMARK   21  A    between atoms: C26_27  and  C27_28 
REMARK   22  A    between atoms: C27_28  and  C28_29 
REMARK   23  A    between atoms: C28_29  and  C29_30 
REMARK   24  A    between atoms: C29_30  and  C30_31 
REMARK   25  A    between atoms: C30_31  and  C31_32 
ROOT
HETATM    1  C19 UNL     1      -2.604   2.293  -1.889  1.00  0.00     0.180 C 
HETATM    2  O6  UNL     1      -3.840   2.969  -1.867  1.00  0.00    -0.221 OA
ENDROOT
BRANCH   1   3
HETATM    3  C18 UNL     1      -1.582   3.147  -1.150  1.00  0.00     0.152 C 
HETATM    4  C17 UNL     1      -1.328   4.498  -1.832  1.00  0.00     0.040 C 
HETATM    5  C16 UNL     1       0.084   4.793  -1.340  1.00  0.00     0.055 C 
HETATM    6  C15 UNL     1       0.617   3.408  -1.105  1.00  0.00     0.093 C 
HETATM    7  C14 UNL     1       1.926   3.135  -0.930  1.00  0.00     0.127 C 
HETATM    8  O1  UNL     1      -0.326   2.473  -1.096  1.00  0.00    -0.333 OA
HETATM    9  O7  UNL     1       2.322   1.881  -0.730  1.00  0.00    -0.193 OA
BRANCH   7  10
HETATM   10  C13 UNL     1       2.936   4.254  -0.957  1.00  0.00     0.056 C 
BRANCH  10  11
HETATM   11  C12 UNL     1       4.205   3.912  -0.174  1.00  0.00     0.007 C 
BRANCH  11  12
HETATM   12  C11 UNL     1       5.223   5.053  -0.178  1.00  0.00     0.000 C 
BRANCH  12  13
HETATM   13  C10 UNL     1       6.492   4.711   0.607  1.00  0.00     0.000 C 
BRANCH  13  14
HETATM   14  C9  UNL     1       7.510   5.852   0.604  1.00  0.00     0.000 C 
BRANCH  14  15
HETATM   15  C8  UNL     1       8.779   5.510   1.387  1.00  0.00     0.000 C 
BRANCH  15  16
HETATM   16  C7  UNL     1       9.799   6.651   1.385  1.00  0.00     0.000 C 
BRANCH  16  17
HETATM   17  C6  UNL     1      11.067   6.309   2.168  1.00  0.00     0.000 C 
BRANCH  17  18
HETATM   18  C5  UNL     1      12.086   7.449   2.166  1.00  0.00     0.000 C 
BRANCH  18  19
HETATM   19  C4  UNL     1      13.354   7.110   2.949  1.00  0.00     0.000 C 
BRANCH  19  20
HETATM   20  C3  UNL     1      14.373   8.248   2.945  1.00  0.00     0.000 C 
BRANCH  20  21
HETATM   21  C2  UNL     1      15.641   7.908   3.731  1.00  0.00     0.000 C 
HETATM   22  C1  UNL     1      16.660   9.047   3.727  1.00  0.00     0.000 C 
ENDBRANCH  20  21
ENDBRANCH  19  20
ENDBRANCH  18  19
ENDBRANCH  17  18
ENDBRANCH  16  17
ENDBRANCH  15  16
ENDBRANCH  14  15
ENDBRANCH  13  14
ENDBRANCH  12  13
ENDBRANCH  11  12
ENDBRANCH  10  11
ENDBRANCH   7  10
ENDBRANCH   1   3
BRANCH   1  23
HETATM   23  C20 UNL     1      -2.775   0.959  -1.160  1.00  0.00     0.038 C 
BRANCH  23  24
HETATM   24  C21 UNL     1      -3.682  -0.014  -1.914  1.00  0.00     0.036 C 
BRANCH  24  25
HETATM   25  C22 UNL     1      -3.877  -1.336  -1.170  1.00  0.00     0.152 C 
HETATM   26  O5  UNL     1      -2.658  -2.045  -1.205  1.00  0.00    -0.224 OA
BRANCH  25  27
HETATM   27  C23 UNL     1      -4.959  -2.213  -1.797  1.00  0.00     0.033 C 
BRANCH  27  28
HETATM   28  C24 UNL     1      -5.291  -3.439  -0.949  1.00  0.00     0.003 C 
BRANCH  28  29
HETATM   29  C25 UNL     1      -6.400  -4.297  -1.559  1.00  0.00     0.000 C 
BRANCH  29  30
HETATM   30  C26 UNL     1      -6.733  -5.525  -0.711  1.00  0.00     0.000 C 
BRANCH  30  31
HETATM   31  C27 UNL     1      -7.842  -6.383  -1.320  1.00  0.00     0.003 C 
BRANCH  31  32
HETATM   32  C28 UNL     1      -8.170  -7.611  -0.475  1.00  0.00     0.033 C 
BRANCH  32  33
HETATM   33  C29 UNL     1      -9.324  -8.434  -1.051  1.00  0.00     0.153 C 
HETATM   34  O4  UNL     1      -8.875  -9.055  -2.232  1.00  0.00    -0.223 OA
BRANCH  33  35
HETATM   35  C30 UNL     1      -9.809  -9.522  -0.092  1.00  0.00     0.043 C 
BRANCH  35  36
HETATM   36  C31 UNL     1     -11.117 -10.109  -0.611  1.00  0.00     0.091 C 
HETATM   37  C32 UNL     1     -10.953 -11.402  -1.357  1.00  0.00     0.271 C 
HETATM   38  O2  UNL     1     -11.848 -12.322  -1.014  1.00  0.00    -0.304 OA
HETATM   39  O3  UNL     1     -10.078 -11.570  -2.176  1.00  0.00    -0.264 OA
HETATM   40  C33 UNL     1     -12.776 -11.699  -0.131  1.00  0.00     0.125 C 
HETATM   41  C34 UNL     1     -12.033 -10.535   0.533  1.00  0.00     0.040 C 
HETATM   42  C35 UNL     1     -13.305 -12.715   0.875  1.00  0.00     0.033 C 
ENDBRANCH  35  36
ENDBRANCH  33  35
ENDBRANCH  32  33
ENDBRANCH  31  32
ENDBRANCH  30  31
ENDBRANCH  29  30
ENDBRANCH  28  29
ENDBRANCH  27  28
ENDBRANCH  25  27
ENDBRANCH  24  25
ENDBRANCH  23  24
ENDBRANCH   1  23
TORSDOF 25
