REMARK  3 active torsions:
REMARK  status: ('A' for Active; 'I' for Inactive)
REMARK    1  A    between atoms: C19_23  and  C24_28 
REMARK    2  A    between atoms: C30_36  and  C38_45 
REMARK    3  A    between atoms: C31_37  and  C33_40 
ROOT
HETATM    1  C1  UNL     1       1.461  -0.554   6.680  1.00  0.00     0.098 C 
HETATM    2  C2  UNL     1       1.910  -1.612   5.686  1.00  0.00     0.028 C 
HETATM    3  C3  UNL     1       1.701  -1.083   4.276  1.00  0.00     0.011 C 
HETATM    4  C4  UNL     1       0.350  -0.439   4.149  1.00  0.00     0.074 A 
HETATM    5  C5  UNL     1      -0.376  -0.066   5.286  1.00  0.00     0.073 A 
HETATM    6  O1  UNL     1       0.064  -0.271   6.567  1.00  0.00    -0.340 OA
HETATM    7  C6  UNL     1      -1.636   0.519   5.157  1.00  0.00     0.016 A 
HETATM    8  C7  UNL     1      -2.169   0.763   3.892  1.00  0.00    -0.015 A 
HETATM    9  C8  UNL     1      -1.443   0.417   2.754  1.00  0.00     0.106 A 
HETATM   10  C9  UNL     1      -0.188  -0.180   2.881  1.00  0.00     0.150 A 
HETATM   11  O2  UNL     1       0.516  -0.511   1.771  1.00  0.00    -0.224 OA
HETATM   12  C10 UNL     1      -1.954   0.661   1.527  1.00  0.00     0.157 C 
HETATM   13  C11 UNL     1      -1.168   0.287   0.295  1.00  0.00     0.066 A 
HETATM   14  C12 UNL     1      -1.168  -0.688   0.295  1.00  0.00     0.034 A 
HETATM   15  C13 UNL     1      -1.948  -1.059   1.518  1.00  0.00    -0.037 A 
HETATM   16  C14 UNL     1      -3.202  -1.655   1.391  1.00  0.00    -0.006 A 
HETATM   17  C15 UNL     1      -3.929  -2.001   2.530  1.00  0.00     0.026 A 
HETATM   18  C16 UNL     1      -3.401  -1.749   3.796  1.00  0.00     0.127 A 
HETATM   19  C17 UNL     1      -2.146  -1.153   3.924  1.00  0.00     0.008 A 
HETATM   20  C18 UNL     1      -1.420  -0.807   2.784  1.00  0.00     0.074 A 
HETATM   21  O3  UNL     1      -0.201  -0.228   2.907  1.00  0.00     0.000 OA
HETATM   22  O4  UNL     1      -4.107  -2.085   4.904  1.00  0.00    -0.191 OA
HETATM   23  C19 UNL     1       0.013  -1.649   0.295  1.00  0.00     0.052 A 
HETATM   24  C20 UNL     1       1.291  -0.869   0.295  1.00  0.00    -0.030 A 
HETATM   25  C21 UNL     1       1.291   0.468   0.295  1.00  0.00    -0.047 A 
HETATM   26  C22 UNL     1       0.013   1.248   0.295  1.00  0.00     0.029 A 
HETATM   27  C23 UNL     1       2.596   1.201   0.295  1.00  0.00     0.026 C 
HETATM   28  O11 UNL     1      -3.041   1.177   1.417  1.00  0.00    -0.296 OA
HETATM   29  C44 UNL     1       1.750  -1.050   8.090  1.00  0.00     0.030 C 
HETATM   30  C45 UNL     1       2.226   0.728   6.379  1.00  0.00     0.030 C 
ENDROOT
BRANCH  23  31
HETATM   31  C24 UNL     1      -0.045  -2.510  -0.928  1.00  0.00     0.030 A 
HETATM   32  C25 UNL     1      -0.139  -3.896  -0.803  1.00  0.00     0.131 A 
HETATM   33  O5  UNL     1      -0.177  -4.464   0.427  1.00  0.00    -0.190 OA
HETATM   34  C26 UNL     1      -0.193  -4.697  -1.943  1.00  0.00     0.055 A 
HETATM   35  C27 UNL     1      -0.154  -4.115  -3.212  1.00  0.00     0.138 A 
HETATM   36  C28 UNL     1      -0.059  -2.723  -3.348  1.00  0.00     0.087 A 
HETATM   37  O10 UNL     1      -0.207  -4.899  -4.316  1.00  0.00    -0.190 OA
HETATM   38  C29 UNL     1      -0.006  -1.928  -2.196  1.00  0.00     0.103 A 
HETATM   39  C32 UNL     1      -0.017  -2.090  -4.711  1.00  0.00     0.197 A 
HETATM   40  O6  UNL     1       0.087  -0.554  -2.243  1.00  0.00    -0.308 OA
HETATM   41  C30 UNL     1       0.128   0.047  -3.480  1.00  0.00     0.095 A 
HETATM   42  C31 UNL     1       0.084  -0.599  -4.650  1.00  0.00     0.039 A 
HETATM   43  O7  UNL     1      -0.059  -2.717  -5.743  1.00  0.00    -0.287 OA
BRANCH  41  44
HETATM   44  C38 UNL     1       0.218   1.380  -3.514  1.00  0.00     0.004 A 
HETATM   45  C39 UNL     1       0.267   2.107  -2.325  1.00  0.00     0.000 A 
HETATM   46  C40 UNL     1       0.361   3.498  -2.361  1.00  0.00     0.026 A 
HETATM   47  C41 UNL     1       0.406   4.163  -3.587  1.00  0.00     0.123 A 
HETATM   48  C42 UNL     1       0.357   3.436  -4.777  1.00  0.00    -0.015 A 
HETATM   49  O9  UNL     1       0.497   5.514  -3.623  1.00  0.00    -0.191 OA
HETATM   50  C43 UNL     1       0.263   2.044  -4.740  1.00  0.00     0.045 A 
HETATM   51  C36 UNL     1       0.395   4.001  -6.281  1.00  0.00     0.024 A 
HETATM   52  O8  UNL     1       0.215   1.338  -5.896  1.00  0.00     0.000 OA
HETATM   53  C34 UNL     1       0.236   1.645  -5.607  1.00  0.00     0.013 A 
HETATM   54  C33 UNL     1       0.137   0.185  -5.923  1.00  0.00     0.032 A 
HETATM   55  C35 UNL     1       0.296   2.541  -6.597  1.00  0.00     0.005 A 
HETATM   56  C37 UNL     1       0.265   2.085  -8.023  1.00  0.00     0.000 C 
ENDBRANCH  41  44
ENDBRANCH  23  31
TORSDOF 3
