REMARK  3 active torsions:
REMARK  status: ('A' for Active; 'I' for Inactive)
REMARK    1  A    between atoms: C2_2  and  O4_19 
REMARK    2  A    between atoms: C8_8  and  C9_10 
REMARK    3  A    between atoms: C11_12  and  O3_17 
ROOT
HETATM    1  C1  UNL     1      -2.998  -1.470   2.750  1.00  0.00     0.153 A 
HETATM    2  C2  UNL     1      -3.505  -0.269   2.247  1.00  0.00     0.121 A 
HETATM    3  C3  UNL     1      -2.767   0.507   1.346  1.00  0.00     0.051 A 
HETATM    4  C4  UNL     1      -1.514   0.017   0.986  1.00  0.00     0.102 A 
HETATM    5  C5  UNL     1      -0.974  -1.172   1.464  1.00  0.00     0.027 A 
HETATM    6  C6  UNL     1      -1.732  -1.938   2.369  1.00  0.00     0.032 A 
HETATM    7  C7  UNL     1       0.301  -1.290   0.851  1.00  0.00     0.027 A 
HETATM    8  C8  UNL     1       0.452  -0.180   0.052  1.00  0.00     0.100 A 
HETATM    9  O1  UNL     1      -0.645   0.618   0.127  1.00  0.00    -0.307 OA
HETATM   10  O5  UNL     1      -3.741  -2.195   3.621  1.00  0.00    -0.188 OA
ENDROOT
BRANCH   8  11
HETATM   11  C9  UNL     1       1.529   0.077  -0.697  1.00  0.00     0.027 A 
HETATM   12  C10 UNL     1       1.662   1.315  -1.326  1.00  0.00     0.026 A 
HETATM   13  C11 UNL     1       2.786   1.583  -2.107  1.00  0.00     0.096 A 
HETATM   14  C12 UNL     1       3.778   0.613  -2.259  1.00  0.00     0.052 A 
HETATM   15  C13 UNL     1       3.645  -0.624  -1.629  1.00  0.00     0.133 A 
HETATM   16  C14 UNL     1       2.521  -0.893  -0.848  1.00  0.00     0.029 A 
HETATM   17  O2  UNL     1       4.608  -1.566  -1.776  1.00  0.00    -0.190 OA
BRANCH  13  18
HETATM   18  O3  UNL     1       2.915   2.785  -2.719  1.00  0.00    -0.328 OA
HETATM   19  C15 UNL     1       4.045   3.054  -3.504  1.00  0.00     0.181 C 
ENDBRANCH  13  18
ENDBRANCH   8  11
BRANCH   2  20
HETATM   20  O4  UNL     1      -4.732   0.152   2.638  1.00  0.00    -0.326 OA
HETATM   21  C16 UNL     1      -5.848  -0.087   1.822  1.00  0.00     0.181 C 
ENDBRANCH   2  20
TORSDOF 3
