REMARK  1 active torsions:
REMARK  status: ('A' for Active; 'I' for Inactive)
REMARK    1  A    between atoms: C8_8  and  C9_10 
ROOT
HETATM    1  C9  UNL     1      -0.570   0.538  -0.053  1.00  0.00     0.027 A 
HETATM    2  C10 UNL     1       0.505  -0.350  -0.059  1.00  0.00     0.026 A 
HETATM    3  C11 UNL     1       1.632  -0.085  -0.839  1.00  0.00     0.096 A 
HETATM    4  C12 UNL     1       1.688   1.073  -1.620  1.00  0.00     0.047 A 
HETATM    5  C13 UNL     1       0.607   1.962  -1.611  1.00  0.00     0.133 A 
HETATM    6  C14 UNL     1      -0.519   1.695  -0.830  1.00  0.00     0.029 A 
HETATM    7  O2  UNL     1       0.654   3.088  -2.365  1.00  0.00    -0.190 OA
HETATM    8  C15 UNL     1       2.865   1.344  -2.430  1.00  0.00     0.002 A 
HETATM    9  C16 UNL     1       3.861   0.455  -2.393  1.00  0.00     0.001 A 
HETATM   10  C17 UNL     1       3.813  -0.790  -1.561  1.00  0.00     0.117 A 
HETATM   11  O3  UNL     1       2.633  -1.014  -0.779  1.00  0.00    -0.332 OA
HETATM   12  C18 UNL     1       3.967  -1.976  -2.504  1.00  0.00     0.035 C 
HETATM   13  C19 UNL     1       4.932  -0.623  -0.542  1.00  0.00     0.035 C 
ENDROOT
BRANCH   1  14
HETATM   14  C8  UNL     1      -1.647   0.281   0.695  1.00  0.00     0.100 A 
HETATM   15  C7  UNL     1      -1.798  -0.828   1.495  1.00  0.00     0.027 A 
HETATM   16  C5  UNL     1      -3.074  -0.711   2.108  1.00  0.00     0.025 A 
HETATM   17  C4  UNL     1      -3.613   0.478   1.630  1.00  0.00     0.102 A 
HETATM   18  C6  UNL     1      -3.831  -1.476   3.013  1.00  0.00     0.004 A 
HETATM   19  C3  UNL     1      -4.867   0.968   1.990  1.00  0.00     0.052 A 
HETATM   20  O1  UNL     1      -2.744   1.080   0.771  1.00  0.00    -0.307 OA
HETATM   21  C2  UNL     1      -5.604   0.193   2.890  1.00  0.00     0.133 A 
HETATM   22  C1  UNL     1      -5.097  -1.008   3.394  1.00  0.00     0.028 A 
HETATM   23  O4  UNL     1      -6.832   0.613   3.281  1.00  0.00    -0.190 OA
ENDBRANCH   1  14
TORSDOF 1
