REMARK  1 active torsions:
REMARK  status: ('A' for Active; 'I' for Inactive)
REMARK    1  A    between atoms: C8_8  and  C9_10 
ROOT
HETATM    1  C9  UNL     1       1.069  -0.758   0.271  1.00  0.00     0.027 A 
HETATM    2  C10 UNL     1       1.012   0.234  -0.716  1.00  0.00     0.024 A 
HETATM    3  C11 UNL     1       2.144   0.496  -1.494  1.00  0.00     0.096 A 
HETATM    4  C12 UNL     1       3.320  -0.227  -1.286  1.00  0.00     0.052 A 
HETATM    5  C13 UNL     1       3.373  -1.214  -0.302  1.00  0.00     0.133 A 
HETATM    6  C14 UNL     1       2.248  -1.480   0.476  1.00  0.00     0.029 A 
HETATM    7  O2  UNL     1       4.516  -1.914  -0.103  1.00  0.00    -0.190 OA
HETATM    8  O3  UNL     1       2.190   1.442  -2.479  1.00  0.00    -0.332 OA
HETATM    9  C15 UNL     1       1.009   2.213  -2.734  1.00  0.00     0.117 A 
HETATM   10  C16 UNL     1      -0.197   1.922  -1.893  1.00  0.00     0.001 A 
HETATM   11  C17 UNL     1      -0.210   0.991  -0.937  1.00  0.00    -0.000 A 
HETATM   12  C18 UNL     1       0.618   1.984  -4.188  1.00  0.00     0.035 C 
HETATM   13  C19 UNL     1       1.394   3.644  -2.384  1.00  0.00     0.035 C 
ENDROOT
BRANCH   1  14
HETATM   14  C8  UNL     1      -0.008  -1.015   1.019  1.00  0.00     0.100 A 
HETATM   15  C7  UNL     1      -0.159  -2.125   1.819  1.00  0.00     0.027 A 
HETATM   16  C5  UNL     1      -1.434  -2.007   2.432  1.00  0.00     0.025 A 
HETATM   17  C4  UNL     1      -1.974  -0.818   1.954  1.00  0.00     0.102 A 
HETATM   18  C6  UNL     1      -2.191  -2.772   3.337  1.00  0.00     0.004 A 
HETATM   19  C3  UNL     1      -3.227  -0.328   2.314  1.00  0.00     0.052 A 
HETATM   20  O1  UNL     1      -1.105  -0.216   1.095  1.00  0.00    -0.307 OA
HETATM   21  C2  UNL     1      -3.965  -1.103   3.214  1.00  0.00     0.133 A 
HETATM   22  C1  UNL     1      -3.458  -2.305   3.718  1.00  0.00     0.028 A 
HETATM   23  O4  UNL     1      -5.192  -0.683   3.605  1.00  0.00    -0.190 OA
ENDBRANCH   1  14
TORSDOF 1
