REMARK  3 active torsions:
REMARK  status: ('A' for Active; 'I' for Inactive)
REMARK    1  A    between atoms: O1_1  and  C2_3 
REMARK    2  A    between atoms: C17_20  and  C20_24 
REMARK    3  A    between atoms: C20_24  and  O3_25 
ROOT
HETATM    1  C2  UNL     1      -3.881  -1.467   0.914  1.00  0.00     0.094 A 
HETATM    2  C3  UNL     1      -3.586  -2.440  -0.080  1.00  0.00     0.026 A 
HETATM    3  C4  UNL     1      -2.531  -2.219  -1.002  1.00  0.00     0.021 A 
HETATM    4  C5  UNL     1      -1.791  -1.018  -0.902  1.00  0.00     0.081 A 
HETATM    5  C6  UNL     1      -2.072  -0.078   0.063  1.00  0.00     0.017 A 
HETATM    6  C7  UNL     1      -3.121  -0.272   0.994  1.00  0.00     0.025 A 
HETATM    7  C8  UNL     1      -1.246   0.986  -0.016  1.00  0.00    -0.003 A 
HETATM    8  C9  UNL     1      -0.377   0.721  -1.080  1.00  0.00     0.086 A 
HETATM    9  N1  UNL     1      -0.728  -0.529  -1.648  1.00  0.00    -0.248 NA
HETATM   10  C10 UNL     1       0.733   1.676  -1.510  1.00  0.00     0.259 C 
HETATM   11  N2  UNL     1       1.018   2.674  -0.439  1.00  0.00     0.141 N 
HETATM   12  C11 UNL     1      -0.217   3.291   0.109  1.00  0.00     0.255 C 
HETATM   13  C12 UNL     1      -1.156   2.264   0.805  1.00  0.00     0.063 C 
HETATM   14  C13 UNL     1       1.901   2.185   0.635  1.00  0.00     0.254 C 
HETATM   15  C14 UNL     1       3.223   1.607   0.098  1.00  0.00     0.068 C 
HETATM   16  C15 UNL     1       2.985   0.488  -0.928  1.00  0.00     0.036 C 
HETATM   17  C16 UNL     1       2.018   0.986  -2.023  1.00  0.00     0.044 C 
HETATM   18  C17 UNL     1       2.606  -0.817  -0.242  1.00  0.00     0.065 C 
HETATM   19  C18 UNL     1       2.819  -0.967   1.086  1.00  0.00     0.117 C 
HETATM   20  O2  UNL     1       3.397  -0.045   1.879  1.00  0.00    -0.329 OA
HETATM   21  C19 UNL     1       4.078   1.041   1.238  1.00  0.00     0.151 C 
ENDROOT
BRANCH  18  22
HETATM   22  C20 UNL     1       2.024  -1.910  -1.031  1.00  0.00     0.294 C 
HETATM   23  O4  UNL     1       2.406  -2.123  -2.158  1.00  0.00    -0.259 OA
BRANCH  22  24
HETATM   24  O3  UNL     1       1.078  -2.621  -0.426  1.00  0.00    -0.296 OA
HETATM   25  C21 UNL     1       0.580  -3.670  -1.244  1.00  0.00     0.185 C 
ENDBRANCH  22  24
ENDBRANCH  18  22
BRANCH   1  26
HETATM   26  O1  UNL     1      -4.881  -1.684   1.781  1.00  0.00    -0.328 OA
HETATM   27  C1  UNL     1      -5.143  -0.688   2.760  1.00  0.00     0.181 C 
ENDBRANCH   1  26
TORSDOF 3
