REMARK  3 active torsions:
REMARK  status: ('A' for Active; 'I' for Inactive)
REMARK    1  A    between atoms: O1_2  and  C2_3 
REMARK    2  A    between atoms: C3_4  and  O2_5 
REMARK    3  A    between atoms: C9_12  and  C11_14 
ROOT
HETATM    1  C2  UNL     1      -2.718   0.334   1.675  1.00  0.00     0.118 A 
HETATM    2  C3  UNL     1      -2.211  -0.867   2.179  1.00  0.00     0.116 A 
HETATM    3  C5  UNL     1      -0.945  -1.334   1.798  1.00  0.00     0.028 A 
HETATM    4  C6  UNL     1      -0.188  -0.569   0.893  1.00  0.00     0.027 A 
HETATM    5  C7  UNL     1      -0.727   0.620   0.415  1.00  0.00     0.102 A 
HETATM    6  C8  UNL     1      -1.980   1.110   0.775  1.00  0.00     0.051 A 
HETATM    7  O3  UNL     1       0.142   1.221  -0.444  1.00  0.00    -0.307 OA
HETATM    8  C9  UNL     1       1.239   0.423  -0.519  1.00  0.00     0.100 A 
HETATM    9  C10 UNL     1       1.088  -0.687   0.280  1.00  0.00     0.027 A 
ENDROOT
BRANCH   8  10
HETATM   10  C11 UNL     1       2.316   0.680  -1.268  1.00  0.00     0.027 A 
HETATM   11  C12 UNL     1       2.449   1.918  -1.897  1.00  0.00     0.029 A 
HETATM   12  C13 UNL     1       3.573   2.186  -2.678  1.00  0.00     0.133 A 
HETATM   13  C14 UNL     1       4.564   1.216  -2.830  1.00  0.00     0.055 A 
HETATM   14  O5  UNL     1       3.702   3.388  -3.290  1.00  0.00    -0.190 OA
HETATM   15  C15 UNL     1       4.432  -0.021  -2.200  1.00  0.00     0.133 A 
HETATM   16  C16 UNL     1       3.308  -0.289  -1.419  1.00  0.00     0.029 A 
HETATM   17  O4  UNL     1       5.395  -0.963  -2.348  1.00  0.00    -0.190 OA
ENDBRANCH   8  10
BRANCH   1  18
HETATM   18  O1  UNL     1      -3.946   0.755   2.066  1.00  0.00    -0.326 OA
HETATM   19  C1  UNL     1      -5.061   0.516   1.251  1.00  0.00     0.181 C 
ENDBRANCH   1  18
BRANCH   2  20
HETATM   20  O2  UNL     1      -2.955  -1.591   3.050  1.00  0.00    -0.326 OA
HETATM   21  C4  UNL     1      -3.495  -2.823   2.655  1.00  0.00     0.181 C 
ENDBRANCH   2  20
TORSDOF 3
