REMARK  0 active torsions:
REMARK  status: ('A' for Active; 'I' for Inactive)
ROOT
HETATM    1  C1  UNL     1      -4.745  -1.175   1.097  1.00  0.00     0.033 C 
HETATM    2  C2  UNL     1      -4.490  -2.688   1.018  1.00  0.00     0.152 C 
HETATM    3  C3  UNL     1      -3.665  -3.021  -0.217  1.00  0.00     0.028 C 
HETATM    4  C4  UNL     1      -2.348  -2.258  -0.169  1.00  0.00     0.002 C 
HETATM    5  C5  UNL     1      -2.629  -0.761  -0.142  1.00  0.00     0.000 C 
HETATM    6  C6  UNL     1      -3.425  -0.417   1.110  1.00  0.00     0.003 C 
HETATM    7  C7  UNL     1      -1.312   0.003  -0.133  1.00  0.00     0.000 C 
HETATM    8  C8  UNL     1      -0.153  -0.984  -0.086  1.00  0.00     0.003 C 
HETATM    9  C9  UNL     1      -0.179  -1.857  -1.334  1.00  0.00     0.000 C 
HETATM   10  C10 UNL     1      -1.520  -2.596  -1.401  1.00  0.00     0.000 C 
HETATM   11  C11 UNL     1       1.163  -0.220  -0.029  1.00  0.00     0.031 C 
HETATM   12  C12 UNL     1       0.886   1.275  -0.123  1.00  0.00     0.020 C 
HETATM   13  C13 UNL     1       0.048   1.712   1.071  1.00  0.00     0.004 C 
HETATM   14  C14 UNL     1      -1.258   0.907   1.092  1.00  0.00     0.000 C 
HETATM   15  C15 UNL     1       2.183   2.024  -0.123  1.00  0.00    -0.044 C 
HETATM   16  C16 UNL     1       3.441   1.213  -0.123  1.00  0.00     0.070 C 
HETATM   17  C17 UNL     1       3.378   0.178  -1.238  1.00  0.00     0.009 C 
HETATM   18  C18 UNL     1       2.049  -0.646  -1.192  1.00  0.00     0.003 C 
HETATM   19  C19 UNL     1       4.636   2.130  -0.348  1.00  0.00     0.009 C 
HETATM   20  C20 UNL     1       4.526   3.341   0.569  1.00  0.00     0.004 C 
HETATM   21  C21 UNL     1       3.512   4.109  -0.111  1.00  0.00     0.018 C 
HETATM   22  C22 UNL     1       2.215   3.360  -0.111  1.00  0.00    -0.035 C 
HETATM   23  C23 UNL     1       3.324   5.440   0.604  1.00  0.00     0.004 C 
HETATM   24  C24 UNL     1       3.949   4.350  -1.550  1.00  0.00     0.004 C 
HETATM   25  C25 UNL     1       3.588   0.512   1.206  1.00  0.00     0.272 C 
HETATM   26  O1  UNL     1       4.793   0.097   1.613  1.00  0.00    -0.190 OA
HETATM   27  O2  UNL     1       2.618   0.326   1.901  1.00  0.00    -0.329 OA
HETATM   28  C26 UNL     1       1.870  -0.523   1.286  1.00  0.00     0.145 C 
HETATM   29  C27 UNL     1      -0.284  -1.863   1.150  1.00  0.00     0.000 C 
HETATM   30  C28 UNL     1      -3.432  -0.373  -1.377  1.00  0.00     0.000 C 
HETATM   31  C29 UNL     1      -3.383  -4.517  -0.250  1.00  0.00     0.003 C 
HETATM   32  C30 UNL     1      -4.438  -2.622  -1.467  1.00  0.00     0.003 C 
HETATM   33  O3  UNL     1      -5.719  -3.360   0.949  1.00  0.00    -0.224 OA
ENDROOT
TORSDOF 0
