REMARK  1 active torsions:
REMARK  status: ('A' for Active; 'I' for Inactive)
REMARK    1  A    between atoms: C12_12  and  C15_15 
ROOT
HETATM    1  C1  UNL     1      -3.682   0.263   0.124  1.00  0.00     0.000 C 
HETATM    2  C2  UNL     1      -3.594  -1.044  -0.678  1.00  0.00     0.002 C 
HETATM    3  C3  UNL     1      -2.577  -2.058  -0.106  1.00  0.00     0.023 C 
HETATM    4  C4  UNL     1      -1.153  -1.422  -0.162  1.00  0.00     0.095 C 
HETATM    5  C5  UNL     1      -1.173   0.116  -0.157  1.00  0.00     0.030 C 
HETATM    6  C6  UNL     1      -2.318   0.711   0.672  1.00  0.00     0.003 C 
HETATM    7  C7  UNL     1       0.269   0.393   0.319  1.00  0.00     0.057 C 
HETATM    8  C8  UNL     1       1.208   0.159  -0.893  1.00  0.00     0.005 C 
HETATM    9  C9  UNL     1       1.110  -1.293  -1.397  1.00  0.00     0.003 C 
HETATM   10  C10 UNL     1      -0.333  -1.826  -1.409  1.00  0.00     0.027 C 
HETATM   11  C11 UNL     1       2.676   0.526  -0.604  1.00  0.00     0.004 C 
HETATM   12  C12 UNL     1       2.876   1.947  -0.038  1.00  0.00     0.019 C 
HETATM   13  C13 UNL     1       1.947   2.119   1.183  1.00  0.00     0.004 C 
HETATM   14  C14 UNL     1       0.475   1.812   0.874  1.00  0.00     0.005 C 
HETATM   15  C17 UNL     1       2.565   3.003  -1.120  1.00  0.00     0.004 C 
HETATM   16  C18 UNL     1       0.446  -0.734   1.325  1.00  0.00     0.269 C 
HETATM   17  O1  UNL     1      -0.408  -1.794   0.961  1.00  0.00    -0.334 OA
HETATM   18  O2  UNL     1      -0.058  -0.422   2.612  1.00  0.00    -0.190 OA
HETATM   19  C19 UNL     1      -2.704  -3.358  -0.939  1.00  0.00     0.002 C 
HETATM   20  C20 UNL     1      -3.014  -2.455   1.327  1.00  0.00     0.002 C 
ENDROOT
BRANCH  12  21
HETATM   21  C15 UNL     1       4.315   2.062   0.455  1.00  0.00    -0.027 C 
HETATM   22  C16 UNL     1       5.229   2.973   0.087  1.00  0.00    -0.005 C 
ENDBRANCH  12  21
TORSDOF 1
