REMARK  2 active torsions:
REMARK  status: ('A' for Active; 'I' for Inactive)
REMARK    1  A    between atoms: C15_17  and  C18_20 
REMARK    2  A    between atoms: C18_20  and  C19_21 
ROOT
HETATM    1  C1  UNL     1      -5.745  -1.571  -0.427  1.00  0.00     0.035 C 
HETATM    2  C2  UNL     1      -5.859  -2.869  -0.112  1.00  0.00     0.012 C 
HETATM    3  C3  UNL     1      -5.136  -3.486   1.046  1.00  0.00     0.202 C 
HETATM    4  C4  UNL     1      -3.850  -2.744   1.383  1.00  0.00     0.156 A 
HETATM    5  C5  UNL     1      -3.763  -1.207   1.262  1.00  0.00     0.083 C 
HETATM    6  C6  UNL     1      -4.851  -0.654   0.316  1.00  0.00     0.174 C 
HETATM    7  O1  UNL     1      -4.949   0.551   0.111  1.00  0.00    -0.291 OA
HETATM    8  C7  UNL     1      -2.408  -0.662   0.662  1.00  0.00     0.009 C 
HETATM    9  C8  UNL     1      -1.355  -1.760   0.332  1.00  0.00     0.004 C 
HETATM   10  C9  UNL     1      -1.333  -2.767   1.490  1.00  0.00     0.032 C 
HETATM   11  C10 UNL     1      -2.648  -3.520   1.565  1.00  0.00     0.143 A 
HETATM   12  O2  UNL     1      -3.298  -3.309   2.787  1.00  0.00    -0.353 OA
HETATM   13  C11 UNL     1       0.018  -1.119   0.029  1.00  0.00     0.008 C 
HETATM   14  C12 UNL     1       0.587  -0.017   0.960  1.00  0.00     0.015 C 
HETATM   15  C13 UNL     1      -0.472   1.092   0.965  1.00  0.00     0.004 C 
HETATM   16  C14 UNL     1      -1.835   0.549   1.437  1.00  0.00     0.001 C 
HETATM   17  C15 UNL     1       1.925   0.206   0.250  1.00  0.00    -0.047 C 
HETATM   18  C16 UNL     1       2.293  -0.954  -0.325  1.00  0.00    -0.035 C 
HETATM   19  C17 UNL     1       1.223  -2.013  -0.309  1.00  0.00     0.026 C 
HETATM   20  C27 UNL     1       0.947  -0.495   2.385  1.00  0.00     0.004 C 
HETATM   21  C28 UNL     1      -1.772  -2.520  -0.961  1.00  0.00     0.000 C 
HETATM   22  C29 UNL     1      -4.154  -0.600   2.637  1.00  0.00     0.010 C 
HETATM   23  O5  UNL     1      -5.994  -3.498   2.184  1.00  0.00    -0.216 OA
ENDROOT
BRANCH  17  24
HETATM   24  C18 UNL     1       2.850   1.413   0.330  1.00  0.00     0.046 C 
HETATM   25  C26 UNL     1       2.372   2.548   1.252  1.00  0.00     0.007 C 
BRANCH  24  26
HETATM   26  C19 UNL     1       3.185   1.969  -1.078  1.00  0.00     0.132 C 
HETATM   27  O3  UNL     1       3.692   0.944  -1.879  1.00  0.00    -0.301 OA
HETATM   28  C20 UNL     1       4.453   1.241  -2.963  1.00  0.00     0.291 C 
HETATM   29  C21 UNL     1       4.876   2.618  -3.331  1.00  0.00     0.034 C 
HETATM   30  O4  UNL     1       4.811   0.328  -3.704  1.00  0.00    -0.260 OA
HETATM   31  C22 UNL     1       4.699   3.562  -2.387  1.00  0.00    -0.040 C 
HETATM   32  C25 UNL     1       5.503   2.835  -4.687  1.00  0.00     0.036 C 
HETATM   33  C23 UNL     1       4.117   3.183  -1.049  1.00  0.00     0.052 C 
HETATM   34  C24 UNL     1       5.146   5.000  -2.498  1.00  0.00     0.026 C 
ENDBRANCH  24  26
ENDBRANCH  17  24
TORSDOF 2
