REMARK  22 active torsions:
REMARK  status: ('A' for Active; 'I' for Inactive)
REMARK    1  A    between atoms: C2_2  and  O3_32 
REMARK    2  A    between atoms: C15_15  and  C18_18 
REMARK    3  A    between atoms: C18_18  and  C19_19 
REMARK    4  A    between atoms: C20_20  and  C21_21 
REMARK    5  A    between atoms: C21_21  and  C22_22 
REMARK    6  A    between atoms: C21_21  and  C25_25 
REMARK    7  A    between atoms: O3_32  and  C30_33 
REMARK    8  A    between atoms: C30_33  and  C31_34 
REMARK    9  A    between atoms: C31_34  and  C32_35 
REMARK   10  A    between atoms: C32_35  and  C33_36 
REMARK   11  A    between atoms: C33_36  and  C34_37 
REMARK   12  A    between atoms: C34_37  and  C35_38 
REMARK   13  A    between atoms: C35_38  and  C36_39 
REMARK   14  A    between atoms: C36_39  and  C37_40 
REMARK   15  A    between atoms: C37_40  and  C38_41 
REMARK   16  A    between atoms: C38_41  and  C39_42 
REMARK   17  A    between atoms: C39_42  and  C40_43 
REMARK   18  A    between atoms: C40_43  and  C41_44 
REMARK   19  A    between atoms: C41_44  and  C42_45 
REMARK   20  A    between atoms: C42_45  and  C43_46 
REMARK   21  A    between atoms: C43_46  and  C44_47 
REMARK   22  A    between atoms: C44_47  and  C45_48 
ROOT
HETATM    1  C1  UNL     1      -3.135  -3.449   2.301  1.00  0.00     0.030 C 
HETATM    2  C2  UNL     1      -2.794  -4.435   3.422  1.00  0.00     0.127 C 
HETATM    3  C3  UNL     1      -1.588  -5.331   3.067  1.00  0.00     0.065 C 
HETATM    4  C4  UNL     1      -0.829  -4.907   1.801  1.00  0.00     0.147 C 
HETATM    5  C5  UNL     1      -0.555  -3.391   1.784  1.00  0.00     0.032 C 
HETATM    6  C6  UNL     1      -1.930  -2.667   1.736  1.00  0.00     0.005 C 
HETATM    7  C7  UNL     1       0.312  -3.082   0.519  1.00  0.00     0.035 C 
HETATM    8  C8  UNL     1       0.299  -4.316  -0.389  1.00  0.00     0.145 C 
HETATM    9  C9  UNL     1       1.024  -5.386   0.405  1.00  0.00     0.001 C 
HETATM   10  C10 UNL     1       0.466  -5.654   1.591  1.00  0.00     0.001 C 
HETATM   11  C11 UNL     1       0.916  -4.037  -1.776  1.00  0.00     0.032 C 
HETATM   12  C12 UNL     1       2.049  -2.971  -1.813  1.00  0.00     0.003 C 
HETATM   13  C13 UNL     1       2.727  -2.899  -0.434  1.00  0.00     0.000 C 
HETATM   14  C14 UNL     1       1.772  -2.619   0.741  1.00  0.00     0.003 C 
HETATM   15  C15 UNL     1       1.383  -1.618  -2.203  1.00  0.00     0.004 C 
HETATM   16  C16 UNL     1       0.028  -1.996  -2.836  1.00  0.00     0.000 C 
HETATM   17  C17 UNL     1      -0.046  -3.525  -2.864  1.00  0.00     0.003 C 
HETATM   18  C28 UNL     1       3.090  -3.433  -2.861  1.00  0.00     0.000 C 
HETATM   19  O1  UNL     1      -1.049  -4.694  -0.561  1.00  0.00    -0.222 OA
HETATM   20  O2  UNL     1      -1.609  -5.279   0.681  1.00  0.00    -0.221 OA
HETATM   21  C29 UNL     1       0.196  -2.966   3.069  1.00  0.00     0.003 C 
ENDROOT
BRANCH   2  22
HETATM   22  O3  UNL     1      -2.546  -3.725   4.605  1.00  0.00    -0.304 OA
BRANCH  22  23
HETATM   23  C30 UNL     1      -3.598  -3.215   5.302  1.00  0.00     0.272 C 
HETATM   24  O4  UNL     1      -4.764  -3.426   5.055  1.00  0.00    -0.264 OA
BRANCH  23  25
HETATM   25  C31 UNL     1      -3.113  -2.292   6.412  1.00  0.00     0.096 C 
BRANCH  25  26
HETATM   26  C32 UNL     1      -2.158  -1.181   5.940  1.00  0.00     0.010 C 
BRANCH  26  27
HETATM   27  C33 UNL     1      -2.759  -0.304   4.828  1.00  0.00     0.001 C 
BRANCH  27  28
HETATM   28  C34 UNL     1      -1.691   0.486   4.053  1.00  0.00     0.000 C 
BRANCH  28  29
HETATM   29  C35 UNL     1      -2.283   1.229   2.843  1.00  0.00     0.000 C 
BRANCH  29  30
HETATM   30  C36 UNL     1      -1.218   1.568   1.786  1.00  0.00     0.000 C 
BRANCH  30  31
HETATM   31  C37 UNL     1      -1.744   2.560   0.735  1.00  0.00     0.000 C 
BRANCH  31  32
HETATM   32  C38 UNL     1      -0.699   2.861  -0.353  1.00  0.00     0.000 C 
BRANCH  32  33
HETATM   33  C39 UNL     1      -1.023   4.142  -1.143  1.00  0.00     0.000 C 
BRANCH  33  34
HETATM   34  C40 UNL     1       0.168   4.707  -1.937  1.00  0.00     0.000 C 
BRANCH  34  35
HETATM   35  C41 UNL     1       1.065   5.722  -1.197  1.00  0.00     0.000 C 
BRANCH  35  36
HETATM   36  C42 UNL     1       1.931   5.146  -0.062  1.00  0.00     0.000 C 
BRANCH  36  37
HETATM   37  C43 UNL     1       1.265   5.206   1.324  1.00  0.00     0.000 C 
BRANCH  37  38
HETATM   38  C44 UNL     1       1.926   4.240   2.322  1.00  0.00     0.000 C 
BRANCH  38  39
HETATM   39  C45 UNL     1       1.210   4.226   3.682  1.00  0.00     0.000 C 
HETATM   40  C46 UNL     1       1.764   3.132   4.604  1.00  0.00     0.000 C 
ENDBRANCH  38  39
ENDBRANCH  37  38
ENDBRANCH  36  37
ENDBRANCH  35  36
ENDBRANCH  34  35
ENDBRANCH  33  34
ENDBRANCH  32  33
ENDBRANCH  31  32
ENDBRANCH  30  31
ENDBRANCH  29  30
ENDBRANCH  28  29
ENDBRANCH  27  28
ENDBRANCH  26  27
ENDBRANCH  25  26
ENDBRANCH  23  25
ENDBRANCH  22  23
ENDBRANCH   2  22
BRANCH  15  41
HETATM   41  C18 UNL     1       2.178  -0.595  -3.046  1.00  0.00     0.022 C 
HETATM   42  C27 UNL     1       3.414  -0.021  -2.326  1.00  0.00     0.005 C 
BRANCH  41  43
HETATM   43  C19 UNL     1       1.314   0.598  -3.406  1.00  0.00    -0.031 C 
HETATM   44  C20 UNL     1       0.859   0.859  -4.642  1.00  0.00    -0.031 C 
BRANCH  44  45
HETATM   45  C21 UNL     1       0.089   2.107  -5.013  1.00  0.00     0.022 C 
BRANCH  45  46
HETATM   46  C22 UNL     1       0.819   2.862  -6.152  1.00  0.00     0.004 C 
HETATM   47  C23 UNL     1       0.269   4.287  -6.353  1.00  0.00     0.000 C 
HETATM   48  C24 UNL     1       2.336   2.961  -5.893  1.00  0.00     0.000 C 
ENDBRANCH  45  46
BRANCH  45  49
HETATM   49  C25 UNL     1      -1.369   1.740  -5.349  1.00  0.00     0.004 C 
HETATM   50  C26 UNL     1      -2.131   1.172  -4.143  1.00  0.00     0.000 C 
ENDBRANCH  45  49
ENDBRANCH  44  45
ENDBRANCH  41  43
ENDBRANCH  15  41
TORSDOF 22
