REMARK  2 active torsions:
REMARK  status: ('A' for Active; 'I' for Inactive)
REMARK    1  A    between atoms: C9_9  and  C11_11 
REMARK    2  A    between atoms: C11_11  and  C13_13 
ROOT
HETATM    1  C1  UNL     1       2.718  -1.264  -1.724  1.00  0.00     0.004 C 
HETATM    2  C2  UNL     1       3.173  -0.075  -0.873  1.00  0.00     0.024 C 
HETATM    3  C3  UNL     1       2.397  -0.004   0.424  1.00  0.00    -0.017 C 
HETATM    4  C4  UNL     1       0.876  -0.044   0.317  1.00  0.00     0.142 C 
HETATM    5  C5  UNL     1       0.433  -1.250  -0.539  1.00  0.00     0.029 C 
HETATM    6  C6  UNL     1       1.192  -1.268  -1.889  1.00  0.00     0.003 C 
HETATM    7  C7  UNL     1      -1.091  -1.207  -0.809  1.00  0.00     0.003 C 
HETATM    8  C8  UNL     1      -1.659   0.158  -1.229  1.00  0.00     0.005 C 
HETATM    9  C9  UNL     1      -1.132   1.384  -0.463  1.00  0.00     0.031 C 
HETATM   10  C10 UNL     1       0.387   1.295  -0.246  1.00  0.00     0.039 C 
HETATM   11  C14 UNL     1       0.729  -2.576   0.208  1.00  0.00     0.003 C 
HETATM   12  O3  UNL     1       0.300  -0.182   1.600  1.00  0.00    -0.222 OA
HETATM   13  C15 UNL     1       3.039   0.147   1.595  1.00  0.00    -0.007 C 
ENDROOT
BRANCH   9  14
HETATM   14  C11 UNL     1      -1.874   1.854   0.783  1.00  0.00     0.042 C 
HETATM   15  C12 UNL     1      -2.011   3.183   0.994  1.00  0.00     0.002 C 
BRANCH  14  16
HETATM   16  C13 UNL     1      -2.429   0.974   1.848  1.00  0.00     0.207 C 
HETATM   17  O1  UNL     1      -2.371  -0.242   1.756  1.00  0.00    -0.644 OA
HETATM   18  O2  UNL     1      -2.999   1.448   2.977  1.00  0.00    -0.644 OA
ENDBRANCH  14  16
ENDBRANCH   9  14
TORSDOF 2
