REMARK  3 active torsions:
REMARK  status: ('A' for Active; 'I' for Inactive)
REMARK    1  A    between atoms: C15_15  and  C20_22 
REMARK    2  A    between atoms: C16_16  and  O1_18 
REMARK    3  A    between atoms: O1_18  and  C18_19 
ROOT
HETATM    1  C1  UNL     1      -1.336  -0.469  -1.996  1.00  0.00     0.033 C 
HETATM    2  C2  UNL     1      -2.222  -1.409  -1.192  1.00  0.00     0.155 C 
HETATM    3  C3  UNL     1      -1.450  -2.219  -0.149  1.00  0.00     0.063 C 
HETATM    4  C4  UNL     1       0.010  -1.781   0.088  1.00  0.00     0.129 C 
HETATM    5  C5  UNL     1       0.179  -0.242   0.161  1.00  0.00     0.026 C 
HETATM    6  C6  UNL     1      -0.421   0.408  -1.128  1.00  0.00     0.005 C 
HETATM    7  C7  UNL     1       1.687   0.183   0.322  1.00  0.00     0.005 C 
HETATM    8  C8  UNL     1       2.692  -0.929  -0.045  1.00  0.00     0.028 C 
HETATM    9  C9  UNL     1       2.196  -1.664  -1.294  1.00  0.00     0.005 C 
HETATM   10  C10 UNL     1       0.929  -2.459  -0.951  1.00  0.00     0.031 C 
HETATM   11  C11 UNL     1       4.160  -0.478  -0.122  1.00  0.00     0.129 C 
HETATM   12  C12 UNL     1       4.637   0.320   1.108  1.00  0.00     0.032 C 
HETATM   13  C13 UNL     1       3.559   1.340   1.557  1.00  0.00     0.003 C 
HETATM   14  C14 UNL     1       2.139   0.763   1.676  1.00  0.00     0.000 C 
HETATM   15  C15 UNL     1       5.873   1.099   0.571  1.00  0.00     0.054 C 
HETATM   16  C16 UNL     1       5.486   1.475  -0.870  1.00  0.00     0.131 C 
HETATM   17  C17 UNL     1       4.525   0.376  -1.346  1.00  0.00     0.061 C 
HETATM   18  C25 UNL     1       4.963  -0.574   2.325  1.00  0.00     0.003 C 
HETATM   19  O5  UNL     1       4.921  -1.661  -0.198  1.00  0.00    -0.226 OA
HETATM   20  C26 UNL     1      -0.648   0.299   1.360  1.00  0.00     0.002 C 
HETATM   21  O6  UNL     1       0.352  -2.311   1.350  1.00  0.00    -0.226 OA
HETATM   22  O7  UNL     1      -3.240  -0.655  -0.574  1.00  0.00    -0.223 OA
ENDROOT
BRANCH  15  23
HETATM   23  C20 UNL     1       7.202   0.383   0.779  1.00  0.00     0.005 A 
HETATM   24  C21 UNL     1       7.931   0.637   2.023  1.00  0.00     0.003 A 
HETATM   25  C22 UNL     1       9.111   0.023   2.251  1.00  0.00     0.068 A 
HETATM   26  C23 UNL     1       9.627  -0.893   1.214  1.00  0.00     0.300 A 
HETATM   27  O3  UNL     1       8.945  -1.121   0.058  1.00  0.00    -0.271 OA
HETATM   28  O4  UNL     1      10.698  -1.460   1.427  1.00  0.00    -0.259 OA
HETATM   29  C24 UNL     1       7.759  -0.468  -0.115  1.00  0.00     0.122 A 
ENDBRANCH  15  23
BRANCH  16  30
HETATM   30  O1  UNL     1       6.597   1.601  -1.708  1.00  0.00    -0.304 OA
BRANCH  30  31
HETATM   31  C18 UNL     1       6.985   2.748  -2.333  1.00  0.00     0.272 C 
HETATM   32  O2  UNL     1       7.958   2.779  -3.057  1.00  0.00    -0.264 OA
HETATM   33  C19 UNL     1       6.166   3.999  -2.073  1.00  0.00     0.106 C 
ENDBRANCH  30  31
ENDBRANCH  16  30
TORSDOF 3
