REMARK  1 active torsions:
REMARK  status: ('A' for Active; 'I' for Inactive)
REMARK    1  A    between atoms: C15_16  and  C17_20 
ROOT
HETATM    1  C1  UNL     1      -1.723  -2.713  -0.576  1.00  0.00     0.292 A 
HETATM    2  O1  UNL     1      -1.113  -3.931  -0.656  1.00  0.00    -0.294 OA
HETATM    3  C2  UNL     1       0.276  -3.688  -0.443  1.00  0.00     0.177 A 
HETATM    4  C3  UNL     1       0.413  -2.204  -0.215  1.00  0.00     0.014 A 
HETATM    5  C4  UNL     1      -0.782  -1.608  -0.320  1.00  0.00     0.038 A 
HETATM    6  C5  UNL     1      -1.029  -0.143  -0.179  1.00  0.00     0.031 C 
HETATM    7  C6  UNL     1       0.312   0.615  -0.193  1.00  0.00     0.010 C 
HETATM    8  C7  UNL     1       1.452  -0.065   0.629  1.00  0.00     0.058 C 
HETATM    9  C8  UNL     1       1.703  -1.462   0.005  1.00  0.00     0.148 C 
HETATM   10  C9  UNL     1       2.712  -2.279   0.819  1.00  0.00     0.067 C 
HETATM   11  C10 UNL     1       4.029  -1.562   1.103  1.00  0.00     0.152 A 
HETATM   12  C11 UNL     1       4.050  -0.126   0.961  1.00  0.00     0.195 A 
HETATM   13  C12 UNL     1       2.821   0.658   0.594  1.00  0.00     0.154 A 
HETATM   14  C13 UNL     1       2.978   1.841  -0.214  1.00  0.00     0.173 A 
HETATM   15  C14 UNL     1       4.329   2.263  -0.680  1.00  0.00     0.177 A 
HETATM   16  C15 UNL     1       5.523   1.572  -0.276  1.00  0.00     0.173 A 
HETATM   17  C16 UNL     1       5.367   0.515   0.737  1.00  0.00     0.206 C 
HETATM   18  O2  UNL     1       6.334   0.162   1.376  1.00  0.00    -0.291 OA
HETATM   19  O3  UNL     1       4.751   1.344  -1.659  1.00  0.00    -0.347 OA
HETATM   20  O4  UNL     1       2.795   2.160   1.143  1.00  0.00    -0.351 OA
HETATM   21  O5  UNL     1       3.962  -0.917   2.350  1.00  0.00    -0.347 OA
HETATM   22  O6  UNL     1       2.283  -1.267  -1.272  1.00  0.00    -0.222 OA
HETATM   23  C20 UNL     1       0.909  -0.149   2.079  1.00  0.00     0.005 C 
HETATM   24  O7  UNL     1      -2.930  -2.551  -0.713  1.00  0.00    -0.260 OA
ENDROOT
BRANCH  16  25
HETATM   25  C17 UNL     1       6.919   2.159  -0.521  1.00  0.00     0.034 C 
HETATM   26  C18 UNL     1       7.831   1.152  -1.250  1.00  0.00     0.003 C 
HETATM   27  C19 UNL     1       6.988   3.512  -1.256  1.00  0.00     0.003 C 
ENDBRANCH  16  25
TORSDOF 1
