REMARK  4 active torsions:
REMARK  status: ('A' for Active; 'I' for Inactive)
REMARK    1  A    between atoms: C2_2  and  C20_25 
REMARK    2  A    between atoms: C10_10  and  O1_11 
REMARK    3  A    between atoms: O1_11  and  C11_12 
REMARK    4  A    between atoms: C11_12  and  C12_14 
ROOT
HETATM    1  C1  UNL     1      -1.703   1.335   2.415  1.00  0.00     0.031 C 
HETATM    2  C2  UNL     1      -1.213   0.287   1.395  1.00  0.00     0.129 C 
HETATM    3  C3  UNL     1       0.226   0.814   1.156  1.00  0.00     0.063 C 
HETATM    4  C4  UNL     1       0.237   2.350   1.345  1.00  0.00     0.060 C 
HETATM    5  C5  UNL     1      -1.191   2.670   1.860  1.00  0.00     0.010 C 
HETATM    6  C6  UNL     1       0.608   3.127   0.086  1.00  0.00     0.172 C 
HETATM    7  C7  UNL     1       1.984   3.037  -0.470  1.00  0.00     0.029 C 
HETATM    8  C8  UNL     1       2.858   2.015  -0.370  1.00  0.00    -0.039 C 
HETATM    9  C9  UNL     1       2.588   0.660   0.250  1.00  0.00     0.052 C 
HETATM   10  C10 UNL     1       1.147   0.147   0.124  1.00  0.00     0.131 C 
HETATM   11  C18 UNL     1       4.256   2.171  -0.932  1.00  0.00     0.026 C 
HETATM   12  O4  UNL     1      -0.141   3.990  -0.357  1.00  0.00    -0.291 OA
HETATM   13  C19 UNL     1       1.217   2.828   2.447  1.00  0.00     0.008 C 
HETATM   14  O5  UNL     1      -1.123  -0.940   2.082  1.00  0.00    -0.226 OA
ENDROOT
BRANCH  10  15
HETATM   15  O1  UNL     1       0.749   0.333  -1.198  1.00  0.00    -0.301 OA
BRANCH  15  16
HETATM   16  C11 UNL     1       0.603  -0.703  -2.088  1.00  0.00     0.296 C 
HETATM   17  O2  UNL     1       0.227  -0.426  -3.226  1.00  0.00    -0.259 OA
BRANCH  16  18
HETATM   18  C12 UNL     1       0.803  -2.175  -1.848  1.00  0.00     0.063 A 
HETATM   19  C13 UNL     1      -0.133  -3.069  -2.384  1.00  0.00     0.007 A 
HETATM   20  C14 UNL     1      -0.042  -4.438  -2.123  1.00  0.00     0.028 A 
HETATM   21  C15 UNL     1       0.992  -4.964  -1.344  1.00  0.00     0.131 A 
HETATM   22  C16 UNL     1       1.963  -4.072  -0.872  1.00  0.00     0.028 A 
HETATM   23  O3  UNL     1       1.075  -6.293  -1.076  1.00  0.00    -0.190 OA
HETATM   24  C17 UNL     1       1.878  -2.702  -1.122  1.00  0.00     0.007 A 
ENDBRANCH  16  18
ENDBRANCH  15  16
ENDBRANCH  10  15
BRANCH   2  25
HETATM   25  C20 UNL     1      -2.257   0.115   0.260  1.00  0.00     0.028 C 
HETATM   26  C21 UNL     1      -2.199   1.048  -0.963  1.00  0.00     0.003 C 
HETATM   27  C22 UNL     1      -2.428  -1.338  -0.226  1.00  0.00     0.003 C 
ENDBRANCH   2  25
TORSDOF 4
