REMARK  0 active torsions:
REMARK  status: ('A' for Active; 'I' for Inactive)
ROOT
HETATM    1  C1  UNL     1      -2.686   1.318  -1.589  1.00  0.00     0.000 C 
HETATM    2  C2  UNL     1      -2.671  -0.217  -1.579  1.00  0.00     0.000 C 
HETATM    3  C3  UNL     1      -1.243  -0.789  -1.498  1.00  0.00     0.002 C 
HETATM    4  C4  UNL     1      -0.488  -0.136  -0.318  1.00  0.00     0.027 C 
HETATM    5  C5  UNL     1      -0.485   1.413  -0.241  1.00  0.00     0.002 C 
HETATM    6  C6  UNL     1      -1.950   1.897  -0.370  1.00  0.00     0.000 C 
HETATM    7  C7  UNL     1       0.107   1.882   1.127  1.00  0.00     0.000 C 
HETATM    8  C8  UNL     1       0.646   0.750   2.016  1.00  0.00     0.005 C 
HETATM    9  C9  UNL     1       1.578  -0.145   1.200  1.00  0.00     0.052 C 
HETATM   10  C10 UNL     1       0.912  -0.689  -0.076  1.00  0.00     0.117 C 
HETATM   11  O1  UNL     1       0.902  -2.006   0.411  1.00  0.00    -0.361 OA
HETATM   12  C11 UNL     1       1.683  -1.653   1.522  1.00  0.00     0.095 C 
HETATM   13  C12 UNL     1       3.105  -2.189   1.364  1.00  0.00     0.030 C 
HETATM   14  C13 UNL     1       1.034  -2.146   2.811  1.00  0.00     0.030 C 
HETATM   15  C14 UNL     1       0.372   2.077  -1.343  1.00  0.00     0.000 C 
HETATM   16  C15 UNL     1      -0.557  -0.790  -2.875  1.00  0.00     0.000 C 
ENDROOT
TORSDOF 0
