REMARK  2 active torsions:
REMARK  status: ('A' for Active; 'I' for Inactive)
REMARK    1  A    between atoms: C7_8  and  O3_13 
REMARK    2  A    between atoms: C8_9  and  O2_11 
ROOT
HETATM    1  C1  UNL     1      -2.330   0.293  -2.610  1.00  0.00     0.064 C 
HETATM    2  C2  UNL     1      -2.421  -1.050  -2.465  1.00  0.00     0.296 C 
HETATM    3  O1  UNL     1      -2.058  -1.723  -1.341  1.00  0.00    -0.296 OA
HETATM    4  C3  UNL     1      -1.500  -1.061  -0.228  1.00  0.00     0.157 C 
HETATM    5  C4  UNL     1      -1.506   0.463  -0.267  1.00  0.00     0.078 C 
HETATM    6  C5  UNL     1      -1.885   1.045  -1.600  1.00  0.00    -0.014 C 
HETATM    7  C6  UNL     1      -0.204   1.079   0.176  1.00  0.00     0.007 C 
HETATM    8  C7  UNL     1       0.942   0.429   0.458  1.00  0.00     0.112 C 
HETATM    9  C8  UNL     1       0.958  -0.923   0.432  1.00  0.00     0.114 C 
HETATM   10  C9  UNL     1      -0.131  -1.618   0.060  1.00  0.00     0.030 C 
HETATM   11  O4  UNL     1      -2.858  -1.673  -3.412  1.00  0.00    -0.259 OA
ENDROOT
BRANCH   8  12
HETATM   12  O3  UNL     1       2.106   1.067   0.828  1.00  0.00    -0.327 OA
HETATM   13  C11 UNL     1       2.084   2.447   1.109  1.00  0.00     0.181 C 
ENDBRANCH   8  12
BRANCH   9  14
HETATM   14  O2  UNL     1       2.134  -1.602   0.654  1.00  0.00    -0.326 OA
HETATM   15  C10 UNL     1       2.348  -1.943   2.006  1.00  0.00     0.181 C 
ENDBRANCH   9  14
TORSDOF 2
