REMARK  6 active torsions:
REMARK  status: ('A' for Active; 'I' for Inactive)
REMARK    1  A    between atoms: O1_1  and  C1_2 
REMARK    2  A    between atoms: O1_1  and  C9_16 
REMARK    3  A    between atoms: C2_4  and  C6_11 
REMARK    4  A    between atoms: C6_11  and  O6_12 
REMARK    5  A    between atoms: O6_12  and  C7_13 
REMARK    6  A    between atoms: C9_16  and  C11_19 
ROOT
HETATM    1  C9  UNL     1      -1.669   1.580  -0.807  1.00  0.00     0.231 C 
HETATM    2  C10 UNL     1      -2.655   1.788   0.281  1.00  0.00     0.108 C 
HETATM    3  N1  UNL     1      -3.435   1.929   1.127  1.00  0.00    -0.193 NA
ENDROOT
BRANCH   1   4
HETATM    4  O1  UNL     1      -1.553   0.198  -1.137  1.00  0.00    -0.312 OA
BRANCH   4   5
HETATM    5  C1  UNL     1      -0.707  -0.539  -0.280  1.00  0.00     0.271 C 
HETATM    6  O2  UNL     1       0.588  -0.372  -0.817  1.00  0.00    -0.326 OA
HETATM    7  C2  UNL     1       1.582  -1.006  -0.057  1.00  0.00     0.181 C 
HETATM    8  C3  UNL     1       1.316  -2.507  -0.036  1.00  0.00     0.215 C 
HETATM    9  C4  UNL     1      -0.080  -2.785   0.485  1.00  0.00     0.220 C 
HETATM   10  O5  UNL     1       2.229  -3.174   0.799  1.00  0.00    -0.218 OA
HETATM   11  C5  UNL     1      -1.083  -2.001  -0.335  1.00  0.00     0.241 C 
HETATM   12  O4  UNL     1      -0.354  -4.159   0.385  1.00  0.00    -0.218 OA
HETATM   13  O3  UNL     1      -2.360  -2.188   0.221  1.00  0.00    -0.215 OA
BRANCH   7  14
HETATM   14  C6  UNL     1       2.930  -0.635  -0.669  1.00  0.00     0.184 C 
BRANCH  14  15
HETATM   15  O6  UNL     1       3.961  -0.890   0.248  1.00  0.00    -0.299 OA
BRANCH  15  16
HETATM   16  C7  UNL     1       5.214  -0.521  -0.131  1.00  0.00     0.273 C 
HETATM   17  C8  UNL     1       6.202  -0.795   0.984  1.00  0.00     0.106 C 
HETATM   18  O7  UNL     1       5.498  -0.025  -1.197  1.00  0.00    -0.264 OA
ENDBRANCH  15  16
ENDBRANCH  14  15
ENDBRANCH   7  14
ENDBRANCH   4   5
ENDBRANCH   1   4
BRANCH   1  19
HETATM   19  C11 UNL     1      -0.339   2.271  -0.577  1.00  0.00     0.021 A 
HETATM   20  C12 UNL     1       0.160   2.508   0.710  1.00  0.00     0.026 A 
HETATM   21  C13 UNL     1       1.413   3.088   0.933  1.00  0.00     0.131 A 
HETATM   22  C14 UNL     1       2.183   3.436  -0.180  1.00  0.00     0.027 A 
HETATM   23  O8  UNL     1       1.884   3.290   2.192  1.00  0.00    -0.190 OA
HETATM   24  C15 UNL     1       1.709   3.217  -1.474  1.00  0.00     0.002 A 
HETATM   25  C16 UNL     1       0.456   2.636  -1.669  1.00  0.00    -0.001 A 
ENDBRANCH   1  19
TORSDOF 6
