REMARK  2 active torsions:
REMARK  status: ('A' for Active; 'I' for Inactive)
REMARK    1  A    between atoms: C1_2  and  C2_3 
REMARK    2  A    between atoms: C8_11  and  C10_13 
ROOT
HETATM    1  C2  UNL     1       4.641  -0.562  -0.293  1.00  0.00     0.062 A 
HETATM    2  C3  UNL     1       4.648   0.756   0.225  1.00  0.00     0.134 A 
HETATM    3  O2  UNL     1       5.764   1.529   0.272  1.00  0.00    -0.190 OA
HETATM    4  C4  UNL     1       3.447   1.317   0.678  1.00  0.00     0.025 A 
HETATM    5  C5  UNL     1       2.265   0.582   0.630  1.00  0.00     0.005 A 
HETATM    6  C6  UNL     1       2.268  -0.704   0.114  1.00  0.00     0.091 A 
HETATM    7  C7  UNL     1       3.443  -1.294  -0.348  1.00  0.00     0.029 A 
HETATM    8  O3  UNL     1       1.002  -1.250   0.145  1.00  0.00    -0.329 OA
HETATM    9  C8  UNL     1       0.125  -0.352   0.829  1.00  0.00     0.144 C 
HETATM   10  C9  UNL     1       0.880   0.986   1.041  1.00  0.00     0.063 C 
ENDROOT
BRANCH   1  11
HETATM   11  C1  UNL     1       5.873  -1.242  -0.794  1.00  0.00     0.175 C 
HETATM   12  O1  UNL     1       5.791  -2.319  -1.376  1.00  0.00    -0.291 OA
HETATM   13  C13 UNL     1       7.259  -0.662  -0.577  1.00  0.00     0.077 C 
ENDBRANCH   1  11
BRANCH   9  14
HETATM   14  C10 UNL     1      -1.197  -0.204   0.110  1.00  0.00    -0.017 C 
HETATM   15  C11 UNL     1      -2.365  -0.428   0.732  1.00  0.00    -0.007 C 
HETATM   16  C12 UNL     1      -1.143   0.190  -1.348  1.00  0.00     0.029 C 
ENDBRANCH   9  14
TORSDOF 2
