REMARK  1 active torsions:
REMARK  status: ('A' for Active; 'I' for Inactive)
REMARK    1  A    between atoms: C7_8  and  C10_12 
ROOT
HETATM    1  C1  UNL     1      -5.110  -1.299   3.109  1.00  0.00     0.145 A 
HETATM    2  C2  UNL     1      -4.520  -2.491   2.677  1.00  0.00     0.108 A 
HETATM    3  C3  UNL     1      -3.398  -2.498   1.839  1.00  0.00     0.141 A 
HETATM    4  C4  UNL     1      -2.852  -1.272   1.425  1.00  0.00     0.029 A 
HETATM    5  C5  UNL     1      -3.400  -0.052   1.855  1.00  0.00     0.095 A 
HETATM    6  C6  UNL     1      -4.534  -0.106   2.673  1.00  0.00     0.052 A 
HETATM    7  O1  UNL     1      -2.946   1.174   1.452  1.00  0.00    -0.327 OA
HETATM    8  C7  UNL     1      -2.057   1.221   0.364  1.00  0.00     0.174 C 
HETATM    9  C8  UNL     1      -1.015   0.120   0.460  1.00  0.00     0.188 C 
HETATM   10  C9  UNL     1      -1.660  -1.258   0.497  1.00  0.00     0.066 C 
HETATM   11  O2  UNL     1      -0.267   0.297   1.641  1.00  0.00    -0.220 OA
HETATM   12  O5  UNL     1      -2.855  -3.669   1.407  1.00  0.00    -0.190 OA
HETATM   13 CL1  UNL     1      -5.210  -3.994   3.182  1.00  0.00    -0.078 Cl
HETATM   14  O6  UNL     1      -6.213  -1.268   3.905  1.00  0.00    -0.189 OA
ENDROOT
BRANCH   8  15
HETATM   15  C10 UNL     1      -2.758   1.278  -0.985  1.00  0.00     0.010 A 
HETATM   16  C11 UNL     1      -2.308   2.163  -1.972  1.00  0.00     0.000 A 
HETATM   17  C12 UNL     1      -2.945   2.247  -3.210  1.00  0.00     0.029 A 
HETATM   18  C13 UNL     1      -4.044   1.439  -3.510  1.00  0.00     0.156 A 
HETATM   19  C14 UNL     1      -4.503   0.538  -2.544  1.00  0.00     0.156 A 
HETATM   20  O4  UNL     1      -4.668   1.518  -4.714  1.00  0.00    -0.188 OA
HETATM   21  C15 UNL     1      -3.863   0.480  -1.302  1.00  0.00     0.028 A 
HETATM   22  O3  UNL     1      -5.569  -0.252  -2.833  1.00  0.00    -0.188 OA
ENDBRANCH   8  15
TORSDOF 1
