REMARK  4 active torsions:
REMARK  status: ('A' for Active; 'I' for Inactive)
REMARK    1  A    between atoms: C3_3  and  O2_7 
REMARK    2  A    between atoms: O2_7  and  C6_8 
REMARK    3  A    between atoms: C7_10  and  C11_17 
REMARK    4  A    between atoms: C12_19  and  C15_23 
ROOT
HETATM    1  C1  UNL     1      -1.177  -0.746  -0.486  1.00  0.00     0.034 C 
HETATM    2  C2  UNL     1      -0.110  -1.488   0.345  1.00  0.00     0.091 C 
HETATM    3  C3  UNL     1       1.288  -1.030  -0.031  1.00  0.00     0.244 C 
HETATM    4  O1  UNL     1       1.559  -1.233  -1.401  1.00  0.00    -0.304 OA
HETATM    5  C4  UNL     1       0.571  -0.898  -2.277  1.00  0.00     0.114 C 
HETATM    6  C5  UNL     1      -0.687  -0.626  -1.907  1.00  0.00     0.000 C 
HETATM    7  C12 UNL     1      -0.450  -2.960   0.134  1.00  0.00     0.153 A 
HETATM    8  C13 UNL     1      -1.814  -3.086  -0.303  1.00  0.00     0.143 A 
HETATM    9  C14 UNL     1      -2.401  -1.685  -0.427  1.00  0.00     0.037 C 
HETATM   10  O8  UNL     1      -1.664  -3.447   1.049  1.00  0.00    -0.354 OA
ENDROOT
BRANCH   3  11
HETATM   11  O2  UNL     1       1.395   0.365   0.162  1.00  0.00    -0.304 OA
BRANCH  11  12
HETATM   12  C6  UNL     1       2.712   0.866   0.056  1.00  0.00     0.272 C 
HETATM   13  O3  UNL     1       3.144   1.124   1.374  1.00  0.00    -0.326 OA
HETATM   14  C7  UNL     1       4.450   1.645   1.411  1.00  0.00     0.184 C 
HETATM   15  C8  UNL     1       4.514   2.953   0.626  1.00  0.00     0.215 C 
HETATM   16  C9  UNL     1       4.029   2.752  -0.795  1.00  0.00     0.220 C 
HETATM   17  O6  UNL     1       5.832   3.439   0.564  1.00  0.00    -0.218 OA
HETATM   18  C10 UNL     1       2.646   2.148  -0.738  1.00  0.00     0.241 C 
HETATM   19  O5  UNL     1       3.980   3.989  -1.458  1.00  0.00    -0.218 OA
HETATM   20  O4  UNL     1       2.205   1.856  -2.041  1.00  0.00    -0.215 OA
BRANCH  14  21
HETATM   21  C11 UNL     1       4.869   1.824   2.868  1.00  0.00     0.214 C 
HETATM   22  O7  UNL     1       6.086   1.145   3.113  1.00  0.00    -0.218 OA
ENDBRANCH  14  21
ENDBRANCH  11  12
ENDBRANCH   3  11
BRANCH   7  23
HETATM   23  C15 UNL     1       0.570  -4.058  -0.078  1.00  0.00     0.212 C 
HETATM   24  O9  UNL     1       1.465  -4.138   1.024  1.00  0.00    -0.218 OA
ENDBRANCH   7  23
TORSDOF 4
