REMARK  11 active torsions:
REMARK  status: ('A' for Active; 'I' for Inactive)
REMARK    1  A    between atoms: C2_2  and  O10_46 
REMARK    2  A    between atoms: C6_6  and  O1_7 
REMARK    3  A    between atoms: O1_7  and  C7_8 
REMARK    4  A    between atoms: C7_8  and  C8_9 
REMARK    5  A    between atoms: C16_18  and  O4_21 
REMARK    6  A    between atoms: O4_21  and  C18_22 
REMARK    7  A    between atoms: C21_27  and  C31_39 
REMARK    8  A    between atoms: C23_29  and  O7_30 
REMARK    9  A    between atoms: O7_30  and  C24_31 
REMARK   10  A    between atoms: C24_31  and  C25_32 
REMARK   11  A    between atoms: O10_46  and  C37_47 
ROOT
HETATM    1  C1  UNL     1       2.040  -1.497  -2.145  1.00  0.00     0.207 C 
HETATM    2  C2  UNL     1       1.260  -2.415  -1.220  1.00  0.00     0.157 C 
HETATM    3  C3  UNL     1       2.178  -3.212  -0.261  1.00  0.00     0.031 C 
HETATM    4  C4  UNL     1       3.460  -2.375   0.083  1.00  0.00     0.038 C 
HETATM    5  C5  UNL     1       3.347  -0.813   0.035  1.00  0.00     0.036 C 
HETATM    6  C6  UNL     1       2.809  -0.400  -1.397  1.00  0.00     0.157 C 
HETATM    7  C14 UNL     1       4.751  -0.165   0.359  1.00  0.00     0.068 C 
HETATM    8  C15 UNL     1       5.582  -0.807   1.487  1.00  0.00     0.207 C 
HETATM    9  C16 UNL     1       5.700  -2.325   1.326  1.00  0.00     0.189 C 
HETATM   10  C17 UNL     1       4.316  -2.954   1.222  1.00  0.00     0.183 C 
HETATM   11  O3  UNL     1       3.693  -2.869   2.483  1.00  0.00    -0.221 OA
HETATM   12  O6  UNL     1       4.984  -0.561   2.742  1.00  0.00    -0.216 OA
HETATM   13  C20 UNL     1       6.983  -0.193   1.613  1.00  0.00     0.183 C 
HETATM   14  C21 UNL     1       7.305   1.246   1.202  1.00  0.00     0.075 C 
HETATM   15  C22 UNL     1       6.245   1.842   0.256  1.00  0.00     0.041 C 
HETATM   16  C23 UNL     1       4.824   1.366   0.566  1.00  0.00     0.128 C 
HETATM   17  C33 UNL     1       7.370   2.048   2.520  1.00  0.00     0.012 C 
HETATM   18  O9  UNL     1       7.798  -0.841   2.232  1.00  0.00    -0.293 OA
HETATM   19  C34 UNL     1       2.325  -0.301   1.083  1.00  0.00     0.003 C 
HETATM   20  C35 UNL     1       1.334  -3.616   0.974  1.00  0.00     0.003 C 
HETATM   21  C36 UNL     1       2.591  -4.564  -0.912  1.00  0.00     0.003 C 
HETATM   22  O12 UNL     1       2.915  -2.258  -2.946  1.00  0.00    -0.218 OA
ENDROOT
BRANCH   6  23
HETATM   23  O1  UNL     1       3.837   0.012  -2.253  1.00  0.00    -0.298 OA
BRANCH  23  24
HETATM   24  C7  UNL     1       3.862   1.136  -3.034  1.00  0.00     0.296 C 
HETATM   25  O2  UNL     1       4.911   1.322  -3.651  1.00  0.00    -0.259 OA
BRANCH  24  26
HETATM   26  C8  UNL     1       2.820   2.187  -3.274  1.00  0.00     0.063 A 
HETATM   27  C9  UNL     1       3.258   3.474  -3.635  1.00  0.00     0.005 A 
HETATM   28  C10 UNL     1       2.351   4.509  -3.872  1.00  0.00     0.000 A 
HETATM   29  C11 UNL     1       0.981   4.278  -3.756  1.00  0.00     0.000 A 
HETATM   30  C12 UNL     1       0.528   3.003  -3.412  1.00  0.00     0.000 A 
HETATM   31  C13 UNL     1       1.437   1.970  -3.180  1.00  0.00     0.005 A 
ENDBRANCH  24  26
ENDBRANCH  23  24
ENDBRANCH   6  23
BRANCH   2  32
HETATM   32  O10 UNL     1       0.426  -3.278  -1.944  1.00  0.00    -0.302 OA
BRANCH  32  33
HETATM   33  C37 UNL     1      -0.719  -2.768  -2.474  1.00  0.00     0.272 C 
HETATM   34  C38 UNL     1      -1.488  -3.854  -3.197  1.00  0.00     0.106 C 
HETATM   35  O11 UNL     1      -1.080  -1.617  -2.380  1.00  0.00    -0.264 OA
ENDBRANCH  32  33
ENDBRANCH   2  32
BRANCH  16  36
HETATM   36  O7  UNL     1       3.928   2.061  -0.242  1.00  0.00    -0.301 OA
BRANCH  36  37
HETATM   37  C24 UNL     1       3.287   3.201   0.170  1.00  0.00     0.296 C 
HETATM   38  O8  UNL     1       2.591   3.785  -0.657  1.00  0.00    -0.259 OA
BRANCH  37  39
HETATM   39  C25 UNL     1       3.285   3.849   1.528  1.00  0.00     0.063 A 
HETATM   40  C26 UNL     1       3.388   5.246   1.591  1.00  0.00     0.005 A 
HETATM   41  C27 UNL     1       3.348   5.910   2.819  1.00  0.00     0.000 A 
HETATM   42  C28 UNL     1       3.194   5.185   4.001  1.00  0.00     0.000 A 
HETATM   43  C29 UNL     1       3.064   3.796   3.947  1.00  0.00     0.000 A 
HETATM   44  C30 UNL     1       3.093   3.134   2.719  1.00  0.00     0.005 A 
ENDBRANCH  37  39
ENDBRANCH  36  37
ENDBRANCH  16  36
BRANCH   9  45
HETATM   45  O4  UNL     1       6.455  -2.601   0.178  1.00  0.00    -0.299 OA
BRANCH  45  46
HETATM   46  C18 UNL     1       7.399  -3.582   0.090  1.00  0.00     0.273 C 
HETATM   47  O5  UNL     1       8.055  -3.744  -0.918  1.00  0.00    -0.264 OA
HETATM   48  C19 UNL     1       7.573  -4.489   1.295  1.00  0.00     0.106 C 
ENDBRANCH  45  46
ENDBRANCH   9  45
BRANCH  14  49
HETATM   49  C31 UNL     1       8.651   1.275   0.499  1.00  0.00    -0.020 C 
HETATM   50  C32 UNL     1       9.352   2.387   0.236  1.00  0.00    -0.004 C 
ENDBRANCH  14  49
TORSDOF 11
