REMARK  2 active torsions:
REMARK  status: ('A' for Active; 'I' for Inactive)
REMARK    1  A    between atoms: C12_13  and  O4_19 
REMARK    2  A    between atoms: C14_15  and  O2_16 
ROOT
HETATM    1  C1  UNL     1      -2.021  -0.983   0.066  1.00  0.00     0.028 A 
HETATM    2  C2  UNL     1      -1.651  -2.319  -0.089  1.00  0.00     0.131 A 
HETATM    3  C3  UNL     1      -0.282  -2.620  -0.105  1.00  0.00     0.031 A 
HETATM    4  C4  UNL     1       0.691  -1.622   0.022  1.00  0.00     0.044 A 
HETATM    5  C5  UNL     1       0.302  -0.281   0.170  1.00  0.00     0.042 A 
HETATM    6  C6  UNL     1      -1.062   0.028   0.195  1.00  0.00     0.005 A 
HETATM    7  C7  UNL     1       1.305   0.809   0.290  1.00  0.00     0.198 A 
HETATM    8  C8  UNL     1       2.748   0.454   0.162  1.00  0.00     0.067 A 
HETATM    9  C9  UNL     1       3.122  -0.893   0.023  1.00  0.00     0.046 A 
HETATM   10  C10 UNL     1       2.125  -1.994  -0.014  1.00  0.00     0.196 A 
HETATM   11  O1  UNL     1       2.466  -3.172  -0.089  1.00  0.00    -0.287 OA
HETATM   12  C11 UNL     1       4.473  -1.218  -0.081  1.00  0.00     0.030 A 
HETATM   13  C12 UNL     1       5.499  -0.261  -0.037  1.00  0.00     0.121 A 
HETATM   14  C13 UNL     1       5.103   1.079   0.111  1.00  0.00     0.175 A 
HETATM   15  C14 UNL     1       3.740   1.453   0.133  1.00  0.00     0.124 A 
HETATM   16  O3  UNL     1       6.016   2.085   0.208  1.00  0.00    -0.186 OA
HETATM   17  O5  UNL     1       0.913   1.960   0.465  1.00  0.00    -0.286 OA
HETATM   18  O6  UNL     1      -2.581  -3.302  -0.223  1.00  0.00    -0.190 OA
ENDROOT
BRANCH  13  19
HETATM   19  O4  UNL     1       6.784  -0.746  -0.112  1.00  0.00    -0.326 OA
HETATM   20  C16 UNL     1       7.890   0.110   0.029  1.00  0.00     0.181 C 
ENDBRANCH  13  19
BRANCH  15  21
HETATM   21  O2  UNL     1       3.450   2.779   0.338  1.00  0.00    -0.326 OA
HETATM   22  C15 UNL     1       3.211   3.501  -0.850  1.00  0.00     0.181 C 
ENDBRANCH  15  21
TORSDOF 2
