REMARK  7 active torsions:
REMARK  status: ('A' for Active; 'I' for Inactive)
REMARK    1  A    between atoms: O1_1  and  C1_2 
REMARK    2  A    between atoms: O1_1  and  C22_34 
REMARK    3  A    between atoms: C1_2  and  C2_3 
REMARK    4  A    between atoms: C6_7  and  O3_9 
REMARK    5  A    between atoms: O3_9  and  C7_10 
REMARK    6  A    between atoms: C13_17  and  C16_21 
REMARK    7  A    between atoms: C23_36  and  C27_43 
ROOT
HETATM    1  C2  UNL     1       1.649  -2.976   0.758  1.00  0.00     0.180 C 
HETATM    2  C3  UNL     1       1.046  -4.373   0.821  1.00  0.00     0.215 C 
HETATM    3  C4  UNL     1      -0.425  -4.275   1.181  1.00  0.00     0.220 C 
HETATM    4  C5  UNL     1      -1.116  -3.342   0.209  1.00  0.00     0.241 C 
HETATM    5  C6  UNL     1      -0.399  -2.011   0.200  1.00  0.00     0.274 C 
HETATM    6  O2  UNL     1       0.941  -2.215  -0.183  1.00  0.00    -0.326 OA
HETATM    7  O10 UNL     1      -2.449  -3.153   0.610  1.00  0.00    -0.215 OA
HETATM    8  O11 UNL     1      -1.012  -5.549   1.116  1.00  0.00    -0.218 OA
HETATM    9  O12 UNL     1       1.680  -5.150   1.806  1.00  0.00    -0.218 OA
ENDROOT
BRANCH   5  10
HETATM   10  O3  UNL     1      -0.980  -1.205  -0.796  1.00  0.00    -0.301 OA
BRANCH  10  11
HETATM   11  C7  UNL     1      -0.495   0.059  -1.028  1.00  0.00     0.126 A 
HETATM   12  C8  UNL     1      -1.076   0.791  -2.073  1.00  0.00     0.179 A 
HETATM   13  C9  UNL     1      -0.629   2.077  -2.409  1.00  0.00     0.163 A 
HETATM   14  O9  UNL     1      -2.096   0.252  -2.796  1.00  0.00    -0.186 OA
HETATM   15  C10 UNL     1       0.433   2.634  -1.681  1.00  0.00     0.089 A 
HETATM   16  O8  UNL     1      -1.241   2.711  -3.445  1.00  0.00    -0.188 OA
HETATM   17  C11 UNL     1       1.036   1.947  -0.616  1.00  0.00     0.107 A 
HETATM   18  C15 UNL     1       1.003   3.958  -2.029  1.00  0.00     0.202 C 
HETATM   19  C12 UNL     1       0.536   0.681  -0.307  1.00  0.00     0.051 A 
HETATM   20  O4  UNL     1       2.032   2.482   0.148  1.00  0.00    -0.307 OA
HETATM   21  C13 UNL     1       2.798   3.467  -0.407  1.00  0.00     0.103 C 
HETATM   22  C14 UNL     1       2.319   4.239  -1.413  1.00  0.00     0.067 C 
HETATM   23  O5  UNL     1       0.510   4.726  -2.849  1.00  0.00    -0.286 OA
BRANCH  21  24
HETATM   24  C16 UNL     1       4.125   3.761   0.175  1.00  0.00     0.025 A 
HETATM   25  C17 UNL     1       4.433   3.253   1.447  1.00  0.00     0.004 A 
HETATM   26  C18 UNL     1       5.667   3.511   2.040  1.00  0.00     0.030 A 
HETATM   27  C19 UNL     1       6.637   4.275   1.387  1.00  0.00     0.156 A 
HETATM   28  C20 UNL     1       6.364   4.761   0.105  1.00  0.00     0.156 A 
HETATM   29  O7  UNL     1       7.850   4.525   1.946  1.00  0.00    -0.188 OA
HETATM   30  C21 UNL     1       5.123   4.495  -0.482  1.00  0.00     0.032 A 
HETATM   31  O6  UNL     1       7.306   5.482  -0.557  1.00  0.00    -0.188 OA
ENDBRANCH  21  24
ENDBRANCH  10  11
ENDBRANCH   5  10
BRANCH   1  32
HETATM   32  C1  UNL     1       3.119  -2.946   0.356  1.00  0.00     0.177 C 
BRANCH  32  33
HETATM   33  O1  UNL     1       3.570  -1.622   0.516  1.00  0.00    -0.326 OA
BRANCH  33  34
HETATM   34  C22 UNL     1       4.854  -1.373  -0.007  1.00  0.00     0.270 C 
HETATM   35  O13 UNL     1       5.752  -2.113   0.791  1.00  0.00    -0.326 OA
HETATM   36  C23 UNL     1       7.089  -1.937   0.404  1.00  0.00     0.184 C 
HETATM   37  C24 UNL     1       7.473  -0.472   0.571  1.00  0.00     0.215 C 
HETATM   38  C25 UNL     1       6.553   0.407  -0.253  1.00  0.00     0.220 C 
HETATM   39  O16 UNL     1       8.791  -0.237   0.141  1.00  0.00    -0.218 OA
HETATM   40  C26 UNL     1       5.125   0.109   0.144  1.00  0.00     0.241 C 
HETATM   41  O15 UNL     1       6.856   1.755   0.007  1.00  0.00    -0.218 OA
HETATM   42  O14 UNL     1       4.265   0.855  -0.681  1.00  0.00    -0.215 OA
BRANCH  36  43
HETATM   43  C27 UNL     1       7.958  -2.852   1.254  1.00  0.00     0.214 C 
HETATM   44  O17 UNL     1       7.650  -4.202   0.968  1.00  0.00    -0.218 OA
ENDBRANCH  36  43
ENDBRANCH  33  34
ENDBRANCH  32  33
ENDBRANCH   1  32
TORSDOF 7
