REMARK  3 active torsions:
REMARK  status: ('A' for Active; 'I' for Inactive)
REMARK    1  A    between atoms: C8_9  and  O2_11 
REMARK    2  A    between atoms: O2_11  and  C9_12 
REMARK    3  A    between atoms: C10_14  and  C14_21 
ROOT
HETATM    1  C1  UNL     1       7.743  -3.074  -0.327  1.00  0.00     0.133 A 
HETATM    2  C2  UNL     1       8.095  -1.725  -0.219  1.00  0.00     0.029 A 
HETATM    3  C3  UNL     1       7.123  -0.726  -0.133  1.00  0.00     0.028 A 
HETATM    4  C4  UNL     1       5.755  -1.022  -0.157  1.00  0.00     0.115 A 
HETATM    5  C5  UNL     1       5.418  -2.377  -0.221  1.00  0.00     0.109 A 
HETATM    6  C6  UNL     1       6.380  -3.382  -0.324  1.00  0.00     0.049 A 
HETATM    7  N1  UNL     1       4.116  -2.696  -0.210  1.00  0.00    -0.205 NA
HETATM    8  C7  UNL     1       3.089  -1.834  -0.021  1.00  0.00     0.314 C 
HETATM    9  C8  UNL     1       3.499  -0.405   0.312  1.00  0.00     0.327 C 
HETATM   10  O1  UNL     1       4.823  -0.029  -0.053  1.00  0.00    -0.297 OA
HETATM   11  O8  UNL     1       1.946  -2.220  -0.033  1.00  0.00    -0.265 OA
HETATM   12  O9  UNL     1       8.683  -4.051  -0.411  1.00  0.00    -0.190 OA
ENDROOT
BRANCH   9  13
HETATM   13  O2  UNL     1       2.725   0.577  -0.369  1.00  0.00    -0.297 OA
BRANCH  13  14
HETATM   14  C9  UNL     1       1.472   0.848   0.226  1.00  0.00     0.272 C 
HETATM   15  O3  UNL     1       0.521   0.617  -0.794  1.00  0.00    -0.326 OA
HETATM   16  C10 UNL     1      -0.797   0.856  -0.366  1.00  0.00     0.184 C 
HETATM   17  C11 UNL     1      -0.941   2.308   0.080  1.00  0.00     0.215 C 
HETATM   18  C12 UNL     1       0.061   2.625   1.171  1.00  0.00     0.220 C 
HETATM   19  O6  UNL     1      -2.225   2.559   0.598  1.00  0.00    -0.218 OA
HETATM   20  C13 UNL     1       1.441   2.300   0.647  1.00  0.00     0.241 C 
HETATM   21  O5  UNL     1      -0.016   3.988   1.499  1.00  0.00    -0.218 OA
HETATM   22  O4  UNL     1       2.387   2.520   1.661  1.00  0.00    -0.215 OA
BRANCH  16  23
HETATM   23  C14 UNL     1      -1.749   0.530  -1.509  1.00  0.00     0.214 C 
HETATM   24  O7  UNL     1      -1.773  -0.865  -1.734  1.00  0.00    -0.218 OA
ENDBRANCH  16  23
ENDBRANCH  13  14
ENDBRANCH   9  13
TORSDOF 3
