REMARK  4 active torsions:
REMARK  status: ('A' for Active; 'I' for Inactive)
REMARK    1  A    between atoms: C1_1  and  C14_17 
REMARK    2  A    between atoms: C2_2  and  O3_15 
REMARK    3  A    between atoms: C6_6  and  O1_7 
REMARK    4  A    between atoms: C14_17  and  C15_18 
ROOT
HETATM    1  C1  UNL     1       2.409  -0.649  -0.780  1.00  0.00     0.079 C 
HETATM    2  C2  UNL     1       1.279  -1.275  -1.336  1.00  0.00     0.101 C 
HETATM    3  C3  UNL     1       0.080  -0.553  -1.279  1.00  0.00     0.049 C 
HETATM    4  C4  UNL     1      -0.004   0.757  -0.798  1.00  0.00     0.098 C 
HETATM    5  C5  UNL     1       1.157   1.318  -0.242  1.00  0.00     0.045 C 
HETATM    6  C6  UNL     1       2.370   0.604  -0.150  1.00  0.00     0.101 C 
HETATM    7  C8  UNL     1       1.056   2.725   0.159  1.00  0.00     0.002 C 
HETATM    8  C9  UNL     1      -0.170   3.253   0.321  1.00  0.00     0.001 C 
HETATM    9  C10 UNL     1      -1.404   2.397   0.159  1.00  0.00     0.117 C 
HETATM   10  O2  UNL     1      -1.208   1.413  -0.821  1.00  0.00    -0.332 OA
HETATM   11  C11 UNL     1      -2.588   3.260  -0.291  1.00  0.00     0.035 C 
HETATM   12  C12 UNL     1      -1.732   1.716   1.493  1.00  0.00     0.035 C 
ENDROOT
BRANCH   1  13
HETATM   13  C14 UNL     1       3.724  -1.388  -0.905  1.00  0.00     0.176 C 
HETATM   14  O4  UNL     1       4.182  -1.640  -2.010  1.00  0.00    -0.291 OA
BRANCH  13  15
HETATM   15  C15 UNL     1       4.437  -1.878   0.350  1.00  0.00     0.062 C 
HETATM   16  C16 UNL     1       4.486  -3.415   0.370  1.00  0.00     0.008 C 
HETATM   17  C17 UNL     1       5.862  -1.308   0.438  1.00  0.00     0.008 C 
ENDBRANCH  13  15
ENDBRANCH   1  13
BRANCH   2  18
HETATM   18  O3  UNL     1       1.394  -2.551  -1.832  1.00  0.00    -0.328 OA
HETATM   19  C13 UNL     1       0.219  -3.255  -2.162  1.00  0.00     0.181 C 
ENDBRANCH   2  18
BRANCH   6  20
HETATM   20  O1  UNL     1       3.511   1.193   0.327  1.00  0.00    -0.328 OA
HETATM   21  C7  UNL     1       3.558   1.332   1.732  1.00  0.00     0.181 C 
ENDBRANCH   6  20
TORSDOF 4
