REMARK  1 active torsions:
REMARK  status: ('A' for Active; 'I' for Inactive)
REMARK    1  A    between atoms: C8_9  and  C10_12 
ROOT
HETATM    1  C10 UNL     1       1.415   0.712  -1.896  1.00  0.00     0.013 A 
HETATM    2  C11 UNL     1       2.737   0.938  -1.994  1.00  0.00     0.129 A 
HETATM    3  O3  UNL     1       3.365   1.085  -3.193  1.00  0.00    -0.190 OA
HETATM    4  C12 UNL     1       3.447   1.000  -0.858  1.00  0.00     0.051 A 
HETATM    5  C13 UNL     1       2.916   0.874   0.372  1.00  0.00     0.096 A 
HETATM    6  C14 UNL     1       1.589   0.651   0.480  1.00  0.00     0.022 A 
HETATM    7  C15 UNL     1       0.886   0.580  -0.667  1.00  0.00     0.000 A 
HETATM    8  C16 UNL     1       1.032   0.534   1.710  1.00  0.00    -0.000 A 
HETATM    9  C17 UNL     1       1.837   0.385   2.785  1.00  0.00     0.003 A 
HETATM   10  C18 UNL     1       3.338   0.253   2.589  1.00  0.00     0.117 C 
HETATM   11  O4  UNL     1       3.747   0.954   1.452  1.00  0.00    -0.332 OA
HETATM   12  C19 UNL     1       4.179   0.811   3.746  1.00  0.00     0.035 C 
HETATM   13  C20 UNL     1       3.673  -1.234   2.396  1.00  0.00     0.035 C 
HETATM   14  C21 UNL     1       1.294   0.257   4.009  1.00  0.00    -0.002 A 
HETATM   15  C22 UNL     1      -0.031   0.303   4.198  1.00  0.00    -0.004 A 
HETATM   16  C23 UNL     1      -0.851   0.461   3.150  1.00  0.00    -0.022 A 
HETATM   17  C24 UNL     1      -0.301   0.566   1.928  1.00  0.00    -0.004 A 
HETATM   18  C25 UNL     1      -2.347   0.513   3.360  1.00  0.00     0.031 C 
ENDROOT
BRANCH   1  19
HETATM   19  C8  UNL     1       0.541   0.587  -3.141  1.00  0.00     0.116 C 
HETATM   20  C7  UNL     1      -0.339   1.801  -3.390  1.00  0.00     0.161 C 
HETATM   21  O1  UNL     1      -1.381   1.826  -2.461  1.00  0.00    -0.330 OA
HETATM   22  C5  UNL     1      -2.082   0.653  -2.330  1.00  0.00     0.101 A 
HETATM   23  C4  UNL     1      -1.612  -0.572  -2.658  1.00  0.00     0.083 A 
HETATM   24  C6  UNL     1      -3.347   0.735  -1.885  1.00  0.00     0.051 A 
HETATM   25  C3  UNL     1      -2.394  -1.670  -2.521  1.00  0.00     0.134 A 
HETATM   26  C9  UNL     1      -0.319  -0.672  -3.084  1.00  0.00     0.183 C 
HETATM   27  C2  UNL     1      -3.655  -1.537  -2.052  1.00  0.00     0.029 A 
HETATM   28  O5  UNL     1      -1.989  -2.933  -2.849  1.00  0.00    -0.190 OA
HETATM   29  C1  UNL     1      -4.145  -0.328  -1.721  1.00  0.00     0.131 A 
HETATM   30  C26 UNL     1      -4.509  -2.781  -1.887  1.00  0.00     0.035 C 
HETATM   31  O6  UNL     1      -5.413  -0.153  -1.258  1.00  0.00    -0.190 OA
HETATM   32  O2  UNL     1       0.234  -1.704  -3.390  1.00  0.00    -0.291 OA
ENDBRANCH   1  19
TORSDOF 1
