REMARK  7 active torsions:
REMARK  status: ('A' for Active; 'I' for Inactive)
REMARK    1  A    between atoms: C3_3  and  O3_11 
REMARK    2  A    between atoms: C6_6  and  C7_7 
REMARK    3  A    between atoms: C7_7  and  O2_9 
REMARK    4  A    between atoms: O3_11  and  C9_12 
REMARK    5  A    between atoms: C10_14  and  C14_21 
REMARK    6  A    between atoms: C15_23  and  C19_28 
REMARK    7  A    between atoms: C17_25  and  C18_26 
ROOT
HETATM    1  C1  UNL     1      -1.409   0.824  -0.962  1.00  0.00     0.040 C 
HETATM    2  C2  UNL     1      -1.242  -0.721  -0.973  1.00  0.00     0.053 C 
HETATM    3  C3  UNL     1       0.206  -1.166  -1.220  1.00  0.00     0.126 C 
HETATM    4  C4  UNL     1       0.876  -0.181  -2.181  1.00  0.00     0.056 C 
HETATM    5  C5  UNL     1       0.915   1.154  -1.474  1.00  0.00    -0.023 C 
HETATM    6  C6  UNL     1      -0.125   1.601  -0.737  1.00  0.00     0.037 C 
HETATM    7  C15 UNL     1      -2.230  -1.144  -2.030  1.00  0.00    -0.013 C 
HETATM    8  C16 UNL     1      -2.691  -0.106  -2.736  1.00  0.00    -0.029 C 
HETATM    9  C17 UNL     1      -2.051   1.192  -2.329  1.00  0.00     0.059 C 
ENDROOT
BRANCH   3  10
HETATM   10  O3  UNL     1       0.821  -1.129   0.041  1.00  0.00    -0.331 OA
BRANCH  10  11
HETATM   11  C9  UNL     1       2.135  -1.625   0.147  1.00  0.00     0.270 C 
HETATM   12  O4  UNL     1       2.114  -2.553   1.213  1.00  0.00    -0.326 OA
HETATM   13  C10 UNL     1       1.896  -2.011   2.492  1.00  0.00     0.184 C 
HETATM   14  C11 UNL     1       2.838  -0.855   2.815  1.00  0.00     0.215 C 
HETATM   15  C12 UNL     1       2.951   0.181   1.710  1.00  0.00     0.220 C 
HETATM   16  O7  UNL     1       4.130  -1.374   3.053  1.00  0.00    -0.218 OA
HETATM   17  C13 UNL     1       3.158  -0.534   0.387  1.00  0.00     0.241 C 
HETATM   18  O6  UNL     1       1.802   0.996   1.662  1.00  0.00    -0.218 OA
HETATM   19  O5  UNL     1       4.442  -1.117   0.384  1.00  0.00    -0.215 OA
BRANCH  13  20
HETATM   20  C14 UNL     1       0.422  -1.726   2.762  1.00  0.00     0.214 C 
HETATM   21  O8  UNL     1       0.187  -1.662   4.155  1.00  0.00    -0.218 OA
ENDBRANCH  13  20
ENDBRANCH  10  11
ENDBRANCH   3  10
BRANCH   7  22
HETATM   22  C19 UNL     1      -2.650  -2.574  -2.204  1.00  0.00     0.204 C 
HETATM   23  O10 UNL     1      -3.175  -3.094  -0.989  1.00  0.00    -0.216 OA
ENDBRANCH   7  22
BRANCH   6  24
HETATM   24  C7  UNL     1       0.077   2.700   0.056  1.00  0.00     0.291 C 
HETATM   25  O1  UNL     1       1.207   3.152   0.033  1.00  0.00    -0.260 OA
BRANCH  24  26
HETATM   26  O2  UNL     1      -0.759   3.341   0.935  1.00  0.00    -0.296 OA
HETATM   27  C8  UNL     1      -2.006   2.850   1.347  1.00  0.00     0.185 C 
ENDBRANCH  24  26
ENDBRANCH   6  24
BRANCH   9  28
HETATM   28  C18 UNL     1      -3.021   2.365  -2.295  1.00  0.00     0.187 C 
HETATM   29  O9  UNL     1      -2.300   3.533  -1.958  1.00  0.00    -0.220 OA
ENDBRANCH   9  28
TORSDOF 7
