REMARK  8 active torsions:
REMARK  status: ('A' for Active; 'I' for Inactive)
REMARK    1  A    between atoms: C4_4  and  C7_7 
REMARK    2  A    between atoms: C8_8  and  C9_9 
REMARK    3  A    between atoms: C9_9  and  O2_11 
REMARK    4  A    between atoms: O2_11  and  C10_12 
REMARK    5  A    between atoms: C14_16  and  C15_17 
REMARK    6  A    between atoms: C15_17  and  C16_18 
REMARK    7  A    between atoms: C16_18  and  O3_19 
REMARK    8  A    between atoms: C18_22  and  O6_25 
ROOT
HETATM    1  C10 UNL     1      -1.010  -0.158   1.846  1.00  0.00     0.128 C 
HETATM    2  C11 UNL     1      -2.333  -0.884   1.555  1.00  0.00     0.063 C 
HETATM    3  C12 UNL     1      -1.982  -2.296   1.085  1.00  0.00     0.161 C 
HETATM    4  C13 UNL     1      -0.531  -2.236   0.634  1.00  0.00     0.090 C 
HETATM    5  C14 UNL     1       0.109  -1.165   1.529  1.00  0.00     0.045 C 
HETATM    6  C18 UNL     1      -0.666  -1.918  -0.850  1.00  0.00     0.238 C 
HETATM    7  O5  UNL     1      -2.021  -2.085  -1.218  1.00  0.00    -0.328 OA
HETATM    8  C19 UNL     1      -2.672  -2.763  -0.176  1.00  0.00     0.175 C 
HETATM    9  O7  UNL     1      -2.145  -3.214   2.128  1.00  0.00    -0.223 OA
ENDROOT
BRANCH   1  10
HETATM   10  O2  UNL     1      -0.905   0.984   1.042  1.00  0.00    -0.301 OA
BRANCH  10  11
HETATM   11  C9  UNL     1      -0.998   2.223   1.610  1.00  0.00     0.296 C 
HETATM   12  O1  UNL     1      -1.452   2.332   2.731  1.00  0.00    -0.259 OA
BRANCH  11  13
HETATM   13  C8  UNL     1      -0.466   3.356   1.071  1.00  0.00     0.068 C 
HETATM   14  C7  UNL     1       0.105   3.571  -0.130  1.00  0.00     0.005 C 
BRANCH  14  15
HETATM   15  C4  UNL     1       0.163   2.872  -1.282  1.00  0.00     0.000 A 
HETATM   16  C3  UNL     1       1.069   3.228  -2.217  1.00  0.00     0.002 A 
HETATM   17  C2  UNL     1       1.170   2.587  -3.392  1.00  0.00     0.027 A 
HETATM   18  C1  UNL     1       0.348   1.575  -3.710  1.00  0.00     0.131 A 
HETATM   19  C6  UNL     1      -0.603   1.262  -2.817  1.00  0.00     0.027 A 
HETATM   20  O8  UNL     1       0.429   0.928  -4.903  1.00  0.00    -0.190 OA
HETATM   21  C5  UNL     1      -0.694   1.897  -1.638  1.00  0.00     0.002 A 
ENDBRANCH  14  15
ENDBRANCH  11  13
ENDBRANCH  10  11
ENDBRANCH   1  10
BRANCH   5  22
HETATM   22  C15 UNL     1       1.447  -0.617   1.006  1.00  0.00     0.099 C 
BRANCH  22  23
HETATM   23  C16 UNL     1       2.110   0.353   1.969  1.00  0.00     0.272 C 
HETATM   24  O4  UNL     1       2.065   1.558   1.863  1.00  0.00    -0.264 OA
BRANCH  23  25
HETATM   25  O3  UNL     1       2.778  -0.318   2.944  1.00  0.00    -0.299 OA
HETATM   26  C17 UNL     1       3.475   0.476   3.875  1.00  0.00     0.184 C 
ENDBRANCH  23  25
ENDBRANCH  22  23
ENDBRANCH   5  22
BRANCH   6  27
HETATM   27  O6  UNL     1       0.090  -2.841  -1.603  1.00  0.00    -0.328 OA
HETATM   28  C20 UNL     1       0.311  -2.418  -2.931  1.00  0.00     0.177 C 
ENDBRANCH   6  27
TORSDOF 8
