REMARK  3 active torsions:
REMARK  status: ('A' for Active; 'I' for Inactive)
REMARK    1  A    between atoms: C11_14  and  C15_19 
REMARK    2  A    between atoms: C13_16  and  C14_17 
REMARK    3  A    between atoms: C16_21  and  O7_23 
ROOT
HETATM    1  C1  UNL     1       0.186   0.732   2.701  1.00  0.00     0.151 C 
HETATM    2  C2  UNL     1       1.092   0.251   3.828  1.00  0.00     0.212 C 
HETATM    3  C3  UNL     1       1.623  -1.137   3.495  1.00  0.00     0.220 C 
HETATM    4  C4  UNL     1       0.465  -2.042   3.098  1.00  0.00     0.241 C 
HETATM    5  C5  UNL     1      -0.376  -1.345   2.039  1.00  0.00     0.272 C 
HETATM    6  O1  UNL     1      -0.884  -0.169   2.608  1.00  0.00    -0.329 OA
HETATM    7  O2  UNL     1       0.418  -1.033   0.927  1.00  0.00    -0.304 OA
HETATM    8  C6  UNL     1       0.090  -1.547  -0.335  1.00  0.00     0.246 C 
HETATM    9  O3  UNL     1       1.019  -1.104  -1.288  1.00  0.00    -0.304 OA
HETATM   10  C7  UNL     1       1.141   0.214  -1.182  1.00  0.00     0.115 C 
HETATM   11  C8  UNL     1       0.131   0.983  -0.762  1.00  0.00     0.039 C 
HETATM   12  C9  UNL     1      -1.280   0.484  -0.762  1.00  0.00     0.040 C 
HETATM   13  C10 UNL     1      -1.280  -1.039  -0.762  1.00  0.00     0.082 C 
HETATM   14  C11 UNL     1      -1.523  -1.401  -2.195  1.00  0.00    -0.011 C 
HETATM   15  C12 UNL     1      -1.895  -0.412  -2.880  1.00  0.00    -0.029 C 
HETATM   16  C13 UNL     1      -1.949   0.852  -2.080  1.00  0.00     0.059 C 
HETATM   17  C16 UNL     1       0.389   2.236  -0.329  1.00  0.00     0.291 A 
HETATM   18  O6  UNL     1       0.084   2.562   0.793  1.00  0.00    -0.185 OA
HETATM   19  O8  UNL     1      -0.327  -2.310   4.223  1.00  0.00    -0.215 OA
HETATM   20  O9  UNL     1       2.531  -1.046   2.430  1.00  0.00    -0.218 OA
HETATM   21  O10 UNL     1       0.362   0.197   5.023  1.00  0.00    -0.218 OA
HETATM   22  C18 UNL     1       0.959   0.758   1.389  1.00  0.00     0.035 C 
HETATM   23  O11 UNL     1       0.954   2.060   0.869  1.00  0.00     0.000 OA
ENDROOT
BRANCH  14  24
HETATM   24  C15 UNL     1      -1.343  -2.780  -2.749  1.00  0.00     0.204 C 
HETATM   25  O5  UNL     1      -0.804  -2.699  -4.040  1.00  0.00    -0.216 OA
ENDBRANCH  14  24
BRANCH  16  26
HETATM   26  C14 UNL     1      -1.185   1.968  -2.781  1.00  0.00     0.187 C 
HETATM   27  O4  UNL     1      -2.043   3.055  -3.002  1.00  0.00    -0.220 OA
ENDBRANCH  16  26
BRANCH  17  28
HETATM   28  O7  UNL     1       0.983   3.116  -1.144  1.00  0.00    -0.323 OA
HETATM   29  C17 UNL     1       1.337   2.738  -2.446  1.00  0.00     0.177 C 
ENDBRANCH  17  28
TORSDOF 3
