REMARK  3 active torsions:
REMARK  status: ('A' for Active; 'I' for Inactive)
REMARK    1  A    between atoms: C5_5  and  C7_8 
REMARK    2  A    between atoms: C7_8  and  C8_9 
REMARK    3  A    between atoms: C12_15  and  C13_16 
ROOT
HETATM    1  C1  UNL     1       4.370   0.193  -0.412  1.00  0.00     0.087 A 
HETATM    2  C2  UNL     1       4.475  -1.093  -0.022  1.00  0.00     0.107 A 
HETATM    3  C3  UNL     1       3.347  -1.749   0.293  1.00  0.00     0.052 A 
HETATM    4  C4  UNL     1       2.129  -1.196   0.224  1.00  0.00     0.131 A 
HETATM    5  C5  UNL     1       2.044   0.085  -0.181  1.00  0.00     0.033 A 
HETATM    6  C6  UNL     1       3.156   0.790  -0.493  1.00  0.00     0.134 A 
HETATM    7  O1  UNL     1       2.976   2.080  -0.906  1.00  0.00    -0.190 OA
HETATM    8  O2  UNL     1       1.040  -1.931   0.578  1.00  0.00    -0.190 OA
HETATM    9  O3  UNL     1       5.656  -1.770   0.081  1.00  0.00    -0.307 OA
HETATM   10  C12 UNL     1       6.804  -1.106  -0.245  1.00  0.00     0.103 A 
HETATM   11  C19 UNL     1       6.709   0.183  -0.622  1.00  0.00     0.067 A 
HETATM   12  C20 UNL     1       5.527   0.849  -0.710  1.00  0.00     0.202 A 
HETATM   13  O5  UNL     1       5.579   2.007  -1.058  1.00  0.00    -0.286 OA
ENDROOT
BRANCH  10  14
HETATM   14  C13 UNL     1       7.990  -1.767  -0.185  1.00  0.00     0.023 A 
HETATM   15  C14 UNL     1       9.198  -1.243  -0.477  1.00  0.00     0.004 A 
HETATM   16  C15 UNL     1      10.329  -1.965  -0.407  1.00  0.00     0.028 A 
HETATM   17  C16 UNL     1      10.320  -3.255  -0.040  1.00  0.00     0.131 A 
HETATM   18  C17 UNL     1       9.127  -3.790   0.258  1.00  0.00     0.028 A 
HETATM   19  O4  UNL     1      11.461  -3.992   0.028  1.00  0.00    -0.190 OA
HETATM   20  C18 UNL     1       7.999  -3.065   0.188  1.00  0.00     0.004 A 
ENDBRANCH  10  14
BRANCH   5  21
HETATM   21  C7  UNL     1       0.686   0.764  -0.306  1.00  0.00     0.056 C 
BRANCH  21  22
HETATM   22  C8  UNL     1       0.487   1.825   0.746  1.00  0.00    -0.030 C 
HETATM   23  C9  UNL     1      -0.402   2.833   0.681  1.00  0.00    -0.048 C 
HETATM   24  C10 UNL     1      -1.361   3.044  -0.466  1.00  0.00     0.026 C 
HETATM   25  C11 UNL     1      -0.512   3.859   1.786  1.00  0.00     0.026 C 
ENDBRANCH  21  22
ENDBRANCH   5  21
TORSDOF 3
