REMARK  1 active torsions:
REMARK  status: ('A' for Active; 'I' for Inactive)
REMARK    1  A    between atoms: C11_12  and  C13_14 
ROOT
HETATM    1  C1  UNL     1       3.328   1.680  -0.340  1.00  0.00     0.000 A 
HETATM    2  C2  UNL     1       2.885   2.817   0.332  1.00  0.00     0.002 A 
HETATM    3  C3  UNL     1       1.575   2.905   0.812  1.00  0.00     0.019 A 
HETATM    4  C4  UNL     1       0.729   1.812   0.593  1.00  0.00     0.081 A 
HETATM    5  C5  UNL     1       1.141   0.660  -0.076  1.00  0.00     0.019 A 
HETATM    6  C6  UNL     1       2.467   0.596  -0.551  1.00  0.00     0.002 A 
HETATM    7  C7  UNL     1       0.025  -0.236  -0.115  1.00  0.00     0.019 A 
HETATM    8  C8  UNL     1      -1.038   0.392   0.532  1.00  0.00     0.083 A 
HETATM    9  N1  UNL     1      -0.586   1.622   0.947  1.00  0.00    -0.245 NA
HETATM   10  C9  UNL     1      -2.296  -0.205   0.679  1.00  0.00     0.047 A 
HETATM   11  C10 UNL     1      -2.471  -1.486   0.148  1.00  0.00     0.136 A 
HETATM   12  C11 UNL     1      -1.429  -2.141  -0.504  1.00  0.00     0.068 A 
HETATM   13  C12 UNL     1      -0.177  -1.529  -0.642  1.00  0.00     0.007 A 
HETATM   14  O2  UNL     1      -3.673  -2.100   0.268  1.00  0.00    -0.190 OA
ENDROOT
BRANCH  12  15
HETATM   15  C13 UNL     1      -1.627  -3.379  -1.008  1.00  0.00     0.236 C 
HETATM   16  O1  UNL     1      -1.270  -3.638  -2.132  1.00  0.00    -0.283 OA
ENDBRANCH  12  15
TORSDOF 1
