REMARK  21 active torsions:
REMARK  status: ('A' for Active; 'I' for Inactive)
REMARK    1  A    between atoms: C5_6  and  O2_7 
REMARK    2  A    between atoms: O2_7  and  C6_8 
REMARK    3  A    between atoms: C8_10  and  C49_72 
REMARK    4  A    between atoms: C9_12  and  O9_25 
REMARK    5  A    between atoms: C10_13  and  O4_14 
REMARK    6  A    between atoms: O4_14  and  C11_15 
REMARK    7  A    between atoms: O9_25  and  C17_26 
REMARK    8  A    between atoms: C17_26  and  C18_27 
REMARK    9  A    between atoms: C20_29  and  C21_30 
REMARK   10  A    between atoms: C21_30  and  C22_31 
REMARK   11  A    between atoms: C22_31  and  C23_32 
REMARK   12  A    between atoms: C25_34  and  C26_35 
REMARK   13  A    between atoms: C26_35  and  C27_36 
REMARK   14  A    between atoms: C27_36  and  C28_37 
REMARK   15  A    between atoms: C29_38  and  O10_39 
REMARK   16  A    between atoms: O10_39  and  C30_40 
REMARK   17  A    between atoms: C31_42  and  C47_69 
REMARK   18  A    between atoms: C33_44  and  O17_57 
REMARK   19  A    between atoms: C34_45  and  O12_46 
REMARK   20  A    between atoms: O12_46  and  C35_47 
REMARK   21  A    between atoms: O17_57  and  C41_58 
ROOT
HETATM    1  C23 UNL     1       1.349   1.109   4.380  1.00  0.00    -0.048 C 
HETATM    2  C24 UNL     1       0.528   2.322   4.033  1.00  0.00     0.026 C 
HETATM    3  C25 UNL     1       0.941  -0.089   3.931  1.00  0.00    -0.034 C 
ENDROOT
BRANCH   1   4
HETATM    4  C22 UNL     1       2.603   1.179   5.206  1.00  0.00     0.026 C 
BRANCH   4   5
HETATM    5  C21 UNL     1       3.629   0.121   4.798  1.00  0.00     0.030 C 
BRANCH   5   6
HETATM    6  C20 UNL     1       4.993   0.389   5.374  1.00  0.00    -0.032 C 
HETATM    7  C18 UNL     1       6.045  -0.276   4.872  1.00  0.00    -0.019 C 
HETATM    8  C19 UNL     1       7.408  -0.008   5.450  1.00  0.00     0.029 C 
BRANCH   7   9
HETATM    9  C17 UNL     1       5.807  -1.255   3.753  1.00  0.00     0.167 C 
BRANCH   9  10
HETATM   10  O9  UNL     1       5.767  -0.566   2.525  1.00  0.00    -0.325 OA
BRANCH  10  11
HETATM   11  C9  UNL     1       5.816  -1.424   1.403  1.00  0.00     0.267 C 
HETATM   12  O3  UNL     1       4.623  -2.194   1.375  1.00  0.00    -0.326 OA
HETATM   13  C8  UNL     1       4.545  -3.148   0.323  1.00  0.00     0.184 C 
HETATM   14  C7  UNL     1       4.586  -2.414  -1.035  1.00  0.00     0.211 C 
HETATM   15  C6  UNL     1       5.836  -1.513  -1.148  1.00  0.00     0.183 C 
HETATM   16  O25 UNL     1       4.596  -3.379  -2.072  1.00  0.00    -0.218 OA
HETATM   17  C10 UNL     1       5.942  -0.600   0.095  1.00  0.00     0.204 C 
BRANCH  13  18
HETATM   18  C49 UNL     1       3.248  -3.936   0.537  1.00  0.00     0.214 C 
HETATM   19  O24 UNL     1       3.376  -4.681   1.727  1.00  0.00    -0.218 OA
ENDBRANCH  13  18
BRANCH  15  20
HETATM   20  O2  UNL     1       5.753  -0.720  -2.321  1.00  0.00    -0.326 OA
BRANCH  20  21
HETATM   21  C5  UNL     1       6.023  -1.444  -3.506  1.00  0.00     0.270 C 
HETATM   22  O1  UNL     1       4.801  -1.632  -4.206  1.00  0.00    -0.329 OA
HETATM   23  C1  UNL     1       4.904  -2.393  -5.402  1.00  0.00     0.151 C 
HETATM   24  C2  UNL     1       5.837  -1.663  -6.394  1.00  0.00     0.212 C 
HETATM   25  C50 UNL     1       3.480  -2.566  -5.938  1.00  0.00     0.035 C 
HETATM   26  C3  UNL     1       7.215  -1.374  -5.760  1.00  0.00     0.220 C 
HETATM   27  O28 UNL     1       5.997  -2.475  -7.545  1.00  0.00    -0.218 OA
HETATM   28  C4  UNL     1       7.031  -0.673  -4.394  1.00  0.00     0.241 C 
HETATM   29  O27 UNL     1       7.980  -0.550  -6.626  1.00  0.00    -0.218 OA
HETATM   30  O26 UNL     1       8.283  -0.600  -3.732  1.00  0.00    -0.215 OA
ENDBRANCH  20  21
ENDBRANCH  15  20
BRANCH  17  31
HETATM   31  O4  UNL     1       7.193   0.070   0.080  1.00  0.00    -0.324 OA
BRANCH  31  32
HETATM   32  C11 UNL     1       7.094   1.426  -0.307  1.00  0.00     0.270 C 
HETATM   33  O5  UNL     1       6.280   2.105   0.637  1.00  0.00    -0.329 OA
HETATM   34  C12 UNL     1       6.045   3.478   0.353  1.00  0.00     0.151 C 
HETATM   35  C13 UNL     1       7.390   4.238   0.355  1.00  0.00     0.212 C 
HETATM   36  C16 UNL     1       5.070   3.989   1.419  1.00  0.00     0.035 C 
HETATM   37  C14 UNL     1       8.397   3.597  -0.627  1.00  0.00     0.220 C 
HETATM   38  O8  UNL     1       7.151   5.583  -0.015  1.00  0.00    -0.218 OA
HETATM   39  C15 UNL     1       8.500   2.078  -0.360  1.00  0.00     0.241 C 
HETATM   40  O7  UNL     1       9.671   4.200  -0.469  1.00  0.00    -0.218 OA
HETATM   41  O6  UNL     1       9.262   1.471  -1.391  1.00  0.00    -0.215 OA
ENDBRANCH  31  32
ENDBRANCH  17  31
ENDBRANCH  10  11
ENDBRANCH   9  10
ENDBRANCH   7   9
ENDBRANCH   5   6
ENDBRANCH   4   5
ENDBRANCH   1   4
BRANCH   3  42
HETATM   42  C26 UNL     1      -0.316  -0.160   3.106  1.00  0.00     0.030 C 
BRANCH  42  43
HETATM   43  C27 UNL     1      -0.468  -1.499   2.386  1.00  0.00     0.029 C 
BRANCH  43  44
HETATM   44  C28 UNL     1      -1.891  -1.777   1.982  1.00  0.00    -0.019 C 
HETATM   45  C29 UNL     1      -2.614  -0.774   1.457  1.00  0.00     0.111 C 
HETATM   46  C48 UNL     1      -2.542  -3.125   2.141  1.00  0.00     0.029 C 
BRANCH  45  47
HETATM   47  O10 UNL     1      -3.876  -0.976   1.086  1.00  0.00    -0.302 OA
BRANCH  47  48
HETATM   48  C30 UNL     1      -4.357   0.046   0.223  1.00  0.00     0.271 C 
HETATM   49  O11 UNL     1      -3.686  -0.054  -1.025  1.00  0.00    -0.326 OA
HETATM   50  C31 UNL     1      -4.038   0.942  -1.976  1.00  0.00     0.184 C 
HETATM   51  C32 UNL     1      -5.545   0.832  -2.304  1.00  0.00     0.211 C 
HETATM   52  C33 UNL     1      -6.408   0.903  -1.024  1.00  0.00     0.183 C 
HETATM   53  O22 UNL     1      -5.898   1.888  -3.179  1.00  0.00    -0.218 OA
HETATM   54  C34 UNL     1      -5.878  -0.110   0.016  1.00  0.00     0.204 C 
BRANCH  50  55
HETATM   55  C47 UNL     1      -3.142   0.722  -3.199  1.00  0.00     0.214 C 
HETATM   56  O23 UNL     1      -1.812   1.006  -2.829  1.00  0.00    -0.218 OA
ENDBRANCH  50  55
BRANCH  52  57
HETATM   57  O17 UNL     1      -7.759   0.609  -1.336  1.00  0.00    -0.326 OA
BRANCH  57  58
HETATM   58  C41 UNL     1      -8.461   1.717  -1.863  1.00  0.00     0.270 C 
HETATM   59  O18 UNL     1      -8.759   1.449  -3.229  1.00  0.00    -0.329 OA
HETATM   60  C42 UNL     1      -9.426   2.499  -3.915  1.00  0.00     0.151 C 
HETATM   61  C43 UNL     1     -10.793   2.765  -3.244  1.00  0.00     0.212 C 
HETATM   62  C46 UNL     1      -9.556   2.060  -5.376  1.00  0.00     0.035 C 
HETATM   63  C44 UNL     1     -10.629   3.057  -1.735  1.00  0.00     0.220 C 
HETATM   64  O21 UNL     1     -11.406   3.870  -3.883  1.00  0.00    -0.218 OA
HETATM   65  C45 UNL     1      -9.774   1.955  -1.073  1.00  0.00     0.241 C 
HETATM   66  O20 UNL     1     -11.903   3.116  -1.116  1.00  0.00    -0.218 OA
HETATM   67  O19 UNL     1      -9.458   2.338   0.256  1.00  0.00    -0.215 OA
ENDBRANCH  57  58
ENDBRANCH  52  57
BRANCH  54  68
HETATM   68  O12 UNL     1      -6.526   0.094   1.259  1.00  0.00    -0.324 OA
BRANCH  68  69
HETATM   69  C35 UNL     1      -6.466  -1.036   2.110  1.00  0.00     0.270 C 
HETATM   70  O13 UNL     1      -5.733  -0.681   3.274  1.00  0.00    -0.329 OA
HETATM   71  C36 UNL     1      -5.541  -1.735   4.209  1.00  0.00     0.151 C 
HETATM   72  C37 UNL     1      -6.917  -2.214   4.724  1.00  0.00     0.212 C 
HETATM   73  C40 UNL     1      -4.648  -1.181   5.322  1.00  0.00     0.035 C 
HETATM   74  C38 UNL     1      -7.843  -2.623   3.557  1.00  0.00     0.220 C 
HETATM   75  O16 UNL     1      -6.719  -3.320   5.588  1.00  0.00    -0.218 OA
HETATM   76  C39 UNL     1      -7.895  -1.493   2.503  1.00  0.00     0.241 C 
HETATM   77  O15 UNL     1      -9.148  -2.884   4.046  1.00  0.00    -0.218 OA
HETATM   78  O14 UNL     1      -8.573  -1.957   1.348  1.00  0.00    -0.215 OA
ENDBRANCH  68  69
ENDBRANCH  54  68
ENDBRANCH  47  48
ENDBRANCH  45  47
ENDBRANCH  43  44
ENDBRANCH  42  43
ENDBRANCH   3  42
TORSDOF 21
