REMARK  2 active torsions:
REMARK  status: ('A' for Active; 'I' for Inactive)
REMARK    1  A    between atoms: C8_8  and  C9_10 
REMARK    2  A    between atoms: C15_17  and  C29_35 
ROOT
HETATM    1  C9  UNL     1      -0.681   2.338  -2.480  1.00  0.00     0.027 A 
HETATM    2  C10 UNL     1      -1.284   3.104  -1.457  1.00  0.00     0.029 A 
HETATM    3  C11 UNL     1      -1.088   2.746  -0.103  1.00  0.00     0.129 A 
HETATM    4  C12 UNL     1      -0.307   1.608   0.251  1.00  0.00     0.035 A 
HETATM    5  C13 UNL     1       0.331   0.862  -0.805  1.00  0.00     0.096 A 
HETATM    6  C14 UNL     1       0.128   1.226  -2.158  1.00  0.00     0.026 A 
HETATM    7  O2  UNL     1       1.145  -0.189  -0.565  1.00  0.00    -0.305 OA
HETATM    8  C15 UNL     1       1.343  -0.548   0.785  1.00  0.00     0.238 A 
HETATM    9  C16 UNL     1       0.845   0.143   2.085  1.00  0.00     0.161 A 
HETATM   10  C17 UNL     1      -0.179   1.247   1.720  1.00  0.00     0.116 C 
HETATM   11  C18 UNL     1      -1.490   0.845   2.376  1.00  0.00     0.181 C 
HETATM   12  C19 UNL     1      -1.414   0.345   3.809  1.00  0.00     0.150 C 
HETATM   13  C20 UNL     1       0.016   0.482   4.385  1.00  0.00     0.042 C 
HETATM   14  C21 UNL     1       0.962  -0.393   3.539  1.00  0.00     0.058 C 
HETATM   15  C22 UNL     1       0.491  -1.796   3.649  1.00  0.00     0.003 A 
HETATM   16  C23 UNL     1      -0.906  -2.051   3.743  1.00  0.00     0.092 A 
HETATM   17  O3  UNL     1      -1.808  -1.041   3.823  1.00  0.00    -0.329 OA
HETATM   18  C24 UNL     1      -1.366  -3.391   3.779  1.00  0.00     0.051 A 
HETATM   19  C25 UNL     1      -0.443  -4.465   3.771  1.00  0.00     0.133 A 
HETATM   20  C26 UNL     1       0.946  -4.204   3.730  1.00  0.00     0.027 A 
HETATM   21  C27 UNL     1       1.414  -2.872   3.668  1.00  0.00    -0.000 A 
HETATM   22  O4  UNL     1      -0.883  -5.729   3.811  1.00  0.00    -0.190 OA
HETATM   23  C28 UNL     1      -2.421   1.119   4.664  1.00  0.00     0.038 C 
HETATM   24  O5  UNL     1      -2.555   0.901   1.801  1.00  0.00    -0.293 OA
HETATM   25  O6  UNL     1       2.097   0.378   1.509  1.00  0.00    -0.328 OA
HETATM   26  O9  UNL     1      -1.651   3.503   0.851  1.00  0.00    -0.190 OA
ENDROOT
BRANCH   1  27
HETATM   27  C8  UNL     1      -0.895   2.707  -3.899  1.00  0.00     0.100 A 
HETATM   28  C7  UNL     1      -0.642   1.827  -4.966  1.00  0.00     0.027 A 
HETATM   29  C6  UNL     1      -0.981   2.604  -6.027  1.00  0.00     0.025 A 
HETATM   30  C1  UNL     1      -0.933   2.251  -7.397  1.00  0.00     0.004 A 
HETATM   31  C5  UNL     1      -1.407   3.855  -5.638  1.00  0.00     0.102 A 
HETATM   32  C2  UNL     1      -1.337   3.220  -8.355  1.00  0.00     0.028 A 
HETATM   33  C3  UNL     1      -1.778   4.509  -7.938  1.00  0.00     0.133 A 
HETATM   34  C4  UNL     1      -1.816   4.843  -6.558  1.00  0.00     0.052 A 
HETATM   35  O10 UNL     1      -2.158   5.412  -8.853  1.00  0.00    -0.190 OA
HETATM   36  O1  UNL     1      -1.374   3.987  -4.257  1.00  0.00    -0.307 OA
ENDBRANCH   1  27
BRANCH   8  37
HETATM   37  C29 UNL     1       2.069  -1.863   0.785  1.00  0.00     0.057 A 
HETATM   38  C30 UNL     1       3.475  -1.882   0.785  1.00  0.00     0.005 A 
HETATM   39  C31 UNL     1       4.163  -3.107   0.785  1.00  0.00     0.027 A 
HETATM   40  C32 UNL     1       3.449  -4.318   0.785  1.00  0.00     0.133 A 
HETATM   41  C33 UNL     1       2.043  -4.296   0.785  1.00  0.00     0.055 A 
HETATM   42  O8  UNL     1       4.094  -5.467   0.785  1.00  0.00    -0.190 OA
HETATM   43  C34 UNL     1       1.349  -3.073   0.785  1.00  0.00     0.134 A 
HETATM   44  O7  UNL     1       0.030  -3.068   0.785  1.00  0.00    -0.190 OA
ENDBRANCH   8  37
TORSDOF 2
