REMARK  0 active torsions:
REMARK  status: ('A' for Active; 'I' for Inactive)
ROOT
HETATM    1  C1  UNL     1      -5.240  -0.316   1.588  1.00  0.00     0.000 C 
HETATM    2  C2  UNL     1      -5.959  -0.248   0.228  1.00  0.00     0.000 C 
HETATM    3  C3  UNL     1      -5.307   0.772  -0.719  1.00  0.00     0.000 C 
HETATM    4  C4  UNL     1      -3.822   0.371  -1.006  1.00  0.00     0.004 C 
HETATM    5  C5  UNL     1      -3.127  -0.449   0.131  1.00  0.00     0.015 C 
HETATM    6  C6  UNL     1      -3.727  -0.035   1.492  1.00  0.00     0.004 C 
HETATM    7  C7  UNL     1      -1.596  -0.342   0.152  1.00  0.00    -0.052 C 
HETATM    8  C8  UNL     1      -0.883   0.326  -0.795  1.00  0.00    -0.052 C 
HETATM    9  C9  UNL     1      -1.594   1.129  -1.867  1.00  0.00     0.021 C 
HETATM   10  C10 UNL     1      -2.983   1.578  -1.436  1.00  0.00     0.004 C 
HETATM   11  C11 UNL     1       0.648   0.270  -0.852  1.00  0.00     0.015 C 
HETATM   12  C12 UNL     1       1.314  -0.123   0.496  1.00  0.00     0.003 C 
HETATM   13  C13 UNL     1       0.580  -1.355   1.061  1.00  0.00     0.004 C 
HETATM   14  C14 UNL     1      -0.897  -1.047   1.305  1.00  0.00     0.021 C 
HETATM   15  C15 UNL     1       2.834  -0.441   0.289  1.00  0.00     0.000 C 
HETATM   16  C16 UNL     1       3.549   0.477  -0.766  1.00  0.00     0.000 C 
HETATM   17  C17 UNL     1       2.770   1.791  -0.953  1.00  0.00     0.000 C 
HETATM   18  C18 UNL     1       1.291   1.592  -1.356  1.00  0.00     0.004 C 
HETATM   19  C19 UNL     1       4.998   0.801  -0.336  1.00  0.00     0.000 C 
HETATM   20  C20 UNL     1       5.721  -0.441   0.203  1.00  0.00     0.000 C 
HETATM   21  C21 UNL     1       5.059  -1.000   1.486  1.00  0.00     0.000 C 
HETATM   22  C22 UNL     1       3.609  -0.486   1.629  1.00  0.00     0.000 C 
HETATM   23  C23 UNL     1       5.859  -0.562   2.721  1.00  0.00     0.000 C 
HETATM   24  C24 UNL     1       5.064  -2.533   1.439  1.00  0.00     0.000 C 
HETATM   25  C25 UNL     1       3.641  -0.234  -2.125  1.00  0.00     0.000 C 
HETATM   26  C26 UNL     1       1.148   1.033   1.502  1.00  0.00     0.000 C 
HETATM   27  C27 UNL     1       0.881  -0.838  -1.895  1.00  0.00     0.004 C 
HETATM   28  C28 UNL     1      -3.414  -1.945  -0.096  1.00  0.00     0.004 C 
HETATM   29  C29 UNL     1      -5.416   2.162  -0.070  1.00  0.00     0.000 C 
HETATM   30  C30 UNL     1      -6.092   0.818  -2.035  1.00  0.00     0.000 C 
ENDROOT
TORSDOF 0
