REMARK  3 active torsions:
REMARK  status: ('A' for Active; 'I' for Inactive)
REMARK    1  A    between atoms: C8_10  and  O4_18 
REMARK    2  A    between atoms: O4_18  and  C15_19 
REMARK    3  A    between atoms: C15_19  and  C16_20 
ROOT
HETATM    1  C1  UNL     1       0.853   2.096   1.463  1.00  0.00     0.037 C 
HETATM    2  C2  UNL     1      -0.563   1.643   1.027  1.00  0.00     0.180 C 
HETATM    3  C3  UNL     1      -0.936   0.301   1.678  1.00  0.00     0.161 C 
HETATM    4  C4  UNL     1       0.043  -0.879   1.504  1.00  0.00     0.086 C 
HETATM    5  C5  UNL     1      -0.945  -2.008   1.492  1.00  0.00     0.045 C 
HETATM    6  C6  UNL     1      -2.272  -1.463   1.252  1.00  0.00     0.292 C 
HETATM    7  O1  UNL     1      -2.225  -0.135   1.217  1.00  0.00    -0.298 OA
HETATM    8  O2  UNL     1      -3.262  -2.141   1.102  1.00  0.00    -0.260 OA
HETATM    9  C7  UNL     1      -0.637  -3.303   1.680  1.00  0.00     0.001 C 
HETATM   10  C8  UNL     1       0.873  -0.850   0.215  1.00  0.00     0.138 C 
HETATM   11  C9  UNL     1       2.107   0.068   0.223  1.00  0.00     0.085 C 
HETATM   12  C10 UNL     1       1.982   1.598   0.527  1.00  0.00     0.034 C 
HETATM   13  C11 UNL     1       3.311   1.916   1.197  1.00  0.00    -0.023 C 
HETATM   14  C12 UNL     1       3.926   0.809   1.623  1.00  0.00     0.033 C 
HETATM   15  C13 UNL     1       3.170  -0.359   1.207  1.00  0.00     0.175 C 
HETATM   16  O3  UNL     1       3.365  -1.490   1.590  1.00  0.00    -0.291 OA
HETATM   17  C14 UNL     1       2.770  -0.010  -1.158  1.00  0.00     0.011 C 
HETATM   18  O6  UNL     1      -1.539   2.586   1.438  1.00  0.00    -0.221 OA
HETATM   19  C20 UNL     1       1.008   3.631   1.498  1.00  0.00     0.003 C 
ENDROOT
BRANCH  10  20
HETATM   20  O4  UNL     1       0.035  -0.529  -0.891  1.00  0.00    -0.300 OA
BRANCH  20  21
HETATM   21  C15 UNL     1      -0.590  -1.598  -1.379  1.00  0.00     0.291 C 
HETATM   22  O5  UNL     1      -0.231  -2.734  -1.186  1.00  0.00    -0.260 OA
BRANCH  21  23
HETATM   23  C16 UNL     1      -1.777  -1.322  -2.195  1.00  0.00     0.037 C 
HETATM   24  C17 UNL     1      -2.725  -2.455  -2.492  1.00  0.00     0.036 C 
HETATM   25  C18 UNL     1      -2.061  -0.105  -2.689  1.00  0.00    -0.025 C 
HETATM   26  C19 UNL     1      -3.309   0.063  -3.516  1.00  0.00     0.030 C 
ENDBRANCH  21  23
ENDBRANCH  20  21
ENDBRANCH  10  20
TORSDOF 3
