REMARK  1 active torsions:
REMARK  status: ('A' for Active; 'I' for Inactive)
REMARK    1  A    between atoms: C13_14  and  C15_17 
ROOT
HETATM    1  C1  UNL     1       4.674   0.311   0.451  1.00  0.00     0.000 A 
HETATM    2  C2  UNL     1       4.615  -1.094   0.580  1.00  0.00     0.000 A 
HETATM    3  C3  UNL     1       3.369  -1.756   0.510  1.00  0.00     0.003 A 
HETATM    4  C4  UNL     1       2.170  -1.023   0.309  1.00  0.00     0.042 A 
HETATM    5  C5  UNL     1       2.229   0.395   0.178  1.00  0.00     0.042 A 
HETATM    6  C6  UNL     1       3.486   1.049   0.252  1.00  0.00     0.003 A 
HETATM    7  C7  UNL     1       0.998   1.219  -0.033  1.00  0.00     0.198 A 
HETATM    8  C8  UNL     1      -0.303   0.475  -0.119  1.00  0.00     0.068 A 
HETATM    9  C9  UNL     1      -0.357  -0.945   0.010  1.00  0.00     0.046 A 
HETATM   10  C10 UNL     1       0.873  -1.768   0.238  1.00  0.00     0.196 A 
HETATM   11  O1  UNL     1       0.824  -2.973   0.357  1.00  0.00    -0.287 OA
HETATM   12  C11 UNL     1      -1.609  -1.609  -0.078  1.00  0.00     0.031 A 
HETATM   13  C12 UNL     1      -2.801  -0.885  -0.293  1.00  0.00     0.139 A 
HETATM   14  C13 UNL     1      -2.750   0.522  -0.420  1.00  0.00     0.115 A 
HETATM   15  C14 UNL     1      -1.512   1.201  -0.334  1.00  0.00     0.142 A 
HETATM   16  O2  UNL     1      -1.492   2.539  -0.459  1.00  0.00    -0.190 OA
HETATM   17  O5  UNL     1      -3.969  -1.539  -0.373  1.00  0.00    -0.190 OA
HETATM   18  O6  UNL     1       1.059   2.424  -0.133  1.00  0.00    -0.286 OA
ENDROOT
BRANCH  14  19
HETATM   19  C15 UNL     1      -3.998   1.285  -0.647  1.00  0.00     0.215 C 
HETATM   20  O3  UNL     1      -4.826   0.996   0.353  1.00  0.00    -0.644 OA
HETATM   21  O4  UNL     1      -4.270   2.043  -1.549  1.00  0.00    -0.644 OA
ENDBRANCH  14  19
TORSDOF 1
