REMARK  1 active torsions:
REMARK  status: ('A' for Active; 'I' for Inactive)
REMARK    1  A    between atoms: C15_16  and  O2_17 
ROOT
HETATM    1  C1  UNL     1      -3.252  -1.568  -0.223  1.00  0.00     0.119 A 
HETATM    2  C2  UNL     1      -2.471  -0.387  -0.166  1.00  0.00     0.119 A 
HETATM    3  C3  UNL     1      -1.047  -0.560  -0.014  1.00  0.00     0.027 A 
HETATM    4  C4  UNL     1      -0.416  -1.820   0.076  1.00  0.00     0.032 A 
HETATM    5  C5  UNL     1      -1.162  -2.941   0.020  1.00  0.00     0.068 A 
HETATM    6  C6  UNL     1      -2.551  -2.801  -0.127  1.00  0.00     0.032 A 
HETATM    7  C7  UNL     1      -0.224  -4.064   0.139  1.00  0.00     0.300 A 
HETATM    8  O1  UNL     1       1.041  -3.496   0.258  1.00  0.00    -0.271 OA
HETATM    9  C8  UNL     1       0.912  -2.133   0.221  1.00  0.00     0.129 A 
HETATM   10  C9  UNL     1       1.813  -1.039   0.295  1.00  0.00     0.155 A 
HETATM   11  C10 UNL     1       1.293   0.305   0.219  1.00  0.00     0.050 A 
HETATM   12  C11 UNL     1      -0.129   0.547   0.063  1.00  0.00     0.006 A 
HETATM   13  C12 UNL     1      -0.586   1.899  -0.014  1.00  0.00     0.000 A 
HETATM   14  C13 UNL     1       0.315   2.979   0.066  1.00  0.00     0.002 A 
HETATM   15  C14 UNL     1       1.692   2.742   0.223  1.00  0.00     0.024 A 
HETATM   16  C15 UNL     1       2.186   1.422   0.297  1.00  0.00     0.096 A 
HETATM   17  O3  UNL     1       3.139  -1.181   0.436  1.00  0.00    -0.188 OA
HETATM   18  O4  UNL     1      -0.529  -5.234   0.127  1.00  0.00    -0.259 OA
HETATM   19  O5  UNL     1      -3.295   0.656  -0.271  1.00  0.00    -0.300 OA
HETATM   20  C17 UNL     1      -4.658   0.188  -0.400  1.00  0.00     0.304 A 
HETATM   21  O6  UNL     1      -4.537  -1.252  -0.361  1.00  0.00    -0.300 OA
ENDROOT
BRANCH  16  22
HETATM   22  O2  UNL     1       3.510   1.272   0.445  1.00  0.00    -0.328 OA
HETATM   23  C16 UNL     1       4.354   2.328   0.010  1.00  0.00     0.181 C 
ENDBRANCH  16  22
TORSDOF 1
