REMARK  6 active torsions:
REMARK  status: ('A' for Active; 'I' for Inactive)
REMARK    1  A    between atoms: C1_1  and  O6_22 
REMARK    2  A    between atoms: C6_6  and  C7_7 
REMARK    3  A    between atoms: C7_7  and  C8_8 
REMARK    4  A    between atoms: C8_8  and  O1_9 
REMARK    5  A    between atoms: C8_8  and  C11_13 
REMARK    6  A    between atoms: O1_9  and  C9_10 
ROOT
HETATM    1  C1  UNL     1       1.664  -1.027  -1.287  1.00  0.00     0.095 A 
HETATM    2  C2  UNL     1       1.580  -2.352  -1.783  1.00  0.00     0.024 A 
HETATM    3  C3  UNL     1       0.322  -2.922  -2.084  1.00  0.00     0.004 A 
HETATM    4  C4  UNL     1      -0.853  -2.160  -1.887  1.00  0.00     0.023 A 
HETATM    5  C5  UNL     1      -0.779  -0.830  -1.391  1.00  0.00     0.104 A 
HETATM    6  C6  UNL     1       0.484  -0.266  -1.090  1.00  0.00     0.055 A 
HETATM    7  O4  UNL     1      -1.910  -0.109  -1.207  1.00  0.00    -0.273 OA
HETATM    8  C14 UNL     1      -3.143  -0.592  -1.473  1.00  0.00     0.300 A 
HETATM    9  C15 UNL     1      -3.285  -1.971  -1.990  1.00  0.00     0.069 A 
HETATM   10  C16 UNL     1      -2.191  -2.731  -2.193  1.00  0.00     0.007 A 
HETATM   11  O5  UNL     1      -4.143   0.066  -1.301  1.00  0.00    -0.259 OA
ENDROOT
BRANCH   6  12
HETATM   12  C7  UNL     1       0.572   1.111  -0.574  1.00  0.00     0.206 C 
HETATM   13  O3  UNL     1      -0.305   1.943  -1.301  1.00  0.00    -0.216 OA
BRANCH  12  14
HETATM   14  C8  UNL     1       0.188   1.186   0.902  1.00  0.00     0.159 C 
BRANCH  14  15
HETATM   15  O1  UNL     1      -1.150   0.740   1.067  1.00  0.00    -0.301 OA
BRANCH  15  16
HETATM   16  C9  UNL     1      -1.223  -0.420   1.713  1.00  0.00     0.272 C 
HETATM   17  C10 UNL     1      -2.478  -0.627   2.516  1.00  0.00     0.106 C 
HETATM   18  O2  UNL     1      -0.361  -1.266   1.678  1.00  0.00    -0.264 OA
ENDBRANCH  15  16
ENDBRANCH  14  15
BRANCH  14  19
HETATM   19  C11 UNL     1       0.330   2.594   1.481  1.00  0.00     0.031 C 
HETATM   20  C12 UNL     1      -0.119   2.682   2.940  1.00  0.00     0.003 C 
HETATM   21  C13 UNL     1       1.723   3.186   1.256  1.00  0.00     0.003 C 
ENDBRANCH  14  19
ENDBRANCH  12  14
ENDBRANCH   6  12
BRANCH   1  22
HETATM   22  O6  UNL     1       2.865  -0.502  -1.006  1.00  0.00    -0.328 OA
HETATM   23  C17 UNL     1       4.008  -1.330  -1.160  1.00  0.00     0.181 C 
ENDBRANCH   1  22
TORSDOF 6
