REMARK  3 active torsions:
REMARK  status: ('A' for Active; 'I' for Inactive)
REMARK    1  A    between atoms: C2_2  and  O4_18 
REMARK    2  A    between atoms: C3_3  and  C10_12 
REMARK    3  A    between atoms: C11_13  and  C12_14 
ROOT
HETATM    1  C1  UNL     1       1.047  -2.043   0.282  1.00  0.00     0.024 A 
HETATM    2  C2  UNL     1       1.133  -0.719   0.778  1.00  0.00     0.096 A 
HETATM    3  C3  UNL     1      -0.049   0.041   0.973  1.00  0.00     0.045 A 
HETATM    4  C4  UNL     1      -1.316  -0.520   0.674  1.00  0.00     0.105 A 
HETATM    5  C5  UNL     1      -1.389  -1.850   0.178  1.00  0.00     0.023 A 
HETATM    6  C6  UNL     1      -0.213  -2.611  -0.019  1.00  0.00     0.004 A 
HETATM    7  C7  UNL     1      -2.725  -2.422  -0.129  1.00  0.00     0.007 A 
HETATM    8  C8  UNL     1      -3.820  -1.662   0.074  1.00  0.00     0.069 A 
HETATM    9  C9  UNL     1      -3.680  -0.283   0.592  1.00  0.00     0.300 A 
HETATM   10  O1  UNL     1      -2.447   0.199   0.858  1.00  0.00    -0.273 OA
HETATM   11  O2  UNL     1      -4.680   0.375   0.762  1.00  0.00    -0.259 OA
ENDROOT
BRANCH   3  12
HETATM   12  C10 UNL     1       0.041   1.424   1.491  1.00  0.00     0.002 C 
HETATM   13  C11 UNL     1       0.271   2.424   0.625  1.00  0.00     0.004 C 
BRANCH  13  14
HETATM   14  C12 UNL     1       0.428   2.088  -0.834  1.00  0.00     0.145 C 
HETATM   15  O3  UNL     1       0.309   3.352  -1.445  1.00  0.00    -0.222 OA
HETATM   16  C13 UNL     1      -0.703   1.197  -1.351  1.00  0.00     0.038 C 
HETATM   17  C14 UNL     1       1.814   1.529  -1.160  1.00  0.00     0.038 C 
ENDBRANCH  13  14
ENDBRANCH   3  12
BRANCH   2  18
HETATM   18  O4  UNL     1       2.336  -0.195   1.059  1.00  0.00    -0.328 OA
HETATM   19  C15 UNL     1       3.477  -1.027   0.907  1.00  0.00     0.181 C 
ENDBRANCH   2  18
TORSDOF 3
