REMARK  3 active torsions:
REMARK  status: ('A' for Active; 'I' for Inactive)
REMARK    1  A    between atoms: C6_6  and  C7_7 
REMARK    2  A    between atoms: C8_8  and  C9_9 
REMARK    3  A    between atoms: C12_14  and  O3_15 
ROOT
HETATM    1  C1  UNL     1       0.238  -0.377   0.037  1.00  0.00     0.004 A 
HETATM    2  C2  UNL     1       1.443   0.361  -0.039  1.00  0.00     0.049 A 
HETATM    3  C3  UNL     1       1.422   1.715  -0.152  1.00  0.00     0.104 A 
HETATM    4  C4  UNL     1       0.230   2.471  -0.201  1.00  0.00     0.025 A 
HETATM    5  C5  UNL     1      -0.996   1.760  -0.127  1.00  0.00     0.002 A 
HETATM    6  C6  UNL     1      -0.990   0.340  -0.008  1.00  0.00     0.000 A 
HETATM    7  O2  UNL     1       2.709   2.193  -0.209  1.00  0.00    -0.282 OA
HETATM    8  C11 UNL     1       3.535   1.029  -0.119  1.00  0.00     0.255 A 
HETATM    9  C12 UNL     1       2.709  -0.123  -0.012  1.00  0.00     0.145 A 
HETATM   10  O4  UNL     1       4.875   1.025  -0.135  1.00  0.00    -0.161 OA
ENDROOT
BRANCH   6  11
HETATM   11  C7  UNL     1      -2.272  -0.394   0.068  1.00  0.00     0.003 C 
HETATM   12  C8  UNL     1      -3.375   0.184  -0.432  1.00  0.00     0.037 C 
BRANCH  12  13
HETATM   13  C9  UNL     1      -4.670  -0.508  -0.379  1.00  0.00     0.173 C 
HETATM   14  C10 UNL     1      -4.858  -1.611   0.627  1.00  0.00     0.077 C 
HETATM   15  O1  UNL     1      -5.565  -0.191  -1.129  1.00  0.00    -0.291 OA
ENDBRANCH  12  13
ENDBRANCH   6  11
BRANCH   9  16
HETATM   16  O3  UNL     1       3.103  -1.398   0.092  1.00  0.00    -0.324 OA
HETATM   17  C13 UNL     1       4.498  -1.670   0.076  1.00  0.00     0.182 C 
ENDBRANCH   9  16
TORSDOF 3
