REMARK  4 active torsions:
REMARK  status: ('A' for Active; 'I' for Inactive)
REMARK    1  A    between atoms: C2_2  and  O4_18 
REMARK    2  A    between atoms: C3_3  and  C10_12 
REMARK    3  A    between atoms: C10_12  and  C11_13 
REMARK    4  A    between atoms: C11_13  and  C12_14 
ROOT
HETATM    1  C1  UNL     1       1.262  -2.604  -0.305  1.00  0.00     0.024 A 
HETATM    2  C2  UNL     1       1.346  -1.279   0.191  1.00  0.00     0.092 A 
HETATM    3  C3  UNL     1       0.166  -0.518   0.387  1.00  0.00     0.031 A 
HETATM    4  C4  UNL     1      -1.098  -1.082   0.088  1.00  0.00     0.102 A 
HETATM    5  C5  UNL     1      -1.172  -2.412  -0.408  1.00  0.00     0.023 A 
HETATM    6  C6  UNL     1       0.004  -3.174  -0.605  1.00  0.00     0.004 A 
HETATM    7  C7  UNL     1      -2.510  -2.982  -0.715  1.00  0.00     0.007 A 
HETATM    8  C8  UNL     1      -3.603  -2.223  -0.512  1.00  0.00     0.069 A 
HETATM    9  C9  UNL     1      -3.461  -0.842   0.006  1.00  0.00     0.300 A 
HETATM   10  O1  UNL     1      -2.228  -0.361   0.271  1.00  0.00    -0.273 OA
HETATM   11  O2  UNL     1      -4.461  -0.184   0.176  1.00  0.00    -0.259 OA
ENDROOT
BRANCH   3  12
HETATM   12  C10 UNL     1       0.254   0.859   0.902  1.00  0.00     0.099 C 
BRANCH  12  13
HETATM   13  C11 UNL     1       0.359   1.875  -0.205  1.00  0.00     0.174 C 
HETATM   14  O3  UNL     1       0.557   1.531  -1.346  1.00  0.00    -0.291 OA
BRANCH  13  15
HETATM   15  C12 UNL     1       0.217   3.297   0.129  1.00  0.00     0.013 C 
HETATM   16  C13 UNL     1       0.106   4.336  -0.955  1.00  0.00     0.034 C 
HETATM   17  C14 UNL     1       0.182   3.699   1.410  1.00  0.00    -0.002 C 
ENDBRANCH  13  15
ENDBRANCH  12  13
ENDBRANCH   3  12
BRANCH   2  18
HETATM   18  O4  UNL     1       2.547  -0.754   0.473  1.00  0.00    -0.328 OA
HETATM   19  C15 UNL     1       3.690  -1.580   0.311  1.00  0.00     0.181 C 
ENDBRANCH   2  18
TORSDOF 4
