REMARK  2 active torsions:
REMARK  status: ('A' for Active; 'I' for Inactive)
REMARK    1  A    between atoms: C4_5  and  C5_6 
REMARK    2  A    between atoms: C5_6  and  N1_7 
ROOT
HETATM    1  C1  UNL     1      -0.934   1.217  -0.410  1.00  0.00     0.067 C 
HETATM    2  C2  UNL     1      -2.199   1.055  -1.262  1.00  0.00     0.182 C 
HETATM    3  C3  UNL     1      -2.229  -0.461  -1.461  1.00  0.00     0.146 C 
HETATM    4  O1  UNL     1      -0.865  -0.807  -1.601  1.00  0.00    -0.354 OA
HETATM    5  C4  UNL     1      -0.039   0.041  -0.830  1.00  0.00     0.149 C 
HETATM    6  C9  UNL     1      -2.781  -1.166  -0.222  1.00  0.00     0.035 C 
HETATM    7  O2  UNL     1      -2.039   1.717  -2.504  1.00  0.00    -0.221 OA
ENDROOT
BRANCH   5   8
HETATM    8  C5  UNL     1       0.492  -0.744   0.365  1.00  0.00     0.246 C 
BRANCH   8   9
HETATM    9  N1  UNL     1       1.807  -0.123   0.838  1.00  0.00     0.002 N 
HETATM   10  C6  UNL     1       1.904  -1.110   2.004  1.00  0.00     0.250 C 
HETATM   11  C7  UNL     1       1.643   1.324   1.303  1.00  0.00     0.250 C 
HETATM   12  C8  UNL     1       2.938  -0.293  -0.176  1.00  0.00     0.250 C 
ENDBRANCH   8   9
ENDBRANCH   5   8
TORSDOF 2
