REMARK  6 active torsions:
REMARK  status: ('A' for Active; 'I' for Inactive)
REMARK    1  A    between atoms: S1_1  and  O1_2 
REMARK    2  A    between atoms: O1_2  and  C1_3 
REMARK    3  A    between atoms: C1_3  and  C2_4 
REMARK    4  A    between atoms: C1_3  and  C6_9 
REMARK    5  A    between atoms: C2_4  and  C3_5 
REMARK    6  A    between atoms: C3_5  and  C4_6 
ROOT
HETATM    1  C1  UNL     1       0.389  -0.063  -1.006  1.00  0.00     0.137 C 
ENDROOT
BRANCH   1   2
HETATM    2  O1  UNL     1       1.789  -0.027  -1.160  1.00  0.00    -0.240 OA
BRANCH   2   3
HETATM    3  S1  UNL     1       2.580  -1.377  -1.027  1.00  0.00     0.252 S 
HETATM    4  O3  UNL     1       3.889  -1.404  -1.895  1.00  0.00    -0.572 OA
HETATM    5  O4  UNL     1       1.715  -2.445  -1.498  1.00  0.00    -0.572 OA
HETATM    6  O5  UNL     1       2.969  -1.527   0.363  1.00  0.00    -0.572 OA
ENDBRANCH   2   3
ENDBRANCH   1   2
BRANCH   1   7
HETATM    7  C2  UNL     1       0.076  -0.522   0.420  1.00  0.00     0.034 C 
BRANCH   7   8
HETATM    8  C3  UNL     1      -1.418  -0.469   0.742  1.00  0.00     0.035 C 
BRANCH   8   9
HETATM    9  C4  UNL     1      -1.764  -1.170   2.057  1.00  0.00     0.152 C 
HETATM   10  C5  UNL     1      -1.223  -0.428   3.279  1.00  0.00     0.036 C 
HETATM   11  O2  UNL     1      -3.166  -1.236   2.166  1.00  0.00    -0.224 OA
ENDBRANCH   8   9
ENDBRANCH   7   8
ENDBRANCH   1   7
BRANCH   1  12
HETATM   12  C6  UNL     1      -0.162   1.330  -1.313  1.00  0.00     0.029 C 
HETATM   13  C7  UNL     1       0.381   2.400  -0.365  1.00  0.00     0.003 C 
HETATM   14  C8  UNL     1      -0.012   1.713  -2.785  1.00  0.00     0.003 C 
ENDBRANCH   1  12
TORSDOF 6
