REMARK  0 active torsions:
REMARK  status: ('A' for Active; 'I' for Inactive)
ROOT
HETATM    1  C1  UNL     1      -1.482   1.410   1.012  1.00  0.00     0.007 C 
HETATM    2  C2  UNL     1      -0.725   2.707   0.641  1.00  0.00     0.000 C 
HETATM    3  C3  UNL     1       0.795   2.508   0.512  1.00  0.00     0.000 C 
HETATM    4  C4  UNL     1       1.197   1.963  -0.869  1.00  0.00     0.000 C 
HETATM    5  C5  UNL     1       2.639   1.428  -0.941  1.00  0.00     0.000 C 
HETATM    6  C6  UNL     1       2.744  -0.096  -0.754  1.00  0.00     0.000 C 
HETATM    7  C7  UNL     1       2.293  -0.594   0.629  1.00  0.00     0.000 C 
HETATM    8  C8  UNL     1       2.463  -2.111   0.813  1.00  0.00     0.000 C 
HETATM    9  C9  UNL     1       1.641  -2.994  -0.146  1.00  0.00     0.000 C 
HETATM   10  C10 UNL     1       0.113  -2.879   0.012  1.00  0.00     0.000 C 
HETATM   11  C11 UNL     1      -0.547  -1.842  -0.914  1.00  0.00     0.000 C 
HETATM   12  C12 UNL     1      -2.068  -1.774  -0.715  1.00  0.00     0.008 C 
HETATM   13  C13 UNL     1      -2.768  -0.719  -1.592  1.00  0.00     0.065 C 
HETATM   14  C14 UNL     1      -2.430   0.713  -1.242  1.00  0.00     0.151 C 
HETATM   15  C15 UNL     1      -2.746   1.193   0.158  1.00  0.00     0.065 C 
HETATM   16  O1  UNL     1      -1.926   1.453  -2.059  1.00  0.00    -0.296 OA
HETATM   17  C16 UNL     1      -1.822   1.391   2.508  1.00  0.00     0.000 C 
ENDROOT
TORSDOF 0
