REMARK  10 active torsions:
REMARK  status: ('A' for Active; 'I' for Inactive)
REMARK    1  A    between atoms: C1_1  and  C51_71 
REMARK    2  A    between atoms: C5_5  and  O2_7 
REMARK    3  A    between atoms: O2_7  and  C6_8 
REMARK    4  A    between atoms: C8_10  and  O5_15 
REMARK    5  A    between atoms: O5_15  and  C11_16 
REMARK    6  A    between atoms: C12_17  and  O9_24 
REMARK    7  A    between atoms: O9_24  and  C16_25 
REMARK    8  A    between atoms: C17_26  and  O13_33 
REMARK    9  A    between atoms: O13_33  and  C21_34 
REMARK   10  A    between atoms: C36_49  and  C45_59 
ROOT
HETATM    1  C16 UNL     1      -1.832   1.410  -1.283  1.00  0.00     0.207 C 
HETATM    2  C17 UNL     1      -1.684  -0.135  -1.187  1.00  0.00     0.267 C 
HETATM    3  O10 UNL     1      -2.520  -0.795  -2.137  1.00  0.00    -0.326 OA
HETATM    4  C18 UNL     1      -2.313  -0.437  -3.500  1.00  0.00     0.181 C 
HETATM    5  C19 UNL     1      -2.537   1.076  -3.727  1.00  0.00     0.214 C 
HETATM    6  C20 UNL     1      -1.736   1.945  -2.732  1.00  0.00     0.217 C 
HETATM    7  O11 UNL     1      -0.377   1.942  -3.131  1.00  0.00    -0.218 OA
HETATM    8  O12 UNL     1      -3.918   1.367  -3.602  1.00  0.00    -0.218 OA
ENDROOT
BRANCH   2   9
HETATM    9  O13 UNL     1      -0.328  -0.504  -1.340  1.00  0.00    -0.332 OA
BRANCH   9  10
HETATM   10  C21 UNL     1      -0.055  -1.822  -0.896  1.00  0.00     0.118 C 
HETATM   11  C22 UNL     1       0.689  -1.785   0.459  1.00  0.00     0.025 C 
HETATM   12  C23 UNL     1       2.107  -1.135   0.322  1.00  0.00     0.002 C 
HETATM   13  C49 UNL     1      -0.133  -1.010   1.502  1.00  0.00     0.002 C 
HETATM   14  C50 UNL     1       0.781  -3.234   0.967  1.00  0.00     0.002 C 
HETATM   15  C24 UNL     1       2.815  -1.385  -1.059  1.00  0.00     0.001 C 
HETATM   16  C30 UNL     1       2.998  -1.475   1.541  1.00  0.00     0.000 C 
HETATM   17  C25 UNL     1       2.254  -2.666  -1.713  1.00  0.00     0.003 C 
HETATM   18  C27 UNL     1       4.375  -1.420  -0.930  1.00  0.00     0.005 C 
HETATM   19  C48 UNL     1       2.488  -0.226  -2.021  1.00  0.00     0.000 C 
HETATM   20  C26 UNL     1       0.736  -2.592  -1.982  1.00  0.00     0.030 C 
HETATM   21  C28 UNL     1       4.906  -0.408   0.119  1.00  0.00     0.004 C 
HETATM   22  C34 UNL     1       4.961  -2.822  -0.650  1.00  0.00     0.025 C 
HETATM   23  C29 UNL     1       4.400  -0.842   1.522  1.00  0.00     0.000 C 
HETATM   24  C31 UNL     1       6.473  -0.336   0.082  1.00  0.00     0.017 C 
HETATM   25  C47 UNL     1       4.336   0.996  -0.154  1.00  0.00     0.000 C 
HETATM   26  C32 UNL     1       7.143  -1.693  -0.121  1.00  0.00    -0.049 C 
HETATM   27  C38 UNL     1       7.016   0.533  -1.084  1.00  0.00     0.037 C 
HETATM   28  C46 UNL     1       6.965   0.297   1.398  1.00  0.00     0.004 C 
HETATM   29  C33 UNL     1       6.451  -2.814  -0.424  1.00  0.00    -0.035 C 
HETATM   30  C35 UNL     1       8.662  -1.689  -0.016  1.00  0.00     0.030 C 
HETATM   31  C36 UNL     1       9.238  -0.807  -1.156  1.00  0.00     0.110 C 
HETATM   32  C42 UNL     1       9.360  -3.068   0.055  1.00  0.00     0.005 C 
HETATM   33  C37 UNL     1       8.563   0.596  -1.105  1.00  0.00     0.162 C 
HETATM   34  C39 UNL     1      10.770  -0.684  -0.961  1.00  0.00     0.013 C 
HETATM   35  O14 UNL     1       8.975   1.404  -2.193  1.00  0.00    -0.223 OA
HETATM   36  C40 UNL     1      11.475  -2.049  -0.859  1.00  0.00     0.001 C 
HETATM   37  C41 UNL     1      10.885  -2.945   0.248  1.00  0.00     0.000 C 
HETATM   38  C43 UNL     1      11.196  -2.350   1.627  1.00  0.00     0.000 C 
HETATM   39  C44 UNL     1      11.524  -4.336   0.176  1.00  0.00     0.000 C 
BRANCH  31  40
HETATM   40  C45 UNL     1       8.961  -1.465  -2.494  1.00  0.00     0.187 C 
HETATM   41  O15 UNL     1       8.026  -2.217  -2.639  1.00  0.00    -0.647 OA
HETATM   42  O16 UNL     1       9.819  -1.156  -3.463  1.00  0.00    -0.647 OA
ENDBRANCH  31  40
ENDBRANCH   9  10
ENDBRANCH   2   9
BRANCH   1  43
HETATM   43  O9  UNL     1      -3.088   1.781  -0.740  1.00  0.00    -0.324 OA
BRANCH  43  44
HETATM   44  C12 UNL     1      -3.094   1.820   0.674  1.00  0.00     0.267 C 
HETATM   45  C11 UNL     1      -4.533   1.889   1.256  1.00  0.00     0.207 C 
HETATM   46  C15 UNL     1      -5.215   3.262   1.039  1.00  0.00     0.217 C 
HETATM   47  C14 UNL     1      -4.240   4.371   1.500  1.00  0.00     0.214 C 
HETATM   48  O7  UNL     1      -5.561   3.442  -0.328  1.00  0.00    -0.218 OA
HETATM   49  C13 UNL     1      -2.836   4.211   0.879  1.00  0.00     0.181 C 
HETATM   50  O8  UNL     1      -4.750   5.658   1.203  1.00  0.00    -0.218 OA
HETATM   51  O6  UNL     1      -2.320   2.914   1.164  1.00  0.00    -0.326 OA
BRANCH  45  52
HETATM   52  O5  UNL     1      -5.338   0.828   0.773  1.00  0.00    -0.324 OA
BRANCH  52  53
HETATM   53  C8  UNL     1      -6.426   0.520   1.623  1.00  0.00     0.270 C 
HETATM   54  C7  UNL     1      -7.496  -0.326   0.877  1.00  0.00     0.238 C 
HETATM   55  C6  UNL     1      -8.639  -0.752   1.826  1.00  0.00     0.186 C 
HETATM   56  O17 UNL     1      -6.918  -1.500   0.326  1.00  0.00    -0.215 OA
HETATM   57  C10 UNL     1      -8.049  -1.344   3.131  1.00  0.00     0.211 C 
HETATM   58  C9  UNL     1      -6.969  -0.434   3.752  1.00  0.00     0.180 C 
HETATM   59  O4  UNL     1      -9.065  -1.592   4.086  1.00  0.00    -0.218 OA
HETATM   60  O3  UNL     1      -5.963  -0.158   2.787  1.00  0.00    -0.326 OA
BRANCH  55  61
HETATM   61  O2  UNL     1      -9.426   0.397   2.106  1.00  0.00    -0.326 OA
BRANCH  61  62
HETATM   62  C5  UNL     1     -10.527   0.543   1.234  1.00  0.00     0.270 C 
HETATM   63  C4  UNL     1     -11.608   1.438   1.895  1.00  0.00     0.241 C 
HETATM   64  C3  UNL     1     -11.154   2.916   1.941  1.00  0.00     0.220 C 
HETATM   65  O18 UNL     1     -12.813   1.303   1.154  1.00  0.00    -0.215 OA
HETATM   66  C2  UNL     1     -10.678   3.375   0.545  1.00  0.00     0.215 C 
HETATM   67  O19 UNL     1     -12.192   3.750   2.432  1.00  0.00    -0.218 OA
HETATM   68  C1  UNL     1      -9.623   2.401  -0.029  1.00  0.00     0.184 C 
HETATM   69  O20 UNL     1     -10.102   4.666   0.635  1.00  0.00    -0.218 OA
HETATM   70  O1  UNL     1     -10.135   1.068  -0.035  1.00  0.00    -0.326 OA
BRANCH  68  71
HETATM   71  C51 UNL     1      -9.240   2.727  -1.477  1.00  0.00     0.214 C 
HETATM   72  O21 UNL     1      -8.147   1.914  -1.838  1.00  0.00    -0.218 OA
ENDBRANCH  68  71
ENDBRANCH  61  62
ENDBRANCH  55  61
ENDBRANCH  52  53
ENDBRANCH  45  52
ENDBRANCH  43  44
ENDBRANCH   1  43
TORSDOF 10
