REMARK  4 active torsions:
REMARK  status: ('A' for Active; 'I' for Inactive)
REMARK    1  A    between atoms: C1_1  and  C19_26 
REMARK    2  A    between atoms: C5_5  and  O2_7 
REMARK    3  A    between atoms: O2_7  and  C6_8 
REMARK    4  A    between atoms: C13_15  and  C17_19 
ROOT
HETATM    1  C6  UNL     1      -0.678  -0.490   1.012  1.00  0.00     0.099 A 
HETATM    2  C7  UNL     1      -1.942  -1.123   1.045  1.00  0.00     0.024 A 
HETATM    3  C8  UNL     1      -2.035  -2.533   1.094  1.00  0.00     0.002 A 
HETATM    4  C9  UNL     1      -0.865  -3.322   1.105  1.00  0.00     0.000 A 
HETATM    5  C10 UNL     1       0.410  -2.701   1.072  1.00  0.00     0.004 A 
HETATM    6  C11 UNL     1       0.514  -1.274   1.025  1.00  0.00     0.048 A 
HETATM    7  C12 UNL     1       1.805  -0.668   0.996  1.00  0.00     0.135 A 
HETATM    8  C13 UNL     1       2.967  -1.483   1.006  1.00  0.00     0.056 A 
HETATM    9  C14 UNL     1       2.855  -2.897   1.049  1.00  0.00    -0.017 A 
HETATM   10  C15 UNL     1       1.578  -3.502   1.082  1.00  0.00    -0.004 A 
HETATM   11  C16 UNL     1       4.059  -3.746   1.060  1.00  0.00     0.031 C 
HETATM   12  O4  UNL     1       1.945   0.666   0.955  1.00  0.00    -0.190 OA
ENDROOT
BRANCH   1  13
HETATM   13  O2  UNL     1      -0.639   0.851   0.967  1.00  0.00    -0.304 OA
BRANCH  13  14
HETATM   14  C5  UNL     1      -1.645   1.523   0.223  1.00  0.00     0.274 C 
HETATM   15  C4  UNL     1      -1.311   3.025   0.117  1.00  0.00     0.241 C 
HETATM   16  C3  UNL     1      -2.315   3.760  -0.799  1.00  0.00     0.220 C 
HETATM   17  O5  UNL     1      -1.342   3.588   1.418  1.00  0.00    -0.215 OA
HETATM   18  C2  UNL     1      -2.438   3.006  -2.143  1.00  0.00     0.215 C 
HETATM   19  O6  UNL     1      -1.873   5.088  -1.029  1.00  0.00    -0.218 OA
HETATM   20  C1  UNL     1      -2.715   1.502  -1.922  1.00  0.00     0.184 C 
HETATM   21  O7  UNL     1      -3.496   3.557  -2.906  1.00  0.00    -0.218 OA
HETATM   22  O1  UNL     1      -1.711   0.953  -1.078  1.00  0.00    -0.326 OA
BRANCH  20  23
HETATM   23  C19 UNL     1      -2.688   0.691  -3.223  1.00  0.00     0.214 C 
HETATM   24  O8  UNL     1      -3.065  -0.633  -2.924  1.00  0.00    -0.218 OA
ENDBRANCH  20  23
ENDBRANCH  13  14
ENDBRANCH   1  13
BRANCH   8  25
HETATM   25  C17 UNL     1       4.305  -0.848   0.975  1.00  0.00     0.175 C 
HETATM   26  O3  UNL     1       4.789  -0.145   0.119  1.00  0.00    -0.291 OA
HETATM   27  C18 UNL     1       5.076  -1.195   2.219  1.00  0.00     0.077 C 
ENDBRANCH   8  25
TORSDOF 4
