REMARK  2 active torsions:
REMARK  status: ('A' for Active; 'I' for Inactive)
REMARK    1  A    between atoms: C3_3  and  C4_4 
REMARK    2  A    between atoms: C5_5  and  C6_6 
ROOT
HETATM    1  C1  UNL     1       6.510   1.254   2.387  1.00  0.00     0.091 C 
HETATM    2  C2  UNL     1       5.231   1.289   1.686  1.00  0.00    -0.077 C 
HETATM    3  C3  UNL     1       4.186   1.318   1.113  1.00  0.00    -0.014 C 
ENDROOT
BRANCH   3   4
HETATM    4  C4  UNL     1       2.975   1.357   0.455  1.00  0.00    -0.009 C 
HETATM    5  C5  UNL     1       1.926   1.397  -0.107  1.00  0.00    -0.048 C 
BRANCH   5   6
HETATM    6  C6  UNL     1       0.654   1.445  -0.783  1.00  0.00     0.074 C 
HETATM    7  C7  UNL     1      -0.359   0.602  -0.512  1.00  0.00     0.105 A 
HETATM    8  O1  UNL     1      -1.549   0.652  -1.127  1.00  0.00    -0.303 OA
HETATM    9  C10 UNL     1      -0.340  -0.479   0.469  1.00  0.00     0.025 A 
HETATM   10  C8  UNL     1      -2.406  -0.363  -0.576  1.00  0.00     0.248 A 
HETATM   11  C9  UNL     1      -1.535  -1.068   0.445  1.00  0.00     0.035 A 
HETATM   12  C11 UNL     1      -3.020  -1.219  -1.705  1.00  0.00     0.232 C 
HETATM   13  O2  UNL     1      -3.506   0.244   0.113  1.00  0.00    -0.302 OA
HETATM   14  C12 UNL     1      -4.465  -1.172  -1.322  1.00  0.00     0.038 C 
HETATM   15  O3  UNL     1      -2.543  -2.549  -1.724  1.00  0.00    -0.213 OA
HETATM   16  C13 UNL     1      -4.639  -0.318  -0.306  1.00  0.00     0.117 C 
ENDBRANCH   5   6
ENDBRANCH   3   4
TORSDOF 2
