REMARK  5 active torsions:
REMARK  status: ('A' for Active; 'I' for Inactive)
REMARK    1  A    between atoms: C4_4  and  O3_9 
REMARK    2  A    between atoms: C5_6  and  C6_7 
REMARK    3  A    between atoms: O3_9  and  C7_10 
REMARK    4  A    between atoms: C8_11  and  O7_33 
REMARK    5  A    between atoms: C9_12  and  O6_31 
ROOT
HETATM    1  C7  UNL     1       1.239  -0.039   0.862  1.00  0.00     0.117 C 
HETATM    2  C8  UNL     1       1.384   1.357   0.820  1.00  0.00     0.138 C 
HETATM    3  C9  UNL     1       0.312   2.187   0.427  1.00  0.00     0.118 C 
HETATM    4  C10 UNL     1      -0.959   1.632   0.079  1.00  0.00     0.026 C 
HETATM    5  C11 UNL     1      -0.993   0.212   0.001  1.00  0.00    -0.000 C 
HETATM    6  C12 UNL     1       0.030  -0.628   0.461  1.00  0.00     0.002 C 
HETATM    7  C13 UNL     1      -0.159  -2.130   0.542  1.00  0.00     0.028 C 
HETATM    8  C14 UNL     1      -1.481  -2.731  -0.026  1.00  0.00     0.005 C 
HETATM    9  C15 UNL     1      -2.801  -2.313   0.687  1.00  0.00     0.003 C 
HETATM   10  C16 UNL     1      -3.941  -1.953  -0.311  1.00  0.00     0.033 C 
HETATM   11  C17 UNL     1      -5.133  -1.071   0.187  1.00  0.00     0.152 C 
HETATM   12  C18 UNL     1      -5.748  -0.165  -0.938  1.00  0.00     0.038 C 
HETATM   13  C19 UNL     1      -5.942   1.369  -0.700  1.00  0.00     0.029 C 
HETATM   14  C20 UNL     1      -4.710   2.231  -0.536  1.00  0.00    -0.022 C 
HETATM   15  C21 UNL     1      -4.840   3.614  -0.365  1.00  0.00    -0.002 C 
HETATM   16  C22 UNL     1      -3.703   4.398  -0.136  1.00  0.00     0.027 C 
HETATM   17  C23 UNL     1      -2.425   3.815  -0.024  1.00  0.00     0.131 C 
HETATM   18  O4  UNL     1      -1.445   4.654   0.228  1.00  0.00    -0.190 OA
HETATM   19  C24 UNL     1      -2.246   2.402  -0.167  1.00  0.00     0.027 C 
HETATM   20  C25 UNL     1      -3.421   1.681  -0.532  1.00  0.00    -0.002 C 
HETATM   21  O5  UNL     1      -4.786  -0.310   1.328  1.00  0.00    -0.224 OA
ENDROOT
BRANCH   1  22
HETATM   22  O3  UNL     1       2.240  -0.791   1.277  1.00  0.00    -0.302 OA
BRANCH  22  23
HETATM   23  C4  UNL     1       3.384  -0.900   0.441  1.00  0.00     0.274 C 
HETATM   24  C3  UNL     1       4.386  -1.907   1.044  1.00  0.00     0.241 C 
HETATM   25  C2  UNL     1       5.577  -2.148   0.091  1.00  0.00     0.220 C 
HETATM   26  O8  UNL     1       4.851  -1.397   2.280  1.00  0.00    -0.215 OA
HETATM   27  C1  UNL     1       5.052  -2.491  -1.321  1.00  0.00     0.215 C 
HETATM   28  O9  UNL     1       6.376  -3.214   0.580  1.00  0.00    -0.218 OA
HETATM   29  C5  UNL     1       4.014  -1.452  -1.804  1.00  0.00     0.184 C 
HETATM   30  O10 UNL     1       6.130  -2.518  -2.240  1.00  0.00    -0.218 OA
HETATM   31  O1  UNL     1       2.971  -1.343  -0.844  1.00  0.00    -0.326 OA
BRANCH  29  32
HETATM   32  C6  UNL     1       3.354  -1.839  -3.131  1.00  0.00     0.214 C 
HETATM   33  O2  UNL     1       2.568  -0.753  -3.566  1.00  0.00    -0.218 OA
ENDBRANCH  29  32
ENDBRANCH  22  23
ENDBRANCH   1  22
BRANCH   2  34
HETATM   34  O7  UNL     1       2.539   1.897   1.160  1.00  0.00    -0.324 OA
HETATM   35  C27 UNL     1       2.973   1.752   2.504  1.00  0.00     0.182 C 
ENDBRANCH   2  34
BRANCH   3  36
HETATM   36  O6  UNL     1       0.566   3.476   0.408  1.00  0.00    -0.326 OA
HETATM   37  C26 UNL     1       1.010   4.086   1.611  1.00  0.00     0.181 C 
ENDBRANCH   3  36
TORSDOF 5
