REMARK  1 active torsions:
REMARK  status: ('A' for Active; 'I' for Inactive)
REMARK    1  A    between atoms: C9_10  and  C10_12 
ROOT
HETATM    1  C1  UNL     1      -4.293  -2.055   0.971  1.00  0.00     0.055 A 
HETATM    2  C2  UNL     1      -4.447  -0.752   0.441  1.00  0.00     0.135 A 
HETATM    3  C3  UNL     1      -3.309   0.018   0.103  1.00  0.00     0.052 A 
HETATM    4  C4  UNL     1      -2.012  -0.514   0.297  1.00  0.00     0.107 A 
HETATM    5  C5  UNL     1      -1.859  -1.822   0.826  1.00  0.00     0.089 A 
HETATM    6  C6  UNL     1      -2.998  -2.596   1.166  1.00  0.00     0.138 A 
HETATM    7  O1  UNL     1      -2.869  -3.832   1.668  1.00  0.00    -0.190 OA
HETATM    8  C7  UNL     1      -0.481  -2.354   1.014  1.00  0.00     0.227 A 
HETATM    9  C8  UNL     1       0.621  -1.443   0.625  1.00  0.00     0.192 A 
HETATM   10  C9  UNL     1       0.342  -0.211   0.129  1.00  0.00     0.129 A 
HETATM   11  O2  UNL     1      -0.926   0.221  -0.023  1.00  0.00    -0.305 OA
HETATM   12  O6  UNL     1       1.881  -1.859   0.771  1.00  0.00    -0.185 OA
HETATM   13  O7  UNL     1      -0.172  -3.440   1.447  1.00  0.00    -0.284 OA
HETATM   14  O8  UNL     1      -5.676  -0.246   0.260  1.00  0.00    -0.190 OA
ENDROOT
BRANCH  10  15
HETATM   15  C10 UNL     1       1.467   0.697  -0.260  1.00  0.00     0.029 A 
HETATM   16  C11 UNL     1       2.527   0.928   0.635  1.00  0.00     0.032 A 
HETATM   17  C12 UNL     1       3.584   1.781   0.271  1.00  0.00     0.158 A 
HETATM   18  C13 UNL     1       3.582   2.402  -0.990  1.00  0.00     0.181 A 
HETATM   19  O5  UNL     1       4.574   1.994   1.115  1.00  0.00    -0.188 OA
HETATM   20  C14 UNL     1       2.521   2.172  -1.887  1.00  0.00     0.158 A 
HETATM   21  O4  UNL     1       4.572   3.203  -1.332  1.00  0.00    -0.186 OA
HETATM   22  C15 UNL     1       1.467   1.318  -1.520  1.00  0.00     0.032 A 
HETATM   23  O3  UNL     1       2.516   2.754  -3.070  1.00  0.00    -0.188 OA
ENDBRANCH  10  15
TORSDOF 1
