REMARK  7 active torsions:
REMARK  status: ('A' for Active; 'I' for Inactive)
REMARK    1  A    between atoms: C5_5  and  C7_7 
REMARK    2  A    between atoms: C7_7  and  O1_8 
REMARK    3  A    between atoms: O1_8  and  C8_9 
REMARK    4  A    between atoms: C8_9  and  C9_10 
REMARK    5  A    between atoms: C13_14  and  O3_16 
REMARK    6  A    between atoms: O3_16  and  C14_17 
REMARK    7  A    between atoms: C15_18  and  C23_30 
ROOT
HETATM    1  O3  UNL     1      -1.096  -0.910   0.240  1.00  0.00    -0.298 OA
ENDROOT
BRANCH   1   2
HETATM    2  C13 UNL     1      -0.432  -0.258   1.314  1.00  0.00     0.274 C 
HETATM    3  C12 UNL     1      -0.727  -0.990   2.641  1.00  0.00     0.241 C 
HETATM    4  C11 UNL     1       0.088  -0.383   3.805  1.00  0.00     0.220 C 
HETATM    5  O11 UNL     1      -2.113  -0.895   2.916  1.00  0.00    -0.215 OA
HETATM    6  C10 UNL     1       1.578  -0.299   3.406  1.00  0.00     0.215 C 
HETATM    7  O12 UNL     1      -0.057  -1.188   4.965  1.00  0.00    -0.218 OA
HETATM    8  C9  UNL     1       1.756   0.402   2.041  1.00  0.00     0.181 C 
HETATM    9  O13 UNL     1       2.297   0.426   4.387  1.00  0.00    -0.218 OA
HETATM   10  O2  UNL     1       0.967  -0.262   1.061  1.00  0.00    -0.326 OA
BRANCH   8  11
HETATM   11  C8  UNL     1       3.205   0.371   1.543  1.00  0.00     0.184 C 
BRANCH  11  12
HETATM   12  O1  UNL     1       3.217   0.353   0.123  1.00  0.00    -0.296 OA
BRANCH  12  13
HETATM   13  C7  UNL     1       4.441   0.189  -0.371  1.00  0.00     0.296 C 
HETATM   14  O14 UNL     1       5.420   0.758   0.053  1.00  0.00    -0.259 OA
BRANCH  13  15
HETATM   15  C5  UNL     1       4.543  -0.764  -1.518  1.00  0.00     0.067 A 
HETATM   16  C4  UNL     1       3.434  -1.551  -1.879  1.00  0.00     0.035 A 
HETATM   17  C3  UNL     1       3.527  -2.449  -2.957  1.00  0.00     0.158 A 
HETATM   18  C2  UNL     1       4.732  -2.563  -3.674  1.00  0.00     0.181 A 
HETATM   19  O15 UNL     1       2.484  -3.184  -3.291  1.00  0.00    -0.188 OA
HETATM   20  C1  UNL     1       5.844  -1.775  -3.313  1.00  0.00     0.158 A 
HETATM   21  O16 UNL     1       4.822  -3.404  -4.684  1.00  0.00    -0.186 OA
HETATM   22  C6  UNL     1       5.746  -0.879  -2.234  1.00  0.00     0.035 A 
HETATM   23  O17 UNL     1       6.975  -1.877  -3.983  1.00  0.00    -0.188 OA
ENDBRANCH  13  15
ENDBRANCH  12  13
ENDBRANCH  11  12
ENDBRANCH   8  11
ENDBRANCH   1   2
BRANCH   1  24
HETATM   24  C14 UNL     1      -2.356  -0.494   0.094  1.00  0.00     0.158 A 
HETATM   25  C15 UNL     1      -2.635   0.738  -0.400  1.00  0.00     0.126 A 
HETATM   26  O4  UNL     1      -3.904   1.170  -0.555  1.00  0.00    -0.305 OA
HETATM   27  C16 UNL     1      -4.990   0.435  -0.234  1.00  0.00     0.107 A 
HETATM   28  C17 UNL     1      -4.836  -0.871   0.297  1.00  0.00     0.089 A 
HETATM   29  C22 UNL     1      -6.287   0.967  -0.426  1.00  0.00     0.052 A 
HETATM   30  C18 UNL     1      -3.459  -1.404   0.484  1.00  0.00     0.224 A 
HETATM   31  C19 UNL     1      -5.977  -1.645   0.635  1.00  0.00     0.138 A 
HETATM   32  O5  UNL     1      -3.149  -2.490   0.918  1.00  0.00    -0.284 OA
HETATM   33  C20 UNL     1      -7.270  -1.106   0.441  1.00  0.00     0.055 A 
HETATM   34  O7  UNL     1      -5.848  -2.881   1.139  1.00  0.00    -0.190 OA
HETATM   35  C21 UNL     1      -7.426   0.197  -0.088  1.00  0.00     0.135 A 
HETATM   36  O6  UNL     1      -8.653   0.705  -0.272  1.00  0.00    -0.190 OA
BRANCH  25  37
HETATM   37  C23 UNL     1      -1.512   1.646  -0.789  1.00  0.00     0.029 A 
HETATM   38  C24 UNL     1      -1.596   3.025  -0.527  1.00  0.00     0.032 A 
HETATM   39  C25 UNL     1      -0.539   3.879  -0.891  1.00  0.00     0.158 A 
HETATM   40  C26 UNL     1       0.603   3.354  -1.520  1.00  0.00     0.181 A 
HETATM   41  O10 UNL     1      -0.625   5.170  -0.641  1.00  0.00    -0.188 OA
HETATM   42  C27 UNL     1       0.689   1.973  -1.785  1.00  0.00     0.158 A 
HETATM   43  O9  UNL     1       1.594   4.152  -1.863  1.00  0.00    -0.186 OA
HETATM   44  C28 UNL     1      -0.367   1.123  -1.418  1.00  0.00     0.032 A 
HETATM   45  O8  UNL     1       1.760   1.477  -2.373  1.00  0.00    -0.188 OA
ENDBRANCH  25  37
ENDBRANCH   1  24
TORSDOF 7
