REMARK  4 active torsions:
REMARK  status: ('A' for Active; 'I' for Inactive)
REMARK    1  A    between atoms: O1_1  and  C2_3 
REMARK    2  A    between atoms: C3_4  and  O2_5 
REMARK    3  A    between atoms: C11_14  and  C12_15 
REMARK    4  A    between atoms: C12_15  and  C13_16 
ROOT
HETATM    1  C2  UNL     1      -3.164  -2.092  -0.186  1.00  0.00     0.116 A 
HETATM    2  C3  UNL     1      -3.271  -0.684  -0.242  1.00  0.00     0.116 A 
HETATM    3  C5  UNL     1      -2.104   0.111  -0.301  1.00  0.00     0.024 A 
HETATM    4  C6  UNL     1      -0.820  -0.492  -0.301  1.00  0.00     0.007 A 
HETATM    5  C7  UNL     1      -0.717  -1.914  -0.254  1.00  0.00    -0.020 A 
HETATM    6  C8  UNL     1      -1.891  -2.705  -0.191  1.00  0.00     0.022 A 
HETATM    7  C9  UNL     1       0.613  -2.574  -0.277  1.00  0.00     0.061 C 
HETATM    8  C10 UNL     1       1.777  -1.617   0.053  1.00  0.00     0.255 C 
HETATM    9  N1  UNL     1       1.645  -0.350  -0.678  1.00  0.00     0.142 N 
HETATM   10  C11 UNL     1       0.398   0.367  -0.346  1.00  0.00     0.246 C 
HETATM   11  C19 UNL     1       1.840  -0.520  -2.115  1.00  0.00     0.286 C 
ENDROOT
BRANCH  10  12
HETATM   12  C12 UNL     1       0.592   1.086   0.994  1.00  0.00     0.064 C 
BRANCH  12  13
HETATM   13  C13 UNL     1       1.777   1.982   0.971  1.00  0.00    -0.020 A 
HETATM   14  C14 UNL     1       2.930   1.644   1.703  1.00  0.00    -0.002 A 
HETATM   15  C15 UNL     1       4.049   2.494   1.678  1.00  0.00     0.027 A 
HETATM   16  C16 UNL     1       4.024   3.680   0.924  1.00  0.00     0.131 A 
HETATM   17  C17 UNL     1       2.869   4.014   0.193  1.00  0.00     0.027 A 
HETATM   18  O3  UNL     1       5.074   4.475   0.902  1.00  0.00    -0.190 OA
HETATM   19  C18 UNL     1       1.748   3.168   0.215  1.00  0.00    -0.002 A 
ENDBRANCH  12  13
ENDBRANCH  10  12
BRANCH   2  20
HETATM   20  O2  UNL     1      -4.477  -0.098  -0.240  1.00  0.00    -0.326 OA
HETATM   21  C4  UNL     1      -4.531   1.320  -0.297  1.00  0.00     0.181 C 
ENDBRANCH   2  20
BRANCH   1  22
HETATM   22  O1  UNL     1      -4.270  -2.850  -0.125  1.00  0.00    -0.326 OA
HETATM   23  C1  UNL     1      -4.111  -4.260  -0.121  1.00  0.00     0.181 C 
ENDBRANCH   1  22
TORSDOF 4
