REMARK  5 active torsions:
REMARK  status: ('A' for Active; 'I' for Inactive)
REMARK    1  A    between atoms: C7_8  and  C10_13 
REMARK    2  A    between atoms: C12_15  and  O6_22 
REMARK    3  A    between atoms: C14_17  and  O4_19 
REMARK    4  A    between atoms: O6_22  and  C17_23 
REMARK    5  A    between atoms: C18_25  and  C22_32 
ROOT
HETATM    1  C10 UNL     1       0.955  -1.686  -0.121  1.00  0.00     0.029 A 
HETATM    2  C11 UNL     1       0.984  -0.359   0.348  1.00  0.00     0.029 A 
HETATM    3  C12 UNL     1       2.041   0.494  -0.016  1.00  0.00     0.124 A 
HETATM    4  C13 UNL     1       3.068   0.021  -0.852  1.00  0.00     0.175 A 
HETATM    5  C14 UNL     1       3.039  -1.305  -1.324  1.00  0.00     0.121 A 
HETATM    6  C15 UNL     1       1.982  -2.154  -0.957  1.00  0.00     0.029 A 
HETATM    7  O5  UNL     1       4.061   0.822  -1.195  1.00  0.00    -0.186 OA
ENDROOT
BRANCH   1   8
HETATM    8  C7  UNL     1      -0.170  -2.592   0.268  1.00  0.00     0.129 A 
HETATM    9  O1  UNL     1      -1.440  -2.160   0.113  1.00  0.00    -0.305 OA
HETATM   10  C5  UNL     1      -2.525  -2.897   0.434  1.00  0.00     0.107 A 
HETATM   11  C4  UNL     1      -2.371  -4.203   0.963  1.00  0.00     0.089 A 
HETATM   12  C6  UNL     1      -3.822  -2.363   0.242  1.00  0.00     0.052 A 
HETATM   13  C3  UNL     1      -3.512  -4.977   1.303  1.00  0.00     0.138 A 
HETATM   14  C9  UNL     1      -0.994  -4.735   1.152  1.00  0.00     0.227 A 
HETATM   15  C2  UNL     1      -4.805  -4.438   1.109  1.00  0.00     0.055 A 
HETATM   16  O12 UNL     1      -3.383  -6.213   1.807  1.00  0.00    -0.190 OA
HETATM   17  C1  UNL     1      -4.961  -3.133   0.580  1.00  0.00     0.135 A 
HETATM   18  O13 UNL     1      -6.188  -2.627   0.396  1.00  0.00    -0.190 OA
HETATM   19  C8  UNL     1       0.109  -3.824   0.762  1.00  0.00     0.192 A 
HETATM   20  O2  UNL     1      -0.684  -5.821   1.586  1.00  0.00    -0.284 OA
HETATM   21  O3  UNL     1       1.369  -4.240   0.908  1.00  0.00    -0.185 OA
ENDBRANCH   1   8
BRANCH   3  22
HETATM   22  O6  UNL     1       2.062   1.734   0.428  1.00  0.00    -0.301 OA
BRANCH  22  23
HETATM   23  C17 UNL     1       0.822   2.361   0.723  1.00  0.00     0.274 C 
HETATM   24  O7  UNL     1       1.049   3.676   1.230  1.00  0.00    -0.326 OA
HETATM   25  C18 UNL     1       1.187   4.691   0.250  1.00  0.00     0.184 C 
HETATM   26  C19 UNL     1      -0.170   4.896  -0.488  1.00  0.00     0.215 C 
HETATM   27  C20 UNL     1      -1.037   3.600  -0.570  1.00  0.00     0.220 C 
HETATM   28  O10 UNL     1      -0.902   5.986   0.057  1.00  0.00    -0.218 OA
HETATM   29  C21 UNL     1      -0.137   2.350  -0.510  1.00  0.00     0.241 C 
HETATM   30  O9  UNL     1      -1.961   3.500   0.504  1.00  0.00    -0.218 OA
HETATM   31  O8  UNL     1       0.600   2.285  -1.721  1.00  0.00    -0.215 OA
BRANCH  25  32
HETATM   32  C22 UNL     1       1.754   5.937   0.941  1.00  0.00     0.214 C 
HETATM   33  O11 UNL     1       3.074   5.656   1.348  1.00  0.00    -0.218 OA
ENDBRANCH  25  32
ENDBRANCH  22  23
ENDBRANCH   3  22
BRANCH   5  34
HETATM   34  O4  UNL     1       4.002  -1.750  -2.108  1.00  0.00    -0.326 OA
HETATM   35  C16 UNL     1       3.928  -3.098  -2.551  1.00  0.00     0.181 C 
ENDBRANCH   5  34
TORSDOF 5
