REMARK  1 active torsions:
REMARK  status: ('A' for Active; 'I' for Inactive)
REMARK    1  A    between atoms: C6_6  and  C7_7 
ROOT
HETATM    1  C1  UNL     1       0.617   0.578   0.313  1.00  0.00     0.028 C 
HETATM    2  C2  UNL     1       0.580  -0.174   1.670  1.00  0.00     0.005 C 
HETATM    3  C3  UNL     1      -0.267  -1.225   0.906  1.00  0.00     0.005 C 
HETATM    4  C4  UNL     1      -1.736  -0.778   0.764  1.00  0.00     0.026 C 
HETATM    5  C5  UNL     1      -1.842   0.660   0.287  1.00  0.00    -0.024 C 
HETATM    6  C6  UNL     1      -0.695   1.338   0.063  1.00  0.00     0.038 C 
HETATM    7  C8  UNL     1       0.631  -0.852  -0.314  1.00  0.00     0.004 C 
HETATM    8  C9  UNL     1       2.002  -1.531  -0.338  1.00  0.00     0.000 C 
HETATM    9  C10 UNL     1      -0.041  -0.977  -1.682  1.00  0.00     0.000 C 
ENDROOT
BRANCH   6  10
HETATM   10  C7  UNL     1      -0.697   2.732  -0.396  1.00  0.00     0.206 C 
HETATM   11  O1  UNL     1       0.500   3.281  -0.580  1.00  0.00    -0.644 OA
HETATM   12  O2  UNL     1      -1.740   3.314  -0.586  1.00  0.00    -0.644 OA
ENDBRANCH   6  10
TORSDOF 1
