REMARK  5 active torsions:
REMARK  status: ('A' for Active; 'I' for Inactive)
REMARK    1  A    between atoms: C4_4  and  C10_10 
REMARK    2  A    between atoms: C10_10  and  O1_11 
REMARK    3  A    between atoms: O1_11  and  C11_12 
REMARK    4  A    between atoms: C11_12  and  C12_13 
REMARK    5  A    between atoms: C12_13  and  C13_14 
ROOT
HETATM    1  C1  UNL     1       0.525  -3.455   0.215  1.00  0.00     0.005 C 
HETATM    2  C2  UNL     1      -0.947  -3.008   0.074  1.00  0.00     0.025 C 
HETATM    3  C3  UNL     1      -1.053  -1.570  -0.402  1.00  0.00    -0.032 C 
HETATM    4  C4  UNL     1       0.096  -0.900  -0.625  1.00  0.00    -0.019 C 
HETATM    5  C5  UNL     1       1.414  -1.652  -0.377  1.00  0.00     0.020 C 
HETATM    6  C6  UNL     1       1.377  -2.404   0.981  1.00  0.00     0.004 C 
HETATM    7  C7  UNL     1       1.426  -3.080  -1.006  1.00  0.00     0.004 C 
HETATM    8  C8  UNL     1       0.754  -3.205  -2.373  1.00  0.00     0.000 C 
HETATM    9  C9  UNL     1       2.795  -3.762  -1.027  1.00  0.00     0.000 C 
ENDROOT
BRANCH   4  10
HETATM   10  C10 UNL     1       0.094   0.529  -1.098  1.00  0.00     0.174 C 
BRANCH  10  11
HETATM   11  O1  UNL     1      -0.822   1.283  -0.316  1.00  0.00    -0.297 OA
BRANCH  11  12
HETATM   12  C11 UNL     1      -0.871   2.561  -0.685  1.00  0.00     0.272 C 
HETATM   13  O2  UNL     1      -0.211   3.025  -1.586  1.00  0.00    -0.264 OA
BRANCH  12  14
HETATM   14  C12 UNL     1      -1.824   3.418   0.102  1.00  0.00     0.096 C 
BRANCH  14  15
HETATM   15  C13 UNL     1      -1.117   4.225   1.192  1.00  0.00     0.010 C 
HETATM   16  C14 UNL     1      -2.043   5.229   1.877  1.00  0.00     0.001 C 
HETATM   17  C15 UNL     1      -0.365   3.340   2.188  1.00  0.00     0.001 C 
ENDBRANCH  14  15
ENDBRANCH  12  14
ENDBRANCH  11  12
ENDBRANCH  10  11
ENDBRANCH   4  10
TORSDOF 5
