REMARK  1 active torsions:
REMARK  status: ('A' for Active; 'I' for Inactive)
REMARK    1  A    between atoms: C12_15  and  C15_20 
ROOT
HETATM    1  C1  UNL     1      -3.676   0.371   0.280  1.00  0.00     0.173 A 
HETATM    2  C2  UNL     1      -3.646  -0.935  -0.595  1.00  0.00     0.190 C 
HETATM    3  C3  UNL     1      -2.330  -1.769  -0.527  1.00  0.00     0.111 C 
HETATM    4  C4  UNL     1      -1.120  -0.872  -0.746  1.00  0.00     0.046 C 
HETATM    5  C5  UNL     1      -1.042   0.352   0.414  1.00  0.00     0.049 C 
HETATM    6  C6  UNL     1      -2.355   1.167   0.337  1.00  0.00     0.149 A 
HETATM    7  O1  UNL     1      -2.999   1.456  -0.701  1.00  0.00    -0.351 OA
HETATM    8  C7  UNL     1       0.227   1.113   0.233  1.00  0.00    -0.017 A 
HETATM    9  C8  UNL     1       1.459   0.407  -0.221  1.00  0.00    -0.005 A 
HETATM   10  C9  UNL     1       1.389  -1.038  -0.747  1.00  0.00     0.058 C 
HETATM   11  C10 UNL     1       0.048  -1.813  -0.559  1.00  0.00     0.130 C 
HETATM   12  O2  UNL     1      -0.376  -2.370   0.711  1.00  0.00    -0.304 OA
HETATM   13  C11 UNL     1      -1.825  -2.466   0.689  1.00  0.00     0.273 C 
HETATM   14  O3  UNL     1      -2.527  -2.872   1.621  1.00  0.00    -0.264 OA
HETATM   15  C12 UNL     1       2.629   1.085  -0.254  1.00  0.00     0.077 A 
HETATM   16  O4  UNL     1       2.673   2.405   0.125  1.00  0.00    -0.278 OA
HETATM   17  C13 UNL     1       1.558   3.080   0.508  1.00  0.00     0.300 A 
HETATM   18  C14 UNL     1       0.291   2.387   0.594  1.00  0.00     0.064 A 
HETATM   19  O5  UNL     1       1.628   4.278   0.800  1.00  0.00    -0.259 OA
HETATM   20  C17 UNL     1      -0.960   0.065   1.987  1.00  0.00     0.007 C 
HETATM   21  C18 UNL     1      -2.486  -2.879  -1.597  1.00  0.00     0.013 C 
HETATM   22  O6  UNL     1      -4.749  -1.781  -0.262  1.00  0.00    -0.220 OA
ENDROOT
BRANCH  15  23
HETATM   23  C15 UNL     1       3.933   0.450  -0.767  1.00  0.00     0.051 C 
HETATM   24  C16 UNL     1       4.561  -0.583   0.222  1.00  0.00     0.007 C 
ENDBRANCH  15  23
TORSDOF 1
