REMARK  3 active torsions:
REMARK  status: ('A' for Active; 'I' for Inactive)
REMARK    1  A    between atoms: C2_2  and  C3_3 
REMARK    2  A    between atoms: C3_3  and  C4_4 
REMARK    3  A    between atoms: C4_4  and  C5_5 
ROOT
HETATM    1  C1  UNL     1       0.572   2.155   0.621  1.00  0.00    -0.001 A 
HETATM    2  C2  UNL     1      -0.527   1.288   0.621  1.00  0.00     0.074 A 
HETATM    3  O1  UNL     1      -1.713   1.961   0.621  1.00  0.00    -0.310 OA
HETATM    4  C8  UNL     1      -1.352   3.278   0.621  1.00  0.00     0.122 A 
HETATM    5  C9  UNL     1       0.035   3.442   0.621  1.00  0.00     0.024 A 
HETATM    6  C10 UNL     1       2.037   1.780   0.621  1.00  0.00     0.033 C 
ENDROOT
BRANCH   2   7
HETATM    7  C3  UNL     1      -0.475  -0.226   0.621  1.00  0.00     0.056 C 
BRANCH   7   8
HETATM    8  C4  UNL     1      -0.277  -0.773  -0.793  1.00  0.00     0.029 C 
BRANCH   8   9
HETATM    9  C5  UNL     1      -0.195  -2.275  -0.820  1.00  0.00    -0.043 C 
HETATM   10  C6  UNL     1       0.984  -2.849  -1.109  1.00  0.00    -0.009 C 
HETATM   11  C7  UNL     1      -1.377  -3.166  -0.541  1.00  0.00     0.026 C 
ENDBRANCH   8   9
ENDBRANCH   7   8
ENDBRANCH   2   7
TORSDOF 3
