REMARK  1 active torsions:
REMARK  status: ('A' for Active; 'I' for Inactive)
REMARK    1  A    between atoms: C15_17  and  O3_20 
ROOT
HETATM    1  C1  UNL     1      -3.787   0.846   0.197  1.00  0.00     0.119 A 
HETATM    2  C2  UNL     1      -3.647   1.391   1.467  1.00  0.00     0.119 A 
HETATM    3  C3  UNL     1      -2.367   1.406   2.068  1.00  0.00     0.029 A 
HETATM    4  C4  UNL     1      -1.223   0.879   1.416  1.00  0.00     0.043 A 
HETATM    5  C5  UNL     1      -1.348   0.317   0.113  1.00  0.00     0.007 A 
HETATM    6  C6  UNL     1      -2.653   0.317  -0.467  1.00  0.00     0.026 A 
HETATM    7  C7  UNL     1      -0.139  -0.238  -0.574  1.00  0.00     0.029 A 
HETATM    8  C8  UNL     1       1.131  -0.205   0.104  1.00  0.00     0.021 A 
HETATM    9  C9  UNL     1       1.267   0.354   1.414  1.00  0.00     0.100 A 
HETATM   10  C10 UNL     1       0.086   0.936   2.137  1.00  0.00     0.211 A 
HETATM   11  O1  UNL     1       0.172   1.424   3.242  1.00  0.00    -0.285 OA
HETATM   12  N1  UNL     1       2.553   0.361   2.047  1.00  0.00    -0.322 N 
HETATM   13  C11 UNL     1       3.680  -0.178   1.391  1.00  0.00     0.076 A 
HETATM   14  C12 UNL     1       3.555  -0.728   0.104  1.00  0.00     0.019 A 
HETATM   15  C13 UNL     1       2.297  -0.744  -0.539  1.00  0.00     0.005 A 
HETATM   16  C14 UNL     1       2.217  -1.303  -1.832  1.00  0.00     0.026 A 
HETATM   17  C15 UNL     1       0.984  -1.332  -2.502  1.00  0.00     0.119 A 
HETATM   18  C16 UNL     1      -0.180  -0.809  -1.895  1.00  0.00     0.153 A 
HETATM   19  O2  UNL     1      -1.293  -0.889  -2.633  1.00  0.00    -0.188 OA
HETATM   20  C18 UNL     1       2.762   0.920   3.395  1.00  0.00     0.131 C 
HETATM   21  O4  UNL     1      -4.834   1.822   1.895  1.00  0.00    -0.300 OA
HETATM   22  C19 UNL     1      -5.826   1.561   0.881  1.00  0.00     0.304 A 
HETATM   23  O5  UNL     1      -5.067   0.934  -0.176  1.00  0.00    -0.300 OA
ENDROOT
BRANCH  17  24
HETATM   24  O3  UNL     1       0.920  -1.863  -3.732  1.00  0.00    -0.326 OA
HETATM   25  C17 UNL     1       2.137  -2.223  -4.367  1.00  0.00     0.181 C 
ENDBRANCH  17  24
TORSDOF 1
