REMARK  1 active torsions:
REMARK  status: ('A' for Active; 'I' for Inactive)
REMARK    1  A    between atoms: C2_2  and  O4_23 
ROOT
HETATM    1  C1  UNL     1      -1.095  -3.380  -0.801  1.00  0.00     0.026 A 
HETATM    2  C2  UNL     1      -1.047  -3.410   0.611  1.00  0.00     0.119 A 
HETATM    3  C3  UNL     1      -1.196  -2.214   1.350  1.00  0.00     0.151 A 
HETATM    4  C4  UNL     1      -1.396  -0.977   0.681  1.00  0.00     0.034 A 
HETATM    5  C5  UNL     1      -1.457  -0.954  -0.740  1.00  0.00    -0.020 A 
HETATM    6  C6  UNL     1      -1.299  -2.155  -1.476  1.00  0.00    -0.002 A 
HETATM    7  C7  UNL     1      -1.696   0.328  -1.445  1.00  0.00     0.064 C 
HETATM    8  C8  UNL     1      -1.247   1.577  -0.640  1.00  0.00     0.246 C 
HETATM    9  N1  UNL     1      -1.851   1.502   0.707  1.00  0.00     0.144 N 
HETATM   10  C9  UNL     1      -1.527   0.276   1.474  1.00  0.00     0.279 C 
HETATM   11  C10 UNL     1      -1.591   2.738   1.458  1.00  0.00     0.256 C 
HETATM   12  C11 UNL     1      -0.077   2.978   1.661  1.00  0.00     0.061 C 
HETATM   13  C12 UNL     1       0.775   2.560   0.515  1.00  0.00    -0.020 A 
HETATM   14  C13 UNL     1       0.226   1.863  -0.596  1.00  0.00     0.007 A 
HETATM   15  C14 UNL     1       1.099   1.476  -1.645  1.00  0.00     0.024 A 
HETATM   16  C15 UNL     1       2.486   1.767  -1.611  1.00  0.00     0.119 A 
HETATM   17  C16 UNL     1       3.016   2.459  -0.521  1.00  0.00     0.119 A 
HETATM   18  C17 UNL     1       2.158   2.852   0.536  1.00  0.00     0.022 A 
HETATM   19  O1  UNL     1       4.326   2.624  -0.704  1.00  0.00    -0.300 OA
HETATM   20  C18 UNL     1       4.709   2.022  -1.960  1.00  0.00     0.304 A 
HETATM   21  O2  UNL     1       3.465   1.497  -2.474  1.00  0.00    -0.300 OA
HETATM   22  O3  UNL     1      -1.144  -2.253   2.690  1.00  0.00    -0.188 OA
ENDROOT
BRANCH   2  23
HETATM   23  O4  UNL     1      -0.858  -4.575   1.247  1.00  0.00    -0.326 OA
HETATM   24  C19 UNL     1      -0.762  -5.755   0.463  1.00  0.00     0.181 C 
ENDBRANCH   2  23
TORSDOF 1
