REMARK  1 active torsions:
REMARK  status: ('A' for Active; 'I' for Inactive)
REMARK    1  A    between atoms: C1_1  and  C2_2 
ROOT
HETATM    1  C2  UNL     1      -1.963   0.666   0.000  1.00  0.00     0.042 A 
HETATM    2  C3  UNL     1      -2.066  -0.746   0.047  1.00  0.00     0.003 A 
HETATM    3  C4  UNL     1      -0.898  -1.543   0.060  1.00  0.00     0.000 A 
HETATM    4  C5  UNL     1       0.377  -0.928   0.025  1.00  0.00     0.000 A 
HETATM    5  C6  UNL     1       0.480   0.498  -0.020  1.00  0.00     0.000 A 
HETATM    6  C7  UNL     1      -0.693   1.291  -0.033  1.00  0.00     0.003 A 
HETATM    7  C8  UNL     1       1.758   1.113  -0.051  1.00  0.00     0.000 A 
HETATM    8  C9  UNL     1       2.924   0.314  -0.039  1.00  0.00     0.000 A 
HETATM    9  C10 UNL     1       2.824  -1.096   0.002  1.00  0.00     0.000 A 
HETATM   10  C11 UNL     1       1.555  -1.721   0.037  1.00  0.00     0.000 A 
ENDROOT
BRANCH   1  11
HETATM   11  C1  UNL     1      -3.188   1.492  -0.016  1.00  0.00     0.234 C 
HETATM   12  O1  UNL     1      -3.289   2.695  -0.055  1.00  0.00    -0.283 OA
ENDBRANCH   1  11
TORSDOF 1
