REMARK  7 active torsions:
REMARK  status: ('A' for Active; 'I' for Inactive)
REMARK    1  A    between atoms: C2_2  and  O6_28 
REMARK    2  A    between atoms: C5_5  and  C8_8 
REMARK    3  A    between atoms: C8_8  and  O1_9 
REMARK    4  A    between atoms: O1_9  and  C9_10 
REMARK    5  A    between atoms: C12_13  and  C19_22 
REMARK    6  A    between atoms: C13_14  and  C17_19 
REMARK    7  A    between atoms: C15_16  and  C16_17 
ROOT
HETATM    1  C9  UNL     1       2.626   0.278  -0.263  1.00  0.00     0.129 C 
HETATM    2  C10 UNL     1       3.771   0.417  -1.299  1.00  0.00     0.053 C 
HETATM    3  C11 UNL     1       3.629  -1.079  -1.683  1.00  0.00     0.011 C 
HETATM    4  C12 UNL     1       4.835  -1.978  -1.322  1.00  0.00     0.033 C 
HETATM    5  C13 UNL     1       5.634  -1.537  -0.077  1.00  0.00     0.145 C 
HETATM    6  C14 UNL     1       5.936  -0.057  -0.172  1.00  0.00     0.003 C 
HETATM    7  C15 UNL     1       5.094   0.837  -0.727  1.00  0.00     0.020 C 
HETATM    8  O3  UNL     1       4.846  -1.753   1.074  1.00  0.00    -0.222 OA
HETATM    9  C21 UNL     1       3.227  -1.241  -3.162  1.00  0.00     0.001 C 
HETATM   10  C22 UNL     1       2.393  -1.164  -0.751  1.00  0.00     0.031 C 
ENDROOT
BRANCH   1  11
HETATM   11  O1  UNL     1       3.111   0.317   1.040  1.00  0.00    -0.301 OA
BRANCH  11  12
HETATM   12  C8  UNL     1       2.515   1.077   2.000  1.00  0.00     0.297 C 
HETATM   13  O4  UNL     1       3.092   1.208   3.075  1.00  0.00    -0.259 OA
BRANCH  12  14
HETATM   14  C5  UNL     1       1.210   1.820   1.883  1.00  0.00     0.085 C 
HETATM   15  C4  UNL     1       1.218   3.193   2.166  1.00  0.00     0.138 C 
HETATM   16  C3  UNL     1       0.003   3.882   2.108  1.00  0.00     0.052 C 
HETATM   17  O5  UNL     1       2.351   3.835   2.562  1.00  0.00    -0.190 OA
HETATM   18  C2  UNL     1      -1.192   3.288   1.686  1.00  0.00     0.096 C 
HETATM   19  C1  UNL     1      -1.160   1.900   1.504  1.00  0.00     0.020 C 
HETATM   20  C6  UNL     1       0.019   1.151   1.564  1.00  0.00    -0.013 C 
HETATM   21  C7  UNL     1      -0.076  -0.349   1.415  1.00  0.00     0.031 C 
BRANCH  18  22
HETATM   22  O6  UNL     1      -2.380   3.968   1.737  1.00  0.00    -0.328 OA
HETATM   23  C23 UNL     1      -2.649   4.722   0.578  1.00  0.00     0.181 C 
ENDBRANCH  18  22
ENDBRANCH  12  14
ENDBRANCH  11  12
ENDBRANCH   1  11
BRANCH   7  24
HETATM   24  C16 UNL     1       5.454   2.273  -0.719  1.00  0.00     0.230 C 
HETATM   25  O2  UNL     1       6.509   2.721  -0.291  1.00  0.00    -0.283 OA
ENDBRANCH   7  24
BRANCH   4  26
HETATM   26  C19 UNL     1       4.428  -3.472  -1.311  1.00  0.00     0.003 C 
HETATM   27  C20 UNL     1       5.134  -4.303  -2.394  1.00  0.00     0.000 C 
ENDBRANCH   4  26
BRANCH   5  28
HETATM   28  C17 UNL     1       6.953  -2.320   0.079  1.00  0.00     0.035 C 
HETATM   29  C18 UNL     1       7.651  -2.167   1.441  1.00  0.00     0.003 C 
ENDBRANCH   5  28
TORSDOF 7
