REMARK  2 active torsions:
REMARK  status: ('A' for Active; 'I' for Inactive)
REMARK    1  A    between atoms: C8_8  and  C11_12 
REMARK    2  A    between atoms: C11_12  and  C12_13 
ROOT
HETATM    1  C1  UNL     1       4.906  -0.375  -0.092  1.00  0.00     0.000 A 
HETATM    2  C2  UNL     1       4.699  -1.770  -0.174  1.00  0.00    -0.000 A 
HETATM    3  C3  UNL     1       3.392  -2.281  -0.328  1.00  0.00    -0.002 A 
HETATM    4  C4  UNL     1       2.277  -1.406  -0.402  1.00  0.00     0.011 A 
HETATM    5  C5  UNL     1       2.490   0.004  -0.320  1.00  0.00     0.033 A 
HETATM    6  C6  UNL     1       3.807   0.510  -0.164  1.00  0.00     0.003 A 
HETATM    7  C7  UNL     1       1.342   0.961  -0.397  1.00  0.00     0.173 C 
HETATM    8  C8  UNL     1      -0.059   0.393  -0.563  1.00  0.00     0.069 C 
HETATM    9  C9  UNL     1      -0.176  -1.037  -0.006  1.00  0.00     0.046 C 
HETATM   10  C10 UNL     1       0.914  -1.969  -0.565  1.00  0.00     0.175 C 
HETATM   11  O1  UNL     1       0.660  -2.217  -1.936  1.00  0.00    -0.219 OA
HETATM   12  O2  UNL     1       1.433   2.168  -0.338  1.00  0.00    -0.291 OA
ENDROOT
BRANCH   8  13
HETATM   13  C11 UNL     1      -1.123   1.297   0.072  1.00  0.00     0.033 C 
BRANCH  13  14
HETATM   14  C12 UNL     1      -2.524   0.836  -0.231  1.00  0.00    -0.034 C 
HETATM   15  C13 UNL     1      -3.518   1.234   0.578  1.00  0.00    -0.048 C 
HETATM   16  C14 UNL     1      -3.196   2.186   1.699  1.00  0.00     0.026 C 
HETATM   17  C15 UNL     1      -4.905   0.707   0.324  1.00  0.00     0.026 C 
ENDBRANCH  13  14
ENDBRANCH   8  13
TORSDOF 2
