REMARK  0 active torsions:
REMARK  status: ('A' for Active; 'I' for Inactive)
ROOT
HETATM    1  C1  UNL     1       4.637  -0.901   0.217  1.00  0.00     0.000 A 
HETATM    2  C2  UNL     1       4.662   0.496   0.426  1.00  0.00     0.000 A 
HETATM    3  C3  UNL     1       3.457   1.199   0.650  1.00  0.00     0.003 A 
HETATM    4  C4  UNL     1       2.215   0.512   0.664  1.00  0.00     0.040 A 
HETATM    5  C5  UNL     1       2.191  -0.901   0.488  1.00  0.00     0.038 A 
HETATM    6  C6  UNL     1       3.406  -1.596   0.248  1.00  0.00     0.003 A 
HETATM    7  C7  UNL     1       0.918  -1.676   0.558  1.00  0.00     0.175 C 
HETATM    8  C8  UNL     1      -0.369  -0.951   0.914  1.00  0.00     0.097 C 
HETATM    9  C9  UNL     1      -0.367   0.588   0.693  1.00  0.00     0.183 C 
HETATM   10  C10 UNL     1       0.963   1.291   0.861  1.00  0.00     0.200 C 
HETATM   11  O1  UNL     1       0.904   2.467   1.142  1.00  0.00    -0.289 OA
HETATM   12  O2  UNL     1      -0.877   0.877  -0.604  1.00  0.00    -0.353 OA
HETATM   13  C11 UNL     1      -2.270   0.617  -0.793  1.00  0.00     0.093 C 
HETATM   14  C12 UNL     1      -2.727  -0.617   0.027  1.00  0.00     0.028 C 
HETATM   15  C13 UNL     1      -1.590  -1.623   0.232  1.00  0.00     0.013 C 
HETATM   16  C14 UNL     1      -2.441   0.387  -2.295  1.00  0.00     0.030 C 
HETATM   17  C15 UNL     1      -3.027   1.879  -0.365  1.00  0.00     0.030 C 
HETATM   18  O3  UNL     1       0.824  -2.867   0.361  1.00  0.00    -0.291 OA
ENDROOT
TORSDOF 0
