REMARK  1 active torsions:
REMARK  status: ('A' for Active; 'I' for Inactive)
REMARK    1  A    between atoms: C3_3  and  O4_19 
ROOT
HETATM    1  C1  UNL     1      -4.174  -0.150  -1.369  1.00  0.00     0.002 A 
HETATM    2  C2  UNL     1      -4.119   0.793  -0.320  1.00  0.00     0.024 A 
HETATM    3  C3  UNL     1      -2.920   0.975   0.410  1.00  0.00     0.097 A 
HETATM    4  C4  UNL     1      -1.766   0.211   0.088  1.00  0.00     0.066 A 
HETATM    5  C5  UNL     1      -1.826  -0.742  -0.967  1.00  0.00     0.044 A 
HETATM    6  C6  UNL     1      -3.031  -0.918  -1.691  1.00  0.00     0.003 A 
HETATM    7  C7  UNL     1      -0.627  -1.557  -1.314  1.00  0.00     0.194 A 
HETATM    8  C8  UNL     1       0.609  -1.328  -0.523  1.00  0.00     0.042 A 
HETATM    9  C9  UNL     1       0.684  -0.402   0.459  1.00  0.00     0.132 A 
HETATM   10  C10 UNL     1      -0.496   0.402   0.852  1.00  0.00     0.219 A 
HETATM   11  O1  UNL     1      -0.324   1.166   1.775  1.00  0.00    -0.284 OA
HETATM   12  O2  UNL     1       1.840  -0.203   1.121  1.00  0.00    -0.333 OA
HETATM   13  C11 UNL     1       3.084  -0.221   0.397  1.00  0.00     0.099 C 
HETATM   14  C12 UNL     1       3.076  -1.228  -0.783  1.00  0.00     0.033 C 
HETATM   15  C13 UNL     1       1.854  -2.145  -0.781  1.00  0.00     0.034 C 
HETATM   16  C14 UNL     1       4.178  -0.576   1.408  1.00  0.00     0.030 C 
HETATM   17  C15 UNL     1       3.328   1.203  -0.117  1.00  0.00     0.030 C 
HETATM   18  O3  UNL     1      -0.568  -2.393  -2.186  1.00  0.00    -0.287 OA
ENDROOT
BRANCH   3  19
HETATM   19  O4  UNL     1      -2.894   1.877   1.402  1.00  0.00    -0.328 OA
HETATM   20  C16 UNL     1      -4.055   2.668   1.613  1.00  0.00     0.181 C 
ENDBRANCH   3  19
TORSDOF 1
