REMARK  0 active torsions:
REMARK  status: ('A' for Active; 'I' for Inactive)
ROOT
HETATM    1  C1  UNL     1      -4.693  -0.594   0.869  1.00  0.00     0.002 A 
HETATM    2  C2  UNL     1      -4.592   0.816   0.871  1.00  0.00     0.028 A 
HETATM    3  C3  UNL     1      -3.367   1.441   0.543  1.00  0.00     0.134 A 
HETATM    4  C4  UNL     1      -2.231   0.652   0.213  1.00  0.00     0.069 A 
HETATM    5  C5  UNL     1      -2.334  -0.764   0.207  1.00  0.00     0.044 A 
HETATM    6  C6  UNL     1      -3.568  -1.383   0.535  1.00  0.00     0.003 A 
HETATM    7  C7  UNL     1      -1.158  -1.609  -0.146  1.00  0.00     0.196 A 
HETATM    8  C8  UNL     1       0.121  -0.912  -0.480  1.00  0.00     0.072 A 
HETATM    9  C9  UNL     1       0.225   0.438  -0.434  1.00  0.00     0.134 A 
HETATM   10  C10 UNL     1      -0.934   1.305  -0.121  1.00  0.00     0.220 A 
HETATM   11  O1  UNL     1      -0.721   2.496  -0.162  1.00  0.00    -0.284 OA
HETATM   12  O2  UNL     1       1.395   1.053  -0.695  1.00  0.00    -0.333 OA
HETATM   13  C11 UNL     1       2.621   0.492  -0.197  1.00  0.00     0.102 C 
HETATM   14  C12 UNL     1       2.592  -1.057  -0.164  1.00  0.00     0.066 C 
HETATM   15  C13 UNL     1       1.389  -1.639  -0.918  1.00  0.00     0.182 C 
HETATM   16  O3  UNL     1       1.381  -3.041  -0.711  1.00  0.00    -0.218 OA
HETATM   17  C14 UNL     1       2.846   1.057   1.215  1.00  0.00     0.030 C 
HETATM   18  C15 UNL     1       3.742   0.998  -1.119  1.00  0.00     0.030 C 
HETATM   19  O4  UNL     1      -1.172  -2.818  -0.184  1.00  0.00    -0.287 OA
HETATM   20  O5  UNL     1      -3.295   2.781   0.551  1.00  0.00    -0.190 OA
ENDROOT
TORSDOF 0
