REMARK  1 active torsions:
REMARK  status: ('A' for Active; 'I' for Inactive)
REMARK    1  A    between atoms: C7_8  and  C10_12 
ROOT
HETATM    1  C1  UNL     1      -4.119   0.129  -0.643  1.00  0.00     0.135 A 
HETATM    2  C2  UNL     1      -4.021   1.287  -1.449  1.00  0.00     0.055 A 
HETATM    3  C3  UNL     1      -2.760   1.875  -1.701  1.00  0.00     0.138 A 
HETATM    4  C4  UNL     1      -1.588   1.301  -1.139  1.00  0.00     0.083 A 
HETATM    5  C5  UNL     1      -1.682   0.113  -0.361  1.00  0.00     0.101 A 
HETATM    6  C6  UNL     1      -2.951  -0.455  -0.100  1.00  0.00     0.052 A 
HETATM    7  O1  UNL     1      -0.582  -0.486   0.139  1.00  0.00    -0.328 OA
HETATM    8  C7  UNL     1       0.711  -0.201  -0.408  1.00  0.00     0.151 C 
HETATM    9  C8  UNL     1       0.899   1.318  -0.586  1.00  0.00     0.104 C 
HETATM   10  C9  UNL     1      -0.256   1.936  -1.346  1.00  0.00     0.180 C 
HETATM   11  O2  UNL     1      -0.006   2.889  -2.049  1.00  0.00    -0.291 OA
HETATM   12  O4  UNL     1      -2.689   2.977  -2.463  1.00  0.00    -0.190 OA
HETATM   13  O5  UNL     1      -5.318  -0.414  -0.397  1.00  0.00    -0.190 OA
ENDROOT
BRANCH   8  14
HETATM   14  C10 UNL     1       1.756  -0.801   0.467  1.00  0.00     0.006 A 
HETATM   15  C11 UNL     1       2.754  -1.619  -0.088  1.00  0.00     0.000 A 
HETATM   16  C12 UNL     1       3.740  -2.186   0.738  1.00  0.00     0.027 A 
HETATM   17  C13 UNL     1       3.729  -1.938   2.123  1.00  0.00     0.131 A 
HETATM   18  C14 UNL     1       2.729  -1.119   2.676  1.00  0.00     0.027 A 
HETATM   19  O3  UNL     1       4.654  -2.469   2.898  1.00  0.00    -0.190 OA
HETATM   20  C15 UNL     1       1.742  -0.553   1.851  1.00  0.00     0.000 A 
ENDBRANCH   8  14
TORSDOF 1
