REMARK  3 active torsions:
REMARK  status: ('A' for Active; 'I' for Inactive)
REMARK    1  A    between atoms: C2_2  and  C3_3 
REMARK    2  A    between atoms: C24_24  and  O1_28 
REMARK    3  A    between atoms: O1_28  and  C28_29 
ROOT
HETATM    1  C3  UNL     1      -4.469   0.910  -0.416  1.00  0.00     0.000 C 
HETATM    2  C4  UNL     1      -3.506   0.258   0.590  1.00  0.00     0.000 C 
HETATM    3  C5  UNL     1      -1.955   0.305   0.379  1.00  0.00     0.003 C 
HETATM    4  C6  UNL     1      -1.449   0.535  -1.060  1.00  0.00     0.001 C 
HETATM    5  C7  UNL     1       0.076   0.752  -1.082  1.00  0.00     0.004 C 
HETATM    6  C8  UNL     1       0.899  -0.309  -0.299  1.00  0.00     0.018 C 
HETATM    7  C9  UNL     1       0.231  -0.733   1.012  1.00  0.00    -0.049 C 
HETATM    8  C10 UNL     1      -1.273  -0.983   0.943  1.00  0.00     0.015 C 
HETATM    9  C11 UNL     1      -1.975  -1.401   2.260  1.00  0.00     0.004 C 
HETATM   10  C12 UNL     1      -3.463  -1.779   2.063  1.00  0.00     0.000 C 
HETATM   11  C13 UNL     1      -4.121  -1.127   0.826  1.00  0.00     0.000 C 
HETATM   12  C14 UNL     1      -5.588  -0.734   1.039  1.00  0.00     0.000 C 
HETATM   13  C15 UNL     1      -5.844   0.422   0.067  1.00  0.00     0.000 C 
HETATM   14  C16 UNL     1      -4.107  -2.041  -0.404  1.00  0.00     0.000 C 
HETATM   15  C17 UNL     1      -1.367  -2.188  -0.010  1.00  0.00     0.004 C 
HETATM   16  C18 UNL     1       0.938  -0.906   2.149  1.00  0.00    -0.035 C 
HETATM   17  C19 UNL     1       2.438  -0.762   2.201  1.00  0.00     0.025 C 
HETATM   18  C20 UNL     1       3.121  -0.867   0.815  1.00  0.00     0.007 C 
HETATM   19  C21 UNL     1       2.408   0.072  -0.187  1.00  0.00     0.004 C 
HETATM   20  C22 UNL     1       2.613   1.545   0.272  1.00  0.00     0.003 C 
HETATM   21  C23 UNL     1       3.973   1.836   0.942  1.00  0.00     0.030 C 
HETATM   22  C24 UNL     1       5.070   0.830   0.568  1.00  0.00     0.124 C 
HETATM   23  C25 UNL     1       4.672  -0.649   0.860  1.00  0.00     0.026 C 
HETATM   24  C26 UNL     1       5.348  -1.578  -0.158  1.00  0.00     0.002 C 
HETATM   25  C27 UNL     1       5.242  -1.047   2.231  1.00  0.00     0.002 C 
HETATM   26  C30 UNL     1       3.014  -0.106  -1.590  1.00  0.00     0.000 C 
HETATM   27  C31 UNL     1      -1.543   1.539   1.215  1.00  0.00     0.000 C 
ENDROOT
BRANCH  22  28
HETATM   28  O1  UNL     1       5.387   1.012  -0.807  1.00  0.00    -0.304 OA
BRANCH  28  29
HETATM   29  C28 UNL     1       6.053   2.141  -1.027  1.00  0.00     0.272 C 
HETATM   30  C29 UNL     1       6.324   2.451  -2.476  1.00  0.00     0.106 C 
HETATM   31  O2  UNL     1       6.428   2.885  -0.152  1.00  0.00    -0.264 OA
ENDBRANCH  28  29
ENDBRANCH  22  28
BRANCH   1  32
HETATM   32  C2  UNL     1      -4.291   0.482  -1.875  1.00  0.00     0.000 C 
HETATM   33  C1  UNL     1      -3.613   1.607  -2.658  1.00  0.00     0.000 C 
HETATM   34  C32 UNL     1      -5.648   0.088  -2.459  1.00  0.00     0.000 C 
ENDBRANCH   1  32
TORSDOF 3
