REMARK  2 active torsions:
REMARK  status: ('A' for Active; 'I' for Inactive)
REMARK    1  A    between atoms: C7_7  and  C12_13 
REMARK    2  A    between atoms: C13_14  and  C14_15 
ROOT
HETATM    1  C1  UNL     1      -3.074  -0.188   0.951  1.00  0.00     0.000 C 
HETATM    2  C2  UNL     1      -3.049  -1.580   0.308  1.00  0.00     0.000 C 
HETATM    3  C3  UNL     1      -1.721  -2.328   0.545  1.00  0.00     0.000 C 
HETATM    4  C4  UNL     1      -0.527  -1.430   0.117  1.00  0.00     0.001 C 
HETATM    5  C5  UNL     1      -0.522  -0.023   0.791  1.00  0.00     0.006 C 
HETATM    6  C6  UNL     1      -1.879   0.662   0.502  1.00  0.00     0.000 C 
HETATM    7  C7  UNL     1       0.652   0.795   0.183  1.00  0.00     0.050 C 
HETATM    8  C8  UNL     1       2.053   0.121   0.402  1.00  0.00     0.131 C 
HETATM    9  C9  UNL     1       1.961  -1.356   0.855  1.00  0.00     0.031 C 
HETATM   10  C10 UNL     1       0.844  -2.154   0.170  1.00  0.00     0.003 C 
HETATM   11  C11 UNL     1       2.951   0.885   1.389  1.00  0.00     0.033 C 
HETATM   12  O1  UNL     1       2.752   0.143  -0.828  1.00  0.00    -0.226 OA
HETATM   13  C18 UNL     1      -0.352  -0.115   2.316  1.00  0.00     0.000 C 
HETATM   14  C19 UNL     1      -1.607  -2.740   2.018  1.00  0.00     0.000 C 
HETATM   15  C20 UNL     1      -1.740  -3.609  -0.299  1.00  0.00     0.000 C 
ENDROOT
BRANCH   7  16
HETATM   16  C12 UNL     1       0.631   2.244   0.619  1.00  0.00    -0.024 C 
HETATM   17  C13 UNL     1       0.699   3.197  -0.326  1.00  0.00    -0.009 C 
BRANCH  17  18
HETATM   18  C14 UNL     1       0.791   2.838  -1.746  1.00  0.00    -0.026 C 
HETATM   19  C15 UNL     1      -0.477   2.523  -2.492  1.00  0.00     0.031 C 
HETATM   20  C16 UNL     1       1.957   2.777  -2.410  1.00  0.00    -0.030 C 
HETATM   21  C17 UNL     1       1.936   2.398  -3.867  1.00  0.00     0.030 C 
ENDBRANCH  17  18
ENDBRANCH   7  16
TORSDOF 2
