REMARK  7 active torsions:
REMARK  status: ('A' for Active; 'I' for Inactive)
REMARK    1  A    between atoms: C1_1  and  C26_33 
REMARK    2  A    between atoms: C5_5  and  O2_7 
REMARK    3  A    between atoms: O2_7  and  C6_8 
REMARK    4  A    between atoms: C6_8  and  C7_9 
REMARK    5  A    between atoms: C14_16  and  C19_21 
REMARK    6  A    between atoms: C19_21  and  C20_22 
REMARK    7  A    between atoms: C20_22  and  C21_23 
ROOT
HETATM    1  C7  UNL     1      -0.420   0.984  -0.934  1.00  0.00     0.028 C 
HETATM    2  C8  UNL     1       0.836   0.131  -1.309  1.00  0.00     0.003 C 
HETATM    3  C9  UNL     1       0.668  -1.387  -1.008  1.00  0.00     0.004 C 
HETATM    4  C10 UNL     1      -0.547  -1.951  -1.803  1.00  0.00     0.000 C 
HETATM    5  C11 UNL     1      -1.633  -0.914  -2.131  1.00  0.00     0.000 C 
HETATM    6  C12 UNL     1      -1.727   0.164  -1.053  1.00  0.00     0.002 C 
HETATM    7  C13 UNL     1       0.422  -1.572   0.500  1.00  0.00     0.000 C 
HETATM    8  C14 UNL     1       1.941  -2.178  -1.414  1.00  0.00     0.019 C 
HETATM    9  C15 UNL     1       3.199  -1.545  -0.851  1.00  0.00    -0.044 C 
HETATM   10  C16 UNL     1       3.385  -0.074  -1.129  1.00  0.00     0.022 C 
HETATM   11  C17 UNL     1       2.141   0.709  -0.707  1.00  0.00     0.004 C 
HETATM   12  C18 UNL     1       4.107  -2.236  -0.137  1.00  0.00    -0.009 C 
HETATM   13  C25 UNL     1      -0.492   2.189  -1.881  1.00  0.00     0.003 C 
ENDROOT
BRANCH   1  14
HETATM   14  C6  UNL     1      -0.338   1.529   0.500  1.00  0.00     0.145 C 
BRANCH  14  15
HETATM   15  O2  UNL     1      -1.535   2.217   0.779  1.00  0.00    -0.329 OA
BRANCH  15  16
HETATM   16  C5  UNL     1      -1.586   2.738   2.098  1.00  0.00     0.270 C 
HETATM   17  C4  UNL     1      -1.959   1.639   3.127  1.00  0.00     0.241 C 
HETATM   18  C3  UNL     1      -1.900   2.205   4.570  1.00  0.00     0.220 C 
HETATM   19  O5  UNL     1      -3.264   1.141   2.869  1.00  0.00    -0.215 OA
HETATM   20  C2  UNL     1      -2.066   3.748   4.576  1.00  0.00     0.215 C 
HETATM   21  O6  UNL     1      -0.648   1.883   5.145  1.00  0.00    -0.218 OA
HETATM   22  C1  UNL     1      -2.994   4.213   3.432  1.00  0.00     0.184 C 
HETATM   23  O7  UNL     1      -2.606   4.156   5.821  1.00  0.00    -0.218 OA
HETATM   24  O1  UNL     1      -2.463   3.865   2.151  1.00  0.00    -0.326 OA
BRANCH  22  25
HETATM   25  C26 UNL     1      -3.244   5.725   3.408  1.00  0.00     0.214 C 
HETATM   26  O8  UNL     1      -4.256   5.990   2.465  1.00  0.00    -0.218 OA
ENDBRANCH  22  25
ENDBRANCH  15  16
ENDBRANCH  14  15
ENDBRANCH   1  14
BRANCH   8  27
HETATM   27  C19 UNL     1       1.822  -3.674  -1.076  1.00  0.00     0.009 C 
BRANCH  27  28
HETATM   28  C20 UNL     1       2.721  -4.549  -1.951  1.00  0.00     0.032 C 
BRANCH  28  29
HETATM   29  C21 UNL     1       2.236  -4.629  -3.375  1.00  0.00     0.039 A 
HETATM   30  C22 UNL     1       2.897  -4.049  -4.531  1.00  0.00     0.292 A 
HETATM   31  O3  UNL     1       2.191  -4.307  -5.641  1.00  0.00    -0.294 OA
HETATM   32  O4  UNL     1       3.932  -3.426  -4.475  1.00  0.00    -0.260 OA
HETATM   33  C23 UNL     1       1.029  -5.074  -5.277  1.00  0.00     0.178 A 
HETATM   34  C24 UNL     1       1.127  -5.244  -3.783  1.00  0.00     0.007 A 
ENDBRANCH  28  29
ENDBRANCH  27  28
ENDBRANCH   8  27
TORSDOF 7
