REMARK  3 active torsions:
REMARK  status: ('A' for Active; 'I' for Inactive)
REMARK    1  A    between atoms: C5_5  and  C7_7 
REMARK    2  A    between atoms: C8_8  and  C9_9 
REMARK    3  A    between atoms: C9_9  and  C10_11 
ROOT
HETATM    1  C7  UNL     1       0.268   0.598  -1.119  1.00  0.00     0.085 C 
HETATM    2  C8  UNL     1      -0.162   1.525   0.033  1.00  0.00     0.125 C 
HETATM    3  N1  UNL     1      -0.004   2.873  -0.496  1.00  0.00    -0.315 N 
HETATM    4  C16 UNL     1       0.055   4.062   0.349  1.00  0.00     0.128 C 
HETATM    5  C17 UNL     1       0.076   2.894  -1.889  1.00  0.00     0.265 C 
HETATM    6  C18 UNL     1      -0.043   1.467  -2.360  1.00  0.00     0.236 C 
HETATM    7  O2  UNL     1       0.871   1.195  -3.405  1.00  0.00    -0.213 OA
HETATM    8  O3  UNL     1       0.217   3.893  -2.559  1.00  0.00    -0.270 OA
ENDROOT
BRANCH   2   9
HETATM    9  C9  UNL     1       0.674   1.271   1.285  1.00  0.00     0.195 C 
HETATM   10  O1  UNL     1       0.092   1.976   2.357  1.00  0.00    -0.217 OA
BRANCH   9  11
HETATM   11  C10 UNL     1       0.732  -0.176   1.619  1.00  0.00     0.010 A 
HETATM   12  C11 UNL     1       1.959  -0.863   1.560  1.00  0.00    -0.002 A 
HETATM   13  C12 UNL     1       2.014  -2.233   1.877  1.00  0.00    -0.000 A 
HETATM   14  C13 UNL     1       0.844  -2.916   2.250  1.00  0.00    -0.000 A 
HETATM   15  C14 UNL     1      -0.383  -2.231   2.306  1.00  0.00    -0.000 A 
HETATM   16  C15 UNL     1      -0.438  -0.861   1.992  1.00  0.00    -0.002 A 
ENDBRANCH   9  11
ENDBRANCH   2   9
BRANCH   1  17
HETATM   17  C5  UNL     1      -0.430  -0.717  -1.119  1.00  0.00    -0.018 A 
HETATM   18  C4  UNL     1       0.316  -1.908  -1.119  1.00  0.00    -0.004 A 
HETATM   19  C3  UNL     1      -0.342  -3.151  -1.119  1.00  0.00    -0.000 A 
HETATM   20  C2  UNL     1      -1.746  -3.201  -1.119  1.00  0.00    -0.000 A 
HETATM   21  C1  UNL     1      -2.492  -2.010  -1.119  1.00  0.00    -0.000 A 
HETATM   22  C6  UNL     1      -1.834  -0.768  -1.119  1.00  0.00    -0.004 A 
ENDBRANCH   1  17
TORSDOF 3
