REMARK  2 active torsions:
REMARK  status: ('A' for Active; 'I' for Inactive)
REMARK    1  A    between atoms: C10_10  and  O1_11 
REMARK    2  A    between atoms: O1_11  and  C11_12 
ROOT
HETATM    1  C1  UNL     1       2.978   1.055   0.599  1.00  0.00    -0.023 C 
HETATM    2  C2  UNL     1       3.465  -0.102   0.137  1.00  0.00     0.033 C 
HETATM    3  C3  UNL     1       2.398  -0.879  -0.479  1.00  0.00     0.174 C 
HETATM    4  C4  UNL     1       1.158  -0.024  -0.596  1.00  0.00     0.085 C 
HETATM    5  C5  UNL     1       1.480   1.123   0.404  1.00  0.00     0.031 C 
HETATM    6  C6  UNL     1       0.906   2.512   0.053  1.00  0.00     0.007 C 
HETATM    7  C7  UNL     1      -0.473   2.477  -0.651  1.00  0.00     0.031 C 
HETATM    8  C8  UNL     1      -1.565   1.570  -0.063  1.00  0.00     0.127 C 
HETATM    9  C9  UNL     1      -1.233   0.172   0.510  1.00  0.00     0.066 C 
HETATM   10  C10 UNL     1      -0.184  -0.705  -0.225  1.00  0.00     0.134 C 
HETATM   11  C13 UNL     1      -2.653  -0.426   0.467  1.00  0.00     0.091 C 
HETATM   12  C14 UNL     1      -3.239   0.273  -0.721  1.00  0.00     0.271 C 
HETATM   13  O3  UNL     1      -2.574   1.371  -1.053  1.00  0.00    -0.304 OA
HETATM   14  O4  UNL     1      -4.213  -0.143  -1.307  1.00  0.00    -0.264 OA
HETATM   15  C15 UNL     1      -2.742  -1.947   0.390  1.00  0.00     0.011 C 
HETATM   16  C16 UNL     1       0.853   3.344   1.342  1.00  0.00     0.000 C 
HETATM   17  C17 UNL     1       1.178   0.432  -2.055  1.00  0.00     0.011 C 
HETATM   18  O5  UNL     1       2.496  -2.027  -0.844  1.00  0.00    -0.291 OA
ENDROOT
BRANCH  10  19
HETATM   19  O1  UNL     1       0.088  -1.818   0.621  1.00  0.00    -0.304 OA
BRANCH  19  20
HETATM   20  C11 UNL     1       0.160  -2.961  -0.055  1.00  0.00     0.272 C 
HETATM   21  C12 UNL     1       0.238  -4.203   0.793  1.00  0.00     0.106 C 
HETATM   22  O2  UNL     1       0.166  -3.031  -1.262  1.00  0.00    -0.264 OA
ENDBRANCH  19  20
ENDBRANCH  10  19
TORSDOF 2
