REMARK  0 active torsions:
REMARK  status: ('A' for Active; 'I' for Inactive)
ROOT
HETATM    1  C1  UNL     1      -4.681  -2.006  -1.448  1.00  0.00     0.182 C 
HETATM    2  C2  UNL     1      -5.403  -2.855  -0.419  1.00  0.00     0.182 C 
HETATM    3  C3  UNL     1      -4.500  -3.333   0.719  1.00  0.00     0.036 C 
HETATM    4  C4  UNL     1      -3.109  -2.672   0.738  1.00  0.00     0.003 C 
HETATM    5  C5  UNL     1      -3.153  -1.141   0.512  1.00  0.00     0.003 C 
HETATM    6  C6  UNL     1      -3.839  -0.870  -0.859  1.00  0.00     0.036 C 
HETATM    7  C7  UNL     1      -1.685  -0.602   0.501  1.00  0.00     0.000 C 
HETATM    8  C8  UNL     1      -0.893  -0.996   1.766  1.00  0.00     0.000 C 
HETATM    9  C9  UNL     1      -0.907  -2.521   1.970  1.00  0.00     0.000 C 
HETATM   10  C10 UNL     1      -2.337  -3.072   2.007  1.00  0.00     0.000 C 
HETATM   11  C11 UNL     1       0.545  -0.443   1.802  1.00  0.00     0.003 C 
HETATM   12  C12 UNL     1       0.696   1.068   1.486  1.00  0.00     0.003 C 
HETATM   13  C13 UNL     1      -0.097   1.383   0.203  1.00  0.00     0.000 C 
HETATM   14  C14 UNL     1      -1.561   0.915   0.264  1.00  0.00     0.000 C 
HETATM   15  C15 UNL     1       2.240   1.169   1.378  1.00  0.00     0.032 C 
HETATM   16  C16 UNL     1       2.692  -0.131   0.723  1.00  0.00     0.118 C 
HETATM   17  C17 UNL     1       1.548  -1.133   0.861  1.00  0.00     0.030 C 
HETATM   18  O1  UNL     1       2.957   0.154  -0.615  1.00  0.00    -0.337 OA
HETATM   19  C18 UNL     1       3.431   1.473  -0.729  1.00  0.00     0.187 C 
HETATM   20  C19 UNL     1       3.027   2.201   0.560  1.00  0.00     0.054 C 
HETATM   21  C20 UNL     1       2.461   3.616   0.416  1.00  0.00     0.005 C 
HETATM   22  C21 UNL     1       4.943   1.479  -0.934  1.00  0.00     0.056 C 
HETATM   23  C22 UNL     1       5.337   0.848  -2.273  1.00  0.00     0.007 C 
HETATM   24  C23 UNL     1       4.537   1.502  -3.408  1.00  0.00     0.030 C 
HETATM   25  C24 UNL     1       3.049   1.456  -3.060  1.00  0.00     0.145 C 
HETATM   26  O2  UNL     1       2.771   2.065  -1.822  1.00  0.00    -0.335 OA
HETATM   27  C25 UNL     1       5.014   2.932  -3.713  1.00  0.00     0.003 C 
HETATM   28  C26 UNL     1       0.194   1.939   2.657  1.00  0.00     0.000 C 
HETATM   29  C27 UNL     1      -3.982  -0.448   1.623  1.00  0.00     0.000 C 
HETATM   30  O3  UNL     1      -6.494  -2.125   0.093  1.00  0.00    -0.221 OA
HETATM   31  O4  UNL     1      -3.870  -2.841  -2.244  1.00  0.00    -0.221 OA
ENDROOT
TORSDOF 0
