REMARK  8 active torsions:
REMARK  status: ('A' for Active; 'I' for Inactive)
REMARK    1  A    between atoms: C7_7  and  C10_12 
REMARK    2  A    between atoms: N1_9  and  O1_10 
REMARK    3  A    between atoms: C10_12  and  C11_13 
REMARK    4  A    between atoms: C11_13  and  S2_20 
REMARK    5  A    between atoms: N2_14  and  O2_15 
REMARK    6  A    between atoms: O2_15  and  S1_16 
REMARK    7  A    between atoms: S2_20  and  C12_21 
REMARK    8  A    between atoms: C16_25  and  C17_27 
ROOT
HETATM    1  C11 UNL     1       2.213  -1.269  -0.391  1.00  0.00     0.119 C 
HETATM    2  N2  UNL     1       1.704  -2.354  -0.843  1.00  0.00    -0.110 NA
ENDROOT
BRANCH   1   3
HETATM    3  C10 UNL     1       2.868  -0.321  -1.359  1.00  0.00     0.083 C 
BRANCH   3   4
HETATM    4  C7  UNL     1       1.860   0.719  -1.809  1.00  0.00     0.005 A 
HETATM    5  C5  UNL     1       0.923   0.592  -2.799  1.00  0.00     0.016 A 
HETATM    6  C4  UNL     1       0.157   1.722  -2.963  1.00  0.00     0.087 A 
HETATM    7  C6  UNL     1       0.705  -0.548  -3.612  1.00  0.00     0.001 A 
HETATM    8  C3  UNL     1      -0.870   1.813  -3.928  1.00  0.00     0.020 A 
HETATM    9  N1  UNL     1       0.662   2.576  -2.016  1.00  0.00    -0.217 N 
HETATM   10  C2  UNL     1      -1.105   0.681  -4.751  1.00  0.00     0.002 A 
HETATM   11  C1  UNL     1      -0.320  -0.495  -4.594  1.00  0.00     0.000 A 
HETATM   12  C8  UNL     1       1.712   2.018  -1.274  1.00  0.00     0.101 A 
BRANCH   9  13
HETATM   13  O1  UNL     1       0.166   3.906  -1.805  1.00  0.00    -0.251 OA
HETATM   14  C9  UNL     1       0.809   4.711  -0.828  1.00  0.00     0.209 C 
ENDBRANCH   9  13
ENDBRANCH   3   4
ENDBRANCH   1   3
BRANCH   1  15
HETATM   15  S2  UNL     1       2.196  -0.828   1.239  1.00  0.00    -0.065 SA
BRANCH  15  16
HETATM   16  C12 UNL     1       0.486  -0.841   1.621  1.00  0.00     0.201 C 
HETATM   17  C13 UNL     1       0.233  -1.431   3.024  1.00  0.00     0.223 C 
HETATM   18  C14 UNL     1      -1.259  -1.337   3.412  1.00  0.00     0.218 C 
HETATM   19  O10 UNL     1       0.651  -2.784   3.024  1.00  0.00    -0.217 OA
HETATM   20  C15 UNL     1      -1.757   0.110   3.204  1.00  0.00     0.215 C 
HETATM   21  O9  UNL     1      -1.429  -1.717   4.768  1.00  0.00    -0.218 OA
HETATM   22  C16 UNL     1      -1.403   0.630   1.792  1.00  0.00     0.182 C 
HETATM   23  O8  UNL     1      -3.164   0.163   3.369  1.00  0.00    -0.218 OA
HETATM   24  O6  UNL     1      -0.004   0.493   1.573  1.00  0.00    -0.340 OA
BRANCH  22  25
HETATM   25  C17 UNL     1      -1.739   2.112   1.600  1.00  0.00     0.214 C 
HETATM   26  O7  UNL     1      -1.622   2.417   0.229  1.00  0.00    -0.218 OA
ENDBRANCH  22  25
ENDBRANCH  15  16
ENDBRANCH   1  15
BRANCH   2  27
HETATM   27  O2  UNL     1       1.072  -3.278   0.055  1.00  0.00    -0.106 OA
BRANCH  27  28
HETATM   28  S1  UNL     1       0.414  -4.608  -0.356  1.00  0.00     0.275 S 
HETATM   29  O3  UNL     1       0.097  -5.224   1.053  1.00  0.00    -0.571 OA
HETATM   30  O4  UNL     1      -0.847  -4.431  -1.055  1.00  0.00    -0.571 OA
HETATM   31  O5  UNL     1       1.324  -5.511  -1.038  1.00  0.00    -0.571 OA
ENDBRANCH  27  28
ENDBRANCH   2  27
TORSDOF 8
