REMARK  10 active torsions:
REMARK  status: ('A' for Active; 'I' for Inactive)
REMARK    1  A    between atoms: C4_4  and  O2_7 
REMARK    2  A    between atoms: O2_7  and  C6_8 
REMARK    3  A    between atoms: C6_8  and  C7_9 
REMARK    4  A    between atoms: C11_13  and  O4_15 
REMARK    5  A    between atoms: O4_15  and  C12_16 
REMARK    6  A    between atoms: C12_16  and  C13_17 
REMARK    7  A    between atoms: C12_16  and  C16_20 
REMARK    8  A    between atoms: C16_20  and  C17_21 
REMARK    9  A    between atoms: C17_21  and  C18_22 
REMARK   10  A    between atoms: C19_23  and  C21_25 
ROOT
HETATM    1  C7  UNL     1      -2.340  -0.772   0.654  1.00  0.00     0.180 C 
HETATM    2  C8  UNL     1      -3.045  -1.990   1.289  1.00  0.00     0.215 C 
HETATM    3  C9  UNL     1      -2.078  -3.190   1.432  1.00  0.00     0.220 C 
HETATM    4  C10 UNL     1      -0.777  -2.738   2.133  1.00  0.00     0.241 C 
HETATM    5  C11 UNL     1      -0.191  -1.473   1.459  1.00  0.00     0.270 C 
HETATM    6  O3  UNL     1      -1.180  -0.451   1.410  1.00  0.00    -0.326 OA
HETATM    7  O6  UNL     1       0.176  -3.785   2.072  1.00  0.00    -0.215 OA
HETATM    8  O7  UNL     1      -2.699  -4.219   2.184  1.00  0.00    -0.218 OA
HETATM    9  O8  UNL     1      -4.145  -2.356   0.475  1.00  0.00    -0.218 OA
ENDROOT
BRANCH   5  10
HETATM   10  O4  UNL     1       0.914  -0.986   2.191  1.00  0.00    -0.330 OA
BRANCH  10  11
HETATM   11  C12 UNL     1       1.977  -0.555   1.373  1.00  0.00     0.114 C 
HETATM   12  C15 UNL     1       3.067   0.029   2.271  1.00  0.00     0.034 C 
BRANCH  11  13
HETATM   13  C13 UNL     1       1.313   0.492   0.519  1.00  0.00     0.000 C 
HETATM   14  C14 UNL     1       1.660   0.578  -0.775  1.00  0.00    -0.003 C 
ENDBRANCH  11  13
BRANCH  11  15
HETATM   15  C16 UNL     1       2.467  -1.750   0.555  1.00  0.00     0.036 C 
BRANCH  15  16
HETATM   16  C17 UNL     1       3.955  -1.662   0.213  1.00  0.00     0.028 C 
BRANCH  16  17
HETATM   17  C18 UNL     1       4.375  -2.701  -0.791  1.00  0.00    -0.032 C 
HETATM   18  C19 UNL     1       5.541  -2.535  -1.436  1.00  0.00    -0.015 C 
HETATM   19  C20 UNL     1       6.367  -1.317  -1.123  1.00  0.00     0.029 C 
BRANCH  18  20
HETATM   20  C21 UNL     1       5.963  -3.574  -2.440  1.00  0.00     0.204 C 
HETATM   21  O5  UNL     1       5.121  -3.504  -3.570  1.00  0.00    -0.216 OA
ENDBRANCH  18  20
ENDBRANCH  16  17
ENDBRANCH  15  16
ENDBRANCH  11  15
ENDBRANCH  10  11
ENDBRANCH   5  10
BRANCH   1  22
HETATM   22  C6  UNL     1      -3.217   0.484   0.641  1.00  0.00     0.177 C 
BRANCH  22  23
HETATM   23  O2  UNL     1      -2.551   1.480  -0.104  1.00  0.00    -0.326 OA
BRANCH  23  24
HETATM   24  C4  UNL     1      -3.248   2.709  -0.139  1.00  0.00     0.270 C 
HETATM   25  C3  UNL     1      -2.365   3.816  -0.772  1.00  0.00     0.241 C 
HETATM   26  C2  UNL     1      -3.164   5.127  -0.963  1.00  0.00     0.220 C 
HETATM   27  O9  UNL     1      -1.250   4.066   0.068  1.00  0.00    -0.215 OA
HETATM   28  C1  UNL     1      -4.494   4.826  -1.690  1.00  0.00     0.215 C 
HETATM   29  O10 UNL     1      -2.402   6.051  -1.723  1.00  0.00    -0.218 OA
HETATM   30  C5  UNL     1      -5.262   3.682  -1.000  1.00  0.00     0.181 C 
HETATM   31  O11 UNL     1      -5.320   5.975  -1.695  1.00  0.00    -0.218 OA
HETATM   32  O1  UNL     1      -4.428   2.533  -0.912  1.00  0.00    -0.326 OA
ENDBRANCH  23  24
ENDBRANCH  22  23
ENDBRANCH   1  22
TORSDOF 10
