REMARK  1 active torsions:
REMARK  status: ('A' for Active; 'I' for Inactive)
REMARK    1  A    between atoms: C19_19  and  C22_22 
ROOT
HETATM    1  C1  UNL     1      -5.387   1.316  -1.223  1.00  0.00     0.000 C 
HETATM    2  C2  UNL     1      -5.678   1.281   0.289  1.00  0.00     0.000 C 
HETATM    3  C3  UNL     1      -5.137   0.006   0.959  1.00  0.00     0.000 C 
HETATM    4  C4  UNL     1      -3.582  -0.057   0.809  1.00  0.00     0.000 C 
HETATM    5  C5  UNL     1      -3.027   0.619  -0.496  1.00  0.00     0.000 C 
HETATM    6  C6  UNL     1      -4.098   0.561  -1.608  1.00  0.00     0.000 C 
HETATM    7  C7  UNL     1      -1.713  -0.082  -0.959  1.00  0.00     0.004 C 
HETATM    8  C8  UNL     1      -0.785  -0.451   0.248  1.00  0.00     0.003 C 
HETATM    9  C9  UNL     1      -1.496  -1.563   1.066  1.00  0.00     0.000 C 
HETATM   10  C10 UNL     1      -3.035  -1.490   1.008  1.00  0.00     0.000 C 
HETATM   11  C11 UNL     1       0.627  -0.889  -0.260  1.00  0.00     0.015 C 
HETATM   12  C12 UNL     1       1.205   0.322  -0.996  1.00  0.00    -0.049 C 
HETATM   13  C13 UNL     1       0.445   1.004  -1.881  1.00  0.00    -0.034 C 
HETATM   14  C14 UNL     1      -0.994   0.631  -2.137  1.00  0.00     0.025 C 
HETATM   15  C15 UNL     1       2.609   0.799  -0.701  1.00  0.00     0.018 C 
HETATM   16  C16 UNL     1       3.506  -0.236  -0.027  1.00  0.00     0.003 C 
HETATM   17  C17 UNL     1       2.783  -0.613   1.266  1.00  0.00     0.001 C 
HETATM   18  C18 UNL     1       1.522  -1.424   0.914  1.00  0.00     0.004 C 
HETATM   19  C19 UNL     1       4.772   0.615   0.125  1.00  0.00     0.000 C 
HETATM   20  C20 UNL     1       4.889   1.299  -1.246  1.00  0.00     0.000 C 
HETATM   21  C21 UNL     1       3.484   1.258  -1.865  1.00  0.00     0.004 C 
HETATM   22  C25 UNL     1       3.797  -1.459  -0.910  1.00  0.00     0.000 C 
HETATM   23  C26 UNL     1       0.490  -2.012  -1.305  1.00  0.00     0.004 C 
HETATM   24  C27 UNL     1      -0.588   0.764   1.180  1.00  0.00     0.000 C 
HETATM   25  C28 UNL     1      -2.732   2.107  -0.215  1.00  0.00     0.000 C 
HETATM   26  C29 UNL     1      -5.828  -1.209   0.326  1.00  0.00     0.000 C 
HETATM   27  C30 UNL     1      -5.504   0.016   2.447  1.00  0.00     0.000 C 
ENDROOT
BRANCH  19  28
HETATM   28  C22 UNL     1       6.022  -0.172   0.506  1.00  0.00     0.000 C 
HETATM   29  C23 UNL     1       5.842  -0.773   1.900  1.00  0.00     0.000 C 
HETATM   30  C24 UNL     1       7.246   0.738   0.410  1.00  0.00     0.000 C 
ENDBRANCH  19  28
TORSDOF 1
