REMARK  5 active torsions:
REMARK  status: ('A' for Active; 'I' for Inactive)
REMARK    1  A    between atoms: C2_2  and  O7_29 
REMARK    2  A    between atoms: C3_3  and  O6_27 
REMARK    3  A    between atoms: C4_4  and  O5_25 
REMARK    4  A    between atoms: C16_18  and  O4_23 
REMARK    5  A    between atoms: C17_19  and  O3_21 
ROOT
HETATM    1  C1  UNL     1      -1.738  -0.640  -0.836  1.00  0.00     0.026 C 
HETATM    2  C2  UNL     1      -2.174  -1.909  -0.883  1.00  0.00     0.118 C 
HETATM    3  C3  UNL     1      -1.467  -2.844  -0.213  1.00  0.00     0.138 C 
HETATM    4  C4  UNL     1      -0.331  -2.500   0.440  1.00  0.00     0.114 C 
HETATM    5  C5  UNL     1       0.016  -1.193   0.549  1.00  0.00     0.003 C 
HETATM    6  C6  UNL     1      -0.654  -0.244  -0.143  1.00  0.00    -0.000 C 
HETATM    7  C7  UNL     1      -0.332   1.071  -0.197  1.00  0.00    -0.002 C 
HETATM    8  C8  UNL     1       0.903   1.558  -0.448  1.00  0.00    -0.020 C 
HETATM    9  C9  UNL     1       2.107   0.716  -0.845  1.00  0.00     0.029 C 
HETATM   10  C10 UNL     1       2.955   0.375   0.375  1.00  0.00     0.044 C 
HETATM   11  C11 UNL     1       2.505  -0.937   1.001  1.00  0.00     0.094 C 
HETATM   12  C12 UNL     1       1.095  -0.825   1.568  1.00  0.00     0.038 C 
HETATM   13  C13 UNL     1       3.679  -1.213   1.917  1.00  0.00     0.272 C 
HETATM   14  O1  UNL     1       4.788  -0.681   1.327  1.00  0.00    -0.302 OA
HETATM   15  C14 UNL     1       4.433   0.067   0.187  1.00  0.00     0.153 C 
HETATM   16  O2  UNL     1       3.665  -1.835   2.955  1.00  0.00    -0.264 OA
HETATM   17  C15 UNL     1       1.074   2.893  -0.486  1.00  0.00     0.022 C 
HETATM   18  C16 UNL     1       0.083   3.786  -0.326  1.00  0.00     0.116 C 
HETATM   19  C17 UNL     1      -1.135   3.311   0.005  1.00  0.00     0.116 C 
HETATM   20  C18 UNL     1      -1.316   1.978  -0.015  1.00  0.00     0.026 C 
ENDROOT
BRANCH   2  21
HETATM   21  O7  UNL     1      -3.281  -2.263  -1.618  1.00  0.00    -0.326 OA
HETATM   22  C23 UNL     1      -4.485  -1.627  -1.246  1.00  0.00     0.181 C 
ENDBRANCH   2  21
BRANCH   3  23
HETATM   23  O6  UNL     1      -1.850  -4.162  -0.296  1.00  0.00    -0.324 OA
HETATM   24  C22 UNL     1      -2.733  -4.569   0.724  1.00  0.00     0.182 C 
ENDBRANCH   3  23
BRANCH   4  25
HETATM   25  O5  UNL     1       0.354  -3.464   1.147  1.00  0.00    -0.326 OA
HETATM   26  C21 UNL     1       1.162  -4.327   0.375  1.00  0.00     0.181 C 
ENDBRANCH   4  25
BRANCH  19  27
HETATM   27  O3  UNL     1      -2.200   4.159   0.186  1.00  0.00    -0.326 OA
HETATM   28  C19 UNL     1      -2.350   4.603   1.515  1.00  0.00     0.181 C 
ENDBRANCH  19  27
BRANCH  18  29
HETATM   29  O4  UNL     1       0.347   5.133  -0.349  1.00  0.00    -0.326 OA
HETATM   30  C20 UNL     1       0.157   5.726  -1.613  1.00  0.00     0.181 C 
ENDBRANCH  18  29
TORSDOF 5
