REMARK  5 active torsions:
REMARK  status: ('A' for Active; 'I' for Inactive)
REMARK    1  A    between atoms: C15_15  and  C18_18 
REMARK    2  A    between atoms: C18_18  and  C19_19 
REMARK    3  A    between atoms: C19_19  and  C20_20 
REMARK    4  A    between atoms: C20_20  and  C21_21 
REMARK    5  A    between atoms: C22_22  and  C23_23 
ROOT
HETATM    1  C1  UNL     1      -5.707   0.395  -0.701  1.00  0.00     0.065 C 
HETATM    2  C2  UNL     1      -6.416  -0.525   0.266  1.00  0.00     0.150 C 
HETATM    3  C3  UNL     1      -5.850  -1.922   0.424  1.00  0.00     0.052 C 
HETATM    4  C4  UNL     1      -4.319  -1.891   0.758  1.00  0.00     0.010 C 
HETATM    5  C5  UNL     1      -3.582  -0.582   0.303  1.00  0.00     0.015 C 
HETATM    6  C6  UNL     1      -4.256  -0.035  -0.973  1.00  0.00     0.011 C 
HETATM    7  C7  UNL     1      -2.094  -0.797   0.080  1.00  0.00    -0.052 C 
HETATM    8  C8  UNL     1      -1.451  -1.957   0.246  1.00  0.00    -0.052 C 
HETATM    9  C9  UNL     1      -2.137  -3.225   0.685  1.00  0.00     0.021 C 
HETATM   10  C10 UNL     1      -3.611  -3.182   0.275  1.00  0.00     0.005 C 
HETATM   11  C11 UNL     1       0.018  -1.840  -0.057  1.00  0.00     0.018 C 
HETATM   12  C12 UNL     1       0.080  -0.519  -0.871  1.00  0.00     0.026 C 
HETATM   13  C13 UNL     1      -1.131   0.277  -0.352  1.00  0.00     0.026 C 
HETATM   14  C14 UNL     1       1.387   0.250  -0.824  1.00  0.00    -0.044 C 
HETATM   15  C15 UNL     1       2.256   0.150   0.416  1.00  0.00     0.018 C 
HETATM   16  C16 UNL     1       2.236  -1.269   1.000  1.00  0.00     0.004 C 
HETATM   17  C17 UNL     1       0.805  -1.754   1.260  1.00  0.00     0.004 C 
HETATM   18  C26 UNL     1       1.756   1.002  -1.877  1.00  0.00    -0.009 C 
HETATM   19  C27 UNL     1       0.519  -2.984  -0.940  1.00  0.00     0.004 C 
HETATM   20  C28 UNL     1      -3.678   0.479   1.412  1.00  0.00     0.004 C 
HETATM   21  C29 UNL     1      -6.139  -2.633  -0.906  1.00  0.00     0.007 C 
HETATM   22  C30 UNL     1      -6.600  -2.682   1.527  1.00  0.00     0.007 C 
HETATM   23  O3  UNL     1      -7.387  -0.146   0.881  1.00  0.00    -0.296 OA
ENDROOT
BRANCH  15  24
HETATM   24  C18 UNL     1       3.703   0.606   0.176  1.00  0.00     0.004 C 
HETATM   25  C25 UNL     1       4.707  -0.121   1.074  1.00  0.00     0.000 C 
BRANCH  24  26
HETATM   26  C19 UNL     1       3.859   2.125   0.226  1.00  0.00     0.005 C 
BRANCH  26  27
HETATM   27  C20 UNL     1       5.070   2.619  -0.565  1.00  0.00     0.026 C 
BRANCH  27  28
HETATM   28  C21 UNL     1       5.203   4.117  -0.537  1.00  0.00    -0.024 C 
HETATM   29  C22 UNL     1       6.436   4.652  -0.535  1.00  0.00     0.038 C 
HETATM   30  C24 UNL     1       6.566   6.152  -0.506  1.00  0.00     0.037 C 
BRANCH  29  31
HETATM   31  C23 UNL     1       7.658   3.842  -0.561  1.00  0.00     0.206 C 
HETATM   32  O1  UNL     1       8.180   3.621  -1.764  1.00  0.00    -0.644 OA
HETATM   33  O2  UNL     1       8.135   3.420   0.467  1.00  0.00    -0.644 OA
ENDBRANCH  29  31
ENDBRANCH  27  28
ENDBRANCH  26  27
ENDBRANCH  24  26
ENDBRANCH  15  24
TORSDOF 5
