REMARK  9 active torsions:
REMARK  status: ('A' for Active; 'I' for Inactive)
REMARK    1  A    between atoms: C1_1  and  C2_2 
REMARK    2  A    between atoms: C1_1  and  C24_30 
REMARK    3  A    between atoms: C2_2  and  C3_3 
REMARK    4  A    between atoms: C2_2  and  C21_27 
REMARK    5  A    between atoms: C3_3  and  C4_4 
REMARK    6  A    between atoms: C7_8  and  O6_25 
REMARK    7  A    between atoms: C10_12  and  C13_16 
REMARK    8  A    between atoms: C14_17  and  O5_23 
REMARK    9  A    between atoms: C24_30  and  C25_31 
ROOT
HETATM    1  C4  UNL     1      -1.340  -0.801   1.252  1.00  0.00     0.026 A 
HETATM    2  C5  UNL     1      -2.479  -1.586   1.566  1.00  0.00     0.131 A 
HETATM    3  O1  UNL     1      -3.713  -1.098   1.377  1.00  0.00    -0.190 OA
HETATM    4  C6  UNL     1      -2.317  -2.893   2.084  1.00  0.00     0.051 A 
HETATM    5  C7  UNL     1      -1.022  -3.424   2.289  1.00  0.00     0.101 A 
HETATM    6  C8  UNL     1       0.117  -2.639   1.973  1.00  0.00     0.084 A 
HETATM    7  C9  UNL     1      -0.041  -1.324   1.455  1.00  0.00     0.103 A 
HETATM    8  O2  UNL     1       1.047  -0.576   1.156  1.00  0.00    -0.307 OA
HETATM    9  C10 UNL     1       2.316  -1.002   1.322  1.00  0.00     0.105 A 
HETATM   10  C11 UNL     1       2.586  -2.236   1.807  1.00  0.00     0.067 A 
HETATM   11  C12 UNL     1       1.496  -3.164   2.176  1.00  0.00     0.201 A 
HETATM   12  O3  UNL     1       1.816  -4.250   2.602  1.00  0.00    -0.286 OA
ENDROOT
BRANCH   1  13
HETATM   13  C3  UNL     1      -1.510   0.561   0.713  1.00  0.00     0.035 C 
BRANCH  13  14
HETATM   14  C2  UNL     1      -1.943   0.535  -0.752  1.00  0.00     0.023 C 
BRANCH  14  15
HETATM   15  C1  UNL     1      -2.340   1.916  -1.273  1.00  0.00     0.007 C 
BRANCH  15  16
HETATM   16  C24 UNL     1      -2.959   1.865  -2.672  1.00  0.00     0.031 C 
BRANCH  16  17
HETATM   17  C25 UNL     1      -3.231   3.254  -3.248  1.00  0.00     0.127 C 
HETATM   18  O7  UNL     1      -1.924   3.693  -3.549  1.00  0.00    -0.226 OA
HETATM   19  C26 UNL     1      -4.029   3.205  -4.551  1.00  0.00     0.033 C 
HETATM   20  C27 UNL     1      -3.832   4.213  -2.221  1.00  0.00     0.033 C 
ENDBRANCH  16  17
ENDBRANCH  15  16
ENDBRANCH  14  15
BRANCH  14  21
HETATM   21  C21 UNL     1      -0.932  -0.143  -1.639  1.00  0.00    -0.044 C 
HETATM   22  C22 UNL     1      -0.027   0.617  -2.277  1.00  0.00    -0.009 C 
HETATM   23  C23 UNL     1      -0.889  -1.635  -1.840  1.00  0.00     0.026 C 
ENDBRANCH  14  21
ENDBRANCH  13  14
ENDBRANCH   1  13
BRANCH   5  24
HETATM   24  O6  UNL     1      -0.891  -4.666   2.779  1.00  0.00    -0.328 OA
HETATM   25  C20 UNL     1      -2.074  -5.395   3.074  1.00  0.00     0.181 C 
ENDBRANCH   5  24
BRANCH   9  26
HETATM   26  C13 UNL     1       3.455  -0.103   0.965  1.00  0.00     0.045 A 
HETATM   27  C14 UNL     1       4.607  -0.055   1.775  1.00  0.00     0.098 A 
HETATM   28  C15 UNL     1       5.670   0.797   1.424  1.00  0.00     0.052 A 
HETATM   29  C16 UNL     1       5.588   1.602   0.273  1.00  0.00     0.133 A 
HETATM   30  C17 UNL     1       4.438   1.549  -0.531  1.00  0.00     0.028 A 
HETATM   31  O4  UNL     1       6.588   2.397  -0.049  1.00  0.00    -0.190 OA
HETATM   32  C18 UNL     1       3.373   0.699  -0.188  1.00  0.00     0.006 A 
BRANCH  27  33
HETATM   33  O5  UNL     1       4.699  -0.801   2.857  1.00  0.00    -0.328 OA
HETATM   34  C19 UNL     1       5.930  -0.797   3.568  1.00  0.00     0.181 C 
ENDBRANCH  27  33
ENDBRANCH   9  26
TORSDOF 9
