REMARK  4 active torsions:
REMARK  status: ('A' for Active; 'I' for Inactive)
REMARK    1  A    between atoms: C1_1  and  C26_39 
REMARK    2  A    between atoms: C5_5  and  C6_7 
REMARK    3  A    between atoms: C10_11  and  C12_14 
REMARK    4  A    between atoms: C17_24  and  C20_28 
ROOT
HETATM    1  C6  UNL     1      -1.086  -1.756   0.863  1.00  0.00     0.058 A 
HETATM    2  C7  UNL     1       0.211  -2.289   1.070  1.00  0.00     0.136 A 
HETATM    3  C8  UNL     1       1.352  -1.506   0.756  1.00  0.00     0.087 A 
HETATM    4  C9  UNL     1       1.197  -0.191   0.238  1.00  0.00     0.105 A 
HETATM    5  C10 UNL     1      -0.102   0.334   0.033  1.00  0.00     0.055 A 
HETATM    6  C11 UNL     1      -1.240  -0.445   0.346  1.00  0.00     0.132 A 
HETATM    7  O2  UNL     1      -2.469   0.057   0.150  1.00  0.00    -0.191 OA
HETATM    8  O7  UNL     1       2.285   0.555  -0.061  1.00  0.00    -0.307 OA
HETATM    9  C17 UNL     1       3.553   0.127   0.105  1.00  0.00     0.103 A 
HETATM   10  C18 UNL     1       3.822  -1.107   0.590  1.00  0.00     0.067 A 
HETATM   11  C19 UNL     1       2.731  -2.033   0.957  1.00  0.00     0.202 A 
HETATM   12  O8  UNL     1       3.049  -3.119   1.383  1.00  0.00    -0.286 OA
HETATM   13  O10 UNL     1       0.352  -3.531   1.561  1.00  0.00    -0.190 OA
ENDROOT
BRANCH   1  14
HETATM   14  C5  UNL     1      -2.273  -2.564   1.189  1.00  0.00     0.174 C 
HETATM   15  C4  UNL     1      -2.928  -2.166   2.539  1.00  0.00     0.216 C 
HETATM   16  C3  UNL     1      -4.246  -2.938   2.775  1.00  0.00     0.218 C 
HETATM   17  O11 UNL     1      -2.027  -2.443   3.602  1.00  0.00    -0.218 OA
HETATM   18  C2  UNL     1      -5.152  -2.814   1.531  1.00  0.00     0.214 C 
HETATM   19  O12 UNL     1      -4.916  -2.416   3.912  1.00  0.00    -0.218 OA
HETATM   20  C1  UNL     1      -4.391  -3.193   0.242  1.00  0.00     0.181 C 
HETATM   21  O13 UNL     1      -6.273  -3.670   1.666  1.00  0.00    -0.218 OA
HETATM   22  O1  UNL     1      -3.217  -2.398   0.137  1.00  0.00    -0.347 OA
BRANCH  20  23
HETATM   23  C26 UNL     1      -5.213  -2.945  -1.027  1.00  0.00     0.214 C 
HETATM   24  O14 UNL     1      -4.414  -3.270  -2.141  1.00  0.00    -0.218 OA
ENDBRANCH  20  23
ENDBRANCH   1  14
BRANCH   5  25
HETATM   25  C12 UNL     1      -0.264   1.695  -0.506  1.00  0.00     0.174 C 
HETATM   26  O3  UNL     1       0.713   2.553   0.080  1.00  0.00    -0.347 OA
HETATM   27  C13 UNL     1       0.588   3.930  -0.256  1.00  0.00     0.178 C 
HETATM   28  C14 UNL     1       0.725   4.109  -1.781  1.00  0.00     0.214 C 
HETATM   29  C15 UNL     1      -0.275   3.225  -2.566  1.00  0.00     0.218 C 
HETATM   30  O6  UNL     1       0.574   5.479  -2.113  1.00  0.00    -0.218 OA
HETATM   31  C16 UNL     1      -0.191   1.768  -2.061  1.00  0.00     0.216 C 
HETATM   32  O5  UNL     1      -1.605   3.680  -2.375  1.00  0.00    -0.218 OA
HETATM   33  O4  UNL     1       1.020   1.203  -2.539  1.00  0.00    -0.218 OA
ENDBRANCH   5  25
BRANCH   9  34
HETATM   34  C20 UNL     1       4.693   1.025  -0.250  1.00  0.00     0.023 A 
HETATM   35  C21 UNL     1       5.961   0.813   0.318  1.00  0.00     0.004 A 
HETATM   36  C22 UNL     1       7.033   1.660  -0.018  1.00  0.00     0.028 A 
HETATM   37  C23 UNL     1       6.842   2.719  -0.922  1.00  0.00     0.131 A 
HETATM   38  C24 UNL     1       5.572   2.930  -1.488  1.00  0.00     0.028 A 
HETATM   39  O9  UNL     1       7.846   3.512  -1.234  1.00  0.00    -0.190 OA
HETATM   40  C25 UNL     1       4.498   2.086  -1.154  1.00  0.00     0.004 A 
ENDBRANCH   9  34
TORSDOF 4
