REMARK  2 active torsions:
REMARK  status: ('A' for Active; 'I' for Inactive)
REMARK    1  A    between atoms: C3_3  and  O5_20 
REMARK    2  A    between atoms: C9_9  and  C10_11 
ROOT
HETATM    1  C1  UNL     1       2.209   2.275  -1.617  1.00  0.00     0.138 A 
HETATM    2  C2  UNL     1       3.510   1.783  -1.353  1.00  0.00     0.052 A 
HETATM    3  C3  UNL     1       3.682   0.607  -0.586  1.00  0.00     0.098 A 
HETATM    4  C4  UNL     1       2.555  -0.088  -0.096  1.00  0.00     0.049 A 
HETATM    5  C5  UNL     1       1.250   0.385  -0.369  1.00  0.00     0.101 A 
HETATM    6  C6  UNL     1       1.074   1.588  -1.107  1.00  0.00     0.085 A 
HETATM    7  C7  UNL     1      -0.301   2.123  -1.328  1.00  0.00     0.210 C 
HETATM    8  C8  UNL     1      -1.430   1.357  -0.654  1.00  0.00     0.245 C 
HETATM    9  C9  UNL     1      -1.102  -0.148  -0.502  1.00  0.00     0.181 C 
HETATM   10  O1  UNL     1       0.193  -0.322   0.084  1.00  0.00    -0.326 OA
HETATM   11  O3  UNL     1      -2.637   1.496  -1.389  1.00  0.00    -0.212 OA
HETATM   12  O4  UNL     1      -0.586   3.104  -1.980  1.00  0.00    -0.288 OA
HETATM   13  O6  UNL     1       2.070   3.395  -2.340  1.00  0.00    -0.190 OA
ENDROOT
BRANCH   9  14
HETATM   14  C10 UNL     1      -2.090  -0.889   0.336  1.00  0.00     0.008 A 
HETATM   15  C11 UNL     1      -2.158  -0.650   1.719  1.00  0.00     0.000 A 
HETATM   16  C12 UNL     1      -3.090  -1.348   2.506  1.00  0.00     0.027 A 
HETATM   17  C13 UNL     1      -3.957  -2.283   1.914  1.00  0.00     0.131 A 
HETATM   18  C14 UNL     1      -3.887  -2.520   0.529  1.00  0.00     0.027 A 
HETATM   19  O2  UNL     1      -4.832  -2.938   2.654  1.00  0.00    -0.190 OA
HETATM   20  C15 UNL     1      -2.955  -1.822  -0.260  1.00  0.00     0.000 A 
ENDBRANCH   9  14
BRANCH   3  21
HETATM   21  O5  UNL     1       4.916   0.152  -0.326  1.00  0.00    -0.328 OA
HETATM   22  C16 UNL     1       5.043  -1.006   0.484  1.00  0.00     0.181 C 
ENDBRANCH   3  21
TORSDOF 2
