REMARK  0 active torsions:
REMARK  status: ('A' for Active; 'I' for Inactive)
ROOT
HETATM    1  C1  UNL     1      -2.842  -2.194   0.599  1.00  0.00    -0.000 A 
HETATM    2  C2  UNL     1      -3.746  -1.246   0.082  1.00  0.00    -0.004 A 
HETATM    3  C3  UNL     1      -3.279  -0.004  -0.397  1.00  0.00    -0.022 A 
HETATM    4  C4  UNL     1      -1.885   0.295  -0.352  1.00  0.00    -0.004 A 
HETATM    5  C5  UNL     1      -0.949  -0.662   0.178  1.00  0.00     0.003 A 
HETATM    6  C6  UNL     1      -1.461  -1.908   0.648  1.00  0.00     0.000 A 
HETATM    7  C7  UNL     1       0.455  -0.334   0.215  1.00  0.00     0.044 A 
HETATM    8  C8  UNL     1       0.883   0.933  -0.285  1.00  0.00     0.042 A 
HETATM    9  C9  UNL     1      -0.053   1.857  -0.801  1.00  0.00     0.003 A 
HETATM   10  C10 UNL     1      -1.424   1.545  -0.834  1.00  0.00    -0.000 A 
HETATM   11  C11 UNL     1       2.326   1.312  -0.274  1.00  0.00     0.194 A 
HETATM   12  C12 UNL     1       3.297   0.334   0.258  1.00  0.00     0.046 A 
HETATM   13  C13 UNL     1       2.914  -0.865   0.738  1.00  0.00     0.169 A 
HETATM   14  C14 UNL     1       1.492  -1.281   0.764  1.00  0.00     0.221 A 
HETATM   15  O1  UNL     1       1.320  -2.377   1.242  1.00  0.00    -0.284 OA
HETATM   16  O2  UNL     1       3.838  -1.707   1.205  1.00  0.00    -0.187 OA
HETATM   17  C15 UNL     1       4.766   0.691   0.260  1.00  0.00     0.037 C 
HETATM   18  O3  UNL     1       2.787   2.359  -0.666  1.00  0.00    -0.287 OA
HETATM   19  C16 UNL     1      -4.270   0.953  -0.930  1.00  0.00     0.031 C 
ENDROOT
TORSDOF 0
