REMARK  14 active torsions:
REMARK  status: ('A' for Active; 'I' for Inactive)
REMARK    1  A    between atoms: C13_16  and  O15_56 
REMARK    2  A    between atoms: C20_25  and  O13_52 
REMARK    3  A    between atoms: C21_26  and  O11_48 
REMARK    4  A    between atoms: C22_27  and  C34_43 
REMARK    5  A    between atoms: C23_28  and  O7_39 
REMARK    6  A    between atoms: C24_29  and  O5_30 
REMARK    7  A    between atoms: O5_30  and  C25_31 
REMARK    8  A    between atoms: C25_31  and  C26_33 
REMARK    9  A    between atoms: O7_39  and  C32_40 
REMARK   10  A    between atoms: C34_43  and  O9_44 
REMARK   11  A    between atoms: O9_44  and  C35_45 
REMARK   12  A    between atoms: O11_48  and  C37_49 
REMARK   13  A    between atoms: O13_52  and  C39_53 
REMARK   14  A    between atoms: O15_56  and  C41_57 
ROOT
HETATM    1  C1  UNL     1      -4.889   2.631   0.272  1.00  0.00     0.077 A 
HETATM    2  C2  UNL     1      -5.691   3.695   0.727  1.00  0.00     0.008 A 
HETATM    3  C3  UNL     1      -7.074   3.510   0.871  1.00  0.00     0.021 A 
HETATM    4  C4  UNL     1      -7.635   2.262   0.561  1.00  0.00     0.099 A 
HETATM    5  N1  UNL     1      -6.858   1.223   0.148  1.00  0.00    -0.248 NA
HETATM    6  C5  UNL     1      -5.500   1.367   0.023  1.00  0.00     0.064 A 
HETATM    7  C6  UNL     1      -4.727   0.131  -0.365  1.00  0.00     0.046 C 
HETATM    8  C7  UNL     1      -4.871  -1.010   0.670  1.00  0.00     0.016 C 
HETATM    9  C8  UNL     1      -4.385  -2.395   0.193  1.00  0.00     0.087 C 
HETATM   10  C9  UNL     1      -2.885  -2.607   0.193  1.00  0.00     0.271 C 
HETATM   11  O1  UNL     1      -2.479  -3.625  -0.320  1.00  0.00    -0.264 OA
HETATM   12  O2  UNL     1      -2.070  -1.699   0.764  1.00  0.00    -0.302 OA
HETATM   13  C10 UNL     1      -0.691  -2.068   0.910  1.00  0.00     0.154 C 
HETATM   14  C11 UNL     1      -0.020  -1.170   1.971  1.00  0.00     0.033 C 
HETATM   15  C12 UNL     1       0.236   0.273   1.459  1.00  0.00     0.035 C 
HETATM   16  C13 UNL     1       1.004   1.125   2.488  1.00  0.00     0.127 C 
HETATM   17  C14 UNL     1       0.695   2.547   2.012  1.00  0.00     0.060 C 
HETATM   18  C15 UNL     1      -0.838   2.527   1.856  1.00  0.00     0.033 C 
HETATM   19  C16 UNL     1      -1.365   3.672   0.967  1.00  0.00     0.152 C 
HETATM   20  O3  UNL     1      -2.797   3.690   0.945  1.00  0.00    -0.298 OA
HETATM   21  C17 UNL     1      -3.422   2.887   0.070  1.00  0.00     0.297 C 
HETATM   22  O4  UNL     1      -2.857   2.381  -0.875  1.00  0.00    -0.259 OA
HETATM   23  C18 UNL     1      -1.447   2.693   3.254  1.00  0.00     0.003 C 
HETATM   24  C19 UNL     1      -1.096   1.070   1.398  1.00  0.00     0.005 C 
HETATM   25  C20 UNL     1       1.471   2.789   0.699  1.00  0.00     0.154 C 
HETATM   26  C21 UNL     1       1.082   1.777  -0.400  1.00  0.00     0.157 C 
HETATM   27  C22 UNL     1       1.014   0.313   0.098  1.00  0.00     0.086 C 
HETATM   28  C23 UNL     1       0.272  -0.578  -0.932  1.00  0.00     0.159 C 
HETATM   29  C24 UNL     1       0.037  -2.018  -0.449  1.00  0.00     0.180 C 
HETATM   30  C43 UNL     1       1.283  -1.801   2.481  1.00  0.00     0.003 C 
HETATM   31  C44 UNL     1      -4.994  -2.773  -1.162  1.00  0.00     0.010 C 
ENDROOT
BRANCH  29  32
HETATM   32  O5  UNL     1       1.283  -2.693  -0.334  1.00  0.00    -0.296 OA
BRANCH  32  33
HETATM   33  C25 UNL     1       1.152  -4.014  -0.418  1.00  0.00     0.296 C 
HETATM   34  O6  UNL     1       0.518  -4.678   0.367  1.00  0.00    -0.259 OA
BRANCH  33  35
HETATM   35  C26 UNL     1       1.854  -4.650  -1.572  1.00  0.00     0.063 A 
HETATM   36  C27 UNL     1       2.018  -6.047  -1.613  1.00  0.00     0.005 A 
HETATM   37  C28 UNL     1       2.678  -6.647  -2.701  1.00  0.00     0.000 A 
HETATM   38  C29 UNL     1       3.174  -5.850  -3.746  1.00  0.00     0.000 A 
HETATM   39  C30 UNL     1       3.010  -4.455  -3.707  1.00  0.00     0.000 A 
HETATM   40  C31 UNL     1       2.350  -3.855  -2.621  1.00  0.00     0.005 A 
ENDBRANCH  33  35
ENDBRANCH  32  33
ENDBRANCH  29  32
BRANCH  28  41
HETATM   41  O7  UNL     1       1.004  -0.617  -2.148  1.00  0.00    -0.301 OA
BRANCH  41  42
HETATM   42  C32 UNL     1       0.238  -0.922  -3.191  1.00  0.00     0.272 C 
HETATM   43  C33 UNL     1       0.938  -0.908  -4.525  1.00  0.00     0.106 C 
HETATM   44  O8  UNL     1      -0.936  -1.197  -3.107  1.00  0.00    -0.264 OA
ENDBRANCH  41  42
ENDBRANCH  28  41
BRANCH  27  45
HETATM   45  C34 UNL     1       2.445  -0.219   0.307  1.00  0.00     0.157 C 
BRANCH  45  46
HETATM   46  O9  UNL     1       2.777  -1.111  -0.746  1.00  0.00    -0.302 OA
BRANCH  46  47
HETATM   47  C35 UNL     1       4.078  -1.113  -1.018  1.00  0.00     0.272 C 
HETATM   48  O10 UNL     1       4.670  -0.170  -1.486  1.00  0.00    -0.264 OA
HETATM   49  C36 UNL     1       4.797  -2.396  -0.695  1.00  0.00     0.106 C 
ENDBRANCH  46  47
ENDBRANCH  45  46
ENDBRANCH  27  45
BRANCH  26  50
HETATM   50  O11 UNL     1       2.002   1.885  -1.480  1.00  0.00    -0.302 OA
BRANCH  50  51
HETATM   51  C37 UNL     1       1.731   2.916  -2.275  1.00  0.00     0.272 C 
HETATM   52  C38 UNL     1       2.691   3.113  -3.416  1.00  0.00     0.106 C 
HETATM   53  O12 UNL     1       0.789   3.658  -2.119  1.00  0.00    -0.264 OA
ENDBRANCH  50  51
ENDBRANCH  26  50
BRANCH  16  54
HETATM   54  O15 UNL     1       0.514   0.910   3.807  1.00  0.00    -0.304 OA
BRANCH  54  55
HETATM   55  C41 UNL     1       1.479   0.977   4.723  1.00  0.00     0.272 C 
HETATM   56  C42 UNL     1       2.207   2.293   4.791  1.00  0.00     0.106 C 
HETATM   57  O16 UNL     1       1.770   0.065   5.459  1.00  0.00    -0.264 OA
ENDBRANCH  54  55
ENDBRANCH  16  54
BRANCH  25  58
HETATM   58  O13 UNL     1       2.867   2.697   0.959  1.00  0.00    -0.302 OA
BRANCH  58  59
HETATM   59  C39 UNL     1       3.582   3.488   0.164  1.00  0.00     0.272 C 
HETATM   60  C40 UNL     1       5.043   3.141   0.063  1.00  0.00     0.106 C 
HETATM   61  O14 UNL     1       3.121   4.426  -0.443  1.00  0.00    -0.264 OA
ENDBRANCH  58  59
ENDBRANCH  25  58
TORSDOF 14
