REMARK  2 active torsions:
REMARK  status: ('A' for Active; 'I' for Inactive)
REMARK    1  A    between atoms: C1_2  and  O2_3 
REMARK    2  A    between atoms: O2_3  and  C2_4 
ROOT
HETATM    1  O2  UNL     1      -0.330  -0.824   0.353  1.00  0.00    -0.305 OA
ENDROOT
BRANCH   1   2
HETATM    2  C1  UNL     1      -1.278  -1.520  -0.440  1.00  0.00     0.244 C 
HETATM    3  O1  UNL     1      -1.684  -0.754  -1.582  1.00  0.00    -0.276 OA
HETATM    4  C15 UNL     1      -2.541   0.262  -1.377  1.00  0.00     0.273 C 
HETATM    5  C14 UNL     1      -2.957   0.594   0.041  1.00  0.00     0.087 C 
HETATM    6  O5  UNL     1      -2.985   0.906  -2.301  1.00  0.00    -0.264 OA
HETATM    7  C13 UNL     1      -3.334  -0.686   0.804  1.00  0.00     0.014 C 
HETATM    8  C16 UNL     1      -4.180   1.510   0.205  1.00  0.00     0.009 C 
HETATM    9  C12 UNL     1      -2.516  -1.932   0.390  1.00  0.00     0.058 C 
HETATM   10  C18 UNL     1      -4.811  -0.832   0.435  1.00  0.00     0.001 C 
HETATM   11  C20 UNL     1      -2.178  -2.797   1.611  1.00  0.00     0.005 C 
HETATM   12  C17 UNL     1      -5.371   0.586   0.474  1.00  0.00     0.001 C 
HETATM   13  C19 UNL     1      -3.967   2.441   1.402  1.00  0.00     0.001 C 
ENDBRANCH   1   2
BRANCH   1  14
HETATM   14  C2  UNL     1       0.838  -0.469  -0.358  1.00  0.00     0.244 C 
HETATM   15  O3  UNL     1       1.492  -1.670  -0.778  1.00  0.00    -0.276 OA
HETATM   16  C3  UNL     1       2.725  -1.563  -1.289  1.00  0.00     0.273 C 
HETATM   17  C4  UNL     1       3.455  -0.230  -1.322  1.00  0.00     0.087 C 
HETATM   18  O4  UNL     1       3.297  -2.533  -1.733  1.00  0.00    -0.264 OA
HETATM   19  C5  UNL     1       2.892   0.857  -0.387  1.00  0.00     0.014 C 
HETATM   20  C10 UNL     1       4.935  -0.326  -0.942  1.00  0.00     0.009 C 
HETATM   21  C6  UNL     1       1.777   0.357   0.541  1.00  0.00     0.058 C 
HETATM   22  C8  UNL     1       4.092   1.400   0.392  1.00  0.00     0.001 C 
HETATM   23  C7  UNL     1       1.103   1.574   1.193  1.00  0.00     0.005 C 
HETATM   24  C9  UNL     1       5.262   1.105  -0.531  1.00  0.00     0.001 C 
HETATM   25  C11 UNL     1       5.818  -0.791  -2.098  1.00  0.00     0.001 C 
ENDBRANCH   1  14
TORSDOF 2
