REMARK  0 active torsions:
REMARK  status: ('A' for Active; 'I' for Inactive)
ROOT
HETATM    1  C1  UNL     1      -1.355   0.416  -0.352  1.00  0.00     0.029 C 
HETATM    2  C2  UNL     1      -0.971  -0.945   0.309  1.00  0.00     0.060 C 
HETATM    3  C3  UNL     1       0.307  -1.566  -0.287  1.00  0.00     0.015 C 
HETATM    4  C4  UNL     1       1.401  -0.537  -0.619  1.00  0.00     0.056 C 
HETATM    5  C5  UNL     1       1.598   0.584   0.424  1.00  0.00     0.129 C 
HETATM    6  C6  UNL     1       0.750   1.826   0.125  1.00  0.00     0.031 C 
HETATM    7  C7  UNL     1      -0.773   1.676   0.332  1.00  0.00     0.007 C 
HETATM    8  C8  UNL     1      -1.488   2.922  -0.211  1.00  0.00     0.000 C 
HETATM    9  O1  UNL     1       2.992   0.930   0.416  1.00  0.00    -0.301 OA
HETATM   10  C9  UNL     1       3.690  -0.088  -0.090  1.00  0.00     0.292 C 
HETATM   11  C10 UNL     1       2.799  -1.066  -0.695  1.00  0.00     0.043 C 
HETATM   12  C11 UNL     1       3.155  -2.246  -1.234  1.00  0.00     0.001 C 
HETATM   13  O2  UNL     1       4.893  -0.195  -0.068  1.00  0.00    -0.260 OA
HETATM   14  C12 UNL     1      -2.209  -1.775   0.072  1.00  0.00     0.172 C 
HETATM   15  C13 UNL     1      -3.318  -0.895  -0.256  1.00  0.00     0.033 C 
HETATM   16  C14 UNL     1      -2.869   0.352  -0.451  1.00  0.00    -0.023 C 
HETATM   17  O3  UNL     1      -2.273  -2.981   0.144  1.00  0.00    -0.291 OA
HETATM   18  C15 UNL     1      -0.859  -0.820   1.830  1.00  0.00     0.008 C 
ENDROOT
TORSDOF 0
