REMARK  2 active torsions:
REMARK  status: ('A' for Active; 'I' for Inactive)
REMARK    1  A    between atoms: C16_17  and  C19_20 
REMARK    2  A    between atoms: C19_20  and  C20_21 
ROOT
HETATM    1  C1  UNL     1       4.688   2.227  -0.205  1.00  0.00     0.174 C 
HETATM    2  C2  UNL     1       6.164   2.256  -0.289  1.00  0.00     0.033 C 
HETATM    3  C3  UNL     1       6.922   1.152  -0.129  1.00  0.00    -0.021 C 
HETATM    4  C4  UNL     1       6.291  -0.193   0.170  1.00  0.00     0.059 C 
HETATM    5  C5  UNL     1       4.842  -0.072   0.703  1.00  0.00     0.164 C 
HETATM    6  C6  UNL     1       3.992   0.865  -0.221  1.00  0.00     0.084 C 
HETATM    7  C7  UNL     1       2.486   0.828   0.213  1.00  0.00     0.016 C 
HETATM    8  C8  UNL     1       1.844  -0.574  -0.039  1.00  0.00     0.052 C 
HETATM    9  C9  UNL     1       2.756  -1.744   0.387  1.00  0.00     0.149 A 
HETATM   10  C10 UNL     1       4.248  -1.496   0.797  1.00  0.00     0.171 A 
HETATM   11  O1  UNL     1       3.182  -1.605   1.699  1.00  0.00    -0.351 OA
HETATM   12  C11 UNL     1       0.422  -0.662   0.430  1.00  0.00    -0.024 A 
HETATM   13  C12 UNL     1      -0.379   0.520   0.516  1.00  0.00    -0.026 A 
HETATM   14  C13 UNL     1       0.168   1.861   0.185  1.00  0.00     0.026 C 
HETATM   15  C14 UNL     1       1.557   1.852  -0.475  1.00  0.00     0.006 C 
HETATM   16  C15 UNL     1      -1.730   0.432   0.932  1.00  0.00    -0.009 A 
HETATM   17  C16 UNL     1      -2.299  -0.818   1.268  1.00  0.00    -0.023 A 
HETATM   18  C17 UNL     1      -1.514  -1.988   1.191  1.00  0.00    -0.005 A 
HETATM   19  C18 UNL     1      -0.166  -1.910   0.775  1.00  0.00    -0.005 A 
HETATM   20  C28 UNL     1       4.078   0.398  -1.684  1.00  0.00     0.010 C 
HETATM   21  O5  UNL     1       4.938   0.479   2.018  1.00  0.00    -0.223 OA
HETATM   22  O6  UNL     1       4.096   3.275  -0.119  1.00  0.00    -0.291 OA
ENDROOT
BRANCH  17  23
HETATM   23  C19 UNL     1      -3.703  -0.898   1.695  1.00  0.00     0.027 C 
HETATM   24  C27 UNL     1      -3.912  -1.998   2.736  1.00  0.00     0.005 C 
BRANCH  23  25
HETATM   25  C20 UNL     1      -4.650  -1.031   0.498  1.00  0.00     0.061 C 
HETATM   26  C21 UNL     1      -4.205  -2.162  -0.459  1.00  0.00     0.148 C 
HETATM   27  O2  UNL     1      -3.068  -1.762  -1.215  1.00  0.00    -0.327 OA
HETATM   28  C22 UNL     1      -3.299  -0.744  -2.188  1.00  0.00     0.296 C 
HETATM   29  C23 UNL     1      -3.998   0.494  -1.578  1.00  0.00     0.170 A 
HETATM   30  O4  UNL     1      -3.994  -1.236  -3.318  1.00  0.00    -0.187 OA
HETATM   31  C24 UNL     1      -4.680   0.350  -0.170  1.00  0.00     0.123 A 
HETATM   32  O3  UNL     1      -5.369   0.291  -1.377  1.00  0.00    -0.354 OA
HETATM   33  C26 UNL     1      -3.818   1.865  -2.219  1.00  0.00     0.037 C 
HETATM   34  C25 UNL     1      -5.166   1.576   0.592  1.00  0.00     0.032 C 
ENDBRANCH  23  25
ENDBRANCH  17  23
TORSDOF 2
