REMARK  1 active torsions:
REMARK  status: ('A' for Active; 'I' for Inactive)
REMARK    1  A    between atoms: C3_3  and  C6_7 
ROOT
HETATM    1  C1  UNL     1      -0.082  -1.977   0.000  1.00  0.00     0.021 A 
HETATM    2  C2  UNL     1       0.588  -0.740   0.000  1.00  0.00     0.008 A 
HETATM    3  C3  UNL     1      -0.172   0.443   0.000  1.00  0.00     0.079 A 
HETATM    4  C4  UNL     1      -1.580   0.359   0.000  1.00  0.00     0.104 A 
HETATM    5  N1  UNL     1      -2.219  -0.848   0.000  1.00  0.00    -0.242 NA
HETATM    6  C5  UNL     1      -1.490  -2.000   0.000  1.00  0.00     0.099 A 
ENDROOT
BRANCH   3   7
HETATM    7  C6  UNL     1       0.504   1.775   0.000  1.00  0.00     0.298 C 
HETATM    8  O1  UNL     1      -0.139   2.799   0.000  1.00  0.00    -0.264 OA
HETATM    9  N2  UNL     1       1.869   1.816   0.000  1.00  0.00    -0.102 N 
ENDBRANCH   3   7
TORSDOF 1
