REMARK  1 active torsions:
REMARK  status: ('A' for Active; 'I' for Inactive)
REMARK    1  A    between atoms: C1_1  and  C6_7 
ROOT
HETATM    1  C1  UNL     1       1.037  -0.240   0.295  1.00  0.00     0.028 A 
HETATM    2  C2  UNL     1       2.213  -0.543  -0.412  1.00  0.00     0.001 A 
HETATM    3  C3  UNL     1       3.445  -0.477   0.261  1.00  0.00     0.020 A 
HETATM    4  C4  UNL     1       3.471  -0.111   1.621  1.00  0.00     0.099 A 
HETATM    5  N1  UNL     1       2.322   0.182   2.301  1.00  0.00    -0.243 NA
HETATM    6  C5  UNL     1       1.121   0.119   1.654  1.00  0.00     0.097 A 
ENDROOT
BRANCH   1   7
HETATM    7  C6  UNL     1      -0.287  -0.301  -0.387  1.00  0.00     0.243 C 
HETATM    8  C7  UNL     1      -1.199  -1.379   0.197  1.00  0.00     0.040 C 
HETATM    9  C8  UNL     1      -2.559  -0.889  -0.287  1.00  0.00     0.038 C 
HETATM   10  C9  UNL     1      -2.420   0.607  -0.024  1.00  0.00     0.251 C 
HETATM   11  N2  UNL     1      -1.022   0.959  -0.270  1.00  0.00     0.141 N 
HETATM   12  C10 UNL     1      -0.834   1.846  -1.414  1.00  0.00     0.286 C 
ENDBRANCH   1   7
TORSDOF 1
