REMARK  1 active torsions:
REMARK  status: ('A' for Active; 'I' for Inactive)
REMARK    1  A    between atoms: C15_16  and  O2_20 
ROOT
HETATM    1  C1  UNL     1       2.277   2.463   0.174  1.00  0.00     0.131 C 
HETATM    2  C2  UNL     1       0.805   2.199  -0.068  1.00  0.00     0.199 C 
HETATM    3  C3  UNL     1       0.369   0.707  -0.199  1.00  0.00     0.046 C 
HETATM    4  C4  UNL     1       1.166  -0.174   0.799  1.00  0.00     0.032 C 
HETATM    5  C5  UNL     1       2.692   0.014   0.570  1.00  0.00     0.028 C 
HETATM    6  C6  UNL     1       3.125   1.463   0.490  1.00  0.00    -0.020 C 
HETATM    7  C7  UNL     1       4.574   1.760   0.783  1.00  0.00     0.028 C 
HETATM    8  C8  UNL     1       3.190  -0.734  -0.678  1.00  0.00     0.069 C 
HETATM    9  C9  UNL     1       2.727  -2.195  -0.701  1.00  0.00     0.270 C 
HETATM   10  O1  UNL     1       1.315  -2.240  -0.562  1.00  0.00    -0.332 OA
HETATM   11  C10 UNL     1       0.775  -1.676   0.635  1.00  0.00     0.118 C 
HETATM   12  C11 UNL     1      -0.752  -1.934   0.604  1.00  0.00     0.030 C 
HETATM   13  C12 UNL     1      -1.617  -0.674   0.793  1.00  0.00     0.013 C 
HETATM   14  C13 UNL     1      -1.199   0.482  -0.164  1.00  0.00     0.061 C 
HETATM   15  C14 UNL     1      -1.728   0.213  -1.570  1.00  0.00     0.194 C 
HETATM   16  C15 UNL     1      -2.879  -0.693  -1.783  1.00  0.00     0.124 C 
HETATM   17  C16 UNL     1      -3.535  -1.256  -0.750  1.00  0.00     0.001 C 
HETATM   18  C17 UNL     1      -3.129  -0.984   0.680  1.00  0.00     0.025 C 
HETATM   19  C18 UNL     1      -3.566  -2.133   1.598  1.00  0.00     0.005 C 
HETATM   20  O3  UNL     1      -1.219   0.734  -2.535  1.00  0.00    -0.289 OA
HETATM   21  C20 UNL     1      -1.949   1.740   0.307  1.00  0.00     0.008 C 
HETATM   22  O4  UNL     1       3.401  -2.947   0.293  1.00  0.00    -0.190 OA
HETATM   23  C21 UNL     1       0.869   0.273   2.240  1.00  0.00     0.003 C 
HETATM   24  O5  UNL     1       0.402   2.899  -1.230  1.00  0.00    -0.216 OA
HETATM   25  O6  UNL     1       2.744   3.709   0.086  1.00  0.00    -0.193 OA
ENDROOT
BRANCH  16  26
HETATM   26  O2  UNL     1      -3.279  -0.961  -3.025  1.00  0.00    -0.326 OA
HETATM   27  C19 UNL     1      -4.045   0.096  -3.584  1.00  0.00     0.181 C 
ENDBRANCH  16  26
TORSDOF 1
