REMARK  1 active torsions:
REMARK  status: ('A' for Active; 'I' for Inactive)
REMARK    1  A    between atoms: C15_17  and  O3_21 
ROOT
HETATM    1  C1  UNL     1       2.959   1.293   0.760  1.00  0.00     0.236 C 
HETATM    2  C2  UNL     1       1.465   1.525   0.768  1.00  0.00     0.183 C 
HETATM    3  C3  UNL     1       0.578   0.459   0.127  1.00  0.00     0.070 C 
HETATM    4  C4  UNL     1       1.123  -0.959   0.504  1.00  0.00     0.035 C 
HETATM    5  C5  UNL     1       2.615  -1.156   0.059  1.00  0.00     0.039 C 
HETATM    6  C6  UNL     1       3.365   0.180  -0.238  1.00  0.00     0.162 C 
HETATM    7  C7  UNL     1       3.162   0.682  -1.676  1.00  0.00     0.036 C 
HETATM    8  O1  UNL     1       4.762  -0.049  -0.150  1.00  0.00    -0.223 OA
HETATM    9  C8  UNL     1       2.740  -2.195  -1.076  1.00  0.00     0.067 C 
HETATM   10  C9  UNL     1       1.609  -2.059  -2.111  1.00  0.00     0.269 C 
HETATM   11  O2  UNL     1       0.313  -2.123  -1.529  1.00  0.00    -0.332 OA
HETATM   12  C10 UNL     1       0.229  -2.074  -0.105  1.00  0.00     0.118 C 
HETATM   13  C11 UNL     1      -1.252  -1.893   0.264  1.00  0.00     0.030 C 
HETATM   14  C12 UNL     1      -1.787  -0.520  -0.182  1.00  0.00     0.014 C 
HETATM   15  C13 UNL     1      -0.953   0.650   0.412  1.00  0.00     0.065 C 
HETATM   16  C14 UNL     1      -1.504   1.922  -0.229  1.00  0.00     0.194 C 
HETATM   17  C15 UNL     1      -2.965   2.070  -0.393  1.00  0.00     0.124 C 
HETATM   18  C16 UNL     1      -3.799   1.025  -0.225  1.00  0.00     0.001 C 
HETATM   19  C17 UNL     1      -3.297  -0.359   0.119  1.00  0.00     0.025 C 
HETATM   20  C18 UNL     1      -4.135  -1.406  -0.621  1.00  0.00     0.005 C 
HETATM   21  O4  UNL     1      -0.781   2.811  -0.613  1.00  0.00    -0.289 OA
HETATM   22  C20 UNL     1      -1.205   0.758   1.926  1.00  0.00     0.008 C 
HETATM   23  O5  UNL     1       1.738  -3.072  -3.086  1.00  0.00    -0.190 OA
HETATM   24  C21 UNL     1       1.059  -1.121   2.035  1.00  0.00     0.003 C 
HETATM   25  O6  UNL     1       1.012   2.525   1.277  1.00  0.00    -0.293 OA
HETATM   26  O7  UNL     1       3.365   0.973   2.080  1.00  0.00    -0.213 OA
ENDROOT
BRANCH  17  27
HETATM   27  O3  UNL     1      -3.469   3.260  -0.717  1.00  0.00    -0.326 OA
HETATM   28  C19 UNL     1      -3.619   4.109   0.412  1.00  0.00     0.181 C 
ENDBRANCH  17  27
TORSDOF 1
