REMARK  2 active torsions:
REMARK  status: ('A' for Active; 'I' for Inactive)
REMARK    1  A    between atoms: C1_1  and  O6_27 
REMARK    2  A    between atoms: C15_16  and  O2_20 
ROOT
HETATM    1  C1  UNL     1      -2.131   1.891  -0.223  1.00  0.00     0.146 C 
HETATM    2  C2  UNL     1      -0.590   1.686  -0.328  1.00  0.00     0.179 C 
HETATM    3  C3  UNL     1      -0.158   0.197  -0.146  1.00  0.00     0.042 C 
HETATM    4  C4  UNL     1      -1.170  -0.771  -0.834  1.00  0.00     0.029 C 
HETATM    5  C5  UNL     1      -2.551  -0.660  -0.111  1.00  0.00     0.015 C 
HETATM    6  C6  UNL     1      -2.836   0.734   0.525  1.00  0.00     0.030 C 
HETATM    7  C7  UNL     1      -2.482   0.797   2.018  1.00  0.00     0.003 C 
HETATM    8  C8  UNL     1      -2.770  -1.822   0.869  1.00  0.00     0.096 C 
HETATM    9  C9  UNL     1      -2.576  -3.129   0.143  1.00  0.00     0.272 C 
HETATM   10  O1  UNL     1      -1.639  -3.232  -0.809  1.00  0.00    -0.304 OA
HETATM   11  C10 UNL     1      -0.607  -2.234  -0.852  1.00  0.00     0.124 C 
HETATM   12  C11 UNL     1       0.438  -2.518   0.242  1.00  0.00     0.031 C 
HETATM   13  C12 UNL     1       1.645  -1.539   0.221  1.00  0.00     0.013 C 
HETATM   14  C13 UNL     1       1.324  -0.176  -0.478  1.00  0.00     0.060 C 
HETATM   15  C14 UNL     1       2.361   0.893  -0.143  1.00  0.00     0.194 C 
HETATM   16  C15 UNL     1       3.410   0.660   0.871  1.00  0.00     0.124 C 
HETATM   17  C16 UNL     1       3.383  -0.410   1.682  1.00  0.00     0.001 C 
HETATM   18  C17 UNL     1       2.242  -1.393   1.643  1.00  0.00     0.025 C 
HETATM   19  C18 UNL     1       1.227  -0.971   2.711  1.00  0.00     0.005 C 
HETATM   20  O3  UNL     1       2.357   1.955  -0.723  1.00  0.00    -0.289 OA
HETATM   21  C20 UNL     1       1.496  -0.342  -2.000  1.00  0.00     0.008 C 
HETATM   22  O4  UNL     1      -3.297  -4.059   0.422  1.00  0.00    -0.264 OA
HETATM   23  C21 UNL     1      -1.365  -0.375  -2.311  1.00  0.00     0.003 C 
HETATM   24  O5  UNL     1       0.002   2.467   0.697  1.00  0.00    -0.221 OA
ENDROOT
BRANCH   1  25
HETATM   25  O6  UNL     1      -2.697   2.027  -1.514  1.00  0.00    -0.351 OA
HETATM   26  C22 UNL     1      -2.449   3.287  -2.098  1.00  0.00     0.174 C 
ENDBRANCH   1  25
BRANCH  16  27
HETATM   27  O2  UNL     1       4.410   1.529   0.984  1.00  0.00    -0.326 OA
HETATM   28  C19 UNL     1       5.363   1.399  -0.062  1.00  0.00     0.181 C 
ENDBRANCH  16  27
TORSDOF 2
