REMARK  4 active torsions:
REMARK  status: ('A' for Active; 'I' for Inactive)
REMARK    1  A    between atoms: C1_1  and  O8_31 
REMARK    2  A    between atoms: C2_2  and  O6_27 
REMARK    3  A    between atoms: C15_17  and  O3_21 
REMARK    4  A    between atoms: O6_27  and  C22_28 
ROOT
HETATM    1  C1  UNL     1      -2.063   1.496  -0.316  1.00  0.00     0.171 C 
HETATM    2  C2  UNL     1      -0.527   1.283  -0.426  1.00  0.00     0.154 C 
HETATM    3  C3  UNL     1      -0.104  -0.201  -0.236  1.00  0.00     0.040 C 
HETATM    4  C4  UNL     1      -1.115  -1.176  -0.916  1.00  0.00     0.031 C 
HETATM    5  C5  UNL     1      -2.498  -1.057  -0.193  1.00  0.00     0.043 C 
HETATM    6  C6  UNL     1      -2.758   0.344   0.461  1.00  0.00     0.154 C 
HETATM    7  C7  UNL     1      -2.330   0.399   1.936  1.00  0.00     0.036 C 
HETATM    8  O1  UNL     1      -4.156   0.572   0.502  1.00  0.00    -0.223 OA
HETATM    9  C8  UNL     1      -2.721  -2.225   0.783  1.00  0.00     0.098 C 
HETATM   10  C9  UNL     1      -2.525  -3.529   0.057  1.00  0.00     0.272 C 
HETATM   11  O2  UNL     1      -1.576  -3.635  -0.885  1.00  0.00    -0.304 OA
HETATM   12  C10 UNL     1      -0.549  -2.635  -0.924  1.00  0.00     0.124 C 
HETATM   13  C11 UNL     1       0.492  -2.908   0.174  1.00  0.00     0.031 C 
HETATM   14  C12 UNL     1       1.699  -1.932   0.147  1.00  0.00     0.013 C 
HETATM   15  C13 UNL     1       1.381  -0.566  -0.555  1.00  0.00     0.060 C 
HETATM   16  C14 UNL     1       2.395   0.514  -0.191  1.00  0.00     0.194 C 
HETATM   17  C15 UNL     1       3.465   0.270   0.795  1.00  0.00     0.124 C 
HETATM   18  C16 UNL     1       3.449  -0.809   1.598  1.00  0.00     0.001 C 
HETATM   19  C17 UNL     1       2.303  -1.783   1.566  1.00  0.00     0.025 C 
HETATM   20  C18 UNL     1       1.291  -1.352   2.637  1.00  0.00     0.005 C 
HETATM   21  O4  UNL     1       2.355   1.598  -0.730  1.00  0.00    -0.289 OA
HETATM   22  C20 UNL     1       1.568  -0.725  -2.072  1.00  0.00     0.008 C 
HETATM   23  O5  UNL     1      -3.250  -4.457   0.328  1.00  0.00    -0.264 OA
HETATM   24  C21 UNL     1      -1.307  -0.785  -2.395  1.00  0.00     0.003 C 
ENDROOT
BRANCH   2  25
HETATM   25  O6  UNL     1       0.084   2.059   0.600  1.00  0.00    -0.302 OA
BRANCH  25  26
HETATM   26  C22 UNL     1       0.100   3.358   0.309  1.00  0.00     0.272 C 
HETATM   27  C23 UNL     1       0.309   4.272   1.486  1.00  0.00     0.106 C 
HETATM   28  O7  UNL     1      -0.039   3.799  -0.807  1.00  0.00    -0.264 OA
ENDBRANCH  25  26
ENDBRANCH   2  25
BRANCH   1  29
HETATM   29  O8  UNL     1      -2.615   1.647  -1.613  1.00  0.00    -0.349 OA
HETATM   30  C24 UNL     1      -2.336   2.899  -2.195  1.00  0.00     0.174 C 
ENDBRANCH   1  29
BRANCH  17  31
HETATM   31  O3  UNL     1       4.473   1.133   0.897  1.00  0.00    -0.326 OA
HETATM   32  C19 UNL     1       5.209   1.248  -0.312  1.00  0.00     0.181 C 
ENDBRANCH  17  31
TORSDOF 4
