REMARK  3 active torsions:
REMARK  status: ('A' for Active; 'I' for Inactive)
REMARK    1  A    between atoms: C6_6  and  C7_7 
REMARK    2  A    between atoms: C7_7  and  C8_8 
REMARK    3  A    between atoms: C20_24  and  O5_28 
ROOT
HETATM    1  C1  UNL     1       1.598  -1.441   0.674  1.00  0.00     0.040 C 
HETATM    2  C2  UNL     1       0.123  -1.754   0.324  1.00  0.00     0.153 C 
HETATM    3  C3  UNL     1      -0.650  -0.525  -0.258  1.00  0.00     0.040 C 
HETATM    4  C4  UNL     1       0.324   0.406  -1.047  1.00  0.00     0.029 C 
HETATM    5  C5  UNL     1       1.375   0.996  -0.053  1.00  0.00     0.019 C 
HETATM    6  C6  UNL     1       1.801   0.027   1.100  1.00  0.00     0.055 C 
HETATM    7  C12 UNL     1       1.018   0.285   2.397  1.00  0.00     0.007 C 
HETATM    8  C13 UNL     1       0.932   2.373   0.469  1.00  0.00     0.096 C 
HETATM    9  C14 UNL     1       0.701   3.289  -0.701  1.00  0.00     0.272 C 
HETATM   10  O4  UNL     1       0.213   2.793  -1.842  1.00  0.00    -0.304 OA
HETATM   11  C15 UNL     1      -0.461   1.527  -1.797  1.00  0.00     0.124 C 
HETATM   12  C16 UNL     1      -1.889   1.709  -1.268  1.00  0.00     0.031 C 
HETATM   13  C17 UNL     1      -2.703   0.428  -1.541  1.00  0.00     0.013 C 
HETATM   14  C18 UNL     1      -1.967  -0.875  -1.037  1.00  0.00     0.060 C 
HETATM   15  C19 UNL     1      -2.865  -1.691  -0.113  1.00  0.00     0.194 C 
HETATM   16  C20 UNL     1      -3.795  -0.977   0.775  1.00  0.00     0.124 C 
HETATM   17  C21 UNL     1      -4.402   0.135   0.328  1.00  0.00     0.001 C 
HETATM   18  C22 UNL     1      -4.188   0.553  -1.105  1.00  0.00     0.025 C 
HETATM   19  C23 UNL     1      -4.799   1.932  -1.379  1.00  0.00     0.005 C 
HETATM   20  O6  UNL     1      -2.826  -2.900  -0.086  1.00  0.00    -0.289 OA
HETATM   21  C25 UNL     1      -1.627  -1.758  -2.252  1.00  0.00     0.008 C 
HETATM   22  O7  UNL     1       0.988   4.459  -0.590  1.00  0.00    -0.264 OA
HETATM   23  C26 UNL     1       1.068  -0.416  -2.119  1.00  0.00     0.003 C 
HETATM   24  O8  UNL     1      -0.508  -2.213   1.508  1.00  0.00    -0.223 OA
ENDROOT
BRANCH   6  25
HETATM   25  C7  UNL     1       3.256   0.246   1.443  1.00  0.00     0.152 C 
HETATM   26  O3  UNL     1       3.574   0.848   2.443  1.00  0.00    -0.296 OA
BRANCH  25  27
HETATM   27  C8  UNL     1       4.299  -0.309   0.504  1.00  0.00     0.098 C 
HETATM   28  C9  UNL     1       5.621   0.469   0.490  1.00  0.00     0.160 C 
HETATM   29  O1  UNL     1       6.633  -0.432   0.049  1.00  0.00    -0.301 OA
HETATM   30  C10 UNL     1       6.221  -1.658   0.348  1.00  0.00     0.272 C 
HETATM   31  C11 UNL     1       4.820  -1.695   0.881  1.00  0.00     0.106 C 
HETATM   32  O2  UNL     1       6.881  -2.660   0.203  1.00  0.00    -0.264 OA
ENDBRANCH  25  27
ENDBRANCH   6  25
BRANCH  16  33
HETATM   33  O5  UNL     1      -4.031  -1.426   2.006  1.00  0.00    -0.326 OA
HETATM   34  C24 UNL     1      -3.918  -0.406   2.986  1.00  0.00     0.181 C 
ENDBRANCH  16  33
TORSDOF 3
