REMARK  1 active torsions:
REMARK  status: ('A' for Active; 'I' for Inactive)
REMARK    1  A    between atoms: C1_1  and  O6_26 
ROOT
HETATM    1  C1  UNL     1      -1.441   2.650  -0.598  1.00  0.00     0.121 C 
HETATM    2  C2  UNL     1      -0.137   2.021  -0.297  1.00  0.00     0.195 C 
HETATM    3  C3  UNL     1      -0.100   0.600   0.258  1.00  0.00     0.073 C 
HETATM    4  C4  UNL     1      -1.275  -0.197  -0.373  1.00  0.00     0.037 C 
HETATM    5  C5  UNL     1      -2.613   0.504  -0.068  1.00  0.00     0.033 C 
HETATM    6  C6  UNL     1      -2.598   1.957  -0.504  1.00  0.00    -0.018 C 
HETATM    7  C7  UNL     1      -3.918   2.603  -0.836  1.00  0.00     0.029 C 
HETATM    8  C8  UNL     1      -2.990   0.400   1.418  1.00  0.00     0.100 C 
HETATM    9  C9  UNL     1      -2.592  -0.899   2.080  1.00  0.00     0.272 C 
HETATM   10  O1  UNL     1      -1.623  -1.680   1.580  1.00  0.00    -0.304 OA
HETATM   11  C10 UNL     1      -1.336  -1.633   0.178  1.00  0.00     0.125 C 
HETATM   12  C11 UNL     1      -0.010  -2.363  -0.057  1.00  0.00     0.031 C 
HETATM   13  C12 UNL     1       1.170  -1.617   0.594  1.00  0.00     0.010 C 
HETATM   14  C13 UNL     1       1.283  -0.131   0.141  1.00  0.00     0.061 C 
HETATM   15  C14 UNL     1       2.332   0.518   1.045  1.00  0.00     0.180 C 
HETATM   16  C15 UNL     1       3.555  -0.297   1.420  1.00  0.00     0.209 C 
HETATM   17  C16 UNL     1       3.748  -1.535   0.531  1.00  0.00     0.041 C 
HETATM   18  C17 UNL     1       2.488  -2.416   0.414  1.00  0.00     0.004 C 
HETATM   19  C18 UNL     1       2.543  -3.602   1.385  1.00  0.00     0.000 C 
HETATM   20  O2  UNL     1       3.447  -0.705   2.769  1.00  0.00    -0.215 OA
HETATM   21  O3  UNL     1       2.213   1.643   1.471  1.00  0.00    -0.293 OA
HETATM   22  C19 UNL     1       1.785  -0.057  -1.311  1.00  0.00     0.008 C 
HETATM   23  O4  UNL     1      -3.164  -1.203   3.100  1.00  0.00    -0.264 OA
HETATM   24  C20 UNL     1      -1.111  -0.274  -1.904  1.00  0.00     0.003 C 
HETATM   25  O5  UNL     1       0.875   2.650  -0.510  1.00  0.00    -0.289 OA
ENDROOT
BRANCH   1  26
HETATM   26  O6  UNL     1      -1.469   3.928  -0.975  1.00  0.00    -0.326 OA
HETATM   27  C21 UNL     1      -1.094   4.098  -2.334  1.00  0.00     0.181 C 
ENDBRANCH   1  26
TORSDOF 1
