REMARK  1 active torsions:
REMARK  status: ('A' for Active; 'I' for Inactive)
REMARK    1  A    between atoms: C15_16  and  O2_20 
ROOT
HETATM    1  C1  UNL     1      -2.023   2.051  -0.656  1.00  0.00     0.185 C 
HETATM    2  C2  UNL     1      -0.494   1.779  -0.768  1.00  0.00     0.183 C 
HETATM    3  C3  UNL     1      -0.113   0.293  -0.477  1.00  0.00     0.045 C 
HETATM    4  C4  UNL     1      -1.174  -0.693  -1.072  1.00  0.00     0.055 C 
HETATM    5  C5  UNL     1      -2.551  -0.475  -0.326  1.00  0.00     0.141 C 
HETATM    6  C6  UNL     1      -2.756   0.990   0.201  1.00  0.00     0.062 C 
HETATM    7  C7  UNL     1      -2.340   1.160   1.670  1.00  0.00     0.005 C 
HETATM    8  C8  UNL     1      -2.728  -1.527   0.789  1.00  0.00     0.126 C 
HETATM    9  C9  UNL     1      -2.570  -2.920   0.225  1.00  0.00     0.274 C 
HETATM   10  O1  UNL     1      -1.697  -3.131  -0.772  1.00  0.00    -0.304 OA
HETATM   11  C10 UNL     1      -0.648  -2.172  -0.953  1.00  0.00     0.127 C 
HETATM   12  C11 UNL     1       0.422  -2.385   0.133  1.00  0.00     0.031 C 
HETATM   13  C12 UNL     1       1.654  -1.451   0.004  1.00  0.00     0.013 C 
HETATM   14  C13 UNL     1       1.354  -0.148  -0.805  1.00  0.00     0.060 C 
HETATM   15  C14 UNL     1       2.428   0.914  -0.586  1.00  0.00     0.194 C 
HETATM   16  C15 UNL     1       3.494   0.742   0.418  1.00  0.00     0.124 C 
HETATM   17  C16 UNL     1       3.457  -0.250   1.324  1.00  0.00     0.001 C 
HETATM   18  C17 UNL     1       2.289  -1.197   1.396  1.00  0.00     0.025 C 
HETATM   19  C18 UNL     1       1.311  -0.652   2.443  1.00  0.00     0.005 C 
HETATM   20  O3  UNL     1       2.438   1.922  -1.258  1.00  0.00    -0.289 OA
HETATM   21  C20 UNL     1       1.500  -0.457  -2.307  1.00  0.00     0.008 C 
HETATM   22  O4  UNL     1      -3.254  -3.811   0.670  1.00  0.00    -0.264 OA
HETATM   23  O5  UNL     1      -3.623  -0.719  -1.234  1.00  0.00    -0.225 OA
HETATM   24  C21 UNL     1      -1.310  -0.400  -2.586  1.00  0.00     0.005 C 
HETATM   25  O6  UNL     1       0.143   2.611   0.187  1.00  0.00    -0.221 OA
HETATM   26  O7  UNL     1      -2.605   2.107  -1.945  1.00  0.00    -0.221 OA
ENDROOT
BRANCH  16  27
HETATM   27  O2  UNL     1       4.524   1.588   0.430  1.00  0.00    -0.326 OA
HETATM   28  C19 UNL     1       4.486   2.469   1.541  1.00  0.00     0.181 C 
ENDBRANCH  16  27
TORSDOF 1
