REMARK  6 active torsions:
REMARK  status: ('A' for Active; 'I' for Inactive)
REMARK    1  A    between atoms: C1_1  and  C27_35 
REMARK    2  A    between atoms: C2_2  and  C3_3 
REMARK    3  A    between atoms: C9_10  and  C12_15 
REMARK    4  A    between atoms: C10_11  and  C11_13 
REMARK    5  A    between atoms: C18_22  and  C21_27 
REMARK    6  A    between atoms: C19_23  and  C20_25 
ROOT
HETATM    1  C12 UNL     1      -1.266   1.379  -0.238  1.00  0.00     0.010 A 
HETATM    2  C13 UNL     1      -0.158   0.500  -0.207  1.00  0.00     0.024 A 
HETATM    3  C14 UNL     1       1.141   0.988  -0.488  1.00  0.00     0.116 A 
HETATM    4  C15 UNL     1       1.334   2.365  -0.770  1.00  0.00     0.117 A 
HETATM    5  C16 UNL     1       0.223   3.240  -0.814  1.00  0.00     0.026 A 
HETATM    6  C17 UNL     1      -1.076   2.746  -0.549  1.00  0.00     0.000 A 
HETATM    7  O4  UNL     1       2.576   2.838  -0.996  1.00  0.00    -0.324 OA
HETATM    8  C18 UNL     1       3.715   2.035  -0.658  1.00  0.00     0.174 C 
HETATM    9  C19 UNL     1       3.443   0.562  -1.049  1.00  0.00     0.186 C 
HETATM   10  O5  UNL     1       2.193   0.145  -0.484  1.00  0.00    -0.326 OA
ENDROOT
BRANCH   1  11
HETATM   11  C9  UNL     1      -2.617   0.869   0.053  1.00  0.00     0.174 C 
HETATM   12  O1  UNL     1      -2.537  -0.188   1.018  1.00  0.00    -0.324 OA
HETATM   13  C7  UNL     1      -3.609  -0.977   1.230  1.00  0.00     0.117 A 
HETATM   14  C6  UNL     1      -4.695  -0.959   0.313  1.00  0.00     0.116 A 
HETATM   15  C8  UNL     1      -3.656  -1.822   2.365  1.00  0.00     0.026 A 
HETATM   16  C5  UNL     1      -5.842  -1.750   0.561  1.00  0.00     0.026 A 
HETATM   17  O2  UNL     1      -4.629  -0.188  -0.793  1.00  0.00    -0.326 OA
HETATM   18  C4  UNL     1      -5.897  -2.582   1.703  1.00  0.00     0.002 A 
HETATM   19  C3  UNL     1      -4.801  -2.621   2.600  1.00  0.00     0.002 A 
HETATM   20  C10 UNL     1      -3.371   0.365  -1.201  1.00  0.00     0.186 C 
BRANCH  19  21
HETATM   21  C2  UNL     1      -4.852  -3.500   3.785  1.00  0.00    -0.002 C 
HETATM   22  C1  UNL     1      -5.531  -4.656   3.703  1.00  0.00     0.009 C 
BRANCH  22  23
HETATM   23  C27 UNL     1      -5.582  -5.547   4.914  1.00  0.00     0.209 C 
HETATM   24  O9  UNL     1      -6.664  -6.443   4.795  1.00  0.00    -0.215 OA
ENDBRANCH  22  23
ENDBRANCH  19  21
BRANCH  20  25
HETATM   25  C11 UNL     1      -2.594  -0.709  -1.980  1.00  0.00     0.215 C 
HETATM   26  O3  UNL     1      -3.385  -1.119  -3.074  1.00  0.00    -0.218 OA
ENDBRANCH  20  25
ENDBRANCH   1  11
BRANCH   9  27
HETATM   27  C20 UNL     1       4.535  -0.400  -0.574  1.00  0.00     0.215 C 
HETATM   28  O6  UNL     1       4.221  -1.691  -1.045  1.00  0.00    -0.218 OA
ENDBRANCH   9  27
BRANCH   8  29
HETATM   29  C21 UNL     1       4.920   2.598  -1.322  1.00  0.00     0.010 A 
HETATM   30  C22 UNL     1       6.082   2.852  -0.572  1.00  0.00     0.028 A 
HETATM   31  C23 UNL     1       7.225   3.385  -1.195  1.00  0.00     0.156 A 
HETATM   32  C24 UNL     1       7.203   3.664  -2.574  1.00  0.00     0.156 A 
HETATM   33  O8  UNL     1       8.311   3.619  -0.486  1.00  0.00    -0.188 OA
HETATM   34  C25 UNL     1       6.041   3.410  -3.322  1.00  0.00     0.029 A 
HETATM   35  O7  UNL     1       8.270   4.164  -3.166  1.00  0.00    -0.188 OA
HETATM   36  C26 UNL     1       4.898   2.879  -2.699  1.00  0.00     0.000 A 
ENDBRANCH   8  29
TORSDOF 6
