REMARK  9 active torsions:
REMARK  status: ('A' for Active; 'I' for Inactive)
REMARK    1  A    between atoms: C4_4  and  C7_7 
REMARK    2  A    between atoms: C16_18  and  O8_38 
REMARK    3  A    between atoms: C20_22  and  O6_33 
REMARK    4  A    between atoms: C22_24  and  O3_25 
REMARK    5  A    between atoms: O3_25  and  C23_26 
REMARK    6  A    between atoms: O6_33  and  C28_34 
REMARK    7  A    between atoms: O8_38  and  C31_39 
REMARK    8  A    between atoms: C31_39  and  C32_40 
REMARK    9  A    between atoms: C33_41  and  C34_42 
ROOT
HETATM    1  C1  UNL     1       1.949  -1.385   1.236  1.00  0.00    -0.023 C 
HETATM    2  C2  UNL     1       2.912  -0.219   1.205  1.00  0.00     0.136 C 
HETATM    3  C3  UNL     1       4.303  -0.871   1.311  1.00  0.00     0.042 C 
HETATM    4  C4  UNL     1       4.086  -2.262   0.705  1.00  0.00     0.045 C 
HETATM    5  C5  UNL     1       2.629  -2.514   0.957  1.00  0.00    -0.045 C 
HETATM    6  C6  UNL     1       2.062  -3.910   0.893  1.00  0.00     0.026 C 
HETATM    7  O2  UNL     1       2.744   0.670   2.297  1.00  0.00    -0.327 OA
HETATM    8  C11 UNL     1       1.838   1.738   2.092  1.00  0.00     0.270 C 
HETATM    9  C12 UNL     1       0.504   1.281   1.465  1.00  0.00     0.065 C 
HETATM   10  C13 UNL     1      -0.119   0.031   2.149  1.00  0.00     0.013 C 
HETATM   11  C14 UNL     1       0.443  -1.320   1.531  1.00  0.00     0.045 C 
HETATM   12  C15 UNL     1       0.205  -2.428   2.572  1.00  0.00     0.007 C 
HETATM   13  C16 UNL     1      -0.295  -1.701   0.203  1.00  0.00     0.155 C 
HETATM   14  C17 UNL     1      -1.801  -1.758   0.455  1.00  0.00     0.143 C 
HETATM   15  C18 UNL     1      -2.301  -0.426   0.971  1.00  0.00     0.037 C 
HETATM   16  C19 UNL     1      -1.699   0.014   2.307  1.00  0.00     0.029 C 
HETATM   17  C20 UNL     1      -2.483   1.330   2.633  1.00  0.00     0.127 C 
HETATM   18  C21 UNL     1      -4.018   1.129   2.608  1.00  0.00     0.060 C 
HETATM   19  C22 UNL     1      -4.539   0.619   1.236  1.00  0.00     0.129 C 
HETATM   20  C25 UNL     1      -3.817  -0.691   0.898  1.00  0.00     0.056 C 
HETATM   21  C26 UNL     1      -4.344  -1.816   1.801  1.00  0.00     0.005 C 
HETATM   22  C27 UNL     1      -3.838  -1.252  -0.541  1.00  0.00     0.145 C 
HETATM   23  O5  UNL     1      -2.602  -1.939  -0.697  1.00  0.00    -0.354 OA
HETATM   24  C30 UNL     1      -2.074  -1.010   3.393  1.00  0.00     0.003 C 
HETATM   25  O10 UNL     1       2.422   2.748   1.291  1.00  0.00    -0.190 OA
ENDROOT
BRANCH  13  26
HETATM   26  O8  UNL     1      -0.002  -0.764  -0.826  1.00  0.00    -0.298 OA
BRANCH  26  27
HETATM   27  C31 UNL     1       0.969  -1.186  -1.633  1.00  0.00     0.296 C 
HETATM   28  O9  UNL     1       1.451  -2.293  -1.586  1.00  0.00    -0.259 OA
BRANCH  27  29
HETATM   29  C32 UNL     1       1.445  -0.209  -2.619  1.00  0.00     0.068 C 
HETATM   30  C33 UNL     1       1.975  -0.615  -3.783  1.00  0.00     0.005 C 
BRANCH  30  31
HETATM   31  C34 UNL     1       2.445   0.416  -4.756  1.00  0.00     0.000 A 
HETATM   32  C35 UNL     1       2.406   0.150  -6.139  1.00  0.00     0.000 A 
HETATM   33  C36 UNL     1       2.850   1.121  -7.053  1.00  0.00     0.000 A 
HETATM   34  C37 UNL     1       3.332   2.357  -6.588  1.00  0.00     0.000 A 
HETATM   35  C38 UNL     1       3.373   2.623  -5.209  1.00  0.00     0.000 A 
HETATM   36  C39 UNL     1       2.930   1.652  -4.293  1.00  0.00     0.000 A 
ENDBRANCH  30  31
ENDBRANCH  27  29
ENDBRANCH  26  27
ENDBRANCH  13  26
BRANCH   4  37
HETATM   37  C7  UNL     1       4.404  -2.285  -0.773  1.00  0.00     0.008 A 
HETATM   38  C8  UNL     1       4.586  -3.412  -1.582  1.00  0.00     0.119 A 
HETATM   39  O1  UNL     1       4.863  -3.078  -2.875  1.00  0.00    -0.303 OA
HETATM   40  C9  UNL     1       4.854  -1.713  -2.879  1.00  0.00     0.122 A 
HETATM   41  C10 UNL     1       4.578  -1.186  -1.613  1.00  0.00     0.025 A 
ENDBRANCH   4  37
BRANCH  17  42
HETATM   42  O6  UNL     1      -2.227   2.367   1.699  1.00  0.00    -0.304 OA
BRANCH  42  43
HETATM   43  C28 UNL     1      -2.451   3.576   2.209  1.00  0.00     0.272 C 
HETATM   44  C29 UNL     1      -2.027   4.727   1.336  1.00  0.00     0.106 C 
HETATM   45  O7  UNL     1      -2.955   3.766   3.291  1.00  0.00    -0.264 OA
ENDBRANCH  42  43
ENDBRANCH  17  42
BRANCH  19  46
HETATM   46  O3  UNL     1      -4.297   1.594   0.231  1.00  0.00    -0.304 OA
BRANCH  46  47
HETATM   47  C23 UNL     1      -5.192   2.576   0.252  1.00  0.00     0.272 C 
HETATM   48  C24 UNL     1      -5.110   3.543  -0.900  1.00  0.00     0.106 C 
HETATM   49  O4  UNL     1      -6.024   2.711   1.117  1.00  0.00    -0.264 OA
ENDBRANCH  46  47
ENDBRANCH  19  46
TORSDOF 9
