REMARK  7 active torsions:
REMARK  status: ('A' for Active; 'I' for Inactive)
REMARK    1  A    between atoms: O1_1  and  C1_2 
REMARK    2  A    between atoms: O1_1  and  C17_25 
REMARK    3  A    between atoms: C4_6  and  O4_9 
REMARK    4  A    between atoms: O4_9  and  C6_10 
REMARK    5  A    between atoms: C6_10  and  C7_11 
REMARK    6  A    between atoms: C8_12  and  C9_13 
REMARK    7  A    between atoms: C11_15  and  O6_20 
ROOT
HETATM    1  O4  UNL     1       0.631   0.156   0.154  1.00  0.00    -0.293 OA
ENDROOT
BRANCH   1   2
HETATM    2  C4  UNL     1       1.473  -0.990   0.230  1.00  0.00     0.216 C 
HETATM    3  C3  UNL     1       0.734  -2.229  -0.326  1.00  0.00     0.300 C 
HETATM    4  O2  UNL     1       1.600  -3.359  -0.293  1.00  0.00    -0.327 OA
HETATM    5  O8  UNL     1      -0.406  -2.492   0.463  1.00  0.00    -0.187 OA
HETATM    6  C2  UNL     1       2.793  -3.244  -1.065  1.00  0.00     0.148 C 
HETATM    7  C1  UNL     1       3.621  -2.025  -0.596  1.00  0.00     0.184 C 
HETATM    8  C16 UNL     1       2.434  -3.211  -2.555  1.00  0.00     0.035 C 
HETATM    9  C5  UNL     1       2.793  -0.729  -0.516  1.00  0.00     0.215 C 
HETATM   10  O3  UNL     1       2.523  -0.262  -1.826  1.00  0.00    -0.218 OA
BRANCH   7  11
HETATM   11  O1  UNL     1       4.141  -2.301   0.699  1.00  0.00    -0.299 OA
BRANCH  11  12
HETATM   12  C17 UNL     1       5.158  -3.156   0.664  1.00  0.00     0.273 C 
HETATM   13  O9  UNL     1       5.631  -3.600  -0.357  1.00  0.00    -0.264 OA
HETATM   14  C18 UNL     1       5.709  -3.553   2.008  1.00  0.00     0.106 C 
ENDBRANCH  11  12
ENDBRANCH   7  11
ENDBRANCH   1   2
BRANCH   1  15
HETATM   15  C6  UNL     1      -0.225   0.225   1.172  1.00  0.00     0.296 C 
HETATM   16  O7  UNL     1      -0.068  -0.352   2.223  1.00  0.00    -0.259 OA
BRANCH  15  17
HETATM   17  C7  UNL     1      -1.408   1.064   0.953  1.00  0.00     0.068 C 
HETATM   18  C8  UNL     1      -1.641   1.619  -0.248  1.00  0.00     0.005 C 
BRANCH  18  19
HETATM   19  C9  UNL     1      -2.859   2.465  -0.422  1.00  0.00     0.002 A 
HETATM   20  C10 UNL     1      -3.467   3.066   0.695  1.00  0.00     0.026 A 
HETATM   21  C11 UNL     1      -4.613   3.863   0.537  1.00  0.00     0.119 A 
HETATM   22  C12 UNL     1      -5.156   4.063  -0.746  1.00  0.00     0.153 A 
HETATM   23  C13 UNL     1      -4.549   3.461  -1.863  1.00  0.00     0.029 A 
HETATM   24  O5  UNL     1      -6.231   4.807  -0.906  1.00  0.00    -0.188 OA
HETATM   25  C14 UNL     1      -3.402   2.664  -1.703  1.00  0.00     0.002 A 
BRANCH  21  26
HETATM   26  O6  UNL     1      -5.176   4.424   1.590  1.00  0.00    -0.326 OA
HETATM   27  C15 UNL     1      -4.776   3.975   2.875  1.00  0.00     0.181 C 
ENDBRANCH  21  26
ENDBRANCH  18  19
ENDBRANCH  15  17
ENDBRANCH   1  15
TORSDOF 7
