REMARK  1 active torsions:
REMARK  status: ('A' for Active; 'I' for Inactive)
REMARK    1  A    between atoms: C15_17  and  O3_18 
ROOT
HETATM    1  C1  UNL     1      -1.564   0.390  -0.034  1.00  0.00     0.133 A 
HETATM    2  C2  UNL     1      -1.023  -0.864  -0.326  1.00  0.00     0.027 A 
HETATM    3  C3  UNL     1       0.330  -0.997  -0.636  1.00  0.00     0.002 A 
HETATM    4  C4  UNL     1       1.172   0.118  -0.661  1.00  0.00     0.028 A 
HETATM    5  C5  UNL     1       0.656   1.396  -0.399  1.00  0.00     0.094 A 
HETATM    6  C6  UNL     1      -0.702   1.490  -0.066  1.00  0.00     0.051 A 
HETATM    7  O1  UNL     1       1.448   2.512  -0.362  1.00  0.00    -0.331 OA
HETATM    8  C7  UNL     1       2.790   2.265  -0.038  1.00  0.00     0.156 C 
HETATM    9  C8  UNL     1       3.402   1.282  -1.027  1.00  0.00     0.086 C 
HETATM   10  C9  UNL     1       2.621  -0.051  -1.031  1.00  0.00     0.152 C 
HETATM   11  O2  UNL     1       3.328  -0.954  -0.181  1.00  0.00    -0.327 OA
HETATM   12  C10 UNL     1       4.632  -0.504  -0.046  1.00  0.00     0.115 A 
HETATM   13  C11 UNL     1       4.737   0.788  -0.546  1.00  0.00     0.007 A 
HETATM   14  C12 UNL     1       5.957   1.450  -0.518  1.00  0.00     0.000 A 
HETATM   15  C13 UNL     1       7.042   0.748   0.009  1.00  0.00     0.029 A 
HETATM   16  C14 UNL     1       6.945  -0.564   0.504  1.00  0.00     0.155 A 
HETATM   17  C15 UNL     1       5.702  -1.234   0.489  1.00  0.00     0.141 A 
HETATM   18  O4  UNL     1       8.084  -1.133   0.984  1.00  0.00    -0.188 OA
HETATM   19  O5  UNL     1      -2.877   0.542   0.282  1.00  0.00    -0.190 OA
ENDROOT
BRANCH  17  20
HETATM   20  O3  UNL     1       5.432  -2.506   0.926  1.00  0.00    -0.324 OA
HETATM   21  C16 UNL     1       6.454  -3.308   1.464  1.00  0.00     0.182 C 
ENDBRANCH  17  20
TORSDOF 1
