REMARK  3 active torsions:
REMARK  status: ('A' for Active; 'I' for Inactive)
REMARK    1  A    between atoms: C1_1  and  N1_2 
REMARK    2  A    between atoms: C1_1  and  C4_5 
REMARK    3  A    between atoms: C8_9  and  C12_16 
ROOT
HETATM    1  C4  UNL     1      -1.799   0.124   0.054  1.00  0.00     0.040 C 
HETATM    2  C5  UNL     1      -0.308   0.530   0.258  1.00  0.00     0.056 C 
HETATM    3  C6  UNL     1       0.483  -0.809   0.342  1.00  0.00     0.016 C 
HETATM    4  C7  UNL     1       1.700  -0.940  -0.599  1.00  0.00     0.090 C 
HETATM    5  C8  UNL     1       2.444   0.397  -0.693  1.00  0.00     0.044 C 
HETATM    6  C9  UNL     1       1.443   1.036  -1.655  1.00  0.00     0.181 C 
HETATM    7  C10 UNL     1       0.155   1.405  -0.915  1.00  0.00     0.177 C 
HETATM    8  O1  UNL     1      -0.463   2.390  -1.255  1.00  0.00    -0.293 OA
HETATM    9  O2  UNL     1       1.152   0.052  -2.618  1.00  0.00    -0.297 OA
HETATM   10  C11 UNL     1       1.318  -1.167  -2.051  1.00  0.00     0.272 C 
HETATM   11  O3  UNL     1       1.175  -2.229  -2.616  1.00  0.00    -0.264 OA
HETATM   12  C15 UNL     1      -0.545  -1.933   0.112  1.00  0.00     0.001 C 
HETATM   13  C16 UNL     1      -1.690  -1.245  -0.639  1.00  0.00     0.002 C 
HETATM   14  C17 UNL     1      -0.099   1.417   1.505  1.00  0.00     0.007 C 
ENDROOT
BRANCH   1  15
HETATM   15  C1  UNL     1      -2.634   0.023   1.354  1.00  0.00     0.251 C 
BRANCH  15  16
HETATM   16  N1  UNL     1      -3.973  -0.536   1.182  1.00  0.00     0.141 N 
HETATM   17  C2  UNL     1      -4.580  -0.816   2.477  1.00  0.00     0.285 C 
HETATM   18  C3  UNL     1      -4.841   0.333   0.400  1.00  0.00     0.285 C 
ENDBRANCH  15  16
ENDBRANCH   1  15
BRANCH   5  19
HETATM   19  C12 UNL     1       3.892   0.287  -1.226  1.00  0.00     0.003 C 
HETATM   20  C13 UNL     1       4.504   1.672  -1.510  1.00  0.00     0.000 C 
HETATM   21  C14 UNL     1       4.802  -0.445  -0.220  1.00  0.00     0.000 C 
ENDBRANCH   5  19
TORSDOF 3
