REMARK  11 active torsions:
REMARK  status: ('A' for Active; 'I' for Inactive)
REMARK    1  A    between atoms: C1_1  and  C16_21 
REMARK    2  A    between atoms: C3_3  and  O5_19 
REMARK    3  A    between atoms: C5_5  and  C7_8 
REMARK    4  A    between atoms: C7_8  and  C8_9 
REMARK    5  A    between atoms: C9_10  and  C10_11 
REMARK    6  A    between atoms: C11_12  and  C12_13 
REMARK    7  A    between atoms: C13_14  and  C14_15 
REMARK    8  A    between atoms: C16_21  and  C17_22 
REMARK    9  A    between atoms: C17_22  and  C18_23 
REMARK   10  A    between atoms: C18_23  and  C19_24 
REMARK   11  A    between atoms: C20_25  and  C21_26 
ROOT
HETATM    1  C1  UNL     1       1.242  -2.029   0.577  1.00  0.00     0.005 C 
HETATM    2  C2  UNL     1       1.580  -3.058   1.473  1.00  0.00     0.022 C 
HETATM    3  C3  UNL     1       0.688  -4.002   1.990  1.00  0.00     0.094 C 
HETATM    4  C4  UNL     1      -0.642  -3.857   1.582  1.00  0.00     0.029 C 
HETATM    5  C5  UNL     1      -1.023  -2.844   0.699  1.00  0.00     0.066 C 
HETATM    6  C6  UNL     1      -0.084  -1.971   0.119  1.00  0.00     0.130 C 
HETATM    7  O1  UNL     1      -0.495  -1.114  -0.852  1.00  0.00    -0.190 OA
ENDROOT
BRANCH   5   8
HETATM    8  C7  UNL     1      -2.484  -2.730   0.370  1.00  0.00     0.198 C 
HETATM    9  O4  UNL     1      -3.154  -3.735   0.153  1.00  0.00    -0.286 OA
BRANCH   8  10
HETATM   10  C8  UNL     1      -3.121  -1.385   0.311  1.00  0.00     0.042 C 
HETATM   11  C9  UNL     1      -2.574  -0.259   0.828  1.00  0.00     0.003 C 
BRANCH  11  12
HETATM   12  C10 UNL     1      -3.161   1.063   0.598  1.00  0.00     0.000 C 
HETATM   13  C11 UNL     1      -2.403   2.179   0.730  1.00  0.00     0.000 C 
BRANCH  13  14
HETATM   14  C12 UNL     1      -2.901   3.501   0.347  1.00  0.00     0.006 C 
HETATM   15  C13 UNL     1      -2.159   4.616   0.132  1.00  0.00     0.070 C 
BRANCH  15  16
HETATM   16  C14 UNL     1      -0.684   4.738   0.209  1.00  0.00     0.211 C 
HETATM   17  O2  UNL     1      -0.071   5.908  -0.068  1.00  0.00    -0.644 OA
HETATM   18  O3  UNL     1       0.050   3.800   0.491  1.00  0.00    -0.644 OA
ENDBRANCH  15  16
ENDBRANCH  13  14
ENDBRANCH  11  12
ENDBRANCH   8  10
ENDBRANCH   5   8
BRANCH   3  19
HETATM   19  O5  UNL     1       1.167  -5.006   2.795  1.00  0.00    -0.328 OA
HETATM   20  C15 UNL     1       0.365  -6.151   2.970  1.00  0.00     0.181 C 
ENDBRANCH   3  19
BRANCH   1  21
HETATM   21  C16 UNL     1       2.374  -1.067   0.208  1.00  0.00     0.025 C 
HETATM   22  C22 UNL     1       2.682  -0.174   1.427  1.00  0.00     0.005 C 
BRANCH  21  23
HETATM   23  C17 UNL     1       2.277  -0.237  -1.088  1.00  0.00     0.009 C 
BRANCH  23  24
HETATM   24  C18 UNL     1       1.518   1.100  -0.980  1.00  0.00     0.027 C 
BRANCH  24  25
HETATM   25  C19 UNL     1       1.165   1.625  -2.349  1.00  0.00    -0.020 C 
HETATM   26  C20 UNL     1       1.449   2.873  -2.770  1.00  0.00     0.066 C 
BRANCH  26  27
HETATM   27  C21 UNL     1       1.090   3.348  -4.130  1.00  0.00     0.211 C 
HETATM   28  O6  UNL     1       1.327   4.507  -4.445  1.00  0.00    -0.644 OA
HETATM   29  O7  UNL     1       0.512   2.560  -5.061  1.00  0.00    -0.644 OA
ENDBRANCH  26  27
ENDBRANCH  24  25
ENDBRANCH  23  24
ENDBRANCH  21  23
ENDBRANCH   1  21
TORSDOF 11
