REMARK  0 active torsions:
REMARK  status: ('A' for Active; 'I' for Inactive)
ROOT
HETATM    1  C1  UNL     1       0.887   2.012  -0.217  1.00  0.00     0.145 C 
HETATM    2  C2  UNL     1       1.621   0.705   0.072  1.00  0.00    -0.001 A 
HETATM    3  C3  UNL     1       1.100  -0.654  -0.131  1.00  0.00    -0.004 A 
HETATM    4  C4  UNL     1      -0.297  -1.002  -0.613  1.00  0.00     0.146 C 
HETATM    5  C5  UNL     1      -1.373  -0.014  -0.143  1.00  0.00     0.042 C 
HETATM    6  C6  UNL     1      -1.492   1.250  -0.996  1.00  0.00     0.006 C 
HETATM    7  C7  UNL     1      -0.147   1.900  -1.365  1.00  0.00     0.035 C 
HETATM    8  C8  UNL     1      -2.617  -0.904  -0.199  1.00  0.00     0.089 C 
HETATM    9  C9  UNL     1      -2.020  -2.260   0.023  1.00  0.00     0.272 C 
HETATM   10  O1  UNL     1      -0.703  -2.283  -0.133  1.00  0.00    -0.300 OA
HETATM   11  O2  UNL     1      -2.690  -3.221   0.326  1.00  0.00    -0.264 OA
HETATM   12  C10 UNL     1      -3.647  -0.502   0.851  1.00  0.00     0.011 C 
HETATM   13  C11 UNL     1       2.059  -1.539   0.191  1.00  0.00    -0.041 A 
HETATM   14  C12 UNL     1       3.297  -0.826   0.676  1.00  0.00     0.048 A 
HETATM   15  C13 UNL     1       2.875   0.619   0.556  1.00  0.00    -0.024 A 
HETATM   16  C14 UNL     1       1.967  -3.041   0.105  1.00  0.00     0.026 C 
HETATM   17  C15 UNL     1       0.264   2.576   1.064  1.00  0.00     0.038 C 
HETATM   18  O3  UNL     1       1.828   2.981  -0.639  1.00  0.00    -0.222 OA
ENDROOT
TORSDOF 0
