REMARK  12 active torsions:
REMARK  status: ('A' for Active; 'I' for Inactive)
REMARK    1  A    between atoms: C2_2  and  C3_3 
REMARK    2  A    between atoms: C3_3  and  C4_4 
REMARK    3  A    between atoms: C4_4  and  C5_5 
REMARK    4  A    between atoms: C5_5  and  C6_6 
REMARK    5  A    between atoms: C6_6  and  C7_7 
REMARK    6  A    between atoms: C7_7  and  C8_8 
REMARK    7  A    between atoms: C8_8  and  C9_9 
REMARK    8  A    between atoms: C9_9  and  C10_10 
REMARK    9  A    between atoms: C10_10  and  C11_11 
REMARK   10  A    between atoms: C11_11  and  C12_12 
REMARK   11  A    between atoms: C12_12  and  C13_13 
REMARK   12  A    between atoms: C13_13  and  C14_14 
ROOT
HETATM    1  C8  UNL     1       1.380   1.965  -0.022  1.00  0.00     0.003 C 
ENDROOT
BRANCH   1   2
HETATM    2  C7  UNL     1       0.124   2.764  -0.413  1.00  0.00     0.033 C 
BRANCH   2   3
HETATM    3  C6  UNL     1      -0.779   3.068   0.788  1.00  0.00     0.152 C 
HETATM    4  O2  UNL     1      -1.029   4.456   0.831  1.00  0.00    -0.224 OA
BRANCH   3   5
HETATM    5  C5  UNL     1      -2.130   2.347   0.765  1.00  0.00     0.033 C 
BRANCH   5   6
HETATM    6  C4  UNL     1      -2.031   0.812   0.798  1.00  0.00     0.003 C 
BRANCH   6   7
HETATM    7  C3  UNL     1      -3.420   0.169   0.962  1.00  0.00     0.000 C 
BRANCH   7   8
HETATM    8  C2  UNL     1      -3.373  -1.363   0.855  1.00  0.00     0.000 C 
HETATM    9  C1  UNL     1      -4.743  -1.999   1.127  1.00  0.00     0.000 C 
ENDBRANCH   7   8
ENDBRANCH   6   7
ENDBRANCH   5   6
ENDBRANCH   3   5
ENDBRANCH   2   3
ENDBRANCH   1   2
BRANCH   1  10
HETATM   10  C9  UNL     1       2.228   1.587  -1.247  1.00  0.00     0.003 C 
BRANCH  10  11
HETATM   11  C10 UNL     1       3.611   1.017  -0.890  1.00  0.00     0.033 C 
BRANCH  11  12
HETATM   12  C11 UNL     1       3.622  -0.305  -0.118  1.00  0.00     0.152 C 
HETATM   13  O1  UNL     1       4.968  -0.604   0.185  1.00  0.00    -0.224 OA
BRANCH  12  14
HETATM   14  C12 UNL     1       3.025  -1.494  -0.878  1.00  0.00     0.033 C 
BRANCH  14  15
HETATM   15  C13 UNL     1       1.587  -1.841  -0.458  1.00  0.00     0.003 C 
BRANCH  15  16
HETATM   16  C14 UNL     1       1.042  -3.057  -1.225  1.00  0.00     0.000 C 
HETATM   17  C15 UNL     1      -0.364  -3.443  -0.749  1.00  0.00     0.000 C 
ENDBRANCH  15  16
ENDBRANCH  14  15
ENDBRANCH  12  14
ENDBRANCH  11  12
ENDBRANCH  10  11
ENDBRANCH   1  10
TORSDOF 12
