REMARK  5 active torsions:
REMARK  status: ('A' for Active; 'I' for Inactive)
REMARK    1  A    between atoms: C2_2  and  C3_3 
REMARK    2  A    between atoms: C4_4  and  C5_5 
REMARK    3  A    between atoms: C5_5  and  C6_6 
REMARK    4  A    between atoms: C6_6  and  C7_7 
REMARK    5  A    between atoms: C8_8  and  C9_9 
ROOT
HETATM    1  C5  UNL     1      -0.226   0.445  -0.000  1.00  0.00     0.030 C 
ENDROOT
BRANCH   1   2
HETATM    2  C4  UNL     1       0.009  -1.045  -0.000  1.00  0.00    -0.030 C 
HETATM    3  C3  UNL     1      -0.993  -1.937  -0.000  1.00  0.00    -0.031 C 
BRANCH   3   4
HETATM    4  C2  UNL     1      -0.770  -3.428  -0.000  1.00  0.00     0.026 C 
HETATM    5  C1  UNL     1      -2.087  -4.216   0.000  1.00  0.00     0.005 C 
ENDBRANCH   3   4
ENDBRANCH   1   2
BRANCH   1   6
HETATM    6  C6  UNL     1       1.082   1.251   0.000  1.00  0.00     0.031 C 
BRANCH   6   7
HETATM    7  C7  UNL     1       0.836   2.740   0.000  1.00  0.00    -0.022 C 
HETATM    8  C8  UNL     1       1.834   3.646   0.000  1.00  0.00     0.041 C 
BRANCH   8   9
HETATM    9  C9  UNL     1       1.583   5.102   0.000  1.00  0.00     0.234 C 
HETATM   10  O1  UNL     1       0.467   5.604  -0.000  1.00  0.00    -0.283 OA
ENDBRANCH   8   9
ENDBRANCH   6   7
ENDBRANCH   1   6
TORSDOF 5
