REMARK  0 active torsions:
REMARK  status: ('A' for Active; 'I' for Inactive)
ROOT
HETATM    1  C1  UNL     1       0.168   1.187   2.665  1.00  0.00     0.057 C 
HETATM    2  C2  UNL     1      -0.685  -0.039   2.350  1.00  0.00     0.190 C 
HETATM    3  O1  UNL     1       0.140  -1.176   2.336  1.00  0.00    -0.309 OA
HETATM    4  C3  UNL     1       0.473  -1.412   0.984  1.00  0.00     0.270 C 
HETATM    5  C4  UNL     1      -0.077  -0.220   0.249  1.00  0.00     0.147 C 
HETATM    6  C5  UNL     1       0.741   1.086   0.265  1.00  0.00     0.030 C 
HETATM    7  C6  UNL     1       1.326   1.329   1.661  1.00  0.00     0.007 C 
HETATM    8  C7  UNL     1       1.693   1.155  -0.937  1.00  0.00     0.002 C 
HETATM    9  C8  UNL     1       0.833   1.254  -2.220  1.00  0.00     0.000 C 
HETATM   10  C9  UNL     1      -0.524   0.524  -2.111  1.00  0.00     0.003 C 
HETATM   11  C10 UNL     1      -0.389  -0.681  -1.174  1.00  0.00     0.039 C 
HETATM   12  C11 UNL     1      -1.536  -1.692  -1.124  1.00  0.00     0.089 C 
HETATM   13  C12 UNL     1      -1.230  -2.814  -0.131  1.00  0.00     0.273 C 
HETATM   14  O2  UNL     1      -0.163  -2.648   0.702  1.00  0.00    -0.273 OA
HETATM   15  O3  UNL     1      -1.851  -3.856  -0.158  1.00  0.00    -0.264 OA
HETATM   16  C13 UNL     1      -1.860  -2.289  -2.506  1.00  0.00     0.011 C 
HETATM   17  C14 UNL     1       2.699   2.314  -0.871  1.00  0.00     0.000 C 
HETATM   18  O4  UNL     1      -1.192   0.020   1.039  1.00  0.00    -0.335 OA
HETATM   19  C15 UNL     1      -1.828  -0.222   3.332  1.00  0.00     0.061 C 
ENDROOT
TORSDOF 0
