REMARK  8 active torsions:
REMARK  status: ('A' for Active; 'I' for Inactive)
REMARK    1  A    between atoms: C2_2  and  C3_3 
REMARK    2  A    between atoms: C3_3  and  C4_4 
REMARK    3  A    between atoms: C4_4  and  C5_5 
REMARK    4  A    between atoms: C5_5  and  C6_6 
REMARK    5  A    between atoms: C6_6  and  C7_7 
REMARK    6  A    between atoms: C7_7  and  C8_8 
REMARK    7  A    between atoms: C8_8  and  O1_9 
REMARK    8  A    between atoms: O1_9  and  C9_10 
ROOT
HETATM    1  C7  UNL     1      -0.043   1.904   0.331  1.00  0.00     0.030 C 
ENDROOT
BRANCH   1   2
HETATM    2  C6  UNL     1       0.213   0.388   0.365  1.00  0.00     0.003 C 
BRANCH   2   3
HETATM    3  C5  UNL     1      -1.101  -0.409   0.389  1.00  0.00     0.000 C 
BRANCH   3   4
HETATM    4  C4  UNL     1      -0.858  -1.927   0.393  1.00  0.00     0.000 C 
BRANCH   4   5
HETATM    5  C3  UNL     1      -2.177  -2.716   0.395  1.00  0.00     0.000 C 
BRANCH   5   6
HETATM    6  C2  UNL     1      -1.943  -4.235   0.390  1.00  0.00     0.000 C 
HETATM    7  C1  UNL     1      -3.265  -5.014   0.387  1.00  0.00     0.000 C 
ENDBRANCH   5   6
ENDBRANCH   4   5
ENDBRANCH   3   4
ENDBRANCH   2   3
ENDBRANCH   1   2
BRANCH   1   8
HETATM    8  C8  UNL     1       1.242   2.742   0.333  1.00  0.00     0.124 C 
HETATM    9  C11 UNL     1       0.911   4.237   0.385  1.00  0.00     0.033 C 
BRANCH   8  10
HETATM   10  O1  UNL     1       1.972   2.453  -0.825  1.00  0.00    -0.304 OA
BRANCH  10  11
HETATM   11  C9  UNL     1       3.295   2.767  -0.843  1.00  0.00     0.272 C 
HETATM   12  C10 UNL     1       3.908   2.414  -2.184  1.00  0.00     0.106 C 
HETATM   13  O2  UNL     1       3.908   3.263   0.075  1.00  0.00    -0.264 OA
ENDBRANCH  10  11
ENDBRANCH   8  10
ENDBRANCH   1   8
TORSDOF 8
