REMARK  0 active torsions:
REMARK  status: ('A' for Active; 'I' for Inactive)
ROOT
HETATM    1  C1  UNL     1      -3.895   2.684   0.615  1.00  0.00     0.005 A 
HETATM    2  C2  UNL     1      -5.138   2.062   0.638  1.00  0.00     0.000 A 
HETATM    3  C3  UNL     1      -5.213   0.668   0.539  1.00  0.00     0.002 A 
HETATM    4  C4  UNL     1      -4.051  -0.086   0.412  1.00  0.00     0.017 A 
HETATM    5  C5  UNL     1      -2.778   0.525   0.367  1.00  0.00     0.063 A 
HETATM    6  C6  UNL     1      -2.717   1.923   0.486  1.00  0.00     0.055 A 
HETATM    7  C7  UNL     1      -1.411   2.612   0.441  1.00  0.00     0.200 A 
HETATM    8  C8  UNL     1      -0.167   1.809   0.328  1.00  0.00     0.080 A 
HETATM    9  C9  UNL     1      -0.245   0.399   0.284  1.00  0.00     0.067 A 
HETATM   10  N1  UNL     1      -1.552  -0.161   0.234  1.00  0.00    -0.325 N 
HETATM   11  C10 UNL     1      -1.691  -1.574  -0.205  1.00  0.00     0.131 C 
HETATM   12  C11 UNL     1       0.969  -0.340   0.313  1.00  0.00     0.038 C 
HETATM   13  C12 UNL     1       2.216   0.290   0.181  1.00  0.00     0.098 C 
HETATM   14  C13 UNL     1       2.224   1.688   0.117  1.00  0.00     0.052 C 
HETATM   15  C14 UNL     1       1.081   2.472   0.251  1.00  0.00     0.137 C 
HETATM   16  O1  UNL     1       1.234   3.825   0.201  1.00  0.00    -0.190 OA
HETATM   17  O2  UNL     1       3.400  -0.392   0.070  1.00  0.00    -0.332 OA
HETATM   18  C15 UNL     1       3.304  -1.712  -0.394  1.00  0.00     0.117 C 
HETATM   19  C16 UNL     1       2.208  -2.425   0.356  1.00  0.00     0.001 C 
HETATM   20  C17 UNL     1       1.079  -1.764   0.664  1.00  0.00     0.001 C 
HETATM   21  C18 UNL     1       4.657  -2.387  -0.151  1.00  0.00     0.035 C 
HETATM   22  C19 UNL     1       2.986  -1.712  -1.895  1.00  0.00     0.035 C 
HETATM   23  O3  UNL     1      -1.389   3.839   0.527  1.00  0.00    -0.286 OA
ENDROOT
TORSDOF 0
