REMARK  1 active torsions:
REMARK  status: ('A' for Active; 'I' for Inactive)
REMARK    1  A    between atoms: C13_14  and  C15_17 
ROOT
HETATM    1  C1  UNL     1      -4.372  -0.598  -0.165  1.00  0.00     0.000 A 
HETATM    2  C2  UNL     1      -4.032  -1.945  -0.080  1.00  0.00     0.000 A 
HETATM    3  C3  UNL     1      -2.688  -2.318   0.036  1.00  0.00     0.003 A 
HETATM    4  C4  UNL     1      -1.683  -1.345   0.068  1.00  0.00     0.042 A 
HETATM    5  C5  UNL     1      -2.023   0.017  -0.018  1.00  0.00     0.042 A 
HETATM    6  C6  UNL     1      -3.370   0.380  -0.135  1.00  0.00     0.003 A 
HETATM    7  C7  UNL     1      -0.980   1.073   0.009  1.00  0.00     0.198 A 
HETATM    8  C8  UNL     1       0.453   0.663   0.032  1.00  0.00     0.068 A 
HETATM    9  C9  UNL     1       0.774  -0.705   0.129  1.00  0.00     0.046 A 
HETATM   10  C10 UNL     1      -0.269  -1.765   0.190  1.00  0.00     0.196 A 
HETATM   11  O1  UNL     1       0.027  -2.949   0.324  1.00  0.00    -0.287 OA
HETATM   12  C11 UNL     1       2.110  -1.102   0.162  1.00  0.00     0.031 A 
HETATM   13  C12 UNL     1       3.167  -0.184   0.103  1.00  0.00     0.136 A 
HETATM   14  C13 UNL     1       2.832   1.175  -0.007  1.00  0.00     0.093 A 
HETATM   15  C14 UNL     1       1.487   1.615  -0.037  1.00  0.00     0.139 A 
HETATM   16  O2  UNL     1       1.245   2.950  -0.173  1.00  0.00    -0.190 OA
HETATM   17  O4  UNL     1       4.440  -0.666   0.139  1.00  0.00    -0.190 OA
HETATM   18  O5  UNL     1      -1.324   2.251   0.020  1.00  0.00    -0.286 OA
ENDROOT
BRANCH  14  19
HETATM   19  C15 UNL     1       3.909   2.204  -0.083  1.00  0.00     0.238 C 
HETATM   20  O3  UNL     1       5.103   1.955  -0.116  1.00  0.00    -0.283 OA
ENDBRANCH  14  19
TORSDOF 1
