REMARK  1 active torsions:
REMARK  status: ('A' for Active; 'I' for Inactive)
REMARK    1  A    between atoms: C4_4  and  C17_17 
ROOT
HETATM    1  C1  UNL     1      -0.116   0.297   0.007  1.00  0.00    -0.026 A 
HETATM    2  C2  UNL     1      -0.050   1.651   0.360  1.00  0.00    -0.005 A 
HETATM    3  C3  UNL     1       1.159   2.347   0.415  1.00  0.00    -0.004 A 
HETATM    4  C4  UNL     1       2.366   1.702   0.142  1.00  0.00    -0.023 A 
HETATM    5  C5  UNL     1       2.304   0.343  -0.179  1.00  0.00    -0.009 A 
HETATM    6  C6  UNL     1       1.097  -0.365  -0.243  1.00  0.00    -0.026 A 
HETATM    7  C7  UNL     1       1.155  -1.830  -0.606  1.00  0.00     0.026 C 
HETATM    8  C8  UNL     1      -0.126  -2.577  -0.228  1.00  0.00     0.009 C 
HETATM    9  C9  UNL     1      -1.339  -1.797  -0.750  1.00  0.00     0.022 C 
HETATM   10  C10 UNL     1      -1.471  -0.411  -0.076  1.00  0.00     0.022 C 
HETATM   11  C11 UNL     1      -2.028  -0.558   1.361  1.00  0.00     0.004 C 
HETATM   12  C12 UNL     1      -3.317  -1.389   1.443  1.00  0.00     0.004 C 
HETATM   13  C13 UNL     1      -3.128  -2.771   0.807  1.00  0.00     0.022 C 
HETATM   14  C14 UNL     1      -2.612  -2.606  -0.600  1.00  0.00    -0.044 C 
HETATM   15  C15 UNL     1      -3.242  -3.147  -1.655  1.00  0.00    -0.009 C 
HETATM   16  C16 UNL     1      -2.439   0.434  -0.940  1.00  0.00     0.004 C 
ENDROOT
BRANCH   4  17
HETATM   17  C17 UNL     1       3.692   2.441   0.156  1.00  0.00     0.022 C 
HETATM   18  C18 UNL     1       3.894   3.277   1.430  1.00  0.00     0.005 C 
HETATM   19  C19 UNL     1       3.812   3.313  -1.104  1.00  0.00     0.005 C 
ENDBRANCH   4  17
TORSDOF 1
