REMARK  14 active torsions:
REMARK  status: ('A' for Active; 'I' for Inactive)
REMARK    1  A    between atoms: C2_2  and  C22_29 
REMARK    2  A    between atoms: C4_4  and  C10_12 
REMARK    3  A    between atoms: C6_6  and  C7_7 
REMARK    4  A    between atoms: C7_7  and  C8_8 
REMARK    5  A    between atoms: C10_12  and  C11_13 
REMARK    6  A    between atoms: C15_17  and  C17_20 
REMARK    7  A    between atoms: C17_20  and  C18_21 
REMARK    8  A    between atoms: C22_29  and  C23_30 
REMARK    9  A    between atoms: C25_32  and  C41_54 
REMARK   10  A    between atoms: C27_34  and  C29_37 
REMARK   11  A    between atoms: C29_37  and  C30_38 
REMARK   12  A    between atoms: C34_43  and  C36_46 
REMARK   13  A    between atoms: C36_46  and  C37_47 
REMARK   14  A    between atoms: C41_54  and  C42_55 
ROOT
HETATM    1  C22 UNL     1       1.895  -0.029   1.011  1.00  0.00     0.061 C 
ENDROOT
BRANCH   1   2
HETATM    2  C2  UNL     1       0.409  -0.024   1.230  1.00  0.00     0.033 C 
HETATM    3  C1  UNL     1      -0.320   1.194   1.694  1.00  0.00     0.133 C 
HETATM    4  C6  UNL     1      -1.629   1.032   2.026  1.00  0.00     0.071 C 
HETATM    5  O16 UNL     1       0.339   2.370   1.873  1.00  0.00    -0.190 OA
HETATM    6  C5  UNL     1      -2.374  -0.238   1.861  1.00  0.00     0.133 C 
HETATM    7  C4  UNL     1      -1.692  -1.398   1.646  1.00  0.00     0.033 C 
HETATM    8  O2  UNL     1      -3.728  -0.256   1.969  1.00  0.00    -0.190 OA
HETATM    9  C3  UNL     1      -0.204  -1.330   1.661  1.00  0.00     0.128 C 
HETATM   10  O7  UNL     1       0.541  -2.255   2.315  1.00  0.00    -0.191 OA
BRANCH   4  11
HETATM   11  C7  UNL     1      -2.326   2.247   2.620  1.00  0.00     0.112 C 
HETATM   12  O1  UNL     1      -1.772   2.792   3.686  1.00  0.00    -0.195 OA
BRANCH  11  13
HETATM   13  C8  UNL     1      -3.527   2.933   1.991  1.00  0.00     0.054 C 
HETATM   14  C9  UNL     1      -3.846   2.593   0.534  1.00  0.00     0.007 C 
ENDBRANCH  11  13
ENDBRANCH   4  11
BRANCH   7  15
HETATM   15  C10 UNL     1      -2.391  -2.720   1.415  1.00  0.00     0.062 C 
BRANCH  15  16
HETATM   16  C11 UNL     1      -1.609  -4.020   1.445  1.00  0.00     0.043 C 
HETATM   17  C12 UNL     1      -2.360  -5.266   1.879  1.00  0.00     0.113 C 
HETATM   18  C13 UNL     1      -1.652  -6.599   2.022  1.00  0.00     0.085 C 
HETATM   19  O6  UNL     1      -3.715  -5.312   1.760  1.00  0.00    -0.195 OA
HETATM   20  C14 UNL     1      -0.147  -6.400   2.023  1.00  0.00     0.118 C 
HETATM   21  C20 UNL     1      -2.095  -7.240   3.350  1.00  0.00     0.013 C 
HETATM   22  C21 UNL     1      -2.016  -7.512   0.834  1.00  0.00     0.013 C 
HETATM   23  C15 UNL     1       0.426  -5.396   1.079  1.00  0.00     0.081 C 
HETATM   24  O5  UNL     1       0.585  -7.522   2.272  1.00  0.00    -0.194 OA
HETATM   25  C16 UNL     1      -0.295  -4.259   0.718  1.00  0.00     0.197 C 
HETATM   26  O3  UNL     1       0.217  -3.405  -0.114  1.00  0.00    -0.287 OA
BRANCH  23  27
HETATM   27  C17 UNL     1       1.732  -5.800   0.408  1.00  0.00     0.113 C 
HETATM   28  O4  UNL     1       1.676  -6.879  -0.345  1.00  0.00    -0.195 OA
BRANCH  27  29
HETATM   29  C18 UNL     1       3.076  -5.265   0.862  1.00  0.00     0.054 C 
HETATM   30  C19 UNL     1       3.294  -3.757   0.730  1.00  0.00     0.007 C 
ENDBRANCH  27  29
ENDBRANCH  23  27
ENDBRANCH  15  16
ENDBRANCH   7  15
ENDBRANCH   1   2
BRANCH   1  31
HETATM   31  C23 UNL     1       2.506   1.049   0.159  1.00  0.00     0.033 C 
HETATM   32  C24 UNL     1       3.986   0.957  -0.061  1.00  0.00     0.133 C 
HETATM   33  C25 UNL     1       4.574   1.923  -0.815  1.00  0.00     0.071 C 
HETATM   34  O15 UNL     1       4.657  -0.096   0.476  1.00  0.00    -0.190 OA
HETATM   35  C26 UNL     1       3.796   3.017  -1.454  1.00  0.00     0.133 C 
HETATM   36  C27 UNL     1       2.438   2.928  -1.566  1.00  0.00     0.033 C 
HETATM   37  O13 UNL     1       4.463   4.020  -2.091  1.00  0.00    -0.190 OA
HETATM   38  C28 UNL     1       1.705   1.831  -0.854  1.00  0.00     0.128 C 
HETATM   39  O8  UNL     1       0.625   1.255  -1.432  1.00  0.00    -0.191 OA
BRANCH  33  40
HETATM   40  C41 UNL     1       6.067   1.874  -1.113  1.00  0.00     0.112 C 
HETATM   41  O14 UNL     1       6.505   2.180  -2.315  1.00  0.00    -0.195 OA
BRANCH  40  42
HETATM   42  C42 UNL     1       7.078   1.457  -0.061  1.00  0.00     0.054 C 
HETATM   43  C43 UNL     1       7.662   0.064  -0.361  1.00  0.00     0.007 C 
ENDBRANCH  40  42
ENDBRANCH  33  40
BRANCH  36  44
HETATM   44  C29 UNL     1       1.732   3.914  -2.477  1.00  0.00     0.062 C 
BRANCH  44  45
HETATM   45  C30 UNL     1       0.222   4.065  -2.456  1.00  0.00     0.043 C 
HETATM   46  C31 UNL     1      -0.368   5.112  -1.838  1.00  0.00     0.113 C 
HETATM   47  O9  UNL     1       0.346   6.022  -1.120  1.00  0.00    -0.195 OA
HETATM   48  C32 UNL     1      -1.810   5.492  -2.139  1.00  0.00     0.085 C 
HETATM   49  C33 UNL     1      -2.653   4.271  -2.458  1.00  0.00     0.119 C 
HETATM   50  C39 UNL     1      -2.424   6.261  -0.948  1.00  0.00     0.013 C 
HETATM   51  C40 UNL     1      -1.806   6.398  -3.389  1.00  0.00     0.013 C 
HETATM   52  C34 UNL     1      -2.094   3.185  -3.029  1.00  0.00     0.095 C 
HETATM   53  O12 UNL     1      -3.990   4.371  -2.230  1.00  0.00    -0.194 OA
HETATM   54  C35 UNL     1      -0.629   3.149  -3.262  1.00  0.00     0.198 C 
HETATM   55  O10 UNL     1      -0.145   2.301  -4.003  1.00  0.00    -0.287 OA
BRANCH  52  56
HETATM   56  C36 UNL     1      -2.949   2.010  -3.410  1.00  0.00     0.178 C 
HETATM   57  O11 UNL     1      -3.999   2.164  -4.018  1.00  0.00    -0.291 OA
BRANCH  56  58
HETATM   58  C37 UNL     1      -2.511   0.628  -2.950  1.00  0.00     0.069 C 
HETATM   59  C38 UNL     1      -3.646  -0.172  -2.294  1.00  0.00     0.009 C 
ENDBRANCH  56  58
ENDBRANCH  52  56
ENDBRANCH  44  45
ENDBRANCH  36  44
ENDBRANCH   1  31
TORSDOF 14
