REMARK  5 active torsions:
REMARK  status: ('A' for Active; 'I' for Inactive)
REMARK    1  A    between atoms: C3_3  and  O1_9 
REMARK    2  A    between atoms: O1_9  and  C8_10 
REMARK    3  A    between atoms: C8_10  and  C9_11 
REMARK    4  A    between atoms: C9_11  and  C10_12 
REMARK    5  A    between atoms: C9_11  and  C16_18 
ROOT
HETATM    1  C8  UNL     1       0.882   0.051  -1.247  1.00  0.00     0.278 C 
HETATM    2  O3  UNL     1       0.534   0.790  -2.139  1.00  0.00    -0.264 OA
ENDROOT
BRANCH   1   3
HETATM    3  O1  UNL     1       0.053  -0.560  -0.355  1.00  0.00    -0.304 OA
BRANCH   3   4
HETATM    4  C3  UNL     1      -1.325  -0.329  -0.454  1.00  0.00     0.128 C 
HETATM    5  C2  UNL     1      -1.837   0.356   0.816  1.00  0.00     0.066 C 
HETATM    6  C1  UNL     1      -3.376   0.354   0.879  1.00  0.00     0.259 C 
HETATM    7  N1  UNL     1      -3.838  -1.032   0.880  1.00  0.00     0.335 N 
HETATM    8  C7  UNL     1      -4.028   0.907  -0.402  1.00  0.00     0.038 C 
HETATM    9  C5  UNL     1      -3.587  -1.484  -0.486  1.00  0.00     0.259 C 
HETATM   10  C4  UNL     1      -2.067  -1.651  -0.674  1.00  0.00     0.066 C 
HETATM   11  C6  UNL     1      -4.169  -0.327  -1.318  1.00  0.00     0.038 C 
ENDBRANCH   3   4
ENDBRANCH   1   3
BRANCH   1  12
HETATM   12  C9  UNL     1       2.335  -0.325  -0.978  1.00  0.00     0.142 C 
BRANCH  12  13
HETATM   13  C10 UNL     1       2.761   0.104   0.411  1.00  0.00    -0.011 A 
HETATM   14  C11 UNL     1       3.303  -0.817   1.316  1.00  0.00    -0.004 A 
HETATM   15  C12 UNL     1       3.717  -0.416   2.588  1.00  0.00    -0.000 A 
HETATM   16  C13 UNL     1       3.595   0.919   2.974  1.00  0.00    -0.000 A 
HETATM   17  C14 UNL     1       3.056   1.848   2.083  1.00  0.00    -0.000 A 
HETATM   18  C15 UNL     1       2.642   1.440   0.814  1.00  0.00    -0.004 A 
ENDBRANCH  12  13
BRANCH  12  19
HETATM   19  C16 UNL     1       3.276   0.266  -2.031  1.00  0.00     0.197 C 
HETATM   20  O2  UNL     1       4.606  -0.120  -1.753  1.00  0.00    -0.220 OA
ENDBRANCH  12  19
ENDBRANCH   1  12
TORSDOF 5
