REMARK  7 active torsions:
REMARK  status: ('A' for Active; 'I' for Inactive)
REMARK    1  A    between atoms: C1_1  and  C2_2 
REMARK    2  A    between atoms: C1_1  and  C7_8 
REMARK    3  A    between atoms: C1_1  and  C23_30 
REMARK    4  A    between atoms: C2_2  and  C3_3 
REMARK    5  A    between atoms: C3_3  and  C4_4 
REMARK    6  A    between atoms: C7_8  and  C8_9 
REMARK    7  A    between atoms: C14_17  and  C17_21 
ROOT
HETATM    1  C8  UNL     1      -1.740   2.018   0.555  1.00  0.00     0.044 A 
HETATM    2  C9  UNL     1      -2.646   3.095   0.561  1.00  0.00     0.135 A 
HETATM    3  O2  UNL     1      -3.968   2.931   0.279  1.00  0.00    -0.190 OA
HETATM    4  C10 UNL     1      -2.177   4.382   0.811  1.00  0.00     0.055 A 
HETATM    5  C11 UNL     1      -0.835   4.667   1.063  1.00  0.00     0.138 A 
HETATM    6  C12 UNL     1       0.052   3.578   1.063  1.00  0.00     0.087 A 
HETATM    7  C13 UNL     1      -0.378   2.253   0.832  1.00  0.00     0.107 A 
HETATM    8  O3  UNL     1       0.490   1.201   0.852  1.00  0.00    -0.307 OA
HETATM    9  C14 UNL     1       1.834   1.404   0.926  1.00  0.00     0.105 C 
HETATM   10  C15 UNL     1       2.373   2.620   1.148  1.00  0.00     0.067 C 
HETATM   11  C16 UNL     1       1.504   3.807   1.284  1.00  0.00     0.202 C 
HETATM   12  O4  UNL     1       2.008   4.898   1.533  1.00  0.00    -0.286 OA
HETATM   13  O7  UNL     1      -0.471   5.964   1.254  1.00  0.00    -0.190 OA
ENDROOT
BRANCH   1  14
HETATM   14  C7  UNL     1      -2.323   0.663   0.150  1.00  0.00    -0.018 C 
BRANCH  14  15
HETATM   15  C1  UNL     1      -1.688  -0.705   0.501  1.00  0.00     0.040 C 
BRANCH  15  16
HETATM   16  C2  UNL     1      -1.711  -1.629  -0.741  1.00  0.00     0.011 C 
BRANCH  16  17
HETATM   17  C3  UNL     1      -0.654  -1.211  -1.787  1.00  0.00     0.031 C 
BRANCH  17  18
HETATM   18  C4  UNL     1      -0.680  -1.998  -3.105  1.00  0.00     0.127 C 
HETATM   19  C5  UNL     1      -1.949  -1.723  -3.915  1.00  0.00     0.033 C 
HETATM   20  C6  UNL     1       0.556  -1.657  -3.944  1.00  0.00     0.033 C 
HETATM   21  O1  UNL     1      -0.631  -3.370  -2.816  1.00  0.00    -0.226 OA
ENDBRANCH  17  18
ENDBRANCH  16  17
ENDBRANCH  15  16
BRANCH  15  22
HETATM   22  C23 UNL     1      -2.285  -1.287   1.775  1.00  0.00    -0.040 C 
HETATM   23  C24 UNL     1      -2.421  -0.525   2.874  1.00  0.00    -0.009 C 
HETATM   24  C25 UNL     1      -2.635  -2.756   1.830  1.00  0.00     0.027 C 
ENDBRANCH  15  22
ENDBRANCH  14  15
ENDBRANCH   1  14
BRANCH   9  25
HETATM   25  C17 UNL     1       2.757   0.238   0.861  1.00  0.00     0.048 A 
HETATM   26  C18 UNL     1       2.438  -0.949   1.546  1.00  0.00     0.135 A 
HETATM   27  C19 UNL     1       3.311  -2.034   1.441  1.00  0.00     0.055 A 
HETATM   28  O6  UNL     1       1.335  -1.055   2.333  1.00  0.00    -0.190 OA
HETATM   29  C20 UNL     1       4.486  -1.995   0.684  1.00  0.00     0.133 A 
HETATM   30  C21 UNL     1       4.789  -0.802   0.026  1.00  0.00     0.028 A 
HETATM   31  O5  UNL     1       5.313  -3.070   0.601  1.00  0.00    -0.190 OA
HETATM   32  C22 UNL     1       3.939   0.302   0.114  1.00  0.00     0.006 A 
ENDBRANCH   9  25
TORSDOF 7
