REMARK  6 active torsions:
REMARK  status: ('A' for Active; 'I' for Inactive)
REMARK    1  A    between atoms: C2_2  and  O7_26 
REMARK    2  A    between atoms: C6_6  and  C7_7 
REMARK    3  A    between atoms: C7_7  and  C8_8 
REMARK    4  A    between atoms: C9_9  and  C12_15 
REMARK    5  A    between atoms: C12_15  and  C13_16 
REMARK    6  A    between atoms: C17_20  and  O4_22 
ROOT
HETATM    1  C8  UNL     1       1.492  -0.623  -1.881  1.00  0.00     0.072 C 
HETATM    2  C9  UNL     1       2.476   0.078  -0.942  1.00  0.00     0.210 C 
HETATM    3  C10 UNL     1       3.810  -0.270  -1.574  1.00  0.00     0.300 C 
HETATM    4  O1  UNL     1       3.635  -0.598  -2.874  1.00  0.00    -0.300 OA
HETATM    5  C11 UNL     1       2.271  -0.575  -3.200  1.00  0.00     0.155 C 
HETATM    6  O2  UNL     1       4.856  -0.232  -0.968  1.00  0.00    -0.262 OA
HETATM    7  O3  UNL     1       2.483  -0.464   0.358  1.00  0.00    -0.215 OA
ENDROOT
BRANCH   2   8
HETATM    8  C12 UNL     1       2.342   1.603  -0.866  1.00  0.00     0.067 C 
BRANCH   8   9
HETATM    9  C13 UNL     1       1.153   2.053  -0.047  1.00  0.00    -0.017 A 
HETATM   10  C14 UNL     1       1.271   2.242   1.332  1.00  0.00    -0.002 A 
HETATM   11  C15 UNL     1       0.162   2.629   2.081  1.00  0.00     0.029 A 
HETATM   12  C16 UNL     1      -1.080   2.842   1.480  1.00  0.00     0.153 A 
HETATM   13  C17 UNL     1      -1.223   2.686   0.091  1.00  0.00     0.119 A 
HETATM   14  O5  UNL     1      -2.161   3.198   2.224  1.00  0.00    -0.188 OA
HETATM   15  C18 UNL     1      -0.094   2.285  -0.638  1.00  0.00     0.022 A 
BRANCH  13  16
HETATM   16  O4  UNL     1      -2.477   2.853  -0.441  1.00  0.00    -0.326 OA
HETATM   17  C19 UNL     1      -2.745   2.285  -1.701  1.00  0.00     0.181 C 
ENDBRANCH  13  16
ENDBRANCH   8   9
ENDBRANCH   2   8
BRANCH   1  18
HETATM   18  C7  UNL     1       1.157  -2.082  -1.509  1.00  0.00     0.032 C 
BRANCH  18  19
HETATM   19  C6  UNL     1       0.197  -2.334  -0.364  1.00  0.00    -0.020 A 
HETATM   20  C1  UNL     1      -0.423  -1.324   0.378  1.00  0.00     0.022 A 
HETATM   21  C2  UNL     1      -1.346  -1.571   1.403  1.00  0.00     0.119 A 
HETATM   22  C3  UNL     1      -1.566  -2.904   1.785  1.00  0.00     0.153 A 
HETATM   23  C4  UNL     1      -0.966  -3.928   1.048  1.00  0.00     0.029 A 
HETATM   24  O6  UNL     1      -2.392  -3.213   2.820  1.00  0.00    -0.188 OA
HETATM   25  C5  UNL     1      -0.105  -3.654  -0.014  1.00  0.00    -0.002 A 
BRANCH  21  26
HETATM   26  O7  UNL     1      -1.853  -0.533   2.143  1.00  0.00    -0.326 OA
HETATM   27  C20 UNL     1      -3.146  -0.137   1.747  1.00  0.00     0.181 C 
ENDBRANCH  21  26
ENDBRANCH  18  19
ENDBRANCH   1  18
TORSDOF 6
