REMARK  4 active torsions:
REMARK  status: ('A' for Active; 'I' for Inactive)
REMARK    1  A    between atoms: C2_2  and  C3_3 
REMARK    2  A    between atoms: C3_3  and  C4_4 
REMARK    3  A    between atoms: C4_4  and  C5_5 
REMARK    4  A    between atoms: C5_5  and  C6_6 
ROOT
HETATM    1  C4  UNL     1      -0.204   1.235   0.563  1.00  0.00     0.152 C 
HETATM    2  O1  UNL     1      -0.592   2.592   0.555  1.00  0.00    -0.224 OA
ENDROOT
BRANCH   1   3
HETATM    3  C3  UNL     1      -1.479   0.387   0.557  1.00  0.00     0.033 C 
BRANCH   3   4
HETATM    4  C2  UNL     1      -1.234  -1.126   0.662  1.00  0.00     0.003 C 
HETATM    5  C1  UNL     1      -2.551  -1.912   0.728  1.00  0.00     0.000 C 
ENDBRANCH   3   4
ENDBRANCH   1   3
BRANCH   1   6
HETATM    6  C5  UNL     1       0.730   0.989  -0.627  1.00  0.00     0.033 C 
BRANCH   6   7
HETATM    7  C6  UNL     1       1.932   0.092  -0.284  1.00  0.00     0.003 C 
HETATM    8  C7  UNL     1       2.796  -0.202  -1.519  1.00  0.00     0.000 C 
ENDBRANCH   6   7
ENDBRANCH   1   6
TORSDOF 4
