REMARK  8 active torsions:
REMARK  status: ('A' for Active; 'I' for Inactive)
REMARK    1  A    between atoms: C2_2  and  C3_3 
REMARK    2  A    between atoms: C3_3  and  C4_4 
REMARK    3  A    between atoms: C4_4  and  C5_5 
REMARK    4  A    between atoms: C5_5  and  O1_6 
REMARK    5  A    between atoms: O1_6  and  C6_7 
REMARK    6  A    between atoms: C6_7  and  C7_8 
REMARK    7  A    between atoms: C7_8  and  C8_9 
REMARK    8  A    between atoms: C8_9  and  C9_10 
ROOT
HETATM    1  O1  UNL     1       0.154   0.184   0.431  1.00  0.00    -0.335 OA
ENDROOT
BRANCH   1   2
HETATM    2  C5  UNL     1      -1.025  -0.578   0.451  1.00  0.00     0.148 C 
BRANCH   2   3
HETATM    3  C4  UNL     1      -1.831  -0.275  -0.814  1.00  0.00     0.033 C 
BRANCH   3   4
HETATM    4  C3  UNL     1      -3.191  -0.993  -0.858  1.00  0.00     0.003 C 
BRANCH   4   5
HETATM    5  C2  UNL     1      -3.080  -2.524  -0.934  1.00  0.00     0.000 C 
HETATM    6  C1  UNL     1      -4.456  -3.192  -1.054  1.00  0.00     0.000 C 
ENDBRANCH   4   5
ENDBRANCH   3   4
ENDBRANCH   2   3
ENDBRANCH   1   2
BRANCH   1   7
HETATM    7  C6  UNL     1       1.047   0.028   1.460  1.00  0.00     0.072 C 
HETATM    8  C11 UNL     1       0.896  -0.781   2.526  1.00  0.00     0.021 C 
BRANCH   7   9
HETATM    9  C7  UNL     1       2.324   0.843   1.374  1.00  0.00     0.051 C 
BRANCH   9  10
HETATM   10  C8  UNL     1       2.455   1.718   0.117  1.00  0.00     0.007 C 
BRANCH  10  11
HETATM   11  C9  UNL     1       3.789   2.483   0.098  1.00  0.00     0.000 C 
HETATM   12  C10 UNL     1       3.926   3.370  -1.146  1.00  0.00     0.000 C 
ENDBRANCH  10  11
ENDBRANCH   9  10
ENDBRANCH   7   9
ENDBRANCH   1   7
TORSDOF 8
