REMARK  8 active torsions:
REMARK  status: ('A' for Active; 'I' for Inactive)
REMARK    1  A    between atoms: C2_2  and  C3_3 
REMARK    2  A    between atoms: C3_3  and  C4_4 
REMARK    3  A    between atoms: C4_4  and  C5_5 
REMARK    4  A    between atoms: C5_5  and  O1_6 
REMARK    5  A    between atoms: O1_6  and  C6_7 
REMARK    6  A    between atoms: C6_7  and  C7_8 
REMARK    7  A    between atoms: C8_9  and  C9_10 
REMARK    8  A    between atoms: C11_12  and  O3_17 
ROOT
HETATM    1  C7  UNL     1      -0.196  -0.677  -0.398  1.00  0.00     0.068 C 
HETATM    2  C8  UNL     1       0.143  -1.983  -0.514  1.00  0.00     0.005 C 
ENDROOT
BRANCH   2   3
HETATM    3  C9  UNL     1      -0.786  -3.104  -0.298  1.00  0.00     0.002 C 
HETATM    4  C10 UNL     1      -0.272  -4.394  -0.086  1.00  0.00     0.026 C 
HETATM    5  C11 UNL     1      -1.083  -5.506   0.166  1.00  0.00     0.119 C 
HETATM    6  C12 UNL     1      -2.472  -5.358   0.001  1.00  0.00     0.153 C 
HETATM    7  C13 UNL     1      -2.998  -4.086  -0.231  1.00  0.00     0.029 C 
HETATM    8  O2  UNL     1      -3.309  -6.424   0.117  1.00  0.00    -0.188 OA
HETATM    9  C14 UNL     1      -2.177  -2.966  -0.367  1.00  0.00     0.002 C 
BRANCH   5  10
HETATM   10  O3  UNL     1      -0.530  -6.750   0.322  1.00  0.00    -0.326 OA
HETATM   11  C15 UNL     1      -0.331  -7.102   1.672  1.00  0.00     0.181 C 
ENDBRANCH   5  10
ENDBRANCH   2   3
BRANCH   1  12
HETATM   12  C6  UNL     1       0.758   0.438  -0.615  1.00  0.00     0.296 C 
HETATM   13  O4  UNL     1       1.896   0.190  -1.003  1.00  0.00    -0.259 OA
BRANCH  12  14
HETATM   14  O1  UNL     1       0.359   1.723  -0.388  1.00  0.00    -0.298 OA
BRANCH  14  15
HETATM   15  C5  UNL     1       1.296   2.747  -0.593  1.00  0.00     0.152 C 
BRANCH  15  16
HETATM   16  C4  UNL     1       0.719   4.048  -0.033  1.00  0.00     0.033 C 
BRANCH  16  17
HETATM   17  C3  UNL     1       1.649   5.247  -0.277  1.00  0.00     0.003 C 
BRANCH  17  18
HETATM   18  C2  UNL     1       1.076   6.541   0.322  1.00  0.00     0.000 C 
HETATM   19  C1  UNL     1       1.983   7.748   0.054  1.00  0.00     0.000 C 
ENDBRANCH  17  18
ENDBRANCH  16  17
ENDBRANCH  15  16
ENDBRANCH  14  15
ENDBRANCH  12  14
ENDBRANCH   1  12
TORSDOF 8
