REMARK  0 active torsions:
REMARK  status: ('A' for Active; 'I' for Inactive)
ROOT
HETATM    1  C1  UNL     1      -1.175   0.264   1.538  1.00  0.00     0.011 C 
HETATM    2  C2  UNL     1      -2.499  -0.524   1.667  1.00  0.00     0.065 C 
HETATM    3  C3  UNL     1      -2.449  -1.934   1.109  1.00  0.00     0.155 C 
HETATM    4  C4  UNL     1      -1.758  -2.083  -0.230  1.00  0.00     0.086 C 
HETATM    5  C5  UNL     1      -0.439  -1.359  -0.113  1.00  0.00    -0.042 C 
HETATM    6  C6  UNL     1      -0.501   0.143   0.130  1.00  0.00     0.016 C 
HETATM    7  C7  UNL     1       0.873   0.835   0.118  1.00  0.00     0.004 A 
HETATM    8  C8  UNL     1       2.139   0.018   0.229  1.00  0.00     0.005 A 
HETATM    9  C9  UNL     1       2.059  -1.494   0.215  1.00  0.00     0.025 C 
HETATM   10  C10 UNL     1       0.701  -2.065  -0.054  1.00  0.00    -0.034 C 
HETATM   11  C11 UNL     1       1.842   0.781  -1.048  1.00  0.00     0.001 A 
HETATM   12  C12 UNL     1       2.681   2.034  -1.285  1.00  0.00     0.000 C 
HETATM   13  C13 UNL     1       1.540   0.025  -2.334  1.00  0.00     0.000 C 
HETATM   14  C14 UNL     1      -1.375   0.846  -0.936  1.00  0.00     0.004 C 
HETATM   15  O1  UNL     1      -2.944  -2.875   1.687  1.00  0.00    -0.296 OA
HETATM   16  C15 UNL     1      -1.448   1.705   2.019  1.00  0.00     0.001 C 
ENDROOT
TORSDOF 0
