REMARK  0 active torsions:
REMARK  status: ('A' for Active; 'I' for Inactive)
ROOT
HETATM    1  C1  UNL     1      -2.887  -0.678  -0.508  1.00  0.00    -0.020 C 
HETATM    2  C2  UNL     1      -2.984  -2.003  -0.684  1.00  0.00     0.037 C 
HETATM    3  C3  UNL     1      -1.886  -2.909  -0.285  1.00  0.00     0.191 C 
HETATM    4  C4  UNL     1      -0.606  -2.296   0.165  1.00  0.00     0.012 C 
HETATM    5  C5  UNL     1      -0.510  -0.952   0.303  1.00  0.00    -0.015 C 
HETATM    6  C6  UNL     1      -1.704  -0.006   0.150  1.00  0.00     0.038 C 
HETATM    7  C7  UNL     1      -1.346   1.228  -0.715  1.00  0.00     0.041 C 
HETATM    8  C8  UNL     1      -0.047   1.926  -0.308  1.00  0.00     0.156 C 
HETATM    9  C9  UNL     1       1.062   0.888  -0.305  1.00  0.00     0.072 C 
HETATM   10  C10 UNL     1       0.750  -0.205   0.707  1.00  0.00     0.145 C 
HETATM   11  O1  UNL     1       1.962  -0.904   0.824  1.00  0.00    -0.300 OA
HETATM   12  C11 UNL     1       3.011  -0.070   0.579  1.00  0.00     0.272 C 
HETATM   13  C12 UNL     1       2.471   1.284   0.138  1.00  0.00     0.092 C 
HETATM   14  C13 UNL     1       3.324   1.942  -0.951  1.00  0.00     0.011 C 
HETATM   15  O2  UNL     1       4.178  -0.381   0.671  1.00  0.00    -0.264 OA
HETATM   16  O3  UNL     1       0.248   2.936  -1.242  1.00  0.00    -0.223 OA
HETATM   17  C14 UNL     1      -2.202   0.432   1.546  1.00  0.00     0.009 C 
HETATM   18  C15 UNL     1       0.526  -3.259   0.443  1.00  0.00     0.034 C 
HETATM   19  O4  UNL     1      -2.033  -4.121  -0.407  1.00  0.00    -0.287 OA
ENDROOT
TORSDOF 0
