REMARK  0 active torsions:
REMARK  status: ('A' for Active; 'I' for Inactive)
ROOT
HETATM    1  C1  UNL     1      -2.138  -1.816  -0.233  1.00  0.00     0.182 C 
HETATM    2  C2  UNL     1      -3.095  -0.659  -0.416  1.00  0.00     0.182 C 
HETATM    3  C3  UNL     1      -2.573   0.390   0.550  1.00  0.00     0.036 C 
HETATM    4  C4  UNL     1      -1.046   0.309   0.364  1.00  0.00     0.005 C 
HETATM    5  C5  UNL     1      -0.764  -1.211   0.182  1.00  0.00     0.031 C 
HETATM    6  C6  UNL     1       0.215  -1.473  -0.991  1.00  0.00     0.003 C 
HETATM    7  C7  UNL     1       1.637  -0.884  -0.950  1.00  0.00     0.007 C 
HETATM    8  C8  UNL     1       1.750   0.616  -1.285  1.00  0.00     0.055 C 
HETATM    9  C9  UNL     1       1.761   1.627  -0.107  1.00  0.00     0.129 C 
HETATM   10  C10 UNL     1       1.249   1.162   1.257  1.00  0.00     0.031 C 
HETATM   11  C11 UNL     1      -0.281   1.098   1.448  1.00  0.00     0.003 C 
HETATM   12  C12 UNL     1      -0.838   2.531   1.599  1.00  0.00     0.000 C 
HETATM   13  O1  UNL     1       3.071   2.126   0.068  1.00  0.00    -0.301 OA
HETATM   14  C13 UNL     1       3.825   1.738  -0.984  1.00  0.00     0.292 C 
HETATM   15  C14 UNL     1       3.085   0.895  -1.930  1.00  0.00     0.043 C 
HETATM   16  C15 UNL     1       3.553   0.477  -3.119  1.00  0.00     0.001 C 
HETATM   17  O2  UNL     1       5.003   2.055  -1.121  1.00  0.00    -0.260 OA
HETATM   18  C16 UNL     1      -0.254  -1.918   1.454  1.00  0.00     0.003 C 
HETATM   19  O3  UNL     1      -4.396  -1.062  -0.071  1.00  0.00    -0.221 OA
HETATM   20  O4  UNL     1      -2.702  -2.641   0.760  1.00  0.00    -0.221 OA
ENDROOT
TORSDOF 0
