REMARK  2 active torsions:
REMARK  status: ('A' for Active; 'I' for Inactive)
REMARK    1  A    between atoms: C11_11  and  C12_12 
REMARK    2  A    between atoms: C12_12  and  C13_13 
ROOT
HETATM    1  C1  UNL     1      -0.728   1.145   0.815  1.00  0.00     0.000 C 
HETATM    2  C2  UNL     1      -0.022  -0.178   0.467  1.00  0.00     0.000 C 
HETATM    3  C3  UNL     1       1.505  -0.004   0.336  1.00  0.00     0.000 C 
HETATM    4  C4  UNL     1       2.091   0.738   1.554  1.00  0.00     0.000 C 
HETATM    5  C5  UNL     1       1.343   2.021   1.944  1.00  0.00     0.000 C 
HETATM    6  C6  UNL     1      -0.165   1.773   2.100  1.00  0.00     0.000 C 
HETATM    7  C7  UNL     1      -0.907   3.074   2.445  1.00  0.00     0.000 C 
HETATM    8  C8  UNL     1       2.022   0.459  -1.048  1.00  0.00     0.000 C 
HETATM    9  C9  UNL     1       1.188  -0.113  -2.211  1.00  0.00     0.000 C 
HETATM   10  C10 UNL     1       0.344  -1.323  -1.792  1.00  0.00     0.000 C 
HETATM   11  C11 UNL     1      -0.691  -0.877  -0.745  1.00  0.00     0.003 C 
HETATM   12  C15 UNL     1       2.219   1.971  -1.249  1.00  0.00     0.000 C 
ENDROOT
BRANCH  11  13
HETATM   13  C12 UNL     1      -1.681  -1.992  -0.322  1.00  0.00     0.033 C 
HETATM   14  C14 UNL     1      -0.975  -3.292   0.101  1.00  0.00     0.003 C 
BRANCH  13  15
HETATM   15  C13 UNL     1      -2.722  -2.271  -1.412  1.00  0.00     0.182 C 
HETATM   16  O1  UNL     1      -3.705  -3.166  -0.931  1.00  0.00    -0.221 OA
ENDBRANCH  13  15
ENDBRANCH  11  13
TORSDOF 2
