REMARK  0 active torsions:
REMARK  status: ('A' for Active; 'I' for Inactive)
ROOT
HETATM    1  C1  UNL     1      -0.271   3.012   1.092  1.00  0.00     0.175 C 
HETATM    2  C2  UNL     1      -1.401   2.028   1.308  1.00  0.00     0.074 C 
HETATM    3  C3  UNL     1      -1.612   1.227   0.021  1.00  0.00     0.039 C 
HETATM    4  C4  UNL     1      -0.338   0.460  -0.370  1.00  0.00     0.059 C 
HETATM    5  C5  UNL     1       0.964   1.140   0.018  1.00  0.00    -0.013 A 
HETATM    6  C6  UNL     1       1.004   2.398   0.647  1.00  0.00     0.056 A 
HETATM    7  C7  UNL     1       2.219   3.043   0.926  1.00  0.00     0.136 A 
HETATM    8  C8  UNL     1       3.389   2.347   0.611  1.00  0.00     0.055 A 
HETATM    9  C9  UNL     1       3.398   1.073   0.043  1.00  0.00     0.133 A 
HETATM   10  C10 UNL     1       2.164   0.460  -0.251  1.00  0.00     0.021 A 
HETATM   11  C11 UNL     1       2.069  -0.937  -0.734  1.00  0.00     0.000 A 
HETATM   12  C12 UNL     1       0.901  -1.670  -0.452  1.00  0.00     0.007 A 
HETATM   13  C13 UNL     1      -0.309  -0.975   0.155  1.00  0.00     0.148 C 
HETATM   14  O1  UNL     1      -1.475  -1.671  -0.212  1.00  0.00    -0.329 OA
HETATM   15  C14 UNL     1      -2.679  -1.061  -0.010  1.00  0.00     0.090 A 
HETATM   16  C15 UNL     1      -2.819   0.326   0.132  1.00  0.00     0.001 A 
HETATM   17  C16 UNL     1      -4.088   0.883   0.335  1.00  0.00    -0.002 A 
HETATM   18  C17 UNL     1      -5.223   0.082   0.456  1.00  0.00    -0.000 A 
HETATM   19  C18 UNL     1      -5.087  -1.302   0.371  1.00  0.00     0.002 A 
HETATM   20  C19 UNL     1      -3.826  -1.853   0.144  1.00  0.00     0.024 A 
HETATM   21  C20 UNL     1       0.847  -3.028  -0.791  1.00  0.00     0.025 A 
HETATM   22  C21 UNL     1       1.891  -3.686  -1.447  1.00  0.00     0.131 A 
HETATM   23  C22 UNL     1       3.004  -2.923  -1.801  1.00  0.00     0.027 A 
HETATM   24  C23 UNL     1       3.087  -1.573  -1.461  1.00  0.00     0.002 A 
HETATM   25  O2  UNL     1       1.810  -5.001  -1.780  1.00  0.00    -0.190 OA
HETATM   26  O3  UNL     1       4.601   0.458  -0.113  1.00  0.00    -0.190 OA
HETATM   27  O4  UNL     1       2.316   4.258   1.533  1.00  0.00    -0.190 OA
HETATM   28  O5  UNL     1      -0.411   4.201   1.343  1.00  0.00    -0.291 OA
ENDROOT
TORSDOF 0
