REMARK  5 active torsions:
REMARK  status: ('A' for Active; 'I' for Inactive)
REMARK    1  A    between atoms: C6_6  and  C7_7 
REMARK    2  A    between atoms: C8_8  and  C9_9 
REMARK    3  A    between atoms: C11_11  and  C12_12 
REMARK    4  A    between atoms: C13_13  and  C14_14 
REMARK    5  A    between atoms: C16_16  and  C17_17 
ROOT
HETATM    1  C7  UNL     1      -0.653  -1.369   0.054  1.00  0.00    -0.005 C 
HETATM    2  C8  UNL     1      -1.204  -0.196   0.433  1.00  0.00    -0.005 C 
ENDROOT
BRANCH   2   3
HETATM    3  C9  UNL     1      -0.748   1.141   0.003  1.00  0.00    -0.022 C 
HETATM    4  C10 UNL     1      -1.769   2.259  -0.011  1.00  0.00     0.031 C 
HETATM    5  C11 UNL     1       0.564   1.377  -0.257  1.00  0.00    -0.004 C 
BRANCH   5   6
HETATM    6  C12 UNL     1       1.105   2.687  -0.633  1.00  0.00    -0.001 C 
HETATM    7  C13 UNL     1       2.439   2.893  -0.758  1.00  0.00    -0.004 C 
BRANCH   7   8
HETATM    8  C14 UNL     1       3.115   4.160  -1.077  1.00  0.00    -0.024 C 
HETATM    9  C15 UNL     1       4.603   4.074  -1.336  1.00  0.00     0.031 C 
HETATM   10  C16 UNL     1       2.462   5.346  -1.092  1.00  0.00     0.005 C 
BRANCH  10  11
HETATM   11  C17 UNL     1       3.100   6.679  -1.382  1.00  0.00     0.208 C 
HETATM   12  O1  UNL     1       2.129   7.717  -1.440  1.00  0.00    -0.215 OA
ENDBRANCH  10  11
ENDBRANCH   7   8
ENDBRANCH   5   6
ENDBRANCH   2   3
BRANCH   1  13
HETATM   13  C6  UNL     1      -1.073  -2.727   0.487  1.00  0.00    -0.031 C 
HETATM   14  C1  UNL     1      -2.550  -3.077   0.700  1.00  0.00     0.018 C 
HETATM   15  C2  UNL     1      -2.780  -4.593   0.488  1.00  0.00     0.004 C 
HETATM   16  C19 UNL     1      -3.461  -2.370  -0.332  1.00  0.00     0.004 C 
HETATM   17  C20 UNL     1      -2.994  -2.691   2.128  1.00  0.00     0.004 C 
HETATM   18  C3  UNL     1      -1.812  -5.435   1.315  1.00  0.00     0.005 C 
HETATM   19  C4  UNL     1      -0.385  -5.138   0.856  1.00  0.00     0.022 C 
HETATM   20  C5  UNL     1      -0.105  -3.672   0.598  1.00  0.00    -0.048 C 
HETATM   21  C18 UNL     1       1.373  -3.403   0.391  1.00  0.00     0.026 C 
ENDBRANCH   1  13
TORSDOF 5
