REMARK  12 active torsions:
REMARK  status: ('A' for Active; 'I' for Inactive)
REMARK    1  A    between atoms: C1_1  and  O6_12 
REMARK    2  A    between atoms: C2_3  and  C6_10 
REMARK    3  A    between atoms: O6_12  and  C7_13 
REMARK    4  A    between atoms: C8_14  and  O17_48 
REMARK    5  A    between atoms: C10_16  and  C13_19 
REMARK    6  A    between atoms: C13_19  and  C14_20 
REMARK    7  A    between atoms: C15_21  and  C31_45 
REMARK    8  A    between atoms: C16_22  and  C18_25 
REMARK    9  A    between atoms: C20_27  and  O14_43 
REMARK   10  A    between atoms: C21_28  and  O8_31 
REMARK   11  A    between atoms: O8_31  and  C24_32 
REMARK   12  A    between atoms: C28_36  and  C29_38 
ROOT
HETATM    1  C14 UNL     1       1.538   2.346   1.388  1.00  0.00     0.163 C 
HETATM    2  C15 UNL     1       2.980   2.803   1.651  1.00  0.00     0.095 C 
HETATM    3  C16 UNL     1       3.496   2.878   0.205  1.00  0.00     0.143 C 
HETATM    4  O7  UNL     1       2.439   3.452  -0.525  1.00  0.00    -0.349 OA
HETATM    5  C17 UNL     1       1.226   3.102   0.100  1.00  0.00     0.173 C 
HETATM    6  O16 UNL     1       1.585   0.961   1.136  1.00  0.00    -0.223 OA
ENDROOT
BRANCH   1   7
HETATM    7  C13 UNL     1       0.488   2.579   2.482  1.00  0.00     0.059 C 
BRANCH   7   8
HETATM    8  C10 UNL     1      -0.965   2.381   2.083  1.00  0.00    -0.018 A 
HETATM    9  C9  UNL     1      -1.968   3.176   2.649  1.00  0.00     0.022 A 
HETATM   10  C8  UNL     1      -3.318   3.128   2.265  1.00  0.00     0.116 A 
HETATM   11  C7  UNL     1      -3.712   2.195   1.284  1.00  0.00     0.119 A 
HETATM   12  C12 UNL     1      -2.722   1.352   0.759  1.00  0.00     0.026 A 
HETATM   13  C11 UNL     1      -1.387   1.431   1.152  1.00  0.00    -0.002 A 
BRANCH  10  14
HETATM   14  O17 UNL     1      -4.303   3.895   2.842  1.00  0.00    -0.326 OA
HETATM   15  C32 UNL     1      -4.051   4.478   4.101  1.00  0.00     0.181 C 
ENDBRANCH  10  14
BRANCH  11  16
HETATM   16  O6  UNL     1      -5.028   2.203   0.887  1.00  0.00    -0.302 OA
BRANCH  16  17
HETATM   17  C1  UNL     1      -5.426   1.487  -0.262  1.00  0.00     0.274 C 
HETATM   18  O1  UNL     1      -6.401   2.309  -0.874  1.00  0.00    -0.326 OA
HETATM   19  C2  UNL     1      -6.897   1.741  -2.061  1.00  0.00     0.184 C 
HETATM   20  C3  UNL     1      -7.585   0.418  -1.744  1.00  0.00     0.215 C 
HETATM   21  C4  UNL     1      -6.616  -0.520  -1.053  1.00  0.00     0.220 C 
HETATM   22  O4  UNL     1      -8.032  -0.216  -2.917  1.00  0.00    -0.218 OA
HETATM   23  C5  UNL     1      -6.051   0.178   0.162  1.00  0.00     0.241 C 
HETATM   24  O3  UNL     1      -7.292  -1.686  -0.657  1.00  0.00    -0.218 OA
HETATM   25  O2  UNL     1      -5.078  -0.636   0.763  1.00  0.00    -0.215 OA
BRANCH  19  26
HETATM   26  C6  UNL     1      -7.840   2.737  -2.721  1.00  0.00     0.214 C 
HETATM   27  O5  UNL     1      -7.109   3.867  -3.157  1.00  0.00    -0.218 OA
ENDBRANCH  19  26
ENDBRANCH  16  17
ENDBRANCH  11  16
ENDBRANCH   7   8
ENDBRANCH   1   7
BRANCH   2  28
HETATM   28  C31 UNL     1       3.146   4.158   2.345  1.00  0.00     0.188 C 
HETATM   29  O15 UNL     1       2.917   4.028   3.734  1.00  0.00    -0.221 OA
ENDBRANCH   2  28
BRANCH   3  30
HETATM   30  C18 UNL     1       3.911   1.510  -0.314  1.00  0.00     0.007 A 
HETATM   31  C19 UNL     1       5.048   0.886   0.205  1.00  0.00     0.024 A 
HETATM   32  C20 UNL     1       5.417  -0.430  -0.105  1.00  0.00     0.116 A 
HETATM   33  C21 UNL     1       4.678  -1.132  -1.078  1.00  0.00     0.119 A 
HETATM   34  C22 UNL     1       3.547  -0.503  -1.614  1.00  0.00     0.026 A 
HETATM   35  C23 UNL     1       3.169   0.788  -1.250  1.00  0.00     0.000 A 
BRANCH  32  36
HETATM   36  O14 UNL     1       6.583  -0.948   0.396  1.00  0.00    -0.326 OA
HETATM   37  C30 UNL     1       6.407  -1.719   1.563  1.00  0.00     0.181 C 
ENDBRANCH  32  36
BRANCH  33  38
HETATM   38  O8  UNL     1       5.049  -2.409  -1.415  1.00  0.00    -0.302 OA
BRANCH  38  39
HETATM   39  C24 UNL     1       4.031  -3.386  -1.489  1.00  0.00     0.274 C 
HETATM   40  C25 UNL     1       3.996  -3.961  -2.885  1.00  0.00     0.241 C 
HETATM   41  C26 UNL     1       2.996  -5.094  -2.921  1.00  0.00     0.220 C 
HETATM   42  O13 UNL     1       3.603  -2.962  -3.790  1.00  0.00    -0.215 OA
HETATM   43  C27 UNL     1       3.393  -6.110  -1.870  1.00  0.00     0.215 C 
HETATM   44  O12 UNL     1       3.007  -5.698  -4.189  1.00  0.00    -0.218 OA
HETATM   45  C28 UNL     1       3.511  -5.445  -0.502  1.00  0.00     0.184 C 
HETATM   46  O11 UNL     1       2.414  -7.119  -1.858  1.00  0.00    -0.218 OA
HETATM   47  O9  UNL     1       4.427  -4.381  -0.567  1.00  0.00    -0.326 OA
BRANCH  45  48
HETATM   48  C29 UNL     1       3.985  -6.428   0.557  1.00  0.00     0.214 C 
HETATM   49  O10 UNL     1       3.994  -5.802   1.825  1.00  0.00    -0.218 OA
ENDBRANCH  45  48
ENDBRANCH  38  39
ENDBRANCH  33  38
ENDBRANCH   3  30
TORSDOF 12
