REMARK  5 active torsions:
REMARK  status: ('A' for Active; 'I' for Inactive)
REMARK    1  A    between atoms: C4_4  and  C19_24 
REMARK    2  A    between atoms: C10_11  and  O2_15 
REMARK    3  A    between atoms: O2_15  and  C14_16 
REMARK    4  A    between atoms: C14_16  and  C15_18 
REMARK    5  A    between atoms: C15_18  and  C17_20 
ROOT
HETATM    1  C1  UNL     1      -1.915   2.064  -1.400  1.00  0.00    -0.034 C 
HETATM    2  C2  UNL     1      -3.364   1.650  -1.559  1.00  0.00     0.030 C 
HETATM    3  C3  UNL     1      -3.438   0.337  -2.375  1.00  0.00     0.029 C 
HETATM    4  C4  UNL     1      -2.495  -0.677  -1.758  1.00  0.00    -0.013 C 
HETATM    5  C5  UNL     1      -1.181  -0.562  -2.021  1.00  0.00    -0.002 C 
HETATM    6  C6  UNL     1      -0.062  -1.118  -1.181  1.00  0.00     0.152 C 
HETATM    7  O1  UNL     1       0.252  -2.448  -1.537  1.00  0.00    -0.296 OA
HETATM    8  C7  UNL     1       1.600  -2.557  -1.506  1.00  0.00     0.292 C 
HETATM    9  C8  UNL     1       2.288  -1.278  -1.260  1.00  0.00     0.046 C 
HETATM   10  C9  UNL     1       1.209  -0.220  -1.206  1.00  0.00     0.088 C 
HETATM   11  C10 UNL     1       1.238   0.855  -0.091  1.00  0.00     0.135 C 
HETATM   12  C11 UNL     1       0.371   2.101  -0.402  1.00  0.00     0.052 C 
HETATM   13  C12 UNL     1      -1.133   1.908  -0.312  1.00  0.00    -0.046 C 
HETATM   14  C13 UNL     1      -1.640   1.528   1.060  1.00  0.00     0.026 C 
HETATM   15  C18 UNL     1       3.630  -1.172  -1.237  1.00  0.00     0.001 C 
HETATM   16  O5  UNL     1       2.183  -3.622  -1.690  1.00  0.00    -0.259 OA
ENDROOT
BRANCH  11  17
HETATM   17  O2  UNL     1       2.535   1.329   0.111  1.00  0.00    -0.300 OA
BRANCH  17  18
HETATM   18  C14 UNL     1       3.385   0.924   1.110  1.00  0.00     0.294 C 
HETATM   19  O3  UNL     1       4.469   1.510   1.139  1.00  0.00    -0.259 OA
BRANCH  18  20
HETATM   20  C15 UNL     1       3.223  -0.142   2.152  1.00  0.00     0.074 C 
HETATM   21  C16 UNL     1       4.197  -0.251   3.086  1.00  0.00     0.004 C 
BRANCH  20  22
HETATM   22  C17 UNL     1       2.076  -1.116   2.277  1.00  0.00     0.214 C 
HETATM   23  O4  UNL     1       1.040  -0.514   3.041  1.00  0.00    -0.215 OA
ENDBRANCH  20  22
ENDBRANCH  18  20
ENDBRANCH  17  18
ENDBRANCH  11  17
BRANCH   4  24
HETATM   24  C19 UNL     1      -3.070  -1.634  -0.743  1.00  0.00     0.204 C 
HETATM   25  O6  UNL     1      -3.464  -0.980   0.453  1.00  0.00    -0.216 OA
ENDBRANCH   4  24
TORSDOF 5
