REMARK  2 active torsions:
REMARK  status: ('A' for Active; 'I' for Inactive)
REMARK    1  A    between atoms: C4_4  and  O2_9 
REMARK    2  A    between atoms: C6_6  and  O1_7 
ROOT
HETATM    1  C1  UNL     1      -0.072  -0.117  -0.016  1.00  0.00     0.018 A 
HETATM    2  C2  UNL     1      -0.367   1.270   0.184  1.00  0.00    -0.018 A 
HETATM    3  C3  UNL     1      -1.709   1.725   0.205  1.00  0.00     0.020 A 
HETATM    4  C4  UNL     1      -2.769   0.814   0.020  1.00  0.00     0.096 A 
HETATM    5  C5  UNL     1      -2.496  -0.551  -0.201  1.00  0.00     0.048 A 
HETATM    6  C6  UNL     1      -1.162  -1.021  -0.230  1.00  0.00     0.096 A 
HETATM    7  C9  UNL     1       0.738   2.244   0.379  1.00  0.00     0.031 C 
HETATM    8  C10 UNL     1       1.990   1.861  -0.428  1.00  0.00     0.031 C 
HETATM    9  C11 UNL     1       2.371   0.443  -0.215  1.00  0.00    -0.020 A 
HETATM   10  C12 UNL     1       1.358  -0.541   0.000  1.00  0.00    -0.002 A 
HETATM   11  C13 UNL     1       1.758  -1.891   0.232  1.00  0.00     0.002 A 
HETATM   12  C14 UNL     1       3.125  -2.250   0.215  1.00  0.00     0.027 A 
HETATM   13  C15 UNL     1       4.115  -1.272  -0.021  1.00  0.00     0.131 A 
HETATM   14  C16 UNL     1       3.739   0.072  -0.230  1.00  0.00     0.023 A 
HETATM   15  O3  UNL     1       5.410  -1.617  -0.043  1.00  0.00    -0.190 OA
ENDROOT
BRANCH   4  16
HETATM   16  O2  UNL     1      -4.037   1.250   0.049  1.00  0.00    -0.328 OA
HETATM   17  C8  UNL     1      -4.266   2.623   0.330  1.00  0.00     0.181 C 
ENDBRANCH   4  16
BRANCH   6  18
HETATM   18  O1  UNL     1      -0.978  -2.322  -0.486  1.00  0.00    -0.328 OA
HETATM   19  C7  UNL     1      -2.096  -3.191  -0.365  1.00  0.00     0.181 C 
ENDBRANCH   6  18
TORSDOF 2
