REMARK  3 active torsions:
REMARK  status: ('A' for Active; 'I' for Inactive)
REMARK    1  A    between atoms: C1_1  and  C21_31 
REMARK    2  A    between atoms: C5_5  and  C6_7 
REMARK    3  A    between atoms: C12_14  and  C15_18 
ROOT
HETATM    1  C6  UNL     1      -2.029  -1.277   0.539  1.00  0.00     0.056 A 
HETATM    2  C7  UNL     1      -3.166  -2.063   0.853  1.00  0.00     0.133 A 
HETATM    3  C8  UNL     1      -3.006  -3.369   1.371  1.00  0.00     0.055 A 
HETATM    4  C9  UNL     1      -1.711  -3.901   1.576  1.00  0.00     0.138 A 
HETATM    5  C10 UNL     1      -0.572  -3.115   1.260  1.00  0.00     0.087 A 
HETATM    6  C11 UNL     1      -0.729  -1.801   0.742  1.00  0.00     0.105 A 
HETATM    7  O2  UNL     1       0.357  -1.053   0.443  1.00  0.00    -0.307 OA
HETATM    8  C12 UNL     1       1.627  -1.479   0.609  1.00  0.00     0.103 A 
HETATM    9  C13 UNL     1       1.898  -2.713   1.094  1.00  0.00     0.067 A 
HETATM   10  C14 UNL     1       0.809  -3.641   1.463  1.00  0.00     0.202 A 
HETATM   11  O3  UNL     1       1.129  -4.727   1.889  1.00  0.00    -0.286 OA
HETATM   12  O6  UNL     1      -1.580  -5.143   2.066  1.00  0.00    -0.190 OA
HETATM   13  O7  UNL     1      -4.400  -1.574   0.664  1.00  0.00    -0.190 OA
ENDROOT
BRANCH   1  14
HETATM   14  C5  UNL     1      -2.199   0.084   0.000  1.00  0.00     0.174 C 
HETATM   15  C4  UNL     1      -2.275   0.141  -1.549  1.00  0.00     0.216 C 
HETATM   16  C3  UNL     1      -2.566   1.588  -2.027  1.00  0.00     0.218 C 
HETATM   17  O8  UNL     1      -1.057  -0.307  -2.125  1.00  0.00    -0.218 OA
HETATM   18  C2  UNL     1      -2.135   2.633  -0.963  1.00  0.00     0.214 C 
HETATM   19  O9  UNL     1      -3.955   1.730  -2.260  1.00  0.00    -0.218 OA
HETATM   20  C1  UNL     1      -0.898   2.141  -0.178  1.00  0.00     0.181 C 
HETATM   21  O10 UNL     1      -1.834   3.859  -1.604  1.00  0.00    -0.218 OA
HETATM   22  O1  UNL     1      -1.174   0.930   0.529  1.00  0.00    -0.347 OA
BRANCH  20  23
HETATM   23  C21 UNL     1      -0.381   3.145   0.857  1.00  0.00     0.214 C 
HETATM   24  O11 UNL     1       0.844   2.664   1.363  1.00  0.00    -0.218 OA
ENDBRANCH  20  23
ENDBRANCH   1  14
BRANCH   8  25
HETATM   25  C15 UNL     1       2.766  -0.580   0.252  1.00  0.00     0.025 A 
HETATM   26  C16 UNL     1       3.973  -0.650   0.971  1.00  0.00     0.004 A 
HETATM   27  C17 UNL     1       5.041   0.197   0.633  1.00  0.00     0.030 A 
HETATM   28  C18 UNL     1       4.910   1.117  -0.422  1.00  0.00     0.156 A 
HETATM   29  C19 UNL     1       3.703   1.189  -1.143  1.00  0.00     0.156 A 
HETATM   30  O5  UNL     1       5.916   1.908  -0.733  1.00  0.00    -0.188 OA
HETATM   31  C20 UNL     1       2.633   0.340  -0.803  1.00  0.00     0.032 A 
HETATM   32  O4  UNL     1       3.570   2.049  -2.133  1.00  0.00    -0.188 OA
ENDBRANCH   8  25
TORSDOF 3
