REMARK  5 active torsions:
REMARK  status: ('A' for Active; 'I' for Inactive)
REMARK    1  A    between atoms: C8_11  and  O5_22 
REMARK    2  A    between atoms: C9_12  and  C12_16 
REMARK    3  A    between atoms: C10_13  and  O3_14 
REMARK    4  A    between atoms: C12_16  and  C13_17 
REMARK    5  A    between atoms: C13_17  and  C14_19 
ROOT
HETATM    1  O1  UNL     1       5.731   0.892  -1.227  1.00  0.00    -0.299 OA
HETATM    2  C1  UNL     1       6.123  -0.235  -0.416  1.00  0.00     0.304 A 
HETATM    3  O2  UNL     1       4.861  -0.783   0.023  1.00  0.00    -0.298 OA
HETATM    4  C2  UNL     1       3.860  -0.061  -0.480  1.00  0.00     0.137 A 
HETATM    5  C3  UNL     1       4.401   0.972  -1.252  1.00  0.00     0.121 A 
HETATM    6  C4  UNL     1       3.531   1.883  -1.896  1.00  0.00     0.026 A 
HETATM    7  C5  UNL     1       2.135   1.767  -1.781  1.00  0.00     0.006 A 
HETATM    8  C6  UNL     1       1.586   0.722  -1.004  1.00  0.00     0.042 A 
HETATM    9  C7  UNL     1       2.451  -0.215  -0.334  1.00  0.00     0.110 A 
HETATM   10  N1  UNL     1       1.863  -1.217   0.418  1.00  0.00    -0.221 NA
HETATM   11  C8  UNL     1       0.496  -1.344   0.541  1.00  0.00     0.176 A 
HETATM   12  C9  UNL     1      -0.379  -0.442  -0.107  1.00  0.00     0.048 A 
HETATM   13  C10 UNL     1       0.170   0.603  -0.889  1.00  0.00     0.095 A 
ENDROOT
BRANCH  12  14
HETATM   14  C12 UNL     1      -1.838  -0.590   0.029  1.00  0.00     0.096 C 
BRANCH  14  15
HETATM   15  C13 UNL     1      -2.387   0.242   1.158  1.00  0.00     0.155 C 
HETATM   16  O4  UNL     1      -1.695   1.051   1.731  1.00  0.00    -0.296 OA
BRANCH  15  17
HETATM   17  C14 UNL     1      -3.826   0.037   1.553  1.00  0.00     0.058 C 
HETATM   18  C15 UNL     1      -4.205   0.826   2.807  1.00  0.00     0.008 C 
HETATM   19  C16 UNL     1      -4.789   0.279   0.389  1.00  0.00     0.008 C 
ENDBRANCH  15  17
ENDBRANCH  14  15
ENDBRANCH  12  14
BRANCH  11  20
HETATM   20  O5  UNL     1       0.002  -2.342   1.289  1.00  0.00    -0.312 OA
HETATM   21  C17 UNL     1       0.920  -3.235   1.900  1.00  0.00     0.183 C 
ENDBRANCH  11  20
BRANCH  13  22
HETATM   22  O3  UNL     1      -0.654   1.467  -1.508  1.00  0.00    -0.328 OA
HETATM   23  C11 UNL     1      -1.047   1.172  -2.840  1.00  0.00     0.181 C 
ENDBRANCH  13  22
TORSDOF 5
