REMARK  1 active torsions:
REMARK  status: ('A' for Active; 'I' for Inactive)
REMARK    1  A    between atoms: C7_8  and  C16_18 
ROOT
HETATM    1  C1  UNL     1      -3.121  -1.645  -1.527  1.00  0.00     0.033 C 
HETATM    2  C2  UNL     1      -1.736  -1.457  -0.877  1.00  0.00     0.219 C 
HETATM    3  N1  UNL     1      -1.894  -0.814   0.451  1.00  0.00     0.135 N 
HETATM    4  C3  UNL     1      -2.752  -1.586   1.365  1.00  0.00     0.250 C 
HETATM    5  C4  UNL     1      -4.148  -1.803   0.764  1.00  0.00     0.035 C 
HETATM    6  C5  UNL     1      -4.068  -2.441  -0.627  1.00  0.00     0.004 C 
HETATM    7  C6  UNL     1      -0.631  -0.396   1.090  1.00  0.00     0.254 C 
HETATM    8  C7  UNL     1       0.307   0.436   0.156  1.00  0.00     0.096 C 
HETATM    9  C8  UNL     1      -0.394   0.691  -1.191  1.00  0.00     0.008 C 
HETATM   10  C9  UNL     1      -0.775  -0.662  -1.807  1.00  0.00     0.032 C 
HETATM   11  C10 UNL     1       0.506  -1.459  -2.125  1.00  0.00     0.004 C 
HETATM   12  C11 UNL     1       1.397  -1.654  -0.885  1.00  0.00     0.034 C 
HETATM   13  C12 UNL     1       1.637  -0.309  -0.154  1.00  0.00     0.260 C 
HETATM   14  N2  UNL     1       2.475  -0.504   1.043  1.00  0.00     0.337 N 
HETATM   15  C13 UNL     1       3.778  -1.098   0.727  1.00  0.00     0.290 C 
HETATM   16  C14 UNL     1       3.615  -2.453   0.016  1.00  0.00     0.038 C 
HETATM   17  C15 UNL     1       2.733  -2.330  -1.232  1.00  0.00     0.004 C 
ENDROOT
BRANCH   8  18
HETATM   18  C16 UNL     1       0.619   1.795   0.805  1.00  0.00     0.260 C 
HETATM   19  N3  UNL     1       1.592   2.522  -0.023  1.00  0.00     0.337 N 
HETATM   20  C17 UNL     1       1.967   3.822   0.541  1.00  0.00     0.290 C 
HETATM   21  C18 UNL     1       0.733   4.719   0.742  1.00  0.00     0.038 C 
HETATM   22  C19 UNL     1      -0.336   4.018   1.590  1.00  0.00     0.004 C 
HETATM   23  C20 UNL     1      -0.658   2.633   1.012  1.00  0.00     0.036 C 
ENDBRANCH   8  18
TORSDOF 1
