REMARK  4 active torsions:
REMARK  status: ('A' for Active; 'I' for Inactive)
REMARK    1  A    between atoms: C1_2  and  C2_3 
REMARK    2  A    between atoms: C2_3  and  C3_4 
REMARK    3  A    between atoms: C3_4  and  C4_5 
REMARK    4  A    between atoms: C4_5  and  C5_6 
ROOT
HETATM    1  C4  UNL     1       1.381  -0.795  -0.311  1.00  0.00     0.387 C 
HETATM    2  N2  UNL     1       1.889  -2.150  -0.440  1.00  0.00     0.628 N 
ENDROOT
BRANCH   1   3
HETATM    3  C3  UNL     1      -0.148  -0.795  -0.311  1.00  0.00     0.053 C 
BRANCH   3   4
HETATM    4  C2  UNL     1      -0.738   0.615  -0.311  1.00  0.00     0.044 C 
BRANCH   4   5
HETATM    5  C1  UNL     1      -2.268   0.615  -0.332  1.00  0.00     0.339 C 
HETATM    6  N1  UNL     1      -2.775   1.977  -0.332  1.00  0.00     0.618 N 
ENDBRANCH   4   5
ENDBRANCH   3   4
ENDBRANCH   1   3
BRANCH   1   7
HETATM    7  C5  UNL     1       1.955  -0.139   0.916  1.00  0.00     0.224 C 
HETATM    8  O1  UNL     1       2.959   0.703   0.689  1.00  0.00    -0.646 OA
HETATM    9  O2  UNL     1       1.514  -0.381   2.015  1.00  0.00    -0.646 OA
ENDBRANCH   1   7
TORSDOF 4
