REMARK  2 active torsions:
REMARK  status: ('A' for Active; 'I' for Inactive)
REMARK    1  A    between atoms: O1_2  and  C2_3 
REMARK    2  A    between atoms: C10_13  and  C11_15 
ROOT
HETATM    1  C2  UNL     1      -3.113  -1.443   0.391  1.00  0.00     0.145 A 
HETATM    2  C3  UNL     1      -3.264  -0.135  -0.129  1.00  0.00     0.157 A 
HETATM    3  O2  UNL     1      -4.490   0.373  -0.324  1.00  0.00    -0.188 OA
HETATM    4  C4  UNL     1      -2.123   0.643  -0.440  1.00  0.00     0.054 A 
HETATM    5  C5  UNL     1      -0.828   0.113  -0.234  1.00  0.00     0.107 A 
HETATM    6  C6  UNL     1      -0.678  -1.201   0.285  1.00  0.00     0.089 A 
HETATM    7  C7  UNL     1      -1.820  -1.982   0.598  1.00  0.00     0.160 A 
HETATM    8  O3  UNL     1      -1.691  -3.223   1.088  1.00  0.00    -0.188 OA
HETATM    9  C8  UNL     1       0.699  -1.732   0.488  1.00  0.00     0.202 A 
HETATM   10  C9  UNL     1       1.793  -0.809   0.121  1.00  0.00     0.067 A 
HETATM   11  C10 UNL     1       1.527   0.428  -0.363  1.00  0.00     0.103 A 
HETATM   12  O4  UNL     1       0.260   0.857  -0.531  1.00  0.00    -0.307 OA
HETATM   13  O5  UNL     1       1.014  -2.820   0.914  1.00  0.00    -0.286 OA
ENDROOT
BRANCH  11  14
HETATM   14  C11 UNL     1       2.670   1.320  -0.719  1.00  0.00     0.023 A 
HETATM   15  C12 UNL     1       2.502   2.328  -1.686  1.00  0.00     0.002 A 
HETATM   16  C13 UNL     1       3.578   3.170  -2.020  1.00  0.00     0.000 A 
HETATM   17  C14 UNL     1       4.822   3.004  -1.385  1.00  0.00     0.000 A 
HETATM   18  C15 UNL     1       4.990   1.998  -0.418  1.00  0.00     0.000 A 
HETATM   19  C16 UNL     1       3.916   1.156  -0.086  1.00  0.00     0.002 A 
ENDBRANCH  11  14
BRANCH   1  20
HETATM   20  O1  UNL     1      -4.197  -2.176   0.683  1.00  0.00    -0.324 OA
HETATM   21  C1  UNL     1      -4.658  -2.176   2.027  1.00  0.00     0.182 C 
ENDBRANCH   1  20
TORSDOF 2
