REMARK  3 active torsions:
REMARK  status: ('A' for Active; 'I' for Inactive)
REMARK    1  A    between atoms: C2_2  and  O3_17 
REMARK    2  A    between atoms: C3_3  and  C10_12 
REMARK    3  A    between atoms: C10_12  and  C11_13 
ROOT
HETATM    1  C1  UNL     1       1.117  -2.311  -1.346  1.00  0.00     0.024 A 
HETATM    2  C2  UNL     1       1.199  -0.988  -0.850  1.00  0.00     0.092 A 
HETATM    3  C3  UNL     1       0.021  -0.225  -0.652  1.00  0.00     0.027 A 
HETATM    4  C4  UNL     1      -1.244  -0.789  -0.953  1.00  0.00     0.102 A 
HETATM    5  C5  UNL     1      -1.319  -2.119  -1.449  1.00  0.00     0.023 A 
HETATM    6  C6  UNL     1      -0.143  -2.881  -1.646  1.00  0.00     0.004 A 
HETATM    7  C7  UNL     1      -2.655  -2.692  -1.756  1.00  0.00     0.007 A 
HETATM    8  C8  UNL     1      -3.748  -1.930  -1.553  1.00  0.00     0.069 A 
HETATM    9  C9  UNL     1      -3.608  -0.551  -1.035  1.00  0.00     0.300 A 
HETATM   10  O1  UNL     1      -2.375  -0.070  -0.769  1.00  0.00    -0.273 OA
HETATM   11  O2  UNL     1      -4.606   0.107  -0.865  1.00  0.00    -0.259 OA
ENDROOT
BRANCH   3  12
HETATM   12  C10 UNL     1       0.109   1.152  -0.139  1.00  0.00     0.056 C 
BRANCH  12  13
HETATM   13  C11 UNL     1       0.049   1.199   1.365  1.00  0.00    -0.030 C 
HETATM   14  C12 UNL     1       0.390   2.342   1.984  1.00  0.00    -0.048 C 
HETATM   15  C13 UNL     1       0.810   3.611   1.295  1.00  0.00     0.026 C 
HETATM   16  C14 UNL     1       0.359   2.379   3.490  1.00  0.00     0.026 C 
ENDBRANCH  12  13
ENDBRANCH   3  12
BRANCH   2  17
HETATM   17  O3  UNL     1       2.400  -0.463  -0.568  1.00  0.00    -0.328 OA
HETATM   18  C15 UNL     1       3.545  -1.289  -0.727  1.00  0.00     0.181 C 
ENDBRANCH   2  17
TORSDOF 3
