REMARK  5 active torsions:
REMARK  status: ('A' for Active; 'I' for Inactive)
REMARK    1  A    between atoms: C3_3  and  C4_4 
REMARK    2  A    between atoms: C4_4  and  C5_5 
REMARK    3  A    between atoms: C5_5  and  C6_6 
REMARK    4  A    between atoms: C7_7  and  C8_8 
REMARK    5  A    between atoms: C8_8  and  C9_9 
ROOT
HETATM    1  C9  UNL     1      -0.635   0.777   2.217  1.00  0.00     0.008 A 
HETATM    2  C10 UNL     1      -1.891   0.201   1.912  1.00  0.00     0.000 A 
HETATM    3  C11 UNL     1      -3.072   0.957   2.107  1.00  0.00     0.023 A 
HETATM    4  C12 UNL     1      -3.006   2.287   2.604  1.00  0.00     0.105 A 
HETATM    5  C13 UNL     1      -1.746   2.857   2.904  1.00  0.00     0.052 A 
HETATM    6  C14 UNL     1      -0.563   2.104   2.713  1.00  0.00     0.129 A 
HETATM    7  O1  UNL     1       0.625   2.656   3.004  1.00  0.00    -0.190 OA
HETATM    8  O2  UNL     1      -4.137   3.006   2.787  1.00  0.00    -0.273 OA
HETATM    9  C15 UNL     1      -5.367   2.516   2.520  1.00  0.00     0.300 A 
HETATM   10  C16 UNL     1      -5.502   1.135   2.000  1.00  0.00     0.069 A 
HETATM   11  C17 UNL     1      -4.404   0.379   1.799  1.00  0.00     0.007 A 
HETATM   12  O3  UNL     1      -6.371   3.168   2.686  1.00  0.00    -0.259 OA
ENDROOT
BRANCH   1  13
HETATM   13  C8  UNL     1       0.594  -0.008   2.016  1.00  0.00     0.054 C 
BRANCH  13  14
HETATM   14  C7  UNL     1       0.392  -1.135   1.037  1.00  0.00    -0.030 C 
HETATM   15  C6  UNL     1       0.357  -0.846  -0.273  1.00  0.00    -0.048 C 
HETATM   16  C18 UNL     1       0.519   0.590  -0.699  1.00  0.00     0.026 C 
BRANCH  15  17
HETATM   17  C5  UNL     1       0.154  -1.973  -1.252  1.00  0.00     0.026 C 
BRANCH  17  18
HETATM   18  C4  UNL     1       1.449  -2.365  -1.965  1.00  0.00     0.030 C 
BRANCH  18  19
HETATM   19  C3  UNL     1       1.904  -1.316  -2.945  1.00  0.00    -0.034 C 
HETATM   20  C1  UNL     1       3.221  -1.195  -3.188  1.00  0.00    -0.048 C 
HETATM   21  C2  UNL     1       3.685  -0.070  -4.074  1.00  0.00     0.026 C 
HETATM   22  C19 UNL     1       4.162  -2.189  -2.562  1.00  0.00     0.026 C 
ENDBRANCH  18  19
ENDBRANCH  17  18
ENDBRANCH  15  17
ENDBRANCH  13  14
ENDBRANCH   1  13
TORSDOF 5
