REMARK  1 active torsions:
REMARK  status: ('A' for Active; 'I' for Inactive)
REMARK    1  A    between atoms: C10_10  and  C11_11 
ROOT
HETATM    1  C1  UNL     1      -1.611   3.654  -0.893  1.00  0.00     0.026 A 
HETATM    2  C2  UNL     1      -2.309   2.477  -0.535  1.00  0.00     0.119 A 
HETATM    3  C3  UNL     1      -1.594   1.350  -0.113  1.00  0.00     0.115 A 
HETATM    4  C4  UNL     1      -0.164   1.398  -0.047  1.00  0.00     0.002 A 
HETATM    5  C5  UNL     1       0.521   2.590  -0.398  1.00  0.00    -0.024 A 
HETATM    6  C6  UNL     1      -0.205   3.721  -0.828  1.00  0.00    -0.002 A 
HETATM    7  C7  UNL     1       1.998   2.623  -0.301  1.00  0.00     0.026 C 
HETATM    8  C8  UNL     1       2.652   1.367  -0.914  1.00  0.00     0.005 C 
HETATM    9  C9  UNL     1       1.914   0.043  -0.553  1.00  0.00     0.009 C 
HETATM   10  C10 UNL     1       0.691   0.242   0.391  1.00  0.00     0.046 C 
HETATM   11  C18 UNL     1       2.902  -0.984   0.019  1.00  0.00     0.001 C 
HETATM   12  C19 UNL     1       2.805   1.520  -2.436  1.00  0.00     0.000 C 
HETATM   13  O3  UNL     1      -2.469   0.379   0.166  1.00  0.00    -0.300 OA
HETATM   14  C20 UNL     1      -3.813   0.850  -0.070  1.00  0.00     0.304 A 
HETATM   15  O4  UNL     1      -3.615   2.207  -0.520  1.00  0.00    -0.300 OA
ENDROOT
BRANCH  10  16
HETATM   16  C11 UNL     1      -0.051  -1.029   0.562  1.00  0.00    -0.016 A 
HETATM   17  C12 UNL     1      -0.613  -1.682  -0.551  1.00  0.00    -0.002 A 
HETATM   18  C13 UNL     1      -1.316  -2.891  -0.361  1.00  0.00     0.026 A 
HETATM   19  C14 UNL     1      -1.467  -3.461   0.930  1.00  0.00     0.119 A 
HETATM   20  C15 UNL     1      -0.908  -2.814   2.035  1.00  0.00     0.119 A 
HETATM   21  O2  UNL     1      -2.078  -4.572   1.338  1.00  0.00    -0.300 OA
HETATM   22  C16 UNL     1      -0.199  -1.598   1.848  1.00  0.00     0.022 A 
HETATM   23  O1  UNL     1      -1.172  -3.522   3.133  1.00  0.00    -0.300 OA
HETATM   24  C17 UNL     1      -1.939  -4.691   2.771  1.00  0.00     0.304 A 
ENDBRANCH  10  16
TORSDOF 1
