REMARK  2 active torsions:
REMARK  status: ('A' for Active; 'I' for Inactive)
REMARK    1  A    between atoms: C6_8  and  C17_21 
REMARK    2  A    between atoms: C9_12  and  C11_15 
ROOT
HETATM    1  C1  UNL     1      -3.002  -0.475  -1.133  1.00  0.00     0.089 C 
HETATM    2  C2  UNL     1      -1.869  -1.508  -0.928  1.00  0.00     0.048 C 
HETATM    3  C3  UNL     1      -0.508  -0.840  -1.225  1.00  0.00     0.070 C 
HETATM    4  C4  UNL     1      -0.527   0.684  -1.449  1.00  0.00     0.152 C 
HETATM    5  O1  UNL     1      -1.406   1.313  -0.506  1.00  0.00    -0.302 OA
HETATM    6  C5  UNL     1      -2.656   0.824  -0.437  1.00  0.00     0.271 C 
HETATM    7  O2  UNL     1      -3.523   1.397   0.182  1.00  0.00    -0.264 OA
HETATM    8  C6  UNL     1       0.947   1.059  -1.191  1.00  0.00     0.137 C 
HETATM    9  N1  UNL     1       1.424   0.049  -0.252  1.00  0.00    -0.349 N 
HETATM   10  C7  UNL     1       0.572  -1.060  -0.191  1.00  0.00     0.027 C 
HETATM   11  C8  UNL     1       0.637  -2.144   0.613  1.00  0.00    -0.031 C 
HETATM   12  C9  UNL     1      -0.600  -3.021   0.736  1.00  0.00     0.050 C 
HETATM   13  C10 UNL     1      -1.875  -2.176   0.473  1.00  0.00     0.157 C 
HETATM   14  O3  UNL     1      -3.016  -3.010   0.578  1.00  0.00    -0.223 OA
HETATM   15  C13 UNL     1       1.895  -2.498   1.393  1.00  0.00     0.023 C 
HETATM   16  C14 UNL     1       3.186  -2.338   0.566  1.00  0.00     0.006 C 
HETATM   17  C15 UNL     1       3.686  -0.889   0.410  1.00  0.00     0.025 C 
HETATM   18  C16 UNL     1       2.627   0.217   0.574  1.00  0.00     0.101 C 
HETATM   19  C22 UNL     1      -3.293  -0.219  -2.615  1.00  0.00     0.011 C 
ENDROOT
BRANCH   8  20
HETATM   20  C17 UNL     1       1.068   2.492  -0.680  1.00  0.00     0.147 C 
HETATM   21  O4  UNL     1       0.434   2.617   0.588  1.00  0.00    -0.302 OA
HETATM   22  C18 UNL     1      -0.059   3.848   0.664  1.00  0.00     0.271 C 
HETATM   23  C19 UNL     1       0.080   4.627  -0.611  1.00  0.00     0.089 C 
HETATM   24  O5  UNL     1      -0.584   4.317   1.647  1.00  0.00    -0.264 OA
HETATM   25  C20 UNL     1       0.400   3.516  -1.607  1.00  0.00     0.042 C 
HETATM   26  C21 UNL     1       1.219   5.639  -0.531  1.00  0.00     0.011 C 
ENDBRANCH   8  20
BRANCH  12  27
HETATM   27  C11 UNL     1      -0.672  -3.693   2.117  1.00  0.00     0.007 C 
HETATM   28  C12 UNL     1      -0.777  -2.684   3.262  1.00  0.00     0.000 C 
ENDBRANCH  12  27
TORSDOF 2
