REMARK  4 active torsions:
REMARK  status: ('A' for Active; 'I' for Inactive)
REMARK    1  A    between atoms: C1_1  and  O8_25 
REMARK    2  A    between atoms: C7_8  and  C11_14 
REMARK    3  A    between atoms: C8_9  and  O3_12 
REMARK    4  A    between atoms: C14_17  and  O5_21 
ROOT
HETATM    1  C1  UNL     1      -4.342  -0.621   0.586  1.00  0.00     0.098 A 
HETATM    2  C2  UNL     1      -4.186  -1.924   1.115  1.00  0.00     0.052 A 
HETATM    3  C3  UNL     1      -2.893  -2.465   1.311  1.00  0.00     0.138 A 
HETATM    4  C4  UNL     1      -1.752  -1.691   0.971  1.00  0.00     0.089 A 
HETATM    5  C5  UNL     1      -1.906  -0.383   0.441  1.00  0.00     0.107 A 
HETATM    6  C6  UNL     1      -3.203   0.148   0.250  1.00  0.00     0.049 A 
HETATM    7  O1  UNL     1      -0.820   0.352   0.121  1.00  0.00    -0.305 OA
HETATM    8  C7  UNL     1       0.449  -0.080   0.273  1.00  0.00     0.127 A 
HETATM    9  C8  UNL     1       0.729  -1.313   0.770  1.00  0.00     0.156 A 
HETATM   10  C9  UNL     1      -0.375  -2.223   1.160  1.00  0.00     0.224 A 
HETATM   11  O2  UNL     1      -0.064  -3.309   1.594  1.00  0.00    -0.284 OA
HETATM   12  O7  UNL     1      -2.762  -3.701   1.813  1.00  0.00    -0.190 OA
ENDROOT
BRANCH   8  13
HETATM   13  C11 UNL     1       1.574   0.828  -0.115  1.00  0.00     0.052 A 
HETATM   14  C12 UNL     1       2.682   0.967   0.740  1.00  0.00     0.034 A 
HETATM   15  C13 UNL     1       3.746   1.816   0.389  1.00  0.00     0.153 A 
HETATM   16  C14 UNL     1       3.701   2.529  -0.824  1.00  0.00     0.121 A 
HETATM   17  O6  UNL     1       4.781   1.939   1.195  1.00  0.00    -0.188 OA
HETATM   18  C15 UNL     1       2.594   2.389  -1.676  1.00  0.00     0.054 A 
HETATM   19  C16 UNL     1       1.527   1.541  -1.328  1.00  0.00     0.135 A 
HETATM   20  O4  UNL     1       0.496   1.420  -2.141  1.00  0.00    -0.190 OA
BRANCH  16  21
HETATM   21  O5  UNL     1       4.695   3.326  -1.160  1.00  0.00    -0.326 OA
HETATM   22  C17 UNL     1       4.600   4.023  -2.395  1.00  0.00     0.181 C 
ENDBRANCH  16  21
ENDBRANCH   8  13
BRANCH   9  23
HETATM   23  O3  UNL     1       1.988  -1.729   0.916  1.00  0.00    -0.323 OA
HETATM   24  C10 UNL     1       2.486  -2.367  -0.252  1.00  0.00     0.182 C 
ENDBRANCH   9  23
BRANCH   1  25
HETATM   25  O8  UNL     1      -5.568  -0.115   0.404  1.00  0.00    -0.328 OA
HETATM   26  C18 UNL     1      -6.682  -0.922   0.756  1.00  0.00     0.181 C 
ENDBRANCH   1  25
TORSDOF 4
