REMARK  4 active torsions:
REMARK  status: ('A' for Active; 'I' for Inactive)
REMARK    1  A    between atoms: C9_11  and  C13_17 
REMARK    2  A    between atoms: C10_12  and  O4_15 
REMARK    3  A    between atoms: C16_20  and  O6_25 
REMARK    4  A    between atoms: C17_21  and  O5_23 
ROOT
HETATM    1  C1  UNL     1      -4.676  -1.971   1.106  1.00  0.00     0.102 A 
HETATM    2  C2  UNL     1      -4.232  -3.248   1.490  1.00  0.00     0.025 A 
HETATM    3  C3  UNL     1      -2.834  -3.469   1.498  1.00  0.00     0.007 A 
HETATM    4  C4  UNL     1      -1.938  -2.422   1.127  1.00  0.00     0.064 A 
HETATM    5  C5  UNL     1      -2.416  -1.127   0.738  1.00  0.00     0.105 A 
HETATM    6  C6  UNL     1      -3.826  -0.963   0.748  1.00  0.00     0.048 A 
HETATM    7  C7  UNL     1      -4.520   0.154   0.424  1.00  0.00     0.031 A 
HETATM    8  C8  UNL     1      -5.879  -0.192   0.596  1.00  0.00     0.123 A 
HETATM    9  O1  UNL     1      -5.990  -1.543   1.029  1.00  0.00    -0.305 OA
HETATM   10  O2  UNL     1      -1.500  -0.190   0.403  1.00  0.00    -0.305 OA
HETATM   11  C9  UNL     1      -0.164  -0.363   0.404  1.00  0.00     0.125 A 
HETATM   12  C10 UNL     1       0.396  -1.545   0.754  1.00  0.00     0.156 A 
HETATM   13  C11 UNL     1      -0.471  -2.678   1.143  1.00  0.00     0.222 A 
HETATM   14  O3  UNL     1       0.080  -3.713   1.442  1.00  0.00    -0.284 OA
ENDROOT
BRANCH  11  15
HETATM   15  C13 UNL     1       0.715   0.779   0.010  1.00  0.00     0.027 A 
HETATM   16  C14 UNL     1       0.434   2.078   0.471  1.00  0.00     0.004 A 
HETATM   17  C15 UNL     1       1.262   3.150   0.098  1.00  0.00     0.026 A 
HETATM   18  C16 UNL     1       2.373   2.930  -0.734  1.00  0.00     0.116 A 
HETATM   19  C17 UNL     1       2.656   1.631  -1.195  1.00  0.00     0.116 A 
HETATM   20  C18 UNL     1       1.828   0.559  -0.822  1.00  0.00     0.028 A 
BRANCH  18  21
HETATM   21  O6  UNL     1       3.145   3.941  -1.078  1.00  0.00    -0.326 OA
HETATM   22  C20 UNL     1       2.814   5.232  -0.586  1.00  0.00     0.181 C 
ENDBRANCH  18  21
BRANCH  19  23
HETATM   23  O5  UNL     1       3.697   1.416  -1.974  1.00  0.00    -0.326 OA
HETATM   24  C19 UNL     1       3.940   0.088  -2.414  1.00  0.00     0.181 C 
ENDBRANCH  19  23
ENDBRANCH  11  15
BRANCH  12  25
HETATM   25  O4  UNL     1       1.721  -1.711   0.756  1.00  0.00    -0.323 OA
HETATM   26  C12 UNL     1       2.133  -2.758  -0.109  1.00  0.00     0.182 C 
ENDBRANCH  12  25
TORSDOF 4
