REMARK  4 active torsions:
REMARK  status: ('A' for Active; 'I' for Inactive)
REMARK    1  A    between atoms: C9_11  and  C13_17 
REMARK    2  A    between atoms: C10_12  and  O4_15 
REMARK    3  A    between atoms: C14_18  and  O5_19 
REMARK    4  A    between atoms: C19_24  and  O6_25 
ROOT
HETATM    1  C1  UNL     1      -4.289  -1.881   0.623  1.00  0.00     0.102 A 
HETATM    2  C2  UNL     1      -3.846  -3.160   1.008  1.00  0.00     0.025 A 
HETATM    3  C3  UNL     1      -2.447  -3.381   1.014  1.00  0.00     0.007 A 
HETATM    4  C4  UNL     1      -1.549  -2.334   0.644  1.00  0.00     0.064 A 
HETATM    5  C5  UNL     1      -2.030  -1.037   0.256  1.00  0.00     0.105 A 
HETATM    6  C6  UNL     1      -3.440  -0.873   0.266  1.00  0.00     0.048 A 
HETATM    7  C7  UNL     1      -4.131   0.244  -0.059  1.00  0.00     0.031 A 
HETATM    8  C8  UNL     1      -5.491  -0.101   0.111  1.00  0.00     0.123 A 
HETATM    9  O1  UNL     1      -5.604  -1.455   0.547  1.00  0.00    -0.305 OA
HETATM   10  O2  UNL     1      -1.112  -0.101  -0.080  1.00  0.00    -0.305 OA
HETATM   11  C9  UNL     1       0.224  -0.275  -0.078  1.00  0.00     0.129 A 
HETATM   12  C10 UNL     1       0.783  -1.457   0.271  1.00  0.00     0.156 A 
HETATM   13  C11 UNL     1      -0.084  -2.588   0.660  1.00  0.00     0.222 A 
HETATM   14  O3  UNL     1       0.469  -3.623   0.959  1.00  0.00    -0.284 OA
ENDROOT
BRANCH  11  15
HETATM   15  C13 UNL     1       1.103   0.869  -0.473  1.00  0.00     0.069 A 
HETATM   16  C14 UNL     1       0.926   2.133   0.125  1.00  0.00     0.098 A 
HETATM   17  C16 UNL     1       1.756   3.205  -0.248  1.00  0.00     0.024 A 
HETATM   18  C17 UNL     1       2.758   3.020  -1.215  1.00  0.00     0.004 A 
HETATM   19  C18 UNL     1       2.933   1.760  -1.811  1.00  0.00     0.024 A 
HETATM   20  C19 UNL     1       2.109   0.682  -1.443  1.00  0.00     0.098 A 
BRANCH  16  21
HETATM   21  O5  UNL     1      -0.010   2.320   1.035  1.00  0.00    -0.328 OA
HETATM   22  C15 UNL     1      -0.139   3.617   1.602  1.00  0.00     0.181 C 
ENDBRANCH  16  21
BRANCH  20  23
HETATM   23  O6  UNL     1       2.285  -0.494  -2.012  1.00  0.00    -0.328 OA
HETATM   24  C20 UNL     1       3.310  -0.617  -2.988  1.00  0.00     0.181 C 
ENDBRANCH  20  23
ENDBRANCH  11  15
BRANCH  12  25
HETATM   25  O4  UNL     1       2.107  -1.623   0.271  1.00  0.00    -0.323 OA
HETATM   26  C12 UNL     1       2.664  -1.516   1.572  1.00  0.00     0.182 C 
ENDBRANCH  12  25
TORSDOF 4
