REMARK  8 active torsions:
REMARK  status: ('A' for Active; 'I' for Inactive)
REMARK    1  A    between atoms: C2_2  and  O4_35 
REMARK    2  A    between atoms: C15_15  and  C18_19 
REMARK    3  A    between atoms: C18_19  and  C19_20 
REMARK    4  A    between atoms: C18_19  and  C26_27 
REMARK    5  A    between atoms: C19_20  and  C20_21 
REMARK    6  A    between atoms: C20_21  and  C21_22 
REMARK    7  A    between atoms: C21_22  and  C22_23 
REMARK    8  A    between atoms: O4_35  and  C32_36 
ROOT
HETATM    1  C1  UNL     1      -5.352   1.875   0.314  1.00  0.00     0.030 C 
HETATM    2  C2  UNL     1      -6.049   0.514   0.416  1.00  0.00     0.124 C 
HETATM    3  C3  UNL     1      -5.480  -0.514  -0.600  1.00  0.00     0.026 C 
HETATM    4  C4  UNL     1      -3.973  -0.232  -0.885  1.00  0.00     0.006 C 
HETATM    5  C5  UNL     1      -3.219   0.387   0.322  1.00  0.00     0.015 C 
HETATM    6  C6  UNL     1      -3.844   1.777   0.623  1.00  0.00     0.006 C 
HETATM    7  C7  UNL     1      -1.711   0.500   0.090  1.00  0.00    -0.053 C 
HETATM    8  C8  UNL     1      -1.080  -0.145  -0.928  1.00  0.00    -0.053 C 
HETATM    9  C9  UNL     1      -1.826  -1.012  -1.922  1.00  0.00     0.021 C 
HETATM   10  C10 UNL     1      -3.213  -1.441  -1.445  1.00  0.00     0.005 C 
HETATM   11  C11 UNL     1       0.420   0.000  -1.102  1.00  0.00     0.017 C 
HETATM   12  C12 UNL     1       1.133   0.195   0.252  1.00  0.00     0.006 C 
HETATM   13  C13 UNL     1       0.594   1.500   0.842  1.00  0.00     0.005 C 
HETATM   14  C14 UNL     1      -0.926   1.363   1.078  1.00  0.00     0.021 C 
HETATM   15  C15 UNL     1       2.608   0.201  -0.170  1.00  0.00     0.041 C 
HETATM   16  C16 UNL     1       2.654  -0.973  -1.170  1.00  0.00     0.153 C 
HETATM   17  C17 UNL     1       1.207  -1.199  -1.649  1.00  0.00     0.037 C 
HETATM   18  O1  UNL     1       3.498  -0.652  -2.262  1.00  0.00    -0.223 OA
HETATM   19  C27 UNL     1       0.887  -0.981   1.213  1.00  0.00     0.000 C 
HETATM   20  C28 UNL     1       0.658   1.146  -2.094  1.00  0.00     0.004 C 
HETATM   21  C29 UNL     1      -3.367  -0.531   1.547  1.00  0.00     0.004 C 
HETATM   22  C30 UNL     1      -5.695  -1.924  -0.031  1.00  0.00     0.002 C 
HETATM   23  C31 UNL     1      -6.246  -0.430  -1.930  1.00  0.00     0.002 C 
ENDROOT
BRANCH  15  24
HETATM   24  C18 UNL     1       3.588   0.031   0.988  1.00  0.00     0.090 C 
BRANCH  24  25
HETATM   25  C19 UNL     1       4.918   0.090   0.238  1.00  0.00     0.015 C 
BRANCH  25  26
HETATM   26  C20 UNL     1       6.121   0.205   1.176  1.00  0.00     0.022 C 
BRANCH  26  27
HETATM   27  C21 UNL     1       7.432   0.143   0.439  1.00  0.00    -0.044 C 
HETATM   28  C25 UNL     1       7.944   1.279  -0.057  1.00  0.00    -0.009 C 
BRANCH  27  29
HETATM   29  C22 UNL     1       8.196  -1.139   0.232  1.00  0.00     0.018 C 
HETATM   30  C23 UNL     1       9.600  -0.898  -0.322  1.00  0.00     0.004 C 
HETATM   31  C24 UNL     1       7.406  -2.162  -0.584  1.00  0.00     0.004 C 
ENDBRANCH  27  29
ENDBRANCH  26  27
ENDBRANCH  25  26
ENDBRANCH  24  25
BRANCH  24  32
HETATM   32  C26 UNL     1       3.459   1.125   2.014  1.00  0.00     0.185 C 
HETATM   33  O2  UNL     1       3.137   0.719   3.238  1.00  0.00    -0.647 OA
HETATM   34  O3  UNL     1       3.641   2.283   1.715  1.00  0.00    -0.647 OA
ENDBRANCH  24  32
ENDBRANCH  15  24
BRANCH   2  35
HETATM   35  O4  UNL     1      -7.449   0.680   0.230  1.00  0.00    -0.304 OA
BRANCH  35  36
HETATM   36  C32 UNL     1      -8.035   1.256   1.275  1.00  0.00     0.272 C 
HETATM   37  C33 UNL     1      -9.498   1.563   1.101  1.00  0.00     0.106 C 
HETATM   38  O5  UNL     1      -7.461   1.525   2.305  1.00  0.00    -0.264 OA
ENDBRANCH  35  36
ENDBRANCH   2  35
TORSDOF 8
