REMARK  4 active torsions:
REMARK  status: ('A' for Active; 'I' for Inactive)
REMARK    1  A    between atoms: C1_1  and  O7_24 
REMARK    2  A    between atoms: C7_8  and  C11_14 
REMARK    3  A    between atoms: C8_9  and  O3_12 
REMARK    4  A    between atoms: C13_16  and  O5_21 
ROOT
HETATM    1  C1  UNL     1      -4.000  -0.562   0.693  1.00  0.00     0.098 A 
HETATM    2  C2  UNL     1      -3.844  -1.867   1.223  1.00  0.00     0.052 A 
HETATM    3  C3  UNL     1      -2.551  -2.406   1.418  1.00  0.00     0.138 A 
HETATM    4  C4  UNL     1      -1.410  -1.633   1.078  1.00  0.00     0.089 A 
HETATM    5  C5  UNL     1      -1.565  -0.326   0.549  1.00  0.00     0.107 A 
HETATM    6  C6  UNL     1      -2.861   0.207   0.357  1.00  0.00     0.049 A 
HETATM    7  O1  UNL     1      -0.479   0.410   0.228  1.00  0.00    -0.305 OA
HETATM    8  C7  UNL     1       0.791  -0.021   0.381  1.00  0.00     0.125 A 
HETATM    9  C8  UNL     1       1.070  -1.254   0.877  1.00  0.00     0.156 A 
HETATM   10  C9  UNL     1      -0.033  -2.164   1.266  1.00  0.00     0.224 A 
HETATM   11  O2  UNL     1       0.275  -3.250   1.701  1.00  0.00    -0.284 OA
HETATM   12  O6  UNL     1      -2.422  -3.643   1.920  1.00  0.00    -0.190 OA
ENDROOT
BRANCH   8  13
HETATM   13  C11 UNL     1       1.914   0.885  -0.008  1.00  0.00     0.027 A 
HETATM   14  C12 UNL     1       1.783   1.732  -1.123  1.00  0.00     0.028 A 
HETATM   15  C13 UNL     1       2.838   2.588  -1.490  1.00  0.00     0.119 A 
HETATM   16  C14 UNL     1       4.029   2.594  -0.740  1.00  0.00     0.153 A 
HETATM   17  C15 UNL     1       4.158   1.746   0.373  1.00  0.00     0.029 A 
HETATM   18  O4  UNL     1       5.022   3.393  -1.080  1.00  0.00    -0.188 OA
HETATM   19  C16 UNL     1       3.105   0.893   0.740  1.00  0.00     0.004 A 
BRANCH  15  20
HETATM   20  O5  UNL     1       2.707   3.379  -2.537  1.00  0.00    -0.326 OA
HETATM   21  C17 UNL     1       1.484   3.332  -3.260  1.00  0.00     0.181 C 
ENDBRANCH  15  20
ENDBRANCH   8  13
BRANCH   9  22
HETATM   22  O3  UNL     1       2.328  -1.670   1.023  1.00  0.00    -0.323 OA
HETATM   23  C10 UNL     1       2.818  -2.328  -0.137  1.00  0.00     0.182 C 
ENDBRANCH   9  22
BRANCH   1  24
HETATM   24  O7  UNL     1      -5.227  -0.057   0.512  1.00  0.00    -0.328 OA
HETATM   25  C18 UNL     1      -6.342  -0.863   0.863  1.00  0.00     0.181 C 
ENDBRANCH   1  24
TORSDOF 4
