REMARK  3 active torsions:
REMARK  status: ('A' for Active; 'I' for Inactive)
REMARK    1  A    between atoms: C2_2  and  N2_25 
REMARK    2  A    between atoms: C15_15  and  C18_18 
REMARK    3  A    between atoms: C18_18  and  N1_20 
ROOT
HETATM    1  C1  UNL     1       4.934  -1.041  -0.533  1.00  0.00     0.036 C 
HETATM    2  C2  UNL     1       5.410   0.416  -0.611  1.00  0.00     0.257 C 
HETATM    3  C3  UNL     1       4.615   1.301   0.361  1.00  0.00     0.036 C 
HETATM    4  C4  UNL     1       3.080   1.166   0.246  1.00  0.00     0.002 C 
HETATM    5  C5  UNL     1       2.586  -0.311   0.250  1.00  0.00     0.000 C 
HETATM    6  C6  UNL     1       3.418  -1.164  -0.740  1.00  0.00     0.002 C 
HETATM    7  C7  UNL     1       1.076  -0.404  -0.164  1.00  0.00     0.000 C 
HETATM    8  C8  UNL     1       0.322   0.932   0.041  1.00  0.00     0.000 C 
HETATM    9  C9  UNL     1       0.947   2.070  -0.801  1.00  0.00     0.000 C 
HETATM   10  C10 UNL     1       2.477   1.959  -0.924  1.00  0.00     0.000 C 
HETATM   11  C11 UNL     1      -1.150   0.752  -0.361  1.00  0.00     0.000 C 
HETATM   12  C12 UNL     1      -1.834  -0.357   0.443  1.00  0.00     0.002 C 
HETATM   13  C13 UNL     1      -1.154  -1.682   0.076  1.00  0.00     0.000 C 
HETATM   14  C14 UNL     1       0.332  -1.608   0.469  1.00  0.00     0.000 C 
HETATM   15  C15 UNL     1      -3.264  -0.199  -0.084  1.00  0.00     0.031 C 
HETATM   16  C16 UNL     1      -3.477   1.320  -0.072  1.00  0.00     0.002 C 
HETATM   17  C17 UNL     1      -2.078   1.945  -0.139  1.00  0.00     0.000 C 
HETATM   18  C22 UNL     1      -1.799  -0.092   1.955  1.00  0.00     0.000 C 
HETATM   19  C23 UNL     1       2.805  -0.859   1.670  1.00  0.00     0.000 C 
ENDROOT
BRANCH  15  20
HETATM   20  C18 UNL     1      -4.318  -0.947   0.730  1.00  0.00     0.219 C 
HETATM   21  C19 UNL     1      -4.260  -2.436   0.393  1.00  0.00     0.035 C 
BRANCH  20  22
HETATM   22  N1  UNL     1      -5.643  -0.414   0.461  1.00  0.00     0.139 N 
HETATM   23  C20 UNL     1      -6.098  -0.824  -0.857  1.00  0.00     0.285 C 
HETATM   24  C21 UNL     1      -6.582  -0.846   1.480  1.00  0.00     0.285 C 
ENDBRANCH  20  22
ENDBRANCH  15  20
BRANCH   2  25
HETATM   25  N2  UNL     1       5.313   0.922  -1.977  1.00  0.00     0.339 N 
HETATM   26  C24 UNL     1       6.211   2.047  -2.168  1.00  0.00     0.328 C 
ENDBRANCH   2  25
TORSDOF 3
