REMARK  0 active torsions:
REMARK  status: ('A' for Active; 'I' for Inactive)
ROOT
HETATM    1  C1  UNL     1       5.023   1.402  -0.982  1.00  0.00     0.182 C 
HETATM    2  C2  UNL     1       5.699   1.271   0.398  1.00  0.00     0.182 C 
HETATM    3  C3  UNL     1       4.682   1.258   1.568  1.00  0.00     0.033 C 
HETATM    4  C4  UNL     1       3.514   0.250   1.373  1.00  0.00     0.003 C 
HETATM    5  C5  UNL     1       2.818   0.514   0.002  1.00  0.00     0.003 C 
HETATM    6  C6  UNL     1       3.836   0.436  -1.160  1.00  0.00     0.036 C 
HETATM    7  C7  UNL     1       1.527  -0.340  -0.221  1.00  0.00     0.000 C 
HETATM    8  C8  UNL     1       0.543  -0.047   0.953  1.00  0.00     0.000 C 
HETATM    9  C9  UNL     1       1.209  -0.389   2.303  1.00  0.00     0.000 C 
HETATM   10  C10 UNL     1       2.486   0.434   2.512  1.00  0.00     0.000 C 
HETATM   11  C11 UNL     1      -0.879  -0.668   0.789  1.00  0.00     0.000 C 
HETATM   12  C12 UNL     1      -1.506  -0.240  -0.576  1.00  0.00     0.000 C 
HETATM   13  C13 UNL     1      -0.537  -0.611  -1.721  1.00  0.00     0.000 C 
HETATM   14  C14 UNL     1       0.848   0.033  -1.555  1.00  0.00     0.000 C 
HETATM   15  C15 UNL     1      -2.885  -0.959  -0.742  1.00  0.00     0.000 C 
HETATM   16  C16 UNL     1      -3.867  -0.742   0.461  1.00  0.00     0.000 C 
HETATM   17  C17 UNL     1      -3.248   0.135   1.574  1.00  0.00     0.000 C 
HETATM   18  C18 UNL     1      -1.803  -0.227   1.961  1.00  0.00     0.000 C 
HETATM   19  C19 UNL     1      -5.186  -0.076  -0.012  1.00  0.00     0.000 C 
HETATM   20  C20 UNL     1      -4.945   1.057  -1.023  1.00  0.00     0.000 C 
HETATM   21  C21 UNL     1      -4.324   0.547  -2.344  1.00  0.00     0.000 C 
HETATM   22  C22 UNL     1      -3.586  -0.791  -2.117  1.00  0.00     0.000 C 
HETATM   23  C23 UNL     1      -5.438   0.314  -3.375  1.00  0.00     0.000 C 
HETATM   24  C24 UNL     1      -3.377   1.600  -2.932  1.00  0.00     0.000 C 
HETATM   25  C25 UNL     1      -4.221  -2.102   1.088  1.00  0.00     0.000 C 
HETATM   26  C26 UNL     1      -1.678   1.287  -0.621  1.00  0.00     0.000 C 
HETATM   27  C27 UNL     1      -0.752  -2.203   0.852  1.00  0.00     0.000 C 
HETATM   28  C28 UNL     1       1.887  -1.832  -0.291  1.00  0.00     0.000 C 
HETATM   29  C29 UNL     1       4.059  -1.186   1.451  1.00  0.00     0.000 C 
HETATM   30  C30 UNL     1       5.387   1.090   2.924  1.00  0.00     0.003 C 
HETATM   31  O1  UNL     1       6.475   0.086   0.404  1.00  0.00    -0.221 OA
HETATM   32  O2  UNL     1       4.561   2.732  -1.137  1.00  0.00    -0.221 OA
ENDROOT
TORSDOF 0
