REMARK  6 active torsions:
REMARK  status: ('A' for Active; 'I' for Inactive)
REMARK    1  A    between atoms: O1_2  and  C2_3 
REMARK    2  A    between atoms: C2_3  and  C3_4 
REMARK    3  A    between atoms: C3_4  and  C4_5 
REMARK    4  A    between atoms: C3_4  and  O2_8 
REMARK    5  A    between atoms: O2_8  and  C7_9 
REMARK    6  A    between atoms: C7_9  and  C8_11 
ROOT
HETATM    1  O2  UNL     1       1.429   0.802  -0.652  1.00  0.00    -0.291 OA
ENDROOT
BRANCH   1   2
HETATM    2  C3  UNL     1       0.071   1.128  -0.465  1.00  0.00     0.210 C 
BRANCH   2   3
HETATM    3  C2  UNL     1      -0.325   1.079   1.014  1.00  0.00     0.300 C 
HETATM    4  O4  UNL     1      -0.678   2.016   1.695  1.00  0.00    -0.262 OA
BRANCH   3   5
HETATM    5  O1  UNL     1      -0.251  -0.201   1.468  1.00  0.00    -0.297 OA
HETATM    6  C1  UNL     1      -0.617  -0.433   2.805  1.00  0.00     0.185 C 
ENDBRANCH   3   5
ENDBRANCH   2   3
BRANCH   2   7
HETATM    7  C4  UNL     1      -0.180   2.477  -1.167  1.00  0.00     0.038 C 
HETATM    8  C5  UNL     1       0.665   3.631  -0.596  1.00  0.00     0.003 C 
HETATM    9  C6  UNL     1      -1.671   2.854  -1.210  1.00  0.00     0.003 C 
ENDBRANCH   2   7
ENDBRANCH   1   2
BRANCH   1  10
HETATM   10  C7  UNL     1       1.907  -0.479  -0.625  1.00  0.00     0.296 C 
HETATM   11  O3  UNL     1       3.123  -0.642  -0.673  1.00  0.00    -0.259 OA
BRANCH  10  12
HETATM   12  C8  UNL     1       1.111  -1.752  -0.519  1.00  0.00     0.063 A 
HETATM   13  C9  UNL     1       1.502  -2.700   0.434  1.00  0.00     0.005 A 
HETATM   14  C10 UNL     1       0.786  -3.889   0.583  1.00  0.00     0.000 A 
HETATM   15  C11 UNL     1      -0.319  -4.142  -0.234  1.00  0.00     0.000 A 
HETATM   16  C12 UNL     1      -0.692  -3.215  -1.208  1.00  0.00     0.000 A 
HETATM   17  C13 UNL     1       0.025  -2.026  -1.360  1.00  0.00     0.005 A 
ENDBRANCH  10  12
ENDBRANCH   1  10
TORSDOF 6
