REMARK  6 active torsions:
REMARK  status: ('A' for Active; 'I' for Inactive)
REMARK    1  A    between atoms: C1_1  and  C5_5 
REMARK       I    between atoms: C5_5  and  N1_6 
REMARK    2  A    between atoms: N1_6  and  C6_7 
REMARK    3  A    between atoms: C7_8  and  O1_31 
REMARK    4  A    between atoms: C20_21  and  C23_24 
REMARK    5  A    between atoms: C23_24  and  N2_26 
REMARK    6  A    between atoms: O1_31  and  C29_32 
ROOT
HETATM    1  C6  UNL     1       3.885  -0.137   0.557  1.00  0.00     0.112 C 
HETATM    2  C7  UNL     1       3.135  -1.488   0.561  1.00  0.00     0.144 C 
HETATM    3  C8  UNL     1       1.629  -1.359   0.916  1.00  0.00     0.030 C 
HETATM    4  C9  UNL     1       1.037   0.029   0.535  1.00  0.00     0.002 C 
HETATM    5  C10 UNL     1       1.797   1.125   1.332  1.00  0.00     0.002 C 
HETATM    6  C11 UNL     1       3.289   0.830   1.590  1.00  0.00     0.025 C 
HETATM    7  C12 UNL     1      -0.477   0.066   0.889  1.00  0.00     0.000 C 
HETATM    8  C13 UNL     1      -1.227  -1.102   0.207  1.00  0.00     0.000 C 
HETATM    9  C14 UNL     1      -0.691  -2.440   0.725  1.00  0.00     0.000 C 
HETATM   10  C15 UNL     1       0.803  -2.563   0.402  1.00  0.00     0.003 C 
HETATM   11  C16 UNL     1      -2.754  -0.984   0.322  1.00  0.00     0.000 C 
HETATM   12  C17 UNL     1      -3.287   0.332  -0.299  1.00  0.00     0.002 C 
HETATM   13  C18 UNL     1      -2.188   1.389  -0.516  1.00  0.00     0.000 C 
HETATM   14  C19 UNL     1      -1.180   1.424   0.643  1.00  0.00     0.000 C 
HETATM   15  C20 UNL     1      -4.332   0.846   0.719  1.00  0.00     0.031 C 
HETATM   16  C21 UNL     1      -4.680  -0.383   1.553  1.00  0.00     0.002 C 
HETATM   17  C22 UNL     1      -3.307  -1.008   1.748  1.00  0.00     0.000 C 
HETATM   18  C27 UNL     1      -3.955  -0.018  -1.631  1.00  0.00     0.000 C 
HETATM   19  C28 UNL     1       1.211   0.275  -0.973  1.00  0.00     0.000 C 
ENDROOT
BRANCH   1  20
HETATM   20  N1  UNL     1       5.334  -0.328   0.773  1.00  0.00    -0.314 N 
HETATM   21  C5  UNL     1       6.264   0.322   0.010  1.00  0.00     0.257 C 
HETATM   22  O3  UNL     1       7.443   0.137   0.197  1.00  0.00    -0.267 OA
HETATM   23  C31 UNL     1       5.781  -1.238   1.836  1.00  0.00     0.129 C 
BRANCH  21  24
HETATM   24  C1  UNL     1       5.813   1.246  -1.037  1.00  0.00     0.052 C 
HETATM   25  C2  UNL     1       5.689   0.832  -2.309  1.00  0.00    -0.039 C 
HETATM   26  C3  UNL     1       5.264   1.693  -3.467  1.00  0.00     0.026 C 
HETATM   27  C4  UNL     1       5.998  -0.607  -2.629  1.00  0.00     0.026 C 
ENDBRANCH  21  24
ENDBRANCH   1  20
BRANCH   2  28
HETATM   28  O1  UNL     1       3.289  -2.088  -0.721  1.00  0.00    -0.302 OA
BRANCH  28  29
HETATM   29  C29 UNL     1       3.428  -3.408  -0.648  1.00  0.00     0.272 C 
HETATM   30  C30 UNL     1       3.619  -4.106  -1.969  1.00  0.00     0.106 C 
HETATM   31  O2  UNL     1       3.406  -4.033   0.387  1.00  0.00    -0.264 OA
ENDBRANCH  28  29
ENDBRANCH   2  28
BRANCH  15  32
HETATM   32  C23 UNL     1      -5.582   1.484   0.115  1.00  0.00     0.219 C 
HETATM   33  C24 UNL     1      -5.231   2.857  -0.457  1.00  0.00     0.035 C 
BRANCH  32  34
HETATM   34  N2  UNL     1      -6.627   1.603   1.119  1.00  0.00     0.139 N 
HETATM   35  C25 UNL     1      -6.348   2.715   2.014  1.00  0.00     0.285 C 
HETATM   36  C26 UNL     1      -7.924   1.775   0.486  1.00  0.00     0.285 C 
ENDBRANCH  32  34
ENDBRANCH  15  32
TORSDOF 6
