REMARK  6 active torsions:
REMARK  status: ('A' for Active; 'I' for Inactive)
REMARK    1  A    between atoms: N1_1  and  C1_2 
REMARK    2  A    between atoms: C2_3  and  O1_26 
REMARK    3  A    between atoms: C15_16  and  C18_19 
REMARK    4  A    between atoms: C18_19  and  N2_21 
REMARK    5  A    between atoms: O1_26  and  C24_27 
REMARK    6  A    between atoms: C24_27  and  C25_28 
ROOT
HETATM    1  C1  UNL     1       3.721  -0.717  -0.387  1.00  0.00     0.284 C 
HETATM    2  C2  UNL     1       2.939  -1.393   0.758  1.00  0.00     0.158 C 
HETATM    3  C3  UNL     1       1.414  -1.393   0.510  1.00  0.00     0.030 C 
HETATM    4  C4  UNL     1       0.855   0.033   0.215  1.00  0.00     0.002 C 
HETATM    5  C5  UNL     1       1.650   0.652  -0.963  1.00  0.00     0.002 C 
HETATM    6  C6  UNL     1       3.166   0.684  -0.699  1.00  0.00     0.039 C 
HETATM    7  C7  UNL     1      -0.676  -0.039  -0.072  1.00  0.00     0.000 C 
HETATM    8  C8  UNL     1      -1.027  -1.064  -1.176  1.00  0.00     0.000 C 
HETATM    9  C9  UNL     1      -0.457  -2.457  -0.855  1.00  0.00     0.000 C 
HETATM   10  C10 UNL     1       1.049  -2.397  -0.604  1.00  0.00     0.003 C 
HETATM   11  C11 UNL     1      -2.549  -1.113  -1.439  1.00  0.00     0.000 C 
HETATM   12  C12 UNL     1      -3.141   0.270  -1.824  1.00  0.00     0.002 C 
HETATM   13  C13 UNL     1      -2.113   1.410  -1.650  1.00  0.00     0.000 C 
HETATM   14  C14 UNL     1      -1.328   1.344  -0.332  1.00  0.00     0.000 C 
HETATM   15  C15 UNL     1      -4.408   0.400  -0.953  1.00  0.00     0.031 C 
HETATM   16  C16 UNL     1      -4.092  -0.377   0.314  1.00  0.00     0.002 C 
HETATM   17  C17 UNL     1      -3.398  -1.604  -0.254  1.00  0.00     0.000 C 
HETATM   18  C22 UNL     1      -3.615   0.238  -3.279  1.00  0.00     0.000 C 
HETATM   19  C23 UNL     1       1.043   0.920   1.459  1.00  0.00     0.000 C 
ENDROOT
BRANCH   2  20
HETATM   20  O1  UNL     1       3.219  -0.730   1.986  1.00  0.00    -0.299 OA
BRANCH  20  21
HETATM   21  C24 UNL     1       4.111  -1.385   2.723  1.00  0.00     0.295 C 
HETATM   22  O2  UNL     1       4.043  -2.564   2.975  1.00  0.00    -0.259 OA
BRANCH  21  23
HETATM   23  C25 UNL     1       5.227  -0.580   3.236  1.00  0.00     0.060 C 
HETATM   24  C26 UNL     1       6.488  -1.035   3.166  1.00  0.00    -0.038 C 
HETATM   25  C27 UNL     1       7.703  -0.313   3.686  1.00  0.00     0.026 C 
HETATM   26  C28 UNL     1       6.734  -2.373   2.520  1.00  0.00     0.026 C 
ENDBRANCH  21  23
ENDBRANCH  20  21
ENDBRANCH   2  20
BRANCH   1  27
HETATM   27  N1  UNL     1       5.141  -0.639  -0.068  1.00  0.00     0.342 N 
HETATM   28  C29 UNL     1       5.930  -0.527  -1.283  1.00  0.00     0.328 C 
ENDBRANCH   1  27
BRANCH  15  29
HETATM   29  C18 UNL     1      -4.844   1.826  -0.625  1.00  0.00     0.219 C 
HETATM   30  C19 UNL     1      -5.344   2.512  -1.897  1.00  0.00     0.035 C 
BRANCH  29  31
HETATM   31  N2  UNL     1      -5.881   1.818   0.393  1.00  0.00     0.139 N 
HETATM   32  C20 UNL     1      -6.035   3.143   0.971  1.00  0.00     0.285 C 
HETATM   33  C21 UNL     1      -7.141   1.359  -0.168  1.00  0.00     0.285 C 
ENDBRANCH  29  31
ENDBRANCH  15  29
TORSDOF 6
