REMARK  4 active torsions:
REMARK  status: ('A' for Active; 'I' for Inactive)
REMARK    1  A    between atoms: C2_2  and  N2_26 
REMARK    2  A    between atoms: C15_15  and  C18_18 
REMARK    3  A    between atoms: C18_18  and  N1_19 
REMARK    4  A    between atoms: C25_28  and  C27_31 
ROOT
HETATM    1  C1  UNL     1       3.955  -0.668  -1.676  1.00  0.00     0.030 C 
HETATM    2  C2  UNL     1       4.596   0.670  -1.272  1.00  0.00     0.141 C 
HETATM    3  C3  UNL     1       3.651   1.820  -1.541  1.00  0.00     0.170 C 
HETATM    4  C4  UNL     1       2.174   1.492  -1.703  1.00  0.00     0.059 C 
HETATM    5  C5  UNL     1       1.731   0.344  -0.752  1.00  0.00     0.007 C 
HETATM    6  C6  UNL     1       2.582  -0.932  -1.022  1.00  0.00     0.003 C 
HETATM    7  C7  UNL     1       0.221   0.037  -0.969  1.00  0.00     0.000 C 
HETATM    8  C8  UNL     1      -0.650   1.303  -0.799  1.00  0.00     0.000 C 
HETATM    9  C9  UNL     1      -0.193   2.424  -1.744  1.00  0.00     0.000 C 
HETATM   10  C10 UNL     1       1.291   2.746  -1.551  1.00  0.00     0.007 C 
HETATM   11  C11 UNL     1      -2.154   1.025  -0.979  1.00  0.00     0.000 C 
HETATM   12  C12 UNL     1      -2.650  -0.152  -0.127  1.00  0.00     0.002 C 
HETATM   13  C13 UNL     1      -1.783  -1.408  -0.336  1.00  0.00     0.000 C 
HETATM   14  C14 UNL     1      -0.305  -1.100  -0.066  1.00  0.00     0.000 C 
HETATM   15  C15 UNL     1      -4.072  -0.293  -0.689  1.00  0.00     0.031 C 
HETATM   16  C16 UNL     1      -3.891  -0.164  -2.201  1.00  0.00     0.002 C 
HETATM   17  C17 UNL     1      -2.613   0.656  -2.393  1.00  0.00     0.000 C 
HETATM   18  C22 UNL     1      -2.717   0.250   1.348  1.00  0.00     0.000 C 
HETATM   19  C23 UNL     1       1.949   0.789   0.705  1.00  0.00     0.000 C 
HETATM   20  O1  UNL     1       4.065   2.953  -1.627  1.00  0.00    -0.294 OA
ENDROOT
BRANCH   2  21
HETATM   21  N2  UNL     1       5.049   0.672   0.119  1.00  0.00    -0.315 N 
HETATM   22  C24 UNL     1       5.410   1.721   1.105  1.00  0.00     0.114 A 
HETATM   23  C25 UNL     1       5.719   0.668   2.158  1.00  0.00     0.101 A 
HETATM   24  C26 UNL     1       5.317  -0.307   1.078  1.00  0.00     0.235 A 
HETATM   25  O2  UNL     1       5.248  -1.510   1.025  1.00  0.00    -0.272 OA
BRANCH  23  26
HETATM   26  C27 UNL     1       4.582   0.227   3.082  1.00  0.00     0.011 C 
HETATM   27  C28 UNL     1       4.317   1.318   4.119  1.00  0.00     0.001 C 
HETATM   28  C29 UNL     1       4.936  -1.119   3.717  1.00  0.00     0.001 C 
ENDBRANCH  23  26
ENDBRANCH   2  21
BRANCH  15  29
HETATM   29  C18 UNL     1      -4.773  -1.588  -0.295  1.00  0.00     0.219 C 
HETATM   30  C21 UNL     1      -5.387  -1.436   1.096  1.00  0.00     0.035 C 
BRANCH  29  31
HETATM   31  N1  UNL     1      -5.799  -1.928  -1.270  1.00  0.00     0.139 N 
HETATM   32  C19 UNL     1      -6.154  -3.332  -1.164  1.00  0.00     0.285 C 
HETATM   33  C20 UNL     1      -6.971  -1.090  -1.084  1.00  0.00     0.285 C 
ENDBRANCH  29  31
ENDBRANCH  15  29
TORSDOF 4
