REMARK  8 active torsions:
REMARK  status: ('A' for Active; 'I' for Inactive)
REMARK    1  A    between atoms: C3_3  and  O2_8 
REMARK    2  A    between atoms: O2_8  and  C7_9 
REMARK    3  A    between atoms: C11_13  and  C12_15 
REMARK    4  A    between atoms: C14_21  and  O11_33 
REMARK    5  A    between atoms: C15_22  and  C16_24 
REMARK    6  A    between atoms: C20_28  and  O9_30 
REMARK    7  A    between atoms: O11_33  and  C23_34 
REMARK    8  A    between atoms: C27_38  and  C28_40 
ROOT
HETATM    1  C1  UNL     1      -0.904   2.410   0.486  1.00  0.00     0.104 A 
HETATM    2  C2  UNL     1      -1.010   0.990   0.508  1.00  0.00     0.047 A 
HETATM    3  C3  UNL     1      -2.289   0.371   0.525  1.00  0.00     0.101 A 
HETATM    4  C4  UNL     1      -3.453   1.176   0.521  1.00  0.00     0.052 A 
HETATM    5  C5  UNL     1      -3.348   2.586   0.502  1.00  0.00     0.135 A 
HETATM    6  C6  UNL     1      -2.074   3.205   0.484  1.00  0.00     0.052 A 
HETATM    7  O1  UNL     1      -4.457   3.340   0.498  1.00  0.00    -0.190 OA
HETATM    8  C13 UNL     1       0.184   0.223   0.510  1.00  0.00     0.030 A 
HETATM    9  C14 UNL     1       1.447   0.857   0.492  1.00  0.00     0.120 A 
HETATM   10  C15 UNL     1       1.506   2.272   0.473  1.00  0.00     0.122 A 
HETATM   11  O8  UNL     1       0.338   3.002   0.471  1.00  0.00    -0.305 OA
ENDROOT
BRANCH   3  12
HETATM   12  O2  UNL     1      -2.416  -0.963   0.547  1.00  0.00    -0.303 OA
BRANCH  12  13
HETATM   13  C7  UNL     1      -3.578  -1.514   1.148  1.00  0.00     0.274 C 
HETATM   14  C8  UNL     1      -3.256  -2.900   1.754  1.00  0.00     0.241 C 
HETATM   15  C9  UNL     1      -4.524  -3.598   2.301  1.00  0.00     0.220 C 
HETATM   16  O7  UNL     1      -2.270  -2.766   2.764  1.00  0.00    -0.215 OA
HETATM   17  C10 UNL     1      -5.598  -3.594   1.188  1.00  0.00     0.215 C 
HETATM   18  O6  UNL     1      -5.004  -2.914   3.449  1.00  0.00    -0.218 OA
HETATM   19  C11 UNL     1      -5.828  -2.172   0.615  1.00  0.00     0.184 C 
HETATM   20  O5  UNL     1      -6.822  -4.131   1.658  1.00  0.00    -0.218 OA
HETATM   21  O3  UNL     1      -4.586  -1.648   0.154  1.00  0.00    -0.326 OA
BRANCH  19  22
HETATM   22  C12 UNL     1      -6.787  -2.154  -0.578  1.00  0.00     0.214 C 
HETATM   23  O4  UNL     1      -7.029  -0.811  -0.930  1.00  0.00    -0.218 OA
ENDBRANCH  19  22
ENDBRANCH  12  13
ENDBRANCH   3  12
BRANCH   9  24
HETATM   24  O11 UNL     1       2.564   0.113   0.492  1.00  0.00    -0.302 OA
BRANCH  24  25
HETATM   25  C23 UNL     1       3.367   0.115  -0.680  1.00  0.00     0.274 C 
HETATM   26  C24 UNL     1       4.672  -0.676  -0.449  1.00  0.00     0.241 C 
HETATM   27  C25 UNL     1       4.391  -2.180  -0.242  1.00  0.00     0.220 C 
HETATM   28  O16 UNL     1       5.344  -0.139   0.678  1.00  0.00    -0.215 OA
HETATM   29  C26 UNL     1       3.518  -2.691  -1.408  1.00  0.00     0.215 C 
HETATM   30  O15 UNL     1       5.611  -2.898  -0.199  1.00  0.00    -0.218 OA
HETATM   31  C27 UNL     1       2.258  -1.814  -1.588  1.00  0.00     0.184 C 
HETATM   32  O14 UNL     1       3.111  -4.025  -1.160  1.00  0.00    -0.218 OA
HETATM   33  O12 UNL     1       2.645  -0.455  -1.764  1.00  0.00    -0.326 OA
BRANCH  31  34
HETATM   34  C28 UNL     1       1.428  -2.201  -2.818  1.00  0.00     0.214 C 
HETATM   35  O13 UNL     1       0.242  -1.439  -2.807  1.00  0.00    -0.218 OA
ENDBRANCH  31  34
ENDBRANCH  24  25
ENDBRANCH   9  24
BRANCH  10  36
HETATM   36  C16 UNL     1       2.775   2.984   0.455  1.00  0.00     0.027 A 
HETATM   37  C17 UNL     1       3.781   2.656   1.381  1.00  0.00     0.004 A 
HETATM   38  C18 UNL     1       5.006   3.348   1.361  1.00  0.00     0.029 A 
HETATM   39  C19 UNL     1       5.229   4.365   0.416  1.00  0.00     0.153 A 
HETATM   40  C20 UNL     1       4.223   4.693  -0.512  1.00  0.00     0.119 A 
HETATM   41  O10 UNL     1       6.379   5.008   0.404  1.00  0.00    -0.188 OA
HETATM   42  C21 UNL     1       2.998   4.004  -0.490  1.00  0.00     0.028 A 
BRANCH  40  43
HETATM   43  O9  UNL     1       4.426   5.647  -1.398  1.00  0.00    -0.326 OA
HETATM   44  C22 UNL     1       3.398   5.904  -2.346  1.00  0.00     0.181 C 
ENDBRANCH  40  43
ENDBRANCH  10  36
TORSDOF 8
