REMARK  2 active torsions:
REMARK  status: ('A' for Active; 'I' for Inactive)
REMARK    1  A    between atoms: C3_3  and  C12_14 
REMARK    2  A    between atoms: C19_21  and  C22_25 
ROOT
HETATM    1  C12 UNL     1      -0.207  -1.064   0.697  1.00  0.00     0.053 C 
HETATM    2  C13 UNL     1       0.535  -2.324   0.983  1.00  0.00    -0.013 A 
HETATM    3  C14 UNL     1       1.842  -2.334   1.553  1.00  0.00     0.061 A 
HETATM    4  C15 UNL     1       2.523  -1.057   1.949  1.00  0.00     0.199 C 
HETATM    5  C16 UNL     1       1.701   0.195   1.840  1.00  0.00     0.061 A 
HETATM    6  C17 UNL     1       0.396   0.172   1.264  1.00  0.00    -0.013 A 
HETATM    7  C18 UNL     1      -0.363   1.371   1.215  1.00  0.00    -0.005 A 
HETATM    8  C19 UNL     1       0.164   2.584   1.707  1.00  0.00     0.012 A 
HETATM    9  C20 UNL     1       1.463   2.611   2.256  1.00  0.00     0.026 A 
HETATM   10  C21 UNL     1       2.231   1.428   2.322  1.00  0.00     0.134 A 
HETATM   11  O3  UNL     1       3.459   1.494   2.856  1.00  0.00    -0.190 OA
HETATM   12  O5  UNL     1       3.668  -1.039   2.350  1.00  0.00    -0.286 OA
HETATM   13  C23 UNL     1       2.510  -3.578   1.750  1.00  0.00     0.134 A 
HETATM   14  C24 UNL     1       1.873  -4.795   1.414  1.00  0.00     0.028 A 
HETATM   15  C25 UNL     1       0.570  -4.785   0.875  1.00  0.00     0.002 A 
HETATM   16  C26 UNL     1      -0.094  -3.557   0.662  1.00  0.00    -0.004 A 
HETATM   17  O6  UNL     1       3.748  -3.629   2.264  1.00  0.00    -0.190 OA
ENDROOT
BRANCH   1  18
HETATM   18  C3  UNL     1      -0.402  -0.904  -0.818  1.00  0.00     0.053 C 
HETATM   19  C2  UNL     1       0.797  -0.262  -1.420  1.00  0.00    -0.013 A 
HETATM   20  C1  UNL     1       0.758   1.029  -2.021  1.00  0.00     0.061 A 
HETATM   21  C27 UNL     1       2.027  -0.973  -1.381  1.00  0.00    -0.004 A 
HETATM   22  C6  UNL     1      -0.529   1.797  -2.123  1.00  0.00     0.199 C 
HETATM   23  C30 UNL     1       1.959   1.600  -2.539  1.00  0.00     0.134 A 
HETATM   24  C5  UNL     1      -1.772   1.072  -1.689  1.00  0.00     0.061 A 
HETATM   25  O1  UNL     1      -0.566   2.934  -2.545  1.00  0.00    -0.286 OA
HETATM   26  C4  UNL     1      -1.697  -0.223  -1.092  1.00  0.00    -0.013 A 
HETATM   27  C7  UNL     1      -3.045   1.682  -1.879  1.00  0.00     0.133 A 
HETATM   28  C10 UNL     1      -2.897  -0.893  -0.732  1.00  0.00    -0.008 A 
HETATM   29  C9  UNL     1      -4.154  -0.285  -0.937  1.00  0.00    -0.020 A 
HETATM   30  C8  UNL     1      -4.227   1.002  -1.506  1.00  0.00     0.023 A 
HETATM   31  C11 UNL     1      -5.387  -0.996  -0.558  1.00  0.00     0.031 C 
HETATM   32  O2  UNL     1      -3.156   2.902  -2.420  1.00  0.00    -0.190 OA
HETATM   33  C29 UNL     1       3.174   0.881  -2.480  1.00  0.00     0.028 A 
HETATM   34  O7  UNL     1       1.965   2.818  -3.096  1.00  0.00    -0.190 OA
HETATM   35  C28 UNL     1       3.207  -0.406  -1.906  1.00  0.00     0.002 A 
ENDBRANCH   1  18
BRANCH   8  36
HETATM   36  C22 UNL     1      -0.639   3.815   1.647  1.00  0.00     0.209 C 
HETATM   37  O4  UNL     1      -0.541   4.377   0.360  1.00  0.00    -0.215 OA
ENDBRANCH   8  36
TORSDOF 2
