REMARK  19 active torsions:
REMARK  status: ('A' for Active; 'I' for Inactive)
REMARK    1  A    between atoms: C2_2  and  C3_3 
REMARK    2  A    between atoms: C3_3  and  C4_4 
REMARK    3  A    between atoms: C4_4  and  C5_5 
REMARK    4  A    between atoms: C5_5  and  C6_6 
REMARK    5  A    between atoms: C6_6  and  C7_7 
REMARK    6  A    between atoms: C7_7  and  C8_8 
REMARK    7  A    between atoms: C8_8  and  C9_9 
REMARK    8  A    between atoms: C9_9  and  C10_10 
REMARK    9  A    between atoms: C10_10  and  C11_11 
REMARK   10  A    between atoms: C11_11  and  C12_12 
REMARK   11  A    between atoms: C12_12  and  C13_13 
REMARK   12  A    between atoms: C13_13  and  C14_14 
REMARK   13  A    between atoms: C14_14  and  C15_15 
REMARK   14  A    between atoms: C15_15  and  C16_16 
REMARK   15  A    between atoms: C16_16  and  O1_17 
REMARK   16  A    between atoms: O1_17  and  C17_18 
REMARK   17  A    between atoms: C17_18  and  C18_19 
REMARK   18  A    between atoms: C18_19  and  C19_20 
REMARK   19  A    between atoms: C27_28  and  C30_32 
ROOT
HETATM    1  O1  UNL     1       1.777   0.971  -5.127  1.00  0.00    -0.301 OA
ENDROOT
BRANCH   1   2
HETATM    2  C16 UNL     1       2.271   0.984  -3.893  1.00  0.00     0.272 C 
HETATM    3  O4  UNL     1       3.281   1.568  -3.576  1.00  0.00    -0.264 OA
BRANCH   2   4
HETATM    4  C15 UNL     1       1.477   0.207  -2.877  1.00  0.00     0.096 C 
BRANCH   4   5
HETATM    5  C14 UNL     1       2.064   0.316  -1.469  1.00  0.00     0.010 C 
BRANCH   5   6
HETATM    6  C13 UNL     1       1.256  -0.461  -0.430  1.00  0.00     0.001 C 
BRANCH   6   7
HETATM    7  C12 UNL     1       1.846  -0.355   0.977  1.00  0.00     0.000 C 
BRANCH   7   8
HETATM    8  C11 UNL     1       1.037  -1.133   2.016  1.00  0.00     0.000 C 
BRANCH   8   9
HETATM    9  C10 UNL     1       1.625  -1.025   3.422  1.00  0.00     0.000 C 
BRANCH   9  10
HETATM   10  C9  UNL     1       0.816  -1.803   4.461  1.00  0.00     0.000 C 
BRANCH  10  11
HETATM   11  C8  UNL     1       1.406  -1.697   5.869  1.00  0.00     0.000 C 
BRANCH  11  12
HETATM   12  C7  UNL     1       0.598  -2.473   6.908  1.00  0.00     0.000 C 
BRANCH  12  13
HETATM   13  C6  UNL     1       1.187  -2.367   8.315  1.00  0.00     0.000 C 
BRANCH  13  14
HETATM   14  C5  UNL     1       0.379  -3.145   9.354  1.00  0.00     0.000 C 
BRANCH  14  15
HETATM   15  C4  UNL     1       0.969  -3.037  10.760  1.00  0.00     0.000 C 
BRANCH  15  16
HETATM   16  C3  UNL     1       0.158  -3.815  11.799  1.00  0.00     0.000 C 
BRANCH  16  17
HETATM   17  C2  UNL     1       0.748  -3.709  13.205  1.00  0.00     0.000 C 
HETATM   18  C1  UNL     1      -0.061  -4.486  14.244  1.00  0.00     0.000 C 
ENDBRANCH  16  17
ENDBRANCH  15  16
ENDBRANCH  14  15
ENDBRANCH  13  14
ENDBRANCH  12  13
ENDBRANCH  11  12
ENDBRANCH  10  11
ENDBRANCH   9  10
ENDBRANCH   8   9
ENDBRANCH   7   8
ENDBRANCH   6   7
ENDBRANCH   5   6
ENDBRANCH   4   5
ENDBRANCH   2   4
ENDBRANCH   1   2
BRANCH   1  19
HETATM   19  C17 UNL     1       2.570   1.719  -6.035  1.00  0.00     0.157 C 
BRANCH  19  20
HETATM   20  C18 UNL     1       1.945   1.658  -7.428  1.00  0.00     0.059 C 
BRANCH  20  21
HETATM   21  C19 UNL     1       0.615   2.295  -7.455  1.00  0.00    -0.027 A 
HETATM   22  C20 UNL     1      -0.559   1.502  -7.375  1.00  0.00    -0.024 A 
HETATM   23  C21 UNL     1      -1.834   2.127  -7.402  1.00  0.00     0.027 A 
HETATM   24  C31 UNL     1      -0.451   0.035  -7.268  1.00  0.00     0.031 C 
HETATM   25  C22 UNL     1      -1.961   3.514  -7.506  1.00  0.00    -0.019 A 
HETATM   26  C28 UNL     1      -3.129   1.459  -7.328  1.00  0.00     0.174 A 
HETATM   27  C23 UNL     1      -0.783   4.299  -7.584  1.00  0.00    -0.009 A 
HETATM   28  C26 UNL     1      -3.428   3.904  -7.514  1.00  0.00     0.036 A 
HETATM   29  C24 UNL     1       0.498   3.701  -7.559  1.00  0.00    -0.026 A 
HETATM   30  C25 UNL     1       1.699   4.555  -7.641  1.00  0.00     0.031 C 
HETATM   31  C27 UNL     1      -4.201   2.537  -7.400  1.00  0.00     0.090 A 
HETATM   32  C29 UNL     1      -5.074   2.346  -8.637  1.00  0.00     0.011 C 
HETATM   33  O2  UNL     1      -3.309   0.266  -7.229  1.00  0.00    -0.291 OA
BRANCH  31  34
HETATM   34  C30 UNL     1      -5.051   2.537  -6.133  1.00  0.00     0.190 C 
HETATM   35  O3  UNL     1      -5.674   1.279  -6.020  1.00  0.00    -0.220 OA
ENDBRANCH  31  34
ENDBRANCH  20  21
ENDBRANCH  19  20
ENDBRANCH   1  19
TORSDOF 19
