REMARK  7 active torsions:
REMARK  status: ('A' for Active; 'I' for Inactive)
REMARK    1  A    between atoms: C1_1  and  C10_13 
REMARK    2  A    between atoms: C4_4  and  O2_9 
REMARK    3  A    between atoms: C5_5  and  O1_7 
REMARK    4  A    between atoms: O2_9  and  C8_10 
REMARK    5  A    between atoms: C10_13  and  O4_14 
REMARK    6  A    between atoms: C10_13  and  C13_18 
REMARK    7  A    between atoms: O4_14  and  C11_15 
ROOT
HETATM    1  C1  UNL     1       0.342   0.893  -0.750  1.00  0.00     0.011 A 
HETATM    2  C2  UNL     1      -0.450   0.615  -1.877  1.00  0.00     0.001 A 
HETATM    3  C3  UNL     1      -0.906  -0.693  -2.109  1.00  0.00     0.027 A 
HETATM    4  C4  UNL     1      -0.574  -1.728  -1.216  1.00  0.00     0.125 A 
HETATM    5  C5  UNL     1       0.219  -1.450  -0.087  1.00  0.00     0.117 A 
HETATM    6  C6  UNL     1       0.675  -0.140   0.144  1.00  0.00     0.025 A 
ENDROOT
BRANCH   1   7
HETATM    7  C10 UNL     1       0.827   2.276  -0.501  1.00  0.00     0.169 C 
BRANCH   7   8
HETATM    8  O4  UNL     1       0.327   2.736   0.746  1.00  0.00    -0.295 OA
BRANCH   8   9
HETATM    9  C11 UNL     1      -0.980   2.975   0.711  1.00  0.00     0.273 C 
HETATM   10  O5  UNL     1      -1.669   2.810  -0.269  1.00  0.00    -0.264 OA
HETATM   11  C12 UNL     1      -1.574   3.479   1.999  1.00  0.00     0.106 C 
ENDBRANCH   8   9
ENDBRANCH   7   8
BRANCH   7  12
HETATM   12  C13 UNL     1       2.330   2.358  -0.501  1.00  0.00     0.008 C 
HETATM   13  C14 UNL     1       2.905   3.572  -0.501  1.00  0.00    -0.002 C 
ENDBRANCH   7  12
ENDBRANCH   1   7
BRANCH   5  14
HETATM   14  O1  UNL     1       0.535  -2.414   0.755  1.00  0.00    -0.326 OA
HETATM   15  C7  UNL     1       1.413  -2.102   1.827  1.00  0.00     0.181 C 
ENDBRANCH   5  14
BRANCH   4  16
HETATM   16  O2  UNL     1      -1.006  -2.953  -1.440  1.00  0.00    -0.274 OA
BRANCH  16  17
HETATM   17  C8  UNL     1      -1.618  -3.610  -0.460  1.00  0.00     0.277 C 
HETATM   18  O3  UNL     1      -2.004  -3.090   0.561  1.00  0.00    -0.264 OA
HETATM   19  C9  UNL     1      -1.811  -5.084  -0.699  1.00  0.00     0.107 C 
ENDBRANCH  16  17
ENDBRANCH   4  16
TORSDOF 7
