REMARK  10 active torsions:
REMARK  status: ('A' for Active; 'I' for Inactive)
REMARK    1  A    between atoms: C2_2  and  O8_31 
REMARK    2  A    between atoms: C4_4  and  O5_26 
REMARK    3  A    between atoms: C4_4  and  O6_28 
REMARK    4  A    between atoms: C6_6  and  C7_7 
REMARK    5  A    between atoms: C7_7  and  C8_8 
REMARK    6  A    between atoms: C10_10  and  O4_24 
REMARK    7  A    between atoms: C12_12  and  C18_21 
REMARK    8  A    between atoms: C14_14  and  O2_17 
REMARK    9  A    between atoms: C14_14  and  O3_19 
REMARK   10  A    between atoms: C18_21  and  C19_22 
ROOT
HETATM    1  C1  UNL     1       0.230   1.370  -1.813  1.00  0.00     0.004 C 
HETATM    2  C2  UNL     1       1.200   0.696  -2.457  1.00  0.00     0.129 C 
HETATM    3  C3  UNL     1       1.271  -0.763  -2.175  1.00  0.00     0.245 C 
HETATM    4  C4  UNL     1      -0.092  -1.410  -1.875  1.00  0.00     0.247 C 
HETATM    5  C5  UNL     1      -0.587  -0.722  -0.579  1.00  0.00     0.071 C 
HETATM    6  C6  UNL     1      -0.611   0.852  -0.651  1.00  0.00     0.059 C 
HETATM    7  C10 UNL     1       0.028   1.520   0.613  1.00  0.00     0.141 C 
HETATM    8  C11 UNL     1       0.915   0.563   1.415  1.00  0.00     0.022 C 
HETATM    9  C12 UNL     1       1.455  -0.437   0.687  1.00  0.00     0.033 C 
HETATM   10  C13 UNL     1       0.190  -1.230   0.665  1.00  0.00     0.069 C 
HETATM   11  C14 UNL     1      -0.388  -0.892   2.065  1.00  0.00     0.244 C 
HETATM   12  C15 UNL     1       0.438   0.171   2.854  1.00  0.00     0.218 C 
HETATM   13  O1  UNL     1       1.207   1.068   3.168  1.00  0.00    -0.287 OA
HETATM   14  O7  UNL     1       2.325  -1.377  -2.281  1.00  0.00    -0.284 OA
ENDROOT
BRANCH   4  15
HETATM   15  O5  UNL     1       0.037  -2.812  -1.688  1.00  0.00    -0.326 OA
HETATM   16  C22 UNL     1       0.409  -3.559  -2.830  1.00  0.00     0.177 C 
ENDBRANCH   4  15
BRANCH   4  17
HETATM   17  O6  UNL     1      -0.969  -1.185  -2.972  1.00  0.00    -0.326 OA
HETATM   18  C23 UNL     1      -2.282  -1.699  -2.861  1.00  0.00     0.177 C 
ENDBRANCH   4  17
BRANCH   2  19
HETATM   19  O8  UNL     1       1.903   1.213  -3.507  1.00  0.00    -0.325 OA
HETATM   20  C24 UNL     1       3.008   1.993  -3.110  1.00  0.00     0.181 C 
ENDBRANCH   2  19
BRANCH   6  21
HETATM   21  C7  UNL     1      -2.064   1.326  -0.945  1.00  0.00     0.033 C 
BRANCH  21  22
HETATM   22  C8  UNL     1      -2.356   2.809  -0.896  1.00  0.00    -0.026 C 
HETATM   23  C9  UNL     1      -3.470   3.326  -0.356  1.00  0.00    -0.005 C 
ENDBRANCH  21  22
ENDBRANCH   6  21
BRANCH   7  24
HETATM   24  O4  UNL     1      -0.946   2.132   1.433  1.00  0.00    -0.350 OA
HETATM   25  C21 UNL     1      -0.555   3.386   1.952  1.00  0.00     0.175 C 
ENDBRANCH   7  24
BRANCH   9  26
HETATM   26  C18 UNL     1       2.488  -1.255   1.489  1.00  0.00     0.030 C 
BRANCH  26  27
HETATM   27  C19 UNL     1       3.837  -0.600   1.310  1.00  0.00    -0.026 C 
HETATM   28  C20 UNL     1       4.895  -1.211   0.759  1.00  0.00    -0.005 C 
ENDBRANCH  26  27
ENDBRANCH   9  26
BRANCH  11  29
HETATM   29  O2  UNL     1      -0.319  -2.145   2.750  1.00  0.00    -0.326 OA
HETATM   30  C16 UNL     1      -0.726  -2.171   4.099  1.00  0.00     0.177 C 
ENDBRANCH  11  29
BRANCH  11  31
HETATM   31  O3  UNL     1      -1.768  -0.583   1.895  1.00  0.00    -0.326 OA
HETATM   32  C17 UNL     1      -2.442   0.066   2.955  1.00  0.00     0.177 C 
ENDBRANCH  11  31
TORSDOF 10
