REMARK  18 active torsions:
REMARK  status: ('A' for Active; 'I' for Inactive)
REMARK    1  A    between atoms: C2_2  and  C3_3 
REMARK    2  A    between atoms: C3_3  and  C4_4 
REMARK    3  A    between atoms: C4_4  and  C5_5 
REMARK    4  A    between atoms: C5_5  and  C6_6 
REMARK    5  A    between atoms: C6_6  and  C7_7 
REMARK    6  A    between atoms: C7_7  and  C8_8 
REMARK    7  A    between atoms: C8_8  and  C9_9 
REMARK    8  A    between atoms: C9_9  and  C10_10 
REMARK    9  A    between atoms: C10_10  and  C11_11 
REMARK   10  A    between atoms: C11_11  and  C12_12 
REMARK   11  A    between atoms: C12_12  and  C13_13 
REMARK   12  A    between atoms: C13_13  and  C14_14 
REMARK   13  A    between atoms: C14_14  and  C15_15 
REMARK   14  A    between atoms: C15_15  and  C16_16 
REMARK   15  A    between atoms: C16_16  and  O1_17 
REMARK   16  A    between atoms: O1_17  and  C17_18 
REMARK   17  A    between atoms: C17_18  and  C18_19 
REMARK   18  A    between atoms: C18_19  and  C19_20 
ROOT
HETATM    1  C16 UNL     1      -2.211   1.951   1.928  1.00  0.00     0.272 C 
HETATM    2  O3  UNL     1      -2.854   2.018   0.904  1.00  0.00    -0.264 OA
ENDROOT
BRANCH   1   3
HETATM    3  C15 UNL     1      -0.896   1.219   1.969  1.00  0.00     0.096 C 
BRANCH   3   4
HETATM    4  C14 UNL     1      -0.479   0.689   0.596  1.00  0.00     0.010 C 
BRANCH   4   5
HETATM    5  C13 UNL     1       0.854  -0.059   0.633  1.00  0.00     0.001 C 
BRANCH   5   6
HETATM    6  C12 UNL     1       1.270  -0.592  -0.740  1.00  0.00     0.000 C 
BRANCH   6   7
HETATM    7  C11 UNL     1       2.602  -1.340  -0.703  1.00  0.00     0.000 C 
BRANCH   7   8
HETATM    8  C10 UNL     1       3.018  -1.871  -2.074  1.00  0.00     0.000 C 
BRANCH   8   9
HETATM    9  C9  UNL     1       4.350  -2.619  -2.039  1.00  0.00     0.000 C 
BRANCH   9  10
HETATM   10  C8  UNL     1       4.766  -3.152  -3.410  1.00  0.00     0.000 C 
BRANCH  10  11
HETATM   11  C7  UNL     1       6.098  -3.900  -3.375  1.00  0.00     0.000 C 
BRANCH  11  12
HETATM   12  C6  UNL     1       6.514  -4.432  -4.746  1.00  0.00     0.000 C 
BRANCH  12  13
HETATM   13  C5  UNL     1       7.846  -5.182  -4.711  1.00  0.00     0.000 C 
BRANCH  13  14
HETATM   14  C4  UNL     1       8.262  -5.713  -6.082  1.00  0.00     0.000 C 
BRANCH  14  15
HETATM   15  C3  UNL     1       9.594  -6.461  -6.047  1.00  0.00     0.000 C 
BRANCH  15  16
HETATM   16  C2  UNL     1      10.010  -6.992  -7.418  1.00  0.00     0.000 C 
HETATM   17  C1  UNL     1      11.344  -7.740  -7.383  1.00  0.00     0.000 C 
ENDBRANCH  15  16
ENDBRANCH  14  15
ENDBRANCH  13  14
ENDBRANCH  12  13
ENDBRANCH  11  12
ENDBRANCH  10  11
ENDBRANCH   9  10
ENDBRANCH   8   9
ENDBRANCH   7   8
ENDBRANCH   6   7
ENDBRANCH   5   6
ENDBRANCH   4   5
ENDBRANCH   3   4
ENDBRANCH   1   3
BRANCH   1  18
HETATM   18  O1  UNL     1      -2.592   2.498   3.078  1.00  0.00    -0.301 OA
BRANCH  18  19
HETATM   19  C17 UNL     1      -3.836   3.172   2.971  1.00  0.00     0.157 C 
BRANCH  19  20
HETATM   20  C18 UNL     1      -4.207   3.774   4.326  1.00  0.00     0.059 C 
BRANCH  20  21
HETATM   21  C19 UNL     1      -5.539   4.410   4.293  1.00  0.00    -0.027 A 
HETATM   22  C20 UNL     1      -6.711   3.617   4.363  1.00  0.00    -0.024 A 
HETATM   23  C21 UNL     1      -7.988   4.242   4.326  1.00  0.00     0.026 A 
HETATM   24  C30 UNL     1      -6.606   2.150   4.475  1.00  0.00     0.031 C 
HETATM   25  C22 UNL     1      -8.113   5.631   4.225  1.00  0.00    -0.020 A 
HETATM   26  C28 UNL     1      -9.283   3.574   4.383  1.00  0.00     0.172 A 
HETATM   27  C23 UNL     1      -6.934   6.414   4.156  1.00  0.00    -0.009 A 
HETATM   28  C26 UNL     1      -9.578   6.024   4.209  1.00  0.00     0.034 A 
HETATM   29  C24 UNL     1      -5.652   5.817   4.189  1.00  0.00    -0.026 A 
HETATM   30  C25 UNL     1      -4.451   6.668   4.113  1.00  0.00     0.031 C 
HETATM   31  C27 UNL     1     -10.348   4.658   4.313  1.00  0.00     0.066 A 
HETATM   32  C29 UNL     1     -11.256   4.639   5.537  1.00  0.00     0.009 C 
HETATM   33  O2  UNL     1      -9.467   2.383   4.471  1.00  0.00    -0.291 OA
ENDBRANCH  20  21
ENDBRANCH  19  20
ENDBRANCH  18  19
ENDBRANCH   1  18
TORSDOF 18
