REMARK  5 active torsions:
REMARK  status: ('A' for Active; 'I' for Inactive)
REMARK    1  A    between atoms: C1_1  and  O11_32 
REMARK    2  A    between atoms: C3_3  and  O3_18 
REMARK    3  A    between atoms: C7_8  and  C10_12 
REMARK    4  A    between atoms: O3_18  and  C16_19 
REMARK    5  A    between atoms: C20_23  and  C21_25 
ROOT
HETATM    1  C1  UNL     1      -2.568   1.869   0.463  1.00  0.00     0.123 A 
HETATM    2  C2  UNL     1      -2.418   0.561   0.980  1.00  0.00     0.175 A 
HETATM    3  C3  UNL     1      -1.125   0.022   1.189  1.00  0.00     0.129 A 
HETATM    4  C4  UNL     1       0.018   0.803   0.875  1.00  0.00     0.086 A 
HETATM    5  C5  UNL     1      -0.133   2.117   0.357  1.00  0.00     0.107 A 
HETATM    6  C6  UNL     1      -1.428   2.647   0.152  1.00  0.00     0.051 A 
HETATM    7  O1  UNL     1       0.955   2.861   0.058  1.00  0.00    -0.307 OA
HETATM    8  C7  UNL     1       2.223   2.432   0.226  1.00  0.00     0.103 A 
HETATM    9  C8  UNL     1       2.488   1.195   0.711  1.00  0.00     0.067 A 
HETATM   10  C9  UNL     1       1.395   0.272   1.078  1.00  0.00     0.202 A 
HETATM   11  O2  UNL     1       1.711  -0.816   1.506  1.00  0.00    -0.286 OA
HETATM   12  O10 UNL     1      -3.502  -0.172   1.275  1.00  0.00    -0.186 OA
ENDROOT
BRANCH   3  13
HETATM   13  O3  UNL     1      -0.994  -1.219   1.680  1.00  0.00    -0.301 OA
BRANCH  13  14
HETATM   14  C16 UNL     1      -1.363  -2.311   0.844  1.00  0.00     0.275 C 
HETATM   15  C17 UNL     1      -1.438  -3.621   1.658  1.00  0.00     0.241 C 
HETATM   16  C18 UNL     1      -1.902  -4.801   0.764  1.00  0.00     0.221 C 
HETATM   17  O9  UNL     1      -0.164  -3.912   2.213  1.00  0.00    -0.215 OA
HETATM   18  C19 UNL     1      -1.623  -4.512  -0.736  1.00  0.00     0.223 C 
HETATM   19  O8  UNL     1      -3.295  -4.992   0.935  1.00  0.00    -0.218 OA
HETATM   20  C20 UNL     1      -0.340  -3.664  -0.910  1.00  0.00     0.237 C 
HETATM   21  O7  UNL     1      -1.488  -5.740  -1.428  1.00  0.00    -0.217 OA
HETATM   22  O4  UNL     1      -0.463  -2.395  -0.264  1.00  0.00    -0.318 OA
BRANCH  20  23
HETATM   23  C21 UNL     1       0.045  -3.408  -2.346  1.00  0.00     0.217 C 
HETATM   24  O5  UNL     1       1.164  -3.641  -2.740  1.00  0.00    -0.646 OA
HETATM   25  O6  UNL     1      -0.926  -2.920  -3.113  1.00  0.00    -0.646 OA
ENDBRANCH  20  23
ENDBRANCH  13  14
ENDBRANCH   3  13
BRANCH   1  26
HETATM   26  O11 UNL     1      -3.793   2.377   0.266  1.00  0.00    -0.326 OA
HETATM   27  C22 UNL     1      -3.893   3.717  -0.197  1.00  0.00     0.181 C 
ENDBRANCH   1  26
BRANCH   8  28
HETATM   28  C10 UNL     1       3.367   3.326  -0.127  1.00  0.00     0.023 A 
HETATM   29  C11 UNL     1       3.184   4.369  -1.055  1.00  0.00     0.002 A 
HETATM   30  C12 UNL     1       4.260   5.209  -1.387  1.00  0.00     0.000 A 
HETATM   31  C13 UNL     1       5.520   5.010  -0.795  1.00  0.00     0.000 A 
HETATM   32  C14 UNL     1       5.703   3.967   0.131  1.00  0.00     0.000 A 
HETATM   33  C15 UNL     1       4.627   3.125   0.465  1.00  0.00     0.002 A 
ENDBRANCH   8  28
TORSDOF 5
