REMARK  11 active torsions:
REMARK  status: ('A' for Active; 'I' for Inactive)
REMARK    1  A    between atoms: C2_2  and  C3_3 
REMARK    2  A    between atoms: C3_3  and  C4_4 
REMARK    3  A    between atoms: C4_4  and  C5_5 
REMARK    4  A    between atoms: C5_5  and  C6_6 
REMARK    5  A    between atoms: C6_6  and  C7_7 
REMARK    6  A    between atoms: C7_7  and  C8_8 
REMARK    7  A    between atoms: C9_9  and  C10_10 
REMARK    8  A    between atoms: C10_10  and  C11_11 
REMARK    9  A    between atoms: C12_12  and  C13_13 
REMARK   10  A    between atoms: C14_14  and  C15_15 
REMARK   11  A    between atoms: C15_15  and  C16_16 
ROOT
HETATM    1  C8  UNL     1       0.795   0.326   1.719  1.00  0.00    -0.030 C 
HETATM    2  C9  UNL     1       0.885  -1.012   1.627  1.00  0.00    -0.017 C 
ENDROOT
BRANCH   2   3
HETATM    3  C10 UNL     1       0.383  -1.682   0.377  1.00  0.00     0.102 C 
BRANCH   3   4
HETATM    4  C11 UNL     1       0.869  -3.059   0.377  1.00  0.00    -0.073 C 
HETATM    5  C12 UNL     1       1.266  -4.180   0.377  1.00  0.00    -0.014 C 
BRANCH   5   6
HETATM    6  C13 UNL     1       1.724  -5.483   0.377  1.00  0.00    -0.011 C 
HETATM    7  C14 UNL     1       2.123  -6.604   0.377  1.00  0.00    -0.041 C 
BRANCH   7   8
HETATM    8  C15 UNL     1       2.609  -7.981   0.377  1.00  0.00     0.238 C 
HETATM    9  O1  UNL     1       4.017  -7.981   0.377  1.00  0.00    -0.204 OA
BRANCH   8  10
HETATM   10  C16 UNL     1       2.107  -8.651  -0.873  1.00  0.00     0.019 C 
HETATM   11  C17 UNL     1       0.937  -9.309  -0.822  1.00  0.00    -0.001 C 
ENDBRANCH   8  10
ENDBRANCH   7   8
ENDBRANCH   5   6
ENDBRANCH   3   4
ENDBRANCH   2   3
BRANCH   1  12
HETATM   12  C7  UNL     1       0.197   1.084   0.564  1.00  0.00     0.026 C 
BRANCH  12  13
HETATM   13  C6  UNL     1      -0.219   2.504   0.951  1.00  0.00     0.005 C 
BRANCH  13  14
HETATM   14  C5  UNL     1      -0.817   3.285  -0.219  1.00  0.00     0.000 C 
BRANCH  14  15
HETATM   15  C4  UNL     1      -1.235   4.703   0.170  1.00  0.00     0.000 C 
BRANCH  15  16
HETATM   16  C3  UNL     1      -1.834   5.484  -1.000  1.00  0.00     0.000 C 
BRANCH  16  17
HETATM   17  C2  UNL     1      -2.252   6.902  -0.611  1.00  0.00     0.000 C 
HETATM   18  C1  UNL     1      -2.850   7.682  -1.783  1.00  0.00     0.000 C 
ENDBRANCH  16  17
ENDBRANCH  15  16
ENDBRANCH  14  15
ENDBRANCH  13  14
ENDBRANCH  12  13
ENDBRANCH   1  12
TORSDOF 11
