REMARK  5 active torsions:
REMARK  status: ('A' for Active; 'I' for Inactive)
REMARK    1  A    between atoms: O1_1  and  C2_3 
REMARK    2  A    between atoms: C3_4  and  O2_5 
REMARK    3  A    between atoms: C5_7  and  O7_28 
REMARK    4  A    between atoms: C7_9  and  C9_11 
REMARK    5  A    between atoms: C14_18  and  C15_19 
ROOT
HETATM    1  C9  UNL     1       0.472   0.826   0.278  1.00  0.00     0.140 C 
HETATM    2  O3  UNL     1       0.020   1.842  -0.593  1.00  0.00    -0.352 OA
HETATM    3  C10 UNL     1      -1.144   1.406  -1.249  1.00  0.00     0.145 C 
HETATM    4  C11 UNL     1      -1.693   0.221  -0.472  1.00  0.00     0.066 C 
HETATM    5  C12 UNL     1      -0.414  -0.403   0.072  1.00  0.00     0.066 C 
HETATM    6  C13 UNL     1      -0.921  -1.074   1.336  1.00  0.00     0.145 C 
HETATM    7  O4  UNL     1      -1.954  -0.269   1.847  1.00  0.00    -0.352 OA
HETATM    8  C14 UNL     1      -2.455   0.554   0.813  1.00  0.00     0.140 C 
ENDROOT
BRANCH   1   9
HETATM    9  C7  UNL     1       1.942   0.518   0.080  1.00  0.00     0.009 A 
HETATM   10  C6  UNL     1       2.857   0.607   1.128  1.00  0.00     0.024 A 
HETATM   11  C5  UNL     1       4.223   0.341   0.959  1.00  0.00     0.118 A 
HETATM   12  C3  UNL     1       4.689  -0.057  -0.315  1.00  0.00     0.138 A 
HETATM   13  C2  UNL     1       3.771  -0.221  -1.375  1.00  0.00     0.118 A 
HETATM   14  C8  UNL     1       2.434   0.136  -1.166  1.00  0.00     0.024 A 
BRANCH  11  15
HETATM   15  O7  UNL     1       5.151   0.469   1.967  1.00  0.00    -0.326 OA
HETATM   16  C22 UNL     1       4.739   0.975   3.216  1.00  0.00     0.181 C 
ENDBRANCH  11  15
BRANCH  12  17
HETATM   17  O2  UNL     1       6.043  -0.273  -0.435  1.00  0.00    -0.324 OA
HETATM   18  C4  UNL     1       6.711   0.189  -1.587  1.00  0.00     0.182 C 
ENDBRANCH  12  17
BRANCH  13  19
HETATM   19  O1  UNL     1       4.158  -0.551  -2.647  1.00  0.00    -0.326 OA
HETATM   20  C1  UNL     1       4.125  -1.937  -2.902  1.00  0.00     0.181 C 
ENDBRANCH  13  19
ENDBRANCH   1   9
BRANCH   8  21
HETATM   21  C15 UNL     1      -3.955   0.407   0.653  1.00  0.00     0.007 A 
HETATM   22  C16 UNL     1      -4.799   1.527   0.742  1.00  0.00     0.000 A 
HETATM   23  C17 UNL     1      -6.187   1.432   0.582  1.00  0.00     0.026 A 
HETATM   24  C18 UNL     1      -6.712   0.171   0.318  1.00  0.00     0.119 A 
HETATM   25  C19 UNL     1      -5.891  -0.948   0.229  1.00  0.00     0.119 A 
HETATM   26  O6  UNL     1      -8.022  -0.210   0.106  1.00  0.00    -0.300 OA
HETATM   27  C20 UNL     1      -4.512  -0.857   0.399  1.00  0.00     0.024 A 
HETATM   28  O5  UNL     1      -6.667  -2.058  -0.043  1.00  0.00    -0.300 OA
HETATM   29  C21 UNL     1      -8.029  -1.622  -0.142  1.00  0.00     0.304 A 
ENDBRANCH   8  21
TORSDOF 5
