REMARK  7 active torsions:
REMARK  status: ('A' for Active; 'I' for Inactive)
REMARK    1  A    between atoms: C1_1  and  C18_33 
REMARK    2  A    between atoms: C2_2  and  O5_10 
REMARK    3  A    between atoms: O5_10  and  C6_11 
REMARK    4  A    between atoms: C10_15  and  C11_17 
REMARK    5  A    between atoms: C11_17  and  O7_18 
REMARK    6  A    between atoms: O7_18  and  C12_19 
REMARK    7  A    between atoms: C16_23  and  C17_25 
ROOT
HETATM    1  C6  UNL     1      -1.124  -1.679  -0.448  1.00  0.00     0.270 C 
HETATM    2  C7  UNL     1      -1.426  -3.128   0.016  1.00  0.00     0.241 C 
HETATM    3  C8  UNL     1      -1.864  -3.156   1.497  1.00  0.00     0.220 C 
HETATM    4  C9  UNL     1      -0.855  -2.368   2.361  1.00  0.00     0.215 C 
HETATM    5  C10 UNL     1      -0.590  -0.961   1.778  1.00  0.00     0.180 C 
HETATM    6  O6  UNL     1      -0.173  -1.082   0.424  1.00  0.00    -0.326 OA
HETATM    7  O13 UNL     1      -1.360  -2.223   3.677  1.00  0.00    -0.218 OA
HETATM    8  O14 UNL     1      -1.939  -4.498   1.952  1.00  0.00    -0.218 OA
HETATM    9  O15 UNL     1      -2.456  -3.676  -0.790  1.00  0.00    -0.215 OA
ENDROOT
BRANCH   5  10
HETATM   10  C11 UNL     1       0.521  -0.207   2.516  1.00  0.00     0.177 C 
BRANCH  10  11
HETATM   11  O7  UNL     1       0.561   1.113   2.025  1.00  0.00    -0.326 OA
BRANCH  11  12
HETATM   12  C12 UNL     1       1.527   1.918   2.671  1.00  0.00     0.270 C 
HETATM   13  C13 UNL     1       1.367   3.401   2.247  1.00  0.00     0.241 C 
HETATM   14  C14 UNL     1       2.511   4.269   2.817  1.00  0.00     0.220 C 
HETATM   15  O12 UNL     1       0.123   3.895   2.718  1.00  0.00    -0.215 OA
HETATM   16  C15 UNL     1       3.876   3.616   2.500  1.00  0.00     0.215 C 
HETATM   17  O11 UNL     1       2.457   5.570   2.254  1.00  0.00    -0.218 OA
HETATM   18  C16 UNL     1       3.902   2.130   2.926  1.00  0.00     0.184 C 
HETATM   19  O10 UNL     1       4.907   4.302   3.187  1.00  0.00    -0.218 OA
HETATM   20  O8  UNL     1       2.817   1.447   2.311  1.00  0.00    -0.326 OA
BRANCH  18  21
HETATM   21  C17 UNL     1       5.182   1.408   2.494  1.00  0.00     0.214 C 
HETATM   22  O9  UNL     1       5.188   0.129   3.088  1.00  0.00    -0.218 OA
ENDBRANCH  18  21
ENDBRANCH  11  12
ENDBRANCH  10  11
ENDBRANCH   5  10
BRANCH   1  23
HETATM   23  O5  UNL     1      -0.593  -1.678  -1.758  1.00  0.00    -0.326 OA
BRANCH  23  24
HETATM   24  C2  UNL     1      -1.561  -1.398  -2.753  1.00  0.00     0.181 C 
HETATM   25  C1  UNL     1      -1.129  -2.084  -4.069  1.00  0.00     0.181 C 
HETATM   26  O1  UNL     1      -2.039  -1.735  -5.104  1.00  0.00    -0.324 OA
HETATM   27  C5  UNL     1      -2.105  -0.348  -5.405  1.00  0.00     0.303 C 
HETATM   28  C4  UNL     1      -2.589   0.439  -4.159  1.00  0.00     0.244 C 
HETATM   29  O2  UNL     1      -3.004  -0.167  -6.484  1.00  0.00    -0.187 OA
HETATM   30  C3  UNL     1      -1.701   0.129  -2.932  1.00  0.00     0.217 C 
HETATM   31  O3  UNL     1      -2.543   1.830  -4.435  1.00  0.00    -0.215 OA
HETATM   32  O4  UNL     1      -2.276   0.699  -1.766  1.00  0.00    -0.218 OA
BRANCH  25  33
HETATM   33  C18 UNL     1      -1.133  -3.613  -3.973  1.00  0.00     0.214 C 
HETATM   34  O16 UNL     1      -0.489  -4.127  -5.117  1.00  0.00    -0.218 OA
ENDBRANCH  25  33
ENDBRANCH  23  24
ENDBRANCH   1  23
TORSDOF 7
