REMARK  2 active torsions:
REMARK  status: ('A' for Active; 'I' for Inactive)
REMARK    1  A    between atoms: O1_2  and  C2_3 
REMARK    2  A    between atoms: C12_16  and  O6_26 
ROOT
HETATM    1  C2  UNL     1       3.799  -2.070  -0.869  1.00  0.00     0.119 A 
HETATM    2  C3  UNL     1       2.738  -2.838  -0.353  1.00  0.00     0.153 A 
HETATM    3  O2  UNL     1       2.844  -4.172  -0.277  1.00  0.00    -0.188 OA
HETATM    4  C4  UNL     1       1.559  -2.199   0.086  1.00  0.00     0.027 A 
HETATM    5  C5  UNL     1       1.398  -0.779   0.012  1.00  0.00     0.005 A 
HETATM    6  C6  UNL     1       2.504  -0.006  -0.488  1.00  0.00    -0.020 A 
HETATM    7  C7  UNL     1       3.682  -0.668  -0.932  1.00  0.00     0.022 A 
HETATM    8  C8  UNL     1       2.508   1.484  -0.576  1.00  0.00     0.052 C 
HETATM    9  C9  UNL     1       1.760   2.213   0.553  1.00  0.00     0.125 C 
HETATM   10  N1  UNL     1       0.328   2.330   0.293  1.00  0.00    -0.290 NA
HETATM   11  C10 UNL     1      -0.315   1.150  -0.316  1.00  0.00     0.151 C 
HETATM   12  C11 UNL     1       0.101  -0.150   0.471  1.00  0.00     0.166 C 
HETATM   13  O3  UNL     1      -0.979  -1.096   0.453  1.00  0.00    -0.323 OA
HETATM   14  C12 UNL     1      -2.223  -0.629   0.961  1.00  0.00     0.262 C 
HETATM   15  C13 UNL     1      -2.715   0.527   0.176  1.00  0.00     0.056 A 
HETATM   16  C14 UNL     1      -1.783   1.393  -0.453  1.00  0.00     0.005 A 
HETATM   17  C15 UNL     1      -2.268   2.479  -1.219  1.00  0.00    -0.000 A 
HETATM   18  C16 UNL     1      -3.656   2.689  -1.330  1.00  0.00     0.026 A 
HETATM   19  C17 UNL     1      -4.586   1.834  -0.689  1.00  0.00     0.119 A 
HETATM   20  C18 UNL     1      -4.115   0.754   0.063  1.00  0.00     0.120 A 
HETATM   21  O4  UNL     1      -5.158   0.090   0.566  1.00  0.00    -0.300 OA
HETATM   22  C19 UNL     1      -6.381   0.736   0.150  1.00  0.00     0.304 A 
HETATM   23  O5  UNL     1      -5.918   1.844  -0.654  1.00  0.00    -0.300 OA
ENDROOT
BRANCH   1  24
HETATM   24  O1  UNL     1       4.920  -2.672  -1.295  1.00  0.00    -0.326 OA
HETATM   25  C1  UNL     1       5.961  -1.852  -1.805  1.00  0.00     0.181 C 
ENDBRANCH   1  24
BRANCH  14  26
HETATM   26  O6  UNL     1      -2.162  -0.311   2.338  1.00  0.00    -0.325 OA
HETATM   27  C20 UNL     1      -1.826  -1.412   3.151  1.00  0.00     0.177 C 
ENDBRANCH  14  26
TORSDOF 2
