REMARK  2 active torsions:
REMARK  status: ('A' for Active; 'I' for Inactive)
REMARK    1  A    between atoms: C9_10  and  C19_21 
REMARK    2  A    between atoms: C14_16  and  C15_17 
ROOT
HETATM    1  C1  UNL     1      -4.947   0.633   1.539  1.00  0.00    -0.000 A 
HETATM    2  C2  UNL     1      -5.502  -0.356   0.687  1.00  0.00     0.002 A 
HETATM    3  C3  UNL     1      -4.678  -1.037  -0.236  1.00  0.00     0.018 A 
HETATM    4  C4  UNL     1      -3.309  -0.695  -0.270  1.00  0.00     0.072 A 
HETATM    5  C5  UNL     1      -2.717   0.314   0.518  1.00  0.00    -0.002 A 
HETATM    6  C6  UNL     1      -3.570   0.963   1.449  1.00  0.00    -0.003 A 
HETATM    7  C7  UNL     1      -1.252   0.504   0.160  1.00  0.00     0.072 C 
HETATM    8  C8  UNL     1      -1.002  -0.936  -0.357  1.00  0.00     0.111 C 
HETATM    9  N1  UNL     1      -2.232  -1.309  -1.070  1.00  0.00    -0.273 NA
HETATM   10  C9  UNL     1       0.420  -1.109  -0.898  1.00  0.00     0.056 C 
HETATM   11  C10 UNL     1       1.395  -0.799   0.309  1.00  0.00     0.008 C 
HETATM   12  C11 UNL     1       0.682  -0.309   1.605  1.00  0.00     0.034 C 
HETATM   13  C12 UNL     1      -0.164   0.916   1.187  1.00  0.00     0.225 C 
HETATM   14  N2  UNL     1       0.703   1.930   0.525  1.00  0.00     0.135 N 
HETATM   15  C13 UNL     1       2.152   1.650   0.514  1.00  0.00     0.250 C 
HETATM   16  C14 UNL     1       2.482   0.246  -0.059  1.00  0.00     0.034 C 
HETATM   17  C17 UNL     1       0.201   2.195  -0.816  1.00  0.00     0.251 C 
HETATM   18  C18 UNL     1      -1.203   1.648  -0.877  1.00  0.00     0.043 C 
ENDROOT
BRANCH  10  19
HETATM   19  C19 UNL     1       0.607  -2.531  -1.443  1.00  0.00     0.184 C 
HETATM   20  O1  UNL     1       1.897  -2.623  -2.004  1.00  0.00    -0.221 OA
ENDBRANCH  10  19
BRANCH  16  21
HETATM   21  C15 UNL     1       3.873  -0.193   0.418  1.00  0.00     0.002 C 
HETATM   22  C16 UNL     1       4.988   0.725  -0.086  1.00  0.00     0.000 C 
ENDBRANCH  16  21
TORSDOF 2
