REMARK  12 active torsions:
REMARK  status: ('A' for Active; 'I' for Inactive)
REMARK    1  A    between atoms: C2_2  and  C3_3 
REMARK    2  A    between atoms: C4_4  and  C5_5 
REMARK    3  A    between atoms: C6_6  and  C7_7 
REMARK    4  A    between atoms: C8_8  and  C9_9 
REMARK    5  A    between atoms: C10_10  and  C11_11 
REMARK    6  A    between atoms: C11_11  and  C12_12 
REMARK    7  A    between atoms: C12_12  and  C13_13 
REMARK    8  A    between atoms: C13_13  and  C14_14 
REMARK    9  A    between atoms: C14_14  and  C15_15 
REMARK   10  A    between atoms: C15_15  and  C16_16 
REMARK   11  A    between atoms: C16_16  and  C17_17 
REMARK   12  A    between atoms: C17_17  and  C18_18 
ROOT
HETATM    1  C9  UNL     1      -3.385   0.174   0.674  1.00  0.00    -0.005 C 
HETATM    2  C10 UNL     1      -2.744   1.354   0.674  1.00  0.00    -0.026 C 
ENDROOT
BRANCH   2   3
HETATM    3  C11 UNL     1      -1.238   1.354   0.674  1.00  0.00     0.026 C 
BRANCH   3   4
HETATM    4  C12 UNL     1      -0.656   2.732   0.365  1.00  0.00     0.005 C 
BRANCH   4   5
HETATM    5  C13 UNL     1       0.873   2.748   0.402  1.00  0.00     0.000 C 
BRANCH   5   6
HETATM    6  C14 UNL     1       1.455   4.129   0.100  1.00  0.00     0.000 C 
BRANCH   6   7
HETATM    7  C15 UNL     1       2.984   4.145   0.135  1.00  0.00     0.001 C 
BRANCH   7   8
HETATM    8  C16 UNL     1       3.567   5.525  -0.166  1.00  0.00     0.011 C 
BRANCH   8   9
HETATM    9  C17 UNL     1       5.096   5.541  -0.131  1.00  0.00     0.098 C 
BRANCH   9  10
HETATM   10  C18 UNL     1       5.666   6.881  -0.516  1.00  0.00     0.185 C 
HETATM   11  O1  UNL     1       6.883   6.846  -1.049  1.00  0.00    -0.647 OA
HETATM   12  O2  UNL     1       5.037   7.899  -0.342  1.00  0.00    -0.647 OA
ENDBRANCH   9  10
ENDBRANCH   8   9
ENDBRANCH   7   8
ENDBRANCH   6   7
ENDBRANCH   5   6
ENDBRANCH   4   5
ENDBRANCH   3   4
ENDBRANCH   2   3
BRANCH   1  13
HETATM   13  C8  UNL     1      -2.633  -1.086   0.674  1.00  0.00    -0.000 C 
HETATM   14  C7  UNL     1      -3.170  -2.205   0.162  1.00  0.00    -0.000 C 
BRANCH  14  15
HETATM   15  C6  UNL     1      -2.418  -3.465   0.162  1.00  0.00    -0.000 C 
HETATM   16  C5  UNL     1      -2.955  -4.584  -0.350  1.00  0.00    -0.000 C 
BRANCH  16  17
HETATM   17  C4  UNL     1      -2.203  -5.846  -0.350  1.00  0.00    -0.005 C 
HETATM   18  C3  UNL     1      -2.742  -6.963  -0.861  1.00  0.00    -0.026 C 
BRANCH  18  19
HETATM   19  C2  UNL     1      -1.926  -8.229  -0.836  1.00  0.00     0.026 C 
HETATM   20  C1  UNL     1      -2.627  -9.360  -0.082  1.00  0.00     0.005 C 
ENDBRANCH  18  19
ENDBRANCH  16  17
ENDBRANCH  14  15
ENDBRANCH   1  13
TORSDOF 12
