REMARK  0 active torsions:
REMARK  status: ('A' for Active; 'I' for Inactive)
ROOT
HETATM    1  C1  UNL     1      -1.547   0.493   1.393  1.00  0.00     0.062 C 
HETATM    2  C2  UNL     1      -2.517   0.503   0.125  1.00  0.00     0.008 C 
HETATM    3  C3  UNL     1      -2.252  -0.699  -0.816  1.00  0.00     0.001 C 
HETATM    4  C4  UNL     1      -0.758  -1.054  -1.051  1.00  0.00     0.004 C 
HETATM    5  C5  UNL     1       0.249  -0.550   0.025  1.00  0.00     0.022 C 
HETATM    6  C6  UNL     1       0.358   0.929  -0.033  1.00  0.00     0.004 C 
HETATM    7  C7  UNL     1      -0.639   1.520   0.649  1.00  0.00     0.168 C 
HETATM    8  O1  UNL     1      -0.793   2.712   0.787  1.00  0.00    -0.292 OA
HETATM    9  C8  UNL     1       1.427   1.419  -0.665  1.00  0.00    -0.045 C 
HETATM   10  C9  UNL     1       2.336   0.278  -1.045  1.00  0.00     0.022 C 
HETATM   11  C10 UNL     1       1.720  -0.917  -0.267  1.00  0.00     0.009 C 
HETATM   12  C11 UNL     1       1.825   2.845  -0.898  1.00  0.00     0.026 C 
HETATM   13  C12 UNL     1      -0.303  -0.539   1.477  1.00  0.00     0.010 C 
HETATM   14  C13 UNL     1      -0.588  -2.011   1.905  1.00  0.00     0.001 C 
HETATM   15  C14 UNL     1       0.660  -0.017   2.582  1.00  0.00     0.001 C 
HETATM   16  C15 UNL     1      -0.382  -0.686  -2.501  1.00  0.00     0.000 C 
ENDROOT
TORSDOF 0
