REMARK  3 active torsions:
REMARK  status: ('A' for Active; 'I' for Inactive)
REMARK    1  A    between atoms: C17_19  and  O3_20 
REMARK    2  A    between atoms: O3_20  and  C18_21 
REMARK    3  A    between atoms: C18_21  and  C19_22 
ROOT
HETATM    1  C1  UNL     1      -1.110  -0.516   1.513  1.00  0.00     0.180 C 
HETATM    2  C2  UNL     1      -0.117  -0.987   0.447  1.00  0.00     0.038 C 
HETATM    3  C3  UNL     1       1.146  -0.125   0.209  1.00  0.00     0.034 C 
HETATM    4  C4  UNL     1       0.851   1.400   0.190  1.00  0.00     0.021 C 
HETATM    5  C5  UNL     1      -0.351   1.754  -0.667  1.00  0.00    -0.042 C 
HETATM    6  C6  UNL     1      -1.733   1.294  -0.236  1.00  0.00     0.051 C 
HETATM    7  C7  UNL     1      -1.952   0.715   1.173  1.00  0.00     0.160 C 
HETATM    8  C8  UNL     1      -3.500   0.546   1.232  1.00  0.00     0.057 C 
HETATM    9  C9  UNL     1      -4.029   1.732   0.387  1.00  0.00     0.155 C 
HETATM   10  C10 UNL     1      -2.832   2.364  -0.327  1.00  0.00     0.040 C 
HETATM   11  O1  UNL     1      -4.686   2.708   1.161  1.00  0.00    -0.223 OA
HETATM   12  C11 UNL     1      -4.052   0.537   2.675  1.00  0.00     0.005 C 
HETATM   13  C12 UNL     1      -4.002  -0.766   0.574  1.00  0.00     0.005 C 
HETATM   14  O2  UNL     1      -1.633   1.694   2.134  1.00  0.00    -0.223 OA
HETATM   15  C13 UNL     1      -0.223   2.379  -1.851  1.00  0.00    -0.009 C 
HETATM   16  C14 UNL     1       2.123   2.247  -0.047  1.00  0.00     0.004 C 
HETATM   17  C15 UNL     1       3.138   1.635  -1.025  1.00  0.00     0.005 C 
HETATM   18  C16 UNL     1       3.231   0.104  -0.904  1.00  0.00     0.056 C 
HETATM   19  C17 UNL     1       1.824  -0.462  -1.134  1.00  0.00     0.127 C 
HETATM   20  C21 UNL     1       3.596  -0.414   0.495  1.00  0.00     0.129 C 
HETATM   21  C22 UNL     1       2.260  -0.426   1.249  1.00  0.00     0.033 C 
HETATM   22  C23 UNL     1       4.726   0.321   1.210  1.00  0.00     0.033 C 
HETATM   23  O5  UNL     1       4.035  -1.746   0.364  1.00  0.00    -0.226 OA
HETATM   24  O6  UNL     1      -0.423  -0.277   2.719  1.00  0.00    -0.221 OA
ENDROOT
BRANCH  19  25
HETATM   25  O3  UNL     1       1.909  -1.839  -1.367  1.00  0.00    -0.304 OA
BRANCH  25  26
HETATM   26  C18 UNL     1       1.141  -2.393  -2.344  1.00  0.00     0.272 C 
HETATM   27  O4  UNL     1       0.328  -1.801  -3.015  1.00  0.00    -0.264 OA
BRANCH  26  28
HETATM   28  C19 UNL     1       1.468  -3.870  -2.486  1.00  0.00     0.096 C 
HETATM   29  C20 UNL     1       0.951  -4.473  -3.799  1.00  0.00     0.011 C 
ENDBRANCH  26  28
ENDBRANCH  25  26
ENDBRANCH  19  25
TORSDOF 3
