REMARK  20 active torsions:
REMARK  status: ('A' for Active; 'I' for Inactive)
REMARK    1  A    between atoms: C1_1  and  C70_105 
REMARK    2  A    between atoms: C2_2  and  O25_82 
REMARK    3  A    between atoms: C5_5  and  O2_7 
REMARK    4  A    between atoms: O2_7  and  C6_8 
REMARK    5  A    between atoms: C6_8  and  C7_9 
REMARK    6  A    between atoms: C28_30  and  O3_33 
REMARK    7  A    between atoms: O3_33  and  C31_34 
REMARK    8  A    between atoms: C34_37  and  O5_40 
REMARK    9  A    between atoms: O5_40  and  C36_41 
REMARK   10  A    between atoms: C37_42  and  O9_50 
REMARK   11  A    between atoms: O9_50  and  C42_51 
REMARK   12  A    between atoms: C44_53  and  O12_58 
REMARK   13  A    between atoms: O12_58  and  C47_59 
REMARK   14  A    between atoms: C51_63  and  C52_65 
REMARK   15  A    between atoms: O25_82  and  C58_83 
REMARK   16  A    between atoms: C59_84  and  O30_93 
REMARK   17  A    between atoms: C61_86  and  C62_88 
REMARK   18  A    between atoms: C62_88  and  C63_89 
REMARK   19  A    between atoms: O30_93  and  C64_94 
REMARK   20  A    between atoms: C68_98  and  C69_100 
ROOT
HETATM    1  C7  UNL     1      -6.395  -0.510   1.893  1.00  0.00     0.107 C 
HETATM    2  C8  UNL     1      -5.762  -1.918   1.645  1.00  0.00     0.150 C 
HETATM    3  C9  UNL     1      -6.410  -2.557   0.375  1.00  0.00     0.035 C 
HETATM    4  C10 UNL     1      -7.947  -2.342   0.213  1.00  0.00     0.003 C 
HETATM    5  C11 UNL     1      -8.602  -1.857   1.521  1.00  0.00     0.001 C 
HETATM    6  C12 UNL     1      -7.930  -0.613   2.139  1.00  0.00     0.012 C 
HETATM    7  C13 UNL     1      -8.231  -1.305  -0.883  1.00  0.00     0.000 C 
HETATM    8  C14 UNL     1      -8.606  -3.656  -0.223  1.00  0.00     0.000 C 
HETATM    9  C15 UNL     1      -4.229  -1.799   1.627  1.00  0.00    -0.021 C 
HETATM   10  C16 UNL     1      -3.559  -1.141   2.848  1.00  0.00     0.017 C 
HETATM   11  C17 UNL     1      -4.172   0.277   2.947  1.00  0.00     0.004 C 
HETATM   12  C18 UNL     1      -5.713   0.236   3.064  1.00  0.00     0.013 C 
HETATM   13  C19 UNL     1      -1.994  -1.150   2.748  1.00  0.00     0.004 C 
HETATM   14  C20 UNL     1      -1.549  -0.801   1.305  1.00  0.00     0.005 C 
HETATM   15  C21 UNL     1      -2.027  -1.939   0.385  1.00  0.00     0.025 C 
HETATM   16  C22 UNL     1      -3.504  -2.217   0.559  1.00  0.00    -0.032 C 
HETATM   17  C23 UNL     1      -0.043  -0.352   1.160  1.00  0.00     0.001 C 
HETATM   18  C24 UNL     1       0.805  -0.799   2.389  1.00  0.00     0.002 C 
HETATM   19  C25 UNL     1       0.209  -0.285   3.725  1.00  0.00     0.000 C 
HETATM   20  C26 UNL     1      -1.324  -0.164   3.725  1.00  0.00     0.000 C 
HETATM   21  C27 UNL     1       2.330  -0.496   2.275  1.00  0.00     0.025 C 
HETATM   22  C28 UNL     1       2.904  -1.043   0.945  1.00  0.00     0.118 C 
HETATM   23  C29 UNL     1       2.094  -0.563  -0.270  1.00  0.00     0.030 C 
HETATM   24  C30 UNL     1       0.602  -0.897  -0.141  1.00  0.00     0.003 C 
HETATM   25  C53 UNL     1       3.076  -1.117   3.469  1.00  0.00     0.002 C 
HETATM   26  C54 UNL     1       2.594   1.014   2.332  1.00  0.00     0.002 C 
HETATM   27  C55 UNL     1      -0.018   1.186   1.080  1.00  0.00     0.000 C 
HETATM   28  C56 UNL     1      -1.506  -2.572   3.113  1.00  0.00     0.000 C 
HETATM   29  C57 UNL     1      -3.930  -1.867   4.158  1.00  0.00     0.004 C 
HETATM   30  O21 UNL     1      -6.102  -2.785   2.713  1.00  0.00    -0.221 OA
ENDROOT
BRANCH  22  31
HETATM   31  O3  UNL     1       2.916  -2.461   0.949  1.00  0.00    -0.332 OA
BRANCH  31  32
HETATM   32  C31 UNL     1       3.852  -3.014   0.045  1.00  0.00     0.270 C 
HETATM   33  C32 UNL     1       3.609  -4.529  -0.205  1.00  0.00     0.241 C 
HETATM   34  C33 UNL     1       4.004  -5.424   0.996  1.00  0.00     0.217 C 
HETATM   35  O20 UNL     1       2.275  -4.775  -0.619  1.00  0.00    -0.215 OA
HETATM   36  C34 UNL     1       5.404  -5.033   1.512  1.00  0.00     0.180 C 
HETATM   37  O19 UNL     1       3.084  -5.281   2.068  1.00  0.00    -0.218 OA
HETATM   38  C35 UNL     1       5.557  -3.502   1.684  1.00  0.00     0.177 C 
HETATM   39  O4  UNL     1       5.188  -2.809   0.492  1.00  0.00    -0.326 OA
BRANCH  36  40
HETATM   40  O5  UNL     1       6.381  -5.500   0.598  1.00  0.00    -0.326 OA
BRANCH  40  41
HETATM   41  C36 UNL     1       7.658  -5.656   1.182  1.00  0.00     0.267 C 
HETATM   42  C37 UNL     1       8.758  -5.795   0.088  1.00  0.00     0.207 C 
HETATM   43  C38 UNL     1      10.139  -6.065   0.719  1.00  0.00     0.217 C 
HETATM   44  C39 UNL     1      10.027  -7.217   1.750  1.00  0.00     0.212 C 
HETATM   45  O8  UNL     1      10.574  -4.869   1.350  1.00  0.00    -0.218 OA
HETATM   46  C40 UNL     1       8.883  -6.986   2.764  1.00  0.00     0.151 C 
HETATM   47  O7  UNL     1      11.254  -7.401   2.438  1.00  0.00    -0.218 OA
HETATM   48  O6  UNL     1       7.664  -6.781   2.057  1.00  0.00    -0.329 OA
HETATM   49  C41 UNL     1       8.658  -8.184   3.693  1.00  0.00     0.035 C 
BRANCH  42  50
HETATM   50  O9  UNL     1       8.459  -6.863  -0.799  1.00  0.00    -0.324 OA
BRANCH  50  51
HETATM   51  C42 UNL     1       7.807  -6.442  -1.981  1.00  0.00     0.270 C 
HETATM   52  C43 UNL     1       8.828  -5.885  -3.014  1.00  0.00     0.238 C 
HETATM   53  C44 UNL     1       8.135  -5.514  -4.344  1.00  0.00     0.186 C 
HETATM   54  O18 UNL     1       9.838  -6.844  -3.293  1.00  0.00    -0.215 OA
HETATM   55  C45 UNL     1       7.219  -6.676  -4.807  1.00  0.00     0.211 C 
HETATM   56  C46 UNL     1       6.285  -7.168  -3.682  1.00  0.00     0.180 C 
HETATM   57  O11 UNL     1       6.449  -6.303  -5.936  1.00  0.00    -0.218 OA
HETATM   58  O10 UNL     1       7.053  -7.514  -2.537  1.00  0.00    -0.326 OA
BRANCH  53  59
HETATM   59  O12 UNL     1       7.377  -4.332  -4.129  1.00  0.00    -0.326 OA
BRANCH  59  60
HETATM   60  C47 UNL     1       8.150  -3.152  -4.225  1.00  0.00     0.270 C 
HETATM   61  C48 UNL     1       7.410  -1.897  -3.656  1.00  0.00     0.241 C 
HETATM   62  C49 UNL     1       7.953  -0.570  -4.256  1.00  0.00     0.220 C 
HETATM   63  O17 UNL     1       6.012  -1.939  -3.900  1.00  0.00    -0.215 OA
HETATM   64  C50 UNL     1       9.408  -0.756  -4.734  1.00  0.00     0.215 C 
HETATM   65  O16 UNL     1       7.863   0.461  -3.287  1.00  0.00    -0.218 OA
HETATM   66  C51 UNL     1       9.545  -1.926  -5.750  1.00  0.00     0.184 C 
HETATM   67  O15 UNL     1       9.893   0.432  -5.340  1.00  0.00    -0.218 OA
HETATM   68  O13 UNL     1       8.529  -2.912  -5.570  1.00  0.00    -0.326 OA
BRANCH  66  69
HETATM   69  C52 UNL     1      10.906  -2.627  -5.656  1.00  0.00     0.214 C 
HETATM   70  O14 UNL     1      11.033  -3.492  -6.762  1.00  0.00    -0.218 OA
ENDBRANCH  66  69
ENDBRANCH  59  60
ENDBRANCH  53  59
ENDBRANCH  50  51
ENDBRANCH  42  50
ENDBRANCH  40  41
ENDBRANCH  36  40
ENDBRANCH  31  32
ENDBRANCH  22  31
BRANCH   1  71
HETATM   71  C6  UNL     1      -6.170   0.352   0.664  1.00  0.00     0.276 C 
HETATM   72  O22 UNL     1      -5.356   0.043  -0.172  1.00  0.00    -0.264 OA
BRANCH  71  73
HETATM   73  O2  UNL     1      -6.928   1.443   0.592  1.00  0.00    -0.273 OA
BRANCH  73  74
HETATM   74  C5  UNL     1      -6.686   2.193  -0.590  1.00  0.00     0.276 C 
HETATM   75  C4  UNL     1      -7.830   3.213  -0.813  1.00  0.00     0.241 C 
HETATM   76  C3  UNL     1      -7.799   4.363   0.219  1.00  0.00     0.217 C 
HETATM   77  O23 UNL     1      -7.713   3.764  -2.113  1.00  0.00    -0.215 OA
HETATM   78  C2  UNL     1      -6.363   4.932   0.324  1.00  0.00     0.181 C 
HETATM   79  O24 UNL     1      -8.229   3.852   1.469  1.00  0.00    -0.218 OA
HETATM   80  C1  UNL     1      -5.309   3.818   0.539  1.00  0.00     0.181 C 
HETATM   81  O1  UNL     1      -5.426   2.850  -0.498  1.00  0.00    -0.326 OA
BRANCH  78  82
HETATM   82  O25 UNL     1      -6.272   5.889   1.363  1.00  0.00    -0.326 OA
BRANCH  82  83
HETATM   83  C58 UNL     1      -5.613   7.074   0.971  1.00  0.00     0.267 C 
HETATM   84  C59 UNL     1      -6.557   7.945   0.131  1.00  0.00     0.207 C 
HETATM   85  C60 UNL     1      -7.371   8.629   1.248  1.00  0.00     0.214 C 
HETATM   86  C61 UNL     1      -6.418   8.684   2.457  1.00  0.00     0.184 C 
HETATM   87  O29 UNL     1      -7.846   9.918   0.898  1.00  0.00    -0.218 OA
HETATM   88  O26 UNL     1      -5.311   7.885   2.090  1.00  0.00    -0.326 OA
BRANCH  84  89
HETATM   89  O30 UNL     1      -5.789   8.863  -0.635  1.00  0.00    -0.324 OA
BRANCH  89  90
HETATM   90  C64 UNL     1      -5.483   8.389  -1.932  1.00  0.00     0.270 C 
HETATM   91  C65 UNL     1      -5.139   9.537  -2.941  1.00  0.00     0.241 C 
HETATM   92  C66 UNL     1      -3.615   9.738  -3.086  1.00  0.00     0.220 C 
HETATM   93  O35 UNL     1      -5.789  10.760  -2.611  1.00  0.00    -0.215 OA
HETATM   94  C67 UNL     1      -2.936   8.391  -3.482  1.00  0.00     0.215 C 
HETATM   95  O34 UNL     1      -3.311  10.791  -3.988  1.00  0.00    -0.218 OA
HETATM   96  C68 UNL     1      -3.703   7.133  -2.971  1.00  0.00     0.184 C 
HETATM   97  O33 UNL     1      -2.748   8.268  -4.885  1.00  0.00    -0.218 OA
HETATM   98  O31 UNL     1      -4.406   7.465  -1.781  1.00  0.00    -0.326 OA
BRANCH  96  99
HETATM   99  C69 UNL     1      -4.699   6.496  -3.961  1.00  0.00     0.214 C 
HETATM  100  O32 UNL     1      -5.223   5.328  -3.371  1.00  0.00    -0.218 OA
ENDBRANCH  96  99
ENDBRANCH  89  90
ENDBRANCH  84  89
BRANCH  86 101
HETATM  101  C62 UNL     1      -7.049   8.086   3.709  1.00  0.00     0.215 C 
HETATM  102  O28 UNL     1      -8.152   8.885   4.072  1.00  0.00    -0.218 OA
BRANCH 101 103
HETATM  103  C63 UNL     1      -6.037   8.119   4.856  1.00  0.00     0.218 C 
HETATM  104  O27 UNL     1      -6.611   7.479   5.971  1.00  0.00    -0.218 OA
ENDBRANCH 101 103
ENDBRANCH  86 101
ENDBRANCH  82  83
ENDBRANCH  78  82
BRANCH  80 105
HETATM  105  C70 UNL     1      -3.871   4.344   0.484  1.00  0.00     0.214 C 
HETATM  106  O36 UNL     1      -2.996   3.266   0.729  1.00  0.00    -0.218 OA
ENDBRANCH  80 105
ENDBRANCH  73  74
ENDBRANCH  71  73
ENDBRANCH   1  71
TORSDOF 20
