REMARK  10 active torsions:
REMARK  status: ('A' for Active; 'I' for Inactive)
REMARK    1  A    between atoms: C3_3  and  C52_70 
REMARK    2  A    between atoms: C23_23  and  O1_27 
REMARK    3  A    between atoms: O1_27  and  C27_28 
REMARK    4  A    between atoms: C30_31  and  O3_34 
REMARK    5  A    between atoms: O3_34  and  C32_35 
REMARK    6  A    between atoms: C33_36  and  O7_44 
REMARK    7  A    between atoms: O7_44  and  C38_45 
REMARK    8  A    between atoms: C40_47  and  O10_52 
REMARK    9  A    between atoms: O10_52  and  C43_53 
REMARK   10  A    between atoms: C47_57  and  C48_59 
ROOT
HETATM    1  C27 UNL     1      -3.553  -1.131  -0.885  1.00  0.00     0.270 C 
HETATM    2  C28 UNL     1      -3.041  -2.187  -1.840  1.00  0.00     0.241 C 
HETATM    3  C29 UNL     1      -1.578  -2.517  -1.626  1.00  0.00     0.217 C 
HETATM    4  C30 UNL     1      -1.188  -2.588  -0.152  1.00  0.00     0.180 C 
HETATM    5  C31 UNL     1      -2.058  -1.782   0.819  1.00  0.00     0.177 C 
HETATM    6  O2  UNL     1      -3.397  -1.588   0.438  1.00  0.00    -0.326 OA
HETATM    7  O17 UNL     1      -0.771  -1.587  -2.307  1.00  0.00    -0.218 OA
HETATM    8  O18 UNL     1      -3.793  -3.368  -1.673  1.00  0.00    -0.215 OA
ENDROOT
BRANCH   1   9
HETATM    9  O1  UNL     1      -2.836   0.082  -1.014  1.00  0.00    -0.332 OA
BRANCH   9  10
HETATM   10  C23 UNL     1      -3.557   1.287  -0.940  1.00  0.00     0.118 C 
HETATM   11  C22 UNL     1      -3.099   2.163   0.243  1.00  0.00     0.030 C 
HETATM   12  C21 UNL     1      -1.967   3.179  -0.058  1.00  0.00     0.003 C 
HETATM   13  C20 UNL     1      -1.027   2.720  -1.201  1.00  0.00     0.001 C 
HETATM   14  C15 UNL     1       0.171   3.690  -1.530  1.00  0.00     0.005 C 
HETATM   15  C19 UNL     1      -1.959   2.637  -2.450  1.00  0.00     0.002 C 
HETATM   16  C49 UNL     1      -0.404   1.409  -0.661  1.00  0.00     0.000 C 
HETATM   17  C14 UNL     1      -0.306   5.153  -1.638  1.00  0.00     0.025 C 
HETATM   18  C16 UNL     1       1.049   3.300  -2.770  1.00  0.00     0.004 C 
HETATM   19  C13 UNL     1       0.778   6.110  -2.010  1.00  0.00    -0.035 C 
HETATM   20  C12 UNL     1       1.936   5.779  -2.602  1.00  0.00    -0.049 C 
HETATM   21  C2  UNL     1       3.016   6.862  -2.647  1.00  0.00     0.028 C 
HETATM   22  C11 UNL     1       2.245   4.335  -3.014  1.00  0.00     0.015 C 
HETATM   23  C1  UNL     1       3.442   7.359  -4.039  1.00  0.00     0.004 C 
HETATM   24  C3  UNL     1       4.178   6.429  -1.728  1.00  0.00     0.082 C 
HETATM   25  C6  UNL     1       4.562   8.421  -4.023  1.00  0.00     0.000 C 
HETATM   26  C5  UNL     1       5.740   7.886  -3.183  1.00  0.00     0.001 C 
HETATM   27  C7  UNL     1       5.054   8.657  -5.471  1.00  0.00     0.000 C 
HETATM   28  C8  UNL     1       4.054   9.773  -3.482  1.00  0.00     0.000 C 
HETATM   29  C4  UNL     1       5.334   7.452  -1.768  1.00  0.00     0.011 C 
HETATM   30  C9  UNL     1       4.642   5.029  -2.177  1.00  0.00     0.011 C 
HETATM   31  C10 UNL     1       3.506   3.986  -2.168  1.00  0.00     0.004 C 
HETATM   32  C51 UNL     1       2.643   4.259  -4.511  1.00  0.00     0.004 C 
HETATM   33  C17 UNL     1       0.049   3.196  -3.956  1.00  0.00     0.000 C 
HETATM   34  C50 UNL     1       1.706   1.892  -2.666  1.00  0.00     0.000 C 
HETATM   35  C18 UNL     1      -1.168   2.274  -3.716  1.00  0.00     0.000 C 
HETATM   36  C24 UNL     1      -3.396   2.033  -2.281  1.00  0.00     0.025 C 
HETATM   37  C25 UNL     1      -3.795   1.093  -3.446  1.00  0.00     0.002 C 
HETATM   38  C26 UNL     1      -4.473   3.159  -2.314  1.00  0.00     0.002 C 
BRANCH  24  39
HETATM   39  C52 UNL     1       3.771   6.327  -0.250  1.00  0.00     0.184 C 
HETATM   40  O19 UNL     1       4.233   5.568   0.570  1.00  0.00    -0.647 OA
HETATM   41  O20 UNL     1       2.849   7.234   0.121  1.00  0.00    -0.647 OA
ENDBRANCH  24  39
ENDBRANCH   9  10
ENDBRANCH   1   9
BRANCH   4  42
HETATM   42  O3  UNL     1      -1.135  -3.923   0.288  1.00  0.00    -0.326 OA
BRANCH  42  43
HETATM   43  C32 UNL     1       0.078  -4.604   0.014  1.00  0.00     0.267 C 
HETATM   44  C33 UNL     1       0.482  -5.484   1.189  1.00  0.00     0.207 C 
HETATM   45  C34 UNL     1      -0.469  -6.668   1.302  1.00  0.00     0.217 C 
HETATM   46  C35 UNL     1      -0.602  -7.383  -0.025  1.00  0.00     0.212 C 
HETATM   47  O6  UNL     1       0.027  -7.592   2.242  1.00  0.00    -0.218 OA
HETATM   48  C36 UNL     1      -0.971  -6.400  -1.123  1.00  0.00     0.151 C 
HETATM   49  O5  UNL     1       0.625  -8.016  -0.294  1.00  0.00    -0.218 OA
HETATM   50  O4  UNL     1      -0.059  -5.342  -1.182  1.00  0.00    -0.329 OA
HETATM   51  C37 UNL     1      -1.029  -7.062  -2.499  1.00  0.00     0.035 C 
BRANCH  44  52
HETATM   52  O7  UNL     1       0.422  -4.788   2.404  1.00  0.00    -0.324 OA
BRANCH  52  53
HETATM   53  C38 UNL     1       1.436  -3.833   2.632  1.00  0.00     0.270 C 
HETATM   54  C39 UNL     1       0.910  -2.701   3.496  1.00  0.00     0.238 C 
HETATM   55  C40 UNL     1       0.605  -3.147   4.922  1.00  0.00     0.186 C 
HETATM   56  O16 UNL     1       1.876  -1.675   3.533  1.00  0.00    -0.215 OA
HETATM   57  C41 UNL     1       1.838  -3.861   5.460  1.00  0.00     0.211 C 
HETATM   58  C42 UNL     1       2.289  -4.969   4.525  1.00  0.00     0.180 C 
HETATM   59  O9  UNL     1       2.889  -2.940   5.644  1.00  0.00    -0.218 OA
HETATM   60  O8  UNL     1       2.535  -4.487   3.228  1.00  0.00    -0.326 OA
BRANCH  55  61
HETATM   61  O10 UNL     1      -0.445  -4.069   4.933  1.00  0.00    -0.326 OA
BRANCH  61  62
HETATM   62  C43 UNL     1      -1.747  -3.541   4.859  1.00  0.00     0.270 C 
HETATM   63  C44 UNL     1      -2.601  -4.398   3.949  1.00  0.00     0.241 C 
HETATM   64  C45 UNL     1      -2.734  -5.801   4.506  1.00  0.00     0.220 C 
HETATM   65  O15 UNL     1      -3.878  -3.817   3.816  1.00  0.00    -0.215 OA
HETATM   66  C46 UNL     1      -3.231  -5.724   5.938  1.00  0.00     0.215 C 
HETATM   67  O14 UNL     1      -1.488  -6.456   4.428  1.00  0.00    -0.218 OA
HETATM   68  C47 UNL     1      -2.474  -4.729   6.811  1.00  0.00     0.184 C 
HETATM   69  O13 UNL     1      -4.593  -5.348   5.902  1.00  0.00    -0.218 OA
HETATM   70  O11 UNL     1      -2.248  -3.494   6.179  1.00  0.00    -0.326 OA
BRANCH  68  71
HETATM   71  C48 UNL     1      -1.216  -5.287   7.472  1.00  0.00     0.214 C 
HETATM   72  O12 UNL     1      -1.573  -6.203   8.489  1.00  0.00    -0.218 OA
ENDBRANCH  68  71
ENDBRANCH  61  62
ENDBRANCH  55  61
ENDBRANCH  52  53
ENDBRANCH  44  52
ENDBRANCH  42  43
ENDBRANCH   4  42
TORSDOF 10
