REMARK  5 active torsions:
REMARK  status: ('A' for Active; 'I' for Inactive)
REMARK    1  A    between atoms: C1_1  and  O13_34 
REMARK    2  A    between atoms: C2_2  and  O7_22 
REMARK    3  A    between atoms: C9_10  and  C10_12 
REMARK    4  A    between atoms: O7_22  and  C16_23 
REMARK    5  A    between atoms: C20_27  and  C21_29 
ROOT
HETATM    1  C1  UNL     1      -1.363  -2.625   1.580  1.00  0.00     0.142 A 
HETATM    2  C2  UNL     1      -1.516  -1.320   1.051  1.00  0.00     0.123 A 
HETATM    3  C3  UNL     1      -0.377  -0.553   0.715  1.00  0.00     0.051 A 
HETATM    4  C4  UNL     1       0.920  -1.086   0.906  1.00  0.00     0.107 A 
HETATM    5  C5  UNL     1       1.070  -2.395   1.437  1.00  0.00     0.091 A 
HETATM    6  C6  UNL     1      -0.070  -3.166   1.775  1.00  0.00     0.160 A 
HETATM    7  O1  UNL     1       0.061  -4.402   2.277  1.00  0.00    -0.188 OA
HETATM    8  C7  UNL     1       2.449  -2.926   1.625  1.00  0.00     0.227 A 
HETATM    9  C8  UNL     1       3.553  -2.018   1.236  1.00  0.00     0.192 A 
HETATM   10  C9  UNL     1       3.275  -0.785   0.740  1.00  0.00     0.128 A 
HETATM   11  O2  UNL     1       2.006  -0.354   0.588  1.00  0.00    -0.305 OA
HETATM   12  O5  UNL     1       4.811  -2.436   1.383  1.00  0.00    -0.185 OA
HETATM   13  O6  UNL     1       2.758  -4.014   2.061  1.00  0.00    -0.284 OA
ENDROOT
BRANCH   2  14
HETATM   14  O7  UNL     1      -2.742  -0.809   0.865  1.00  0.00    -0.301 OA
BRANCH  14  15
HETATM   15  C16 UNL     1      -2.906   0.187  -0.135  1.00  0.00     0.274 C 
HETATM   16  C17 UNL     1      -2.865   1.625   0.471  1.00  0.00     0.241 C 
HETATM   17  C18 UNL     1      -3.727   2.654  -0.326  1.00  0.00     0.220 C 
HETATM   18  O12 UNL     1      -3.191   1.623   1.852  1.00  0.00    -0.215 OA
HETATM   19  C19 UNL     1      -3.807   2.238  -1.811  1.00  0.00     0.215 C 
HETATM   20  O11 UNL     1      -5.061   2.729   0.160  1.00  0.00    -0.218 OA
HETATM   21  C20 UNL     1      -4.313   0.771  -1.996  1.00  0.00     0.184 C 
HETATM   22  O10 UNL     1      -2.516   2.404  -2.373  1.00  0.00    -0.218 OA
HETATM   23  O8  UNL     1      -4.131  -0.020  -0.820  1.00  0.00    -0.326 OA
BRANCH  21  24
HETATM   24  C21 UNL     1      -3.705   0.010  -3.186  1.00  0.00     0.214 C 
HETATM   25  O9  UNL     1      -4.023   0.711  -4.367  1.00  0.00    -0.218 OA
ENDBRANCH  21  24
ENDBRANCH  14  15
ENDBRANCH   2  14
BRANCH   1  26
HETATM   26  O13 UNL     1      -2.447  -3.348   1.898  1.00  0.00    -0.324 OA
HETATM   27  C22 UNL     1      -3.533  -2.682   2.523  1.00  0.00     0.182 C 
ENDBRANCH   1  26
BRANCH  10  28
HETATM   28  C10 UNL     1       4.400   0.121   0.352  1.00  0.00     0.027 A 
HETATM   29  C11 UNL     1       5.443   0.379   1.260  1.00  0.00     0.004 A 
HETATM   30  C12 UNL     1       6.498   1.230   0.893  1.00  0.00     0.030 A 
HETATM   31  C13 UNL     1       6.518   1.826  -0.381  1.00  0.00     0.156 A 
HETATM   32  C14 UNL     1       5.475   1.566  -1.291  1.00  0.00     0.156 A 
HETATM   33  O4  UNL     1       7.512   2.623  -0.719  1.00  0.00    -0.188 OA
HETATM   34  C15 UNL     1       4.420   0.715  -0.922  1.00  0.00     0.032 A 
HETATM   35  O3  UNL     1       5.484   2.121  -2.486  1.00  0.00    -0.188 OA
ENDBRANCH  10  28
TORSDOF 5
