REMARK  2 active torsions:
REMARK  status: ('A' for Active; 'I' for Inactive)
REMARK    1  A    between atoms: C2_3  and  O2_4 
REMARK    2  A    between atoms: C10_13  and  C11_15 
ROOT
HETATM    1  O1  UNL     1      -4.582  -2.857   1.154  1.00  0.00    -0.186 OA
HETATM    2  C1  UNL     1      -3.498  -2.125   0.859  1.00  0.00     0.178 A 
HETATM    3  C2  UNL     1      -3.648  -0.814   0.342  1.00  0.00     0.123 A 
HETATM    4  C4  UNL     1      -2.508  -0.039   0.031  1.00  0.00     0.051 A 
HETATM    5  C5  UNL     1      -1.213  -0.568   0.236  1.00  0.00     0.107 A 
HETATM    6  C6  UNL     1      -1.062  -1.883   0.756  1.00  0.00     0.089 A 
HETATM    7  C7  UNL     1      -2.205  -2.664   1.068  1.00  0.00     0.163 A 
HETATM    8  O3  UNL     1      -2.074  -3.904   1.559  1.00  0.00    -0.188 OA
HETATM    9  C8  UNL     1       0.315  -2.414   0.959  1.00  0.00     0.202 A 
HETATM   10  C9  UNL     1       1.408  -1.488   0.592  1.00  0.00     0.067 A 
HETATM   11  C10 UNL     1       1.143  -0.254   0.105  1.00  0.00     0.103 A 
HETATM   12  O4  UNL     1      -0.125   0.178  -0.061  1.00  0.00    -0.307 OA
HETATM   13  O7  UNL     1       0.631  -3.500   1.385  1.00  0.00    -0.286 OA
ENDROOT
BRANCH  11  14
HETATM   14  C11 UNL     1       2.287   0.641  -0.248  1.00  0.00     0.025 A 
HETATM   15  C12 UNL     1       2.119   1.647  -1.215  1.00  0.00     0.032 A 
HETATM   16  C13 UNL     1       3.192   2.492  -1.551  1.00  0.00     0.156 A 
HETATM   17  C14 UNL     1       4.438   2.328  -0.918  1.00  0.00     0.156 A 
HETATM   18  O6  UNL     1       3.028   3.434  -2.459  1.00  0.00    -0.188 OA
HETATM   19  C15 UNL     1       4.604   1.320   0.049  1.00  0.00     0.030 A 
HETATM   20  O5  UNL     1       5.449   3.113  -1.227  1.00  0.00    -0.188 OA
HETATM   21  C16 UNL     1       3.531   0.477   0.385  1.00  0.00     0.004 A 
ENDBRANCH  11  14
BRANCH   3  22
HETATM   22  O2  UNL     1      -4.873  -0.309   0.145  1.00  0.00    -0.326 OA
HETATM   23  C3  UNL     1      -4.973   1.022  -0.344  1.00  0.00     0.181 C 
ENDBRANCH   3  22
TORSDOF 2
