REMARK  5 active torsions:
REMARK  status: ('A' for Active; 'I' for Inactive)
REMARK    1  A    between atoms: C3_3  and  C36_44 
REMARK    2  A    between atoms: C16_16  and  C25_26 
REMARK    3  A    between atoms: C25_26  and  O3_28 
REMARK    4  A    between atoms: O3_28  and  C26_29 
REMARK    5  A    between atoms: C30_33  and  C31_35 
ROOT
HETATM    1  C1  UNL     1       5.555  -1.094  -0.404  1.00  0.00     0.033 C 
HETATM    2  C2  UNL     1       6.506  -0.104  -1.105  1.00  0.00     0.154 C 
HETATM    3  C3  UNL     1       5.942   1.357  -1.147  1.00  0.00     0.059 C 
HETATM    4  C4  UNL     1       4.399   1.357  -0.936  1.00  0.00     0.005 C 
HETATM    5  C5  UNL     1       3.672   0.205  -1.674  1.00  0.00     0.001 C 
HETATM    6  C6  UNL     1       4.108  -1.107  -0.959  1.00  0.00     0.003 C 
HETATM    7  C7  UNL     1       2.115   0.432  -1.727  1.00  0.00     0.005 C 
HETATM    8  C8  UNL     1       1.527   1.365  -0.637  1.00  0.00     0.004 C 
HETATM    9  C9  UNL     1       2.315   2.717  -0.553  1.00  0.00     0.000 C 
HETATM   10  C10 UNL     1       3.709   2.699  -1.195  1.00  0.00     0.000 C 
HETATM   11  C11 UNL     1       0.008   1.648  -0.941  1.00  0.00     0.015 C 
HETATM   12  C12 UNL     1      -0.801   0.416  -1.359  1.00  0.00    -0.046 C 
HETATM   13  C13 UNL     1      -0.178  -0.729  -1.730  1.00  0.00    -0.035 C 
HETATM   14  C14 UNL     1       1.318  -0.889  -1.787  1.00  0.00     0.025 C 
HETATM   15  C15 UNL     1      -2.336   0.559  -1.381  1.00  0.00     0.055 C 
HETATM   16  C16 UNL     1      -2.867   1.180  -0.057  1.00  0.00     0.084 C 
HETATM   17  C17 UNL     1      -2.148   2.520   0.191  1.00  0.00     0.010 C 
HETATM   18  C18 UNL     1      -0.631   2.355   0.283  1.00  0.00     0.004 C 
HETATM   19  C19 UNL     1      -4.385   1.457  -0.143  1.00  0.00     0.010 C 
HETATM   20  C20 UNL     1      -5.197   0.229  -0.559  1.00  0.00     0.003 C 
HETATM   21  C21 UNL     1      -4.709  -0.318  -1.904  1.00  0.00     0.028 C 
HETATM   22  C22 UNL     1      -3.199  -0.666  -1.850  1.00  0.00     0.131 C 
HETATM   23  C23 UNL     1      -2.971  -1.918  -0.988  1.00  0.00     0.033 C 
HETATM   24  O1  UNL     1      -2.828  -1.000  -3.178  1.00  0.00    -0.226 OA
HETATM   25  C24 UNL     1      -5.580  -1.504  -2.348  1.00  0.00     0.003 C 
HETATM   26  C32 UNL     1      -0.127   2.572  -2.166  1.00  0.00     0.004 C 
HETATM   27  C33 UNL     1       1.682   0.629   0.709  1.00  0.00     0.000 C 
HETATM   28  C34 UNL     1       4.129   0.137  -3.141  1.00  0.00     0.000 C 
HETATM   29  C35 UNL     1       6.574   2.152   0.004  1.00  0.00     0.005 C 
HETATM   30  O10 UNL     1       6.799  -0.617  -2.395  1.00  0.00    -0.223 OA
ENDROOT
BRANCH  16  31
HETATM   31  C25 UNL     1      -2.611   0.250   1.111  1.00  0.00     0.273 C 
HETATM   32  O2  UNL     1      -1.563  -0.342   1.217  1.00  0.00    -0.264 OA
BRANCH  31  33
HETATM   33  O3  UNL     1      -3.611   0.146   1.982  1.00  0.00    -0.273 OA
BRANCH  33  34
HETATM   34  C26 UNL     1      -3.281  -0.680   3.090  1.00  0.00     0.276 C 
HETATM   35  C27 UNL     1      -4.336  -0.518   4.205  1.00  0.00     0.241 C 
HETATM   36  C28 UNL     1      -4.078  -1.502   5.367  1.00  0.00     0.220 C 
HETATM   37  O8  UNL     1      -4.287   0.814   4.682  1.00  0.00    -0.215 OA
HETATM   38  C29 UNL     1      -3.910  -2.934   4.807  1.00  0.00     0.215 C 
HETATM   39  O7  UNL     1      -5.164  -1.465   6.277  1.00  0.00    -0.218 OA
HETATM   40  C30 UNL     1      -2.875  -2.973   3.660  1.00  0.00     0.184 C 
HETATM   41  O6  UNL     1      -3.481  -3.805   5.838  1.00  0.00    -0.218 OA
HETATM   42  O4  UNL     1      -3.244  -2.033   2.658  1.00  0.00    -0.326 OA
BRANCH  40  43
HETATM   43  C31 UNL     1      -2.795  -4.340   2.973  1.00  0.00     0.214 C 
HETATM   44  O5  UNL     1      -1.713  -4.318   2.072  1.00  0.00    -0.218 OA
ENDBRANCH  40  43
ENDBRANCH  33  34
ENDBRANCH  31  33
ENDBRANCH  16  31
BRANCH   3  45
HETATM   45  C36 UNL     1       6.318   2.100  -2.443  1.00  0.00     0.185 C 
HETATM   46  O9  UNL     1       7.684   1.867  -2.705  1.00  0.00    -0.221 OA
ENDBRANCH   3  45
TORSDOF 5
