REMARK  0 active torsions:
REMARK  status: ('A' for Active; 'I' for Inactive)
ROOT
HETATM    1  C1  UNL     1      -3.533   0.758  -0.650  1.00  0.00    -0.004 C 
HETATM    2  C2  UNL     1      -3.690  -0.688  -0.428  1.00  0.00     0.001 C 
HETATM    3  C3  UNL     1      -2.662  -1.428   0.021  1.00  0.00     0.015 C 
HETATM    4  C4  UNL     1      -1.356  -0.805   0.313  1.00  0.00     0.064 C 
HETATM    5  C5  UNL     1      -1.248   0.713   0.402  1.00  0.00     0.125 C 
HETATM    6  C6  UNL     1      -2.412   1.412  -0.291  1.00  0.00    -0.016 C 
HETATM    7  C7  UNL     1       0.133   1.172  -0.121  1.00  0.00     0.379 C 
HETATM    8  N1  UNL     1       1.205   0.453   0.590  1.00  0.00     0.186 N 
HETATM    9  C8  UNL     1       1.033  -1.004   0.766  1.00  0.00     0.325 C 
HETATM   10  N2  UNL     1      -0.313  -1.541   0.484  1.00  0.00    -0.245 NA
HETATM   11  C9  UNL     1       2.119  -1.660  -0.084  1.00  0.00     0.061 C 
HETATM   12  C10 UNL     1       3.273  -0.688   0.129  1.00  0.00     0.040 C 
HETATM   13  C11 UNL     1       2.547   0.646   0.025  1.00  0.00     0.256 C 
HETATM   14  O1  UNL     1       0.299   2.561   0.102  1.00  0.00    -0.186 OA
ENDROOT
TORSDOF 0
