REMARK  0 active torsions:
REMARK  status: ('A' for Active; 'I' for Inactive)
ROOT
HETATM    1  C1  UNL     1      -4.783   1.912  -0.809  1.00  0.00     0.033 C 
HETATM    2  C2  UNL     1      -5.715   1.572   0.369  1.00  0.00     0.152 C 
HETATM    3  C3  UNL     1      -4.940   1.080   1.605  1.00  0.00     0.035 C 
HETATM    4  C4  UNL     1      -4.020  -0.109   1.248  1.00  0.00     0.033 C 
HETATM    5  C5  UNL     1      -3.045   0.291   0.107  1.00  0.00     0.003 C 
HETATM    6  C6  UNL     1      -3.842   0.742  -1.135  1.00  0.00     0.003 C 
HETATM    7  C7  UNL     1      -2.233  -0.975  -0.232  1.00  0.00     0.000 C 
HETATM    8  C8  UNL     1      -1.432  -1.463   0.979  1.00  0.00     0.003 C 
HETATM    9  C9  UNL     1      -2.391  -1.916   2.078  1.00  0.00     0.033 C 
HETATM   10  C10 UNL     1      -3.272  -0.707   2.467  1.00  0.00     0.152 C 
HETATM   11  O1  UNL     1      -4.201  -1.143   3.441  1.00  0.00    -0.224 OA
HETATM   12  C11 UNL     1      -0.588  -2.545   0.307  1.00  0.00     0.000 C 
HETATM   13  C12 UNL     1      -0.004  -1.766  -0.883  1.00  0.00     0.002 C 
HETATM   14  C13 UNL     1      -1.178  -0.881  -1.342  1.00  0.00     0.000 C 
HETATM   15  C14 UNL     1       1.219  -0.885  -0.529  1.00  0.00     0.024 C 
HETATM   16  C15 UNL     1       2.254  -1.627   0.340  1.00  0.00     0.032 C 
HETATM   17  C16 UNL     1       1.590  -2.272   1.574  1.00  0.00     0.003 C 
HETATM   18  C17 UNL     1       0.467  -3.231   1.176  1.00  0.00     0.000 C 
HETATM   19  C18 UNL     1       3.490  -0.723   0.658  1.00  0.00     0.145 C 
HETATM   20  C19 UNL     1       3.609   0.471  -0.332  1.00  0.00     0.105 C 
HETATM   21  N1  UNL     1       3.268   0.012  -1.690  1.00  0.00    -0.368 N 
HETATM   22  C20 UNL     1       1.851  -0.358  -1.846  1.00  0.00     0.097 C 
HETATM   23  C21 UNL     1       3.830   0.795  -2.809  1.00  0.00     0.097 C 
HETATM   24  C22 UNL     1       4.037   2.275  -2.441  1.00  0.00     0.022 C 
HETATM   25  C23 UNL     1       4.986   2.418  -1.234  1.00  0.00     0.004 C 
HETATM   26  C24 UNL     1       4.980   1.180  -0.322  1.00  0.00     0.025 C 
HETATM   27  C25 UNL     1       2.693   2.977  -2.193  1.00  0.00     0.002 C 
HETATM   28  O2  UNL     1       3.371  -0.158   1.951  1.00  0.00    -0.224 OA
HETATM   29  C26 UNL     1       4.766  -1.576   0.703  1.00  0.00     0.035 C 
HETATM   30  C27 UNL     1      -2.076   1.402   0.547  1.00  0.00     0.000 C 
HETATM   31  O3  UNL     1      -6.467   2.717   0.715  1.00  0.00    -0.224 OA
ENDROOT
TORSDOF 0
