REMARK  9 active torsions:
REMARK  status: ('A' for Active; 'I' for Inactive)
REMARK    1  A    between atoms: C2_2  and  O4_31 
REMARK    2  A    between atoms: O4_31  and  C28_32 
REMARK    3  A    between atoms: C29_33  and  O17_62 
REMARK    4  A    between atoms: C31_35  and  O7_40 
REMARK    5  A    between atoms: C32_36  and  C33_38 
REMARK    6  A    between atoms: O7_40  and  C34_41 
REMARK    7  A    between atoms: C37_44  and  O9_48 
REMARK    8  A    between atoms: O9_48  and  C40_49 
REMARK    9  A    between atoms: O17_62  and  C46_63 
ROOT
HETATM    1  C28 UNL     1      -1.272   0.551  -0.149  1.00  0.00     0.267 C 
HETATM    2  C29 UNL     1      -2.195   1.682  -0.670  1.00  0.00     0.207 C 
HETATM    3  C30 UNL     1      -2.891   1.266  -1.986  1.00  0.00     0.214 C 
HETATM    4  C31 UNL     1      -3.549  -0.123  -1.820  1.00  0.00     0.180 C 
HETATM    5  C32 UNL     1      -2.547  -1.154  -1.252  1.00  0.00     0.181 C 
HETATM    6  O5  UNL     1      -2.006  -0.660  -0.033  1.00  0.00    -0.326 OA
HETATM    7  O16 UNL     1      -3.875   2.225  -2.336  1.00  0.00    -0.218 OA
ENDROOT
BRANCH   1   8
HETATM    8  O4  UNL     1      -0.758   0.883   1.127  1.00  0.00    -0.331 OA
BRANCH   8   9
HETATM    9  C2  UNL     1       0.555   0.402   1.340  1.00  0.00     0.122 C 
HETATM   10  C1  UNL     1       1.092   0.953   2.674  1.00  0.00     0.030 C 
HETATM   11  C6  UNL     1       2.457   0.342   3.043  1.00  0.00     0.006 C 
HETATM   12  C5  UNL     1       2.447  -1.209   3.057  1.00  0.00     0.015 C 
HETATM   13  C4  UNL     1       1.924  -1.633   1.686  1.00  0.00    -0.047 C 
HETATM   14  C7  UNL     1       3.842  -1.822   3.385  1.00  0.00     0.004 C 
HETATM   15  C27 UNL     1       1.457  -1.693   4.129  1.00  0.00     0.004 C 
HETATM   16  C3  UNL     1       0.543  -1.135   1.318  1.00  0.00     0.051 C 
HETATM   17  C10 UNL     1       2.639  -2.369   0.807  1.00  0.00    -0.035 C 
HETATM   18  C9  UNL     1       4.053  -2.811   1.086  1.00  0.00     0.025 C 
HETATM   19  C8  UNL     1       4.738  -1.916   2.131  1.00  0.00     0.005 C 
HETATM   20  C11 UNL     1       6.094  -2.525   2.523  1.00  0.00     0.005 C 
HETATM   21  C12 UNL     1       6.817  -1.713   3.611  1.00  0.00     0.028 C 
HETATM   22  C17 UNL     1       7.145  -2.602   1.418  1.00  0.00     0.032 C 
HETATM   23  C13 UNL     1       5.936  -1.774   4.875  1.00  0.00     0.003 C 
HETATM   24  C15 UNL     1       8.207  -2.414   3.646  1.00  0.00     0.156 C 
HETATM   25  C26 UNL     1       6.957  -0.254   3.166  1.00  0.00     0.003 C 
HETATM   26  C14 UNL     1       4.559  -1.150   4.578  1.00  0.00     0.000 C 
HETATM   27  C16 UNL     1       8.395  -2.973   2.223  1.00  0.00     0.146 C 
HETATM   28  C19 UNL     1       9.479  -1.547   3.883  1.00  0.00     0.082 C 
HETATM   29  O3  UNL     1       8.154  -3.514   4.549  1.00  0.00    -0.223 OA
HETATM   30  O1  UNL     1       9.574  -2.402   1.693  1.00  0.00    -0.335 OA
HETATM   31  C18 UNL     1      10.035  -1.299   2.449  1.00  0.00     0.189 C 
HETATM   32  C21 UNL     1       9.541   0.027   1.801  1.00  0.00     0.057 C 
HETATM   33  O2  UNL     1      11.467  -1.356   2.424  1.00  0.00    -0.335 OA
HETATM   34  C22 UNL     1      10.592   0.664   0.881  1.00  0.00     0.007 C 
HETATM   35  C23 UNL     1      11.903   0.904   1.654  1.00  0.00     0.030 C 
HETATM   36  C24 UNL     1      12.123  -0.147   2.770  1.00  0.00     0.145 C 
HETATM   37  C25 UNL     1      11.963   2.322   2.232  1.00  0.00     0.003 C 
HETATM   38  C20 UNL     1      10.502  -2.195   4.834  1.00  0.00     0.008 C 
ENDBRANCH   8   9
ENDBRANCH   1   8
BRANCH   2  39
HETATM   39  O17 UNL     1      -1.426   2.852  -0.897  1.00  0.00    -0.324 OA
BRANCH  39  40
HETATM   40  C46 UNL     1      -1.273   3.648   0.262  1.00  0.00     0.270 C 
HETATM   41  C47 UNL     1      -2.076   4.967   0.121  1.00  0.00     0.241 C 
HETATM   42  C48 UNL     1      -1.793   5.918   1.307  1.00  0.00     0.220 C 
HETATM   43  O21 UNL     1      -3.463   4.670   0.078  1.00  0.00    -0.215 OA
HETATM   44  C49 UNL     1      -0.270   6.072   1.506  1.00  0.00     0.212 C 
HETATM   45  O20 UNL     1      -2.377   7.188   1.055  1.00  0.00    -0.218 OA
HETATM   46  C50 UNL     1       0.430   4.697   1.586  1.00  0.00     0.151 C 
HETATM   47  O19 UNL     1      -0.012   6.783   2.703  1.00  0.00    -0.218 OA
HETATM   48  O18 UNL     1       0.109   3.938   0.428  1.00  0.00    -0.329 OA
HETATM   49  C51 UNL     1       1.957   4.805   1.635  1.00  0.00     0.035 C 
ENDBRANCH  39  40
ENDBRANCH   2  39
BRANCH   5  50
HETATM   50  C33 UNL     1      -3.197  -2.504  -0.930  1.00  0.00     0.214 C 
HETATM   51  O6  UNL     1      -2.195  -3.377  -0.463  1.00  0.00    -0.218 OA
ENDBRANCH   5  50
BRANCH   4  52
HETATM   52  O7  UNL     1      -4.014  -0.588  -3.074  1.00  0.00    -0.326 OA
BRANCH  52  53
HETATM   53  C34 UNL     1      -5.324  -1.117  -3.022  1.00  0.00     0.270 C 
HETATM   54  C35 UNL     1      -5.641  -1.912  -4.315  1.00  0.00     0.241 C 
HETATM   55  C36 UNL     1      -7.119  -2.361  -4.342  1.00  0.00     0.217 C 
HETATM   56  O15 UNL     1      -4.801  -3.053  -4.381  1.00  0.00    -0.215 OA
HETATM   57  C37 UNL     1      -8.041  -1.156  -4.047  1.00  0.00     0.178 C 
HETATM   58  O14 UNL     1      -7.434  -2.906  -5.615  1.00  0.00    -0.218 OA
HETATM   59  C38 UNL     1      -7.604  -0.416  -2.762  1.00  0.00     0.148 C 
HETATM   60  O8  UNL     1      -6.238  -0.037  -2.881  1.00  0.00    -0.329 OA
HETATM   61  C39 UNL     1      -8.399   0.869  -2.514  1.00  0.00     0.035 C 
BRANCH  57  62
HETATM   62  O9  UNL     1      -9.375  -1.604  -3.879  1.00  0.00    -0.326 OA
BRANCH  62  63
HETATM   63  C40 UNL     1     -10.324  -0.783  -4.531  1.00  0.00     0.270 C 
HETATM   64  C41 UNL     1     -11.758  -1.123  -4.049  1.00  0.00     0.241 C 
HETATM   65  C42 UNL     1     -12.817  -0.348  -4.865  1.00  0.00     0.220 C 
HETATM   66  O13 UNL     1     -11.883  -0.787  -2.676  1.00  0.00    -0.215 OA
HETATM   67  C43 UNL     1     -12.551  -0.525  -6.375  1.00  0.00     0.212 C 
HETATM   68  O12 UNL     1     -14.113  -0.822  -4.545  1.00  0.00    -0.218 OA
HETATM   69  C44 UNL     1     -11.082  -0.203  -6.731  1.00  0.00     0.151 C 
HETATM   70  O11 UNL     1     -13.397   0.338  -7.117  1.00  0.00    -0.218 OA
HETATM   71  O10 UNL     1     -10.219  -1.000  -5.932  1.00  0.00    -0.329 OA
HETATM   72  C45 UNL     1     -10.738  -0.510  -8.192  1.00  0.00     0.035 C 
ENDBRANCH  62  63
ENDBRANCH  57  62
ENDBRANCH  52  53
ENDBRANCH   4  52
TORSDOF 9
