REMARK  10 active torsions:
REMARK  status: ('A' for Active; 'I' for Inactive)
REMARK    1  A    between atoms: C1_1  and  C2_2 
REMARK    2  A    between atoms: C1_1  and  C4_4 
REMARK    3  A    between atoms: C4_4  and  C5_5 
REMARK    4  A    between atoms: C6_6  and  C7_7 
REMARK    5  A    between atoms: C7_7  and  C8_8 
REMARK    6  A    between atoms: C9_9  and  C10_10 
REMARK    7  A    between atoms: C10_10  and  C11_11 
REMARK    8  A    between atoms: C11_11  and  C12_12 
REMARK    9  A    between atoms: C12_12  and  C13_13 
REMARK   10  A    between atoms: C13_13  and  C14_14 
ROOT
HETATM    1  C8  UNL     1       0.498   0.683   0.231  1.00  0.00    -0.077 C 
HETATM    2  C9  UNL     1       0.067   0.093  -0.708  1.00  0.00    -0.090 C 
ENDROOT
BRANCH   1   3
HETATM    3  C7  UNL     1       1.026   1.408   1.383  1.00  0.00     0.151 C 
BRANCH   3   4
HETATM    4  C6  UNL     1       0.562   0.771   2.613  1.00  0.00    -0.077 C 
HETATM    5  C5  UNL     1       0.184   0.253   3.615  1.00  0.00    -0.090 C 
BRANCH   5   6
HETATM    6  C4  UNL     1      -0.280  -0.383   4.844  1.00  0.00     0.076 C 
BRANCH   6   7
HETATM    7  C1  UNL     1       0.261   0.358   6.068  1.00  0.00     0.014 C 
BRANCH   7   8
HETATM    8  C2  UNL     1      -0.196  -0.268   7.386  1.00  0.00     0.001 C 
HETATM    9  C3  UNL     1       0.345   0.473   8.609  1.00  0.00     0.000 C 
ENDBRANCH   7   8
ENDBRANCH   6   7
ENDBRANCH   5   6
ENDBRANCH   3   4
ENDBRANCH   1   3
BRANCH   2  10
HETATM   10  C10 UNL     1      -0.461  -0.632  -1.860  1.00  0.00     0.076 C 
BRANCH  10  11
HETATM   11  C11 UNL     1       0.011   0.015  -3.162  1.00  0.00     0.014 C 
BRANCH  11  12
HETATM   12  C12 UNL     1      -0.515  -0.705  -4.404  1.00  0.00     0.001 C 
BRANCH  12  13
HETATM   13  C13 UNL     1      -0.043  -0.058  -5.706  1.00  0.00     0.000 C 
BRANCH  13  14
HETATM   14  C14 UNL     1      -0.568  -0.779  -6.948  1.00  0.00     0.000 C 
HETATM   15  C15 UNL     1      -0.096  -0.132  -8.250  1.00  0.00     0.000 C 
ENDBRANCH  13  14
ENDBRANCH  12  13
ENDBRANCH  11  12
ENDBRANCH  10  11
ENDBRANCH   2  10
TORSDOF 10
