REMARK  5 active torsions:
REMARK  status: ('A' for Active; 'I' for Inactive)
REMARK    1  A    between atoms: C15_17  and  C18_20 
REMARK    2  A    between atoms: C18_20  and  C20_22 
REMARK    3  A    between atoms: C20_22  and  C21_23 
REMARK    4  A    between atoms: C21_23  and  C22_24 
REMARK    5  A    between atoms: C22_24  and  C23_25 
ROOT
HETATM    1  C1  UNL     1      -1.831  -2.407   2.432  1.00  0.00     0.033 C 
HETATM    2  C2  UNL     1      -1.848  -3.910   2.173  1.00  0.00     0.152 C 
HETATM    3  C3  UNL     1      -1.307  -4.261   0.788  1.00  0.00     0.033 C 
HETATM    4  C4  UNL     1       0.091  -3.648   0.597  1.00  0.00     0.005 C 
HETATM    5  C5  UNL     1       0.100  -2.105   0.733  1.00  0.00     0.000 C 
HETATM    6  C6  UNL     1      -0.453  -1.785   2.145  1.00  0.00     0.003 C 
HETATM    7  C7  UNL     1       1.542  -1.562   0.471  1.00  0.00     0.005 C 
HETATM    8  C8  UNL     1       2.636  -2.625   0.277  1.00  0.00     0.031 C 
HETATM    9  C9  UNL     1       2.208  -3.578  -0.851  1.00  0.00     0.152 C 
HETATM   10  C10 UNL     1       0.774  -4.113  -0.697  1.00  0.00     0.033 C 
HETATM   11  O1  UNL     1       2.309  -2.935  -2.100  1.00  0.00    -0.224 OA
HETATM   12  C11 UNL     1       4.081  -2.031   0.299  1.00  0.00     0.005 C 
HETATM   13  C12 UNL     1       4.299  -0.492   0.101  1.00  0.00     0.028 C 
HETATM   14  C13 UNL     1       3.142   0.319   0.730  1.00  0.00     0.152 C 
HETATM   15  C14 UNL     1       2.080  -0.510   1.446  1.00  0.00     0.033 C 
HETATM   16  O2  UNL     1       2.460   1.099  -0.223  1.00  0.00    -0.224 OA
HETATM   17  C15 UNL     1       4.539  -0.361  -1.436  1.00  0.00     0.002 C 
HETATM   18  C16 UNL     1       5.332  -1.652  -1.769  1.00  0.00     0.000 C 
HETATM   19  C17 UNL     1       5.095  -2.680  -0.656  1.00  0.00     0.000 C 
HETATM   20  C27 UNL     1       5.605  -0.100   0.849  1.00  0.00     0.003 C 
HETATM   21  C28 UNL     1      -0.823  -1.420  -0.310  1.00  0.00     0.000 C 
HETATM   22  O5  UNL     1      -3.167  -4.389   2.296  1.00  0.00    -0.224 OA
ENDROOT
BRANCH  17  23
HETATM   23  C18 UNL     1       5.252   0.873  -2.078  1.00  0.00     0.000 C 
HETATM   24  C19 UNL     1       5.513   0.598  -3.583  1.00  0.00     0.000 C 
BRANCH  23  25
HETATM   25  C20 UNL     1       4.520   2.239  -2.027  1.00  0.00     0.003 C 
BRANCH  25  26
HETATM   26  C21 UNL     1       4.755   3.085  -0.765  1.00  0.00     0.033 C 
BRANCH  26  27
HETATM   27  C22 UNL     1       4.058   4.458  -0.710  1.00  0.00     0.152 C 
HETATM   28  C26 UNL     1       2.671   4.445  -1.367  1.00  0.00     0.036 C 
HETATM   29  O4  UNL     1       4.840   5.357  -1.458  1.00  0.00    -0.224 OA
BRANCH  27  30
HETATM   30  C23 UNL     1       4.005   5.036   0.719  1.00  0.00     0.152 C 
HETATM   31  C24 UNL     1       5.345   4.945   1.460  1.00  0.00     0.036 C 
HETATM   32  O3  UNL     1       3.711   6.406   0.591  1.00  0.00    -0.224 OA
HETATM   33  C25 UNL     1       2.905   4.427   1.596  1.00  0.00     0.036 C 
ENDBRANCH  27  30
ENDBRANCH  26  27
ENDBRANCH  25  26
ENDBRANCH  23  25
ENDBRANCH  17  23
TORSDOF 5
