REMARK  1 active torsions:
REMARK  status: ('A' for Active; 'I' for Inactive)
REMARK    1  A    between atoms: C7_8  and  C10_13 
ROOT
HETATM    1  C1  UNL     1      -1.468   1.491  -0.301  1.00  0.00     0.135 A 
HETATM    2  C2  UNL     1      -1.036   2.757   0.096  1.00  0.00     0.055 A 
HETATM    3  C3  UNL     1       0.317   3.103   0.189  1.00  0.00     0.138 A 
HETATM    4  C4  UNL     1       1.257   2.113  -0.140  1.00  0.00     0.089 A 
HETATM    5  C5  UNL     1       0.875   0.831  -0.564  1.00  0.00     0.107 A 
HETATM    6  C6  UNL     1      -0.492   0.550  -0.640  1.00  0.00     0.052 A 
HETATM    7  O1  UNL     1       1.792  -0.103  -0.944  1.00  0.00    -0.305 OA
HETATM    8  C7  UNL     1       3.004  -0.061  -0.315  1.00  0.00     0.132 C 
HETATM    9  C8  UNL     1       3.528   1.100   0.140  1.00  0.00     0.193 C 
HETATM   10  C9  UNL     1       2.718   2.343  -0.001  1.00  0.00     0.227 C 
HETATM   11  O2  UNL     1       3.217   3.452   0.160  1.00  0.00    -0.284 OA
HETATM   12  O3  UNL     1       4.707   1.192   0.808  1.00  0.00    -0.185 OA
HETATM   13  O6  UNL     1       0.657   4.355   0.601  1.00  0.00    -0.190 OA
HETATM   14  O7  UNL     1      -2.789   1.181  -0.374  1.00  0.00    -0.190 OA
ENDROOT
BRANCH   8  15
HETATM   15  C10 UNL     1       3.755  -1.334  -0.105  1.00  0.00     0.076 A 
HETATM   16  C11 UNL     1       3.039  -2.437   0.399  1.00  0.00     0.135 A 
HETATM   17  O4  UNL     1       1.723  -2.347   0.734  1.00  0.00    -0.190 OA
HETATM   18  C12 UNL     1       3.715  -3.641   0.602  1.00  0.00     0.028 A 
HETATM   19  C13 UNL     1       5.070  -3.770   0.294  1.00  0.00     0.004 A 
HETATM   20  C14 UNL     1       5.756  -2.675  -0.224  1.00  0.00     0.028 A 
HETATM   21  C15 UNL     1       5.116  -1.448  -0.429  1.00  0.00     0.135 A 
HETATM   22  O5  UNL     1       5.810  -0.410  -0.968  1.00  0.00    -0.190 OA
ENDBRANCH   8  15
TORSDOF 1
