REMARK  0 active torsions:
REMARK  status: ('A' for Active; 'I' for Inactive)
ROOT
HETATM    1  C1  UNL     1      -2.609   1.959   1.290  1.00  0.00     0.002 A 
HETATM    2  C2  UNL     1      -2.630   0.537   1.364  1.00  0.00     0.000 A 
HETATM    3  C3  UNL     1      -1.466  -0.202   1.346  1.00  0.00     0.001 A 
HETATM    4  C4  UNL     1      -0.241   0.506   1.251  1.00  0.00     0.015 A 
HETATM    5  C5  UNL     1      -0.221   1.903   1.182  1.00  0.00     0.081 A 
HETATM    6  C6  UNL     1      -1.422   2.656   1.200  1.00  0.00     0.019 A 
HETATM    7  N1  UNL     1       1.101   2.289   1.075  1.00  0.00    -0.248 NA
HETATM    8  C7  UNL     1       1.922   1.167   1.065  1.00  0.00     0.086 A 
HETATM    9  C8  UNL     1       1.112   0.067   1.178  1.00  0.00    -0.003 A 
HETATM   10  C9  UNL     1       1.649  -1.323   1.139  1.00  0.00     0.061 C 
HETATM   11  C10 UNL     1       3.054  -1.282   0.514  1.00  0.00     0.229 C 
HETATM   12  N2  UNL     1       3.929  -0.256   1.179  1.00  0.00     0.137 N 
HETATM   13  C11 UNL     1       3.412   1.075   0.869  1.00  0.00     0.258 C 
HETATM   14  C12 UNL     1       3.754   1.316  -0.604  1.00  0.00     0.040 C 
HETATM   15  C13 UNL     1       4.175  -0.019  -1.241  1.00  0.00     0.014 C 
HETATM   16  C14 UNL     1       5.691  -0.111  -0.938  1.00  0.00     0.061 C 
HETATM   17  C15 UNL     1       5.377  -0.322   0.739  1.00  0.00     0.222 C 
HETATM   18  C16 UNL     1       6.263   0.682   1.505  1.00  0.00     0.035 C 
HETATM   19  C17 UNL     1       5.751  -1.272  -2.146  1.00  0.00     0.147 C 
HETATM   20  O1  UNL     1       4.545  -1.619  -2.848  1.00  0.00    -0.329 OA
HETATM   21  C18 UNL     1       3.474  -2.096  -2.032  1.00  0.00     0.271 C 
HETATM   22  C19 UNL     1       3.007  -0.996  -1.055  1.00  0.00     0.091 C 
HETATM   23  O2  UNL     1       2.515  -2.321  -3.050  1.00  0.00    -0.190 OA
ENDROOT
TORSDOF 0
