REMARK  4 active torsions:
REMARK  status: ('A' for Active; 'I' for Inactive)
REMARK    1  A    between atoms: C3_4  and  C5_6 
REMARK    2  A    between atoms: C5_6  and  C6_7 
REMARK    3  A    between atoms: C6_7  and  C7_8 
REMARK    4  A    between atoms: C7_8  and  C8_9 
ROOT
HETATM    1  C5  UNL     1       0.328   1.426   0.728  1.00  0.00     0.175 C 
HETATM    2  O2  UNL     1      -0.684   2.012   1.096  1.00  0.00    -0.291 OA
ENDROOT
BRANCH   1   3
HETATM    3  C3  UNL     1       1.665   1.925   1.117  1.00  0.00     0.061 A 
HETATM    4  C2  UNL     1       1.924   3.065   1.945  1.00  0.00     0.032 A 
HETATM    5  C1  UNL     1       3.281   3.137   2.037  1.00  0.00     0.123 A 
HETATM    6  O1  UNL     1       3.880   2.133   1.329  1.00  0.00    -0.303 OA
HETATM    7  C4  UNL     1       2.879   1.399   0.773  1.00  0.00     0.126 A 
ENDBRANCH   1   3
BRANCH   1   8
HETATM    8  C6  UNL     1       0.268   0.162  -0.117  1.00  0.00     0.069 C 
BRANCH   8   9
HETATM    9  C7  UNL     1      -1.161  -0.282  -0.470  1.00  0.00     0.008 C 
BRANCH   9  10
HETATM   10  C8  UNL     1      -1.237  -1.556  -1.337  1.00  0.00     0.000 C 
HETATM   11  C9  UNL     1      -0.616  -2.781  -0.644  1.00  0.00     0.000 C 
HETATM   12  C10 UNL     1      -2.703  -1.855  -1.699  1.00  0.00     0.000 C 
ENDBRANCH   9  10
ENDBRANCH   8   9
ENDBRANCH   1   8
TORSDOF 4
