REMARK  2 active torsions:
REMARK  status: ('A' for Active; 'I' for Inactive)
REMARK    1  A    between atoms: O1_2  and  C2_3 
REMARK    2  A    between atoms: C3_4  and  O2_5 
ROOT
HETATM    1  C2  UNL     1      -0.982   0.596  -0.049  1.00  0.00     0.116 A 
HETATM    2  C3  UNL     1      -0.976  -0.815  -0.108  1.00  0.00     0.118 A 
HETATM    3  C5  UNL     1       0.259  -1.477  -0.088  1.00  0.00     0.051 A 
HETATM    4  C6  UNL     1       1.499  -0.830  -0.025  1.00  0.00     0.102 A 
HETATM    5  C7  UNL     1       1.472   0.570   0.008  1.00  0.00     0.026 A 
HETATM    6  C8  UNL     1       0.250   1.257  -0.005  1.00  0.00     0.028 A 
HETATM    7  C9  UNL     1       2.737   1.290   0.056  1.00  0.00     0.023 A 
HETATM    8  C10 UNL     1       3.905   0.589   0.079  1.00  0.00     0.106 A 
HETATM    9  C11 UNL     1       3.835  -0.870   0.048  1.00  0.00     0.121 A 
HETATM   10  O3  UNL     1       2.655  -1.557  -0.011  1.00  0.00    -0.305 OA
HETATM   11  C12 UNL     1       5.017  -1.540   0.079  1.00  0.00     0.071 A 
HETATM   12  C13 UNL     1       6.310  -0.845   0.139  1.00  0.00     0.235 A 
HETATM   13  C14 UNL     1       6.258   0.651   0.159  1.00  0.00     0.223 A 
HETATM   14  N1  UNL     1       5.122   1.296   0.129  1.00  0.00    -0.221 NA
HETATM   15  N2  UNL     1       7.456   1.319   0.208  1.00  0.00    -0.124 N 
HETATM   16  O4  UNL     1       7.372  -1.465   0.168  1.00  0.00    -0.283 OA
ENDROOT
BRANCH   1  17
HETATM   17  O1  UNL     1      -2.200   1.234  -0.068  1.00  0.00    -0.326 OA
HETATM   18  C1  UNL     1      -2.229   2.641  -0.125  1.00  0.00     0.181 C 
ENDBRANCH   1  17
BRANCH   2  19
HETATM   19  O2  UNL     1      -2.192  -1.454  -0.173  1.00  0.00    -0.326 OA
HETATM   20  C4  UNL     1      -2.222  -2.861  -0.223  1.00  0.00     0.181 C 
ENDBRANCH   2  19
TORSDOF 2
