REMARK  2 active torsions:
REMARK  status: ('A' for Active; 'I' for Inactive)
REMARK    1  A    between atoms: C18_20  and  C19_21 
REMARK    2  A    between atoms: C19_21  and  O1_22 
ROOT
HETATM    1  C1  UNL     1      -2.629  -1.216  -0.899  1.00  0.00     0.000 A 
HETATM    2  C2  UNL     1      -2.533  -2.637  -0.959  1.00  0.00     0.002 A 
HETATM    3  C3  UNL     1      -1.310  -3.271  -0.958  1.00  0.00     0.019 A 
HETATM    4  C4  UNL     1      -0.151  -2.452  -0.911  1.00  0.00     0.081 A 
HETATM    5  C5  UNL     1      -0.236  -1.055  -0.861  1.00  0.00     0.015 A 
HETATM    6  C6  UNL     1      -1.506  -0.419  -0.844  1.00  0.00     0.001 A 
HETATM    7  C7  UNL     1       1.092  -0.529  -0.848  1.00  0.00     0.002 A 
HETATM    8  C8  UNL     1       1.940  -1.614  -0.873  1.00  0.00     0.112 A 
HETATM    9  N1  UNL     1       1.183  -2.776  -0.916  1.00  0.00    -0.243 NA
HETATM   10  C9  UNL     1       3.442  -1.603  -0.881  1.00  0.00     0.191 C 
HETATM   11  C10 UNL     1       4.216  -1.076   0.325  1.00  0.00     0.075 C 
HETATM   12  C11 UNL     1       4.005   0.382   0.781  1.00  0.00     0.039 C 
HETATM   13  C12 UNL     1       4.310   1.455  -0.250  1.00  0.00    -0.024 C 
HETATM   14  C13 UNL     1       5.006   1.228  -1.379  1.00  0.00    -0.032 C 
HETATM   15  C14 UNL     1       5.335   2.266  -2.420  1.00  0.00     0.030 C 
HETATM   16  C15 UNL     1       3.799   2.831   0.118  1.00  0.00     0.142 C 
HETATM   17  N2  UNL     1       2.365   2.824   0.423  1.00  0.00    -0.292 NA
HETATM   18  C16 UNL     1       1.748   1.500   0.522  1.00  0.00     0.113 C 
HETATM   19  C17 UNL     1       1.463   0.926  -0.878  1.00  0.00     0.052 C 
HETATM   20  C18 UNL     1       2.603   0.575   1.406  1.00  0.00     0.113 C 
HETATM   21  O3  UNL     1       4.027  -2.235  -1.747  1.00  0.00    -0.290 OA
ENDROOT
BRANCH  20  22
HETATM   22  C19 UNL     1       2.662   1.081   2.854  1.00  0.00     0.274 C 
HETATM   23  O2  UNL     1       3.272   2.091   3.143  1.00  0.00    -0.264 OA
BRANCH  22  24
HETATM   24  O1  UNL     1       2.014   0.360   3.817  1.00  0.00    -0.299 OA
HETATM   25  C20 UNL     1       1.338  -0.847   3.559  1.00  0.00     0.184 C 
ENDBRANCH  22  24
ENDBRANCH  20  22
TORSDOF 2
