REMARK  3 active torsions:
REMARK  status: ('A' for Active; 'I' for Inactive)
REMARK    1  A    between atoms: C9_10  and  O4_19 
REMARK    2  A    between atoms: C12_13  and  O2_14 
REMARK    3  A    between atoms: O2_14  and  C13_15 
ROOT
HETATM    1  O1  UNL     1       4.580  -1.787  -0.665  1.00  0.00    -0.298 OA
HETATM    2  C1  UNL     1       5.598  -0.902  -0.525  1.00  0.00     0.292 C 
HETATM    3  C2  UNL     1       5.137   0.483  -0.340  1.00  0.00     0.046 C 
HETATM    4  C3  UNL     1       3.648   0.437  -0.567  1.00  0.00     0.090 C 
HETATM    5  C4  UNL     1       3.361  -1.082  -0.489  1.00  0.00     0.161 C 
HETATM    6  C5  UNL     1       2.261  -1.533  -1.449  1.00  0.00     0.168 A 
HETATM    7  C6  UNL     1       1.290  -2.504  -1.015  1.00  0.00     0.120 A 
HETATM    8  C7  UNL     1      -0.083  -2.409  -1.661  1.00  0.00     0.033 C 
HETATM    9  C8  UNL     1      -1.100  -1.565  -0.873  1.00  0.00     0.040 C 
HETATM   10  C9  UNL     1      -0.707  -0.087  -0.681  1.00  0.00     0.177 C 
HETATM   11  C10 UNL     1       0.391   0.200   0.344  1.00  0.00     0.006 C 
HETATM   12  C11 UNL     1       1.317   1.376   0.067  1.00  0.00     0.002 C 
HETATM   13  C12 UNL     1       2.828   1.336   0.371  1.00  0.00     0.153 C 
HETATM   14  C15 UNL     1       0.357  -0.403   1.544  1.00  0.00    -0.002 C 
HETATM   15  C16 UNL     1       1.447  -3.410   0.195  1.00  0.00     0.032 C 
HETATM   16  O6  UNL     1       2.488  -2.798  -2.026  1.00  0.00    -0.354 OA
HETATM   17  C17 UNL     1       5.937   1.527  -0.064  1.00  0.00     0.001 C 
HETATM   18  O7  UNL     1       6.781  -1.225  -0.575  1.00  0.00    -0.260 OA
ENDROOT
BRANCH  13  19
HETATM   19  O2  UNL     1       3.109   0.983   1.692  1.00  0.00    -0.299 OA
BRANCH  19  20
HETATM   20  C13 UNL     1       3.330   1.867   2.707  1.00  0.00     0.273 C 
HETATM   21  O3  UNL     1       3.590   1.492   3.831  1.00  0.00    -0.264 OA
HETATM   22  C14 UNL     1       3.224   3.345   2.381  1.00  0.00     0.106 C 
ENDBRANCH  19  20
ENDBRANCH  13  19
BRANCH  10  23
HETATM   23  O4  UNL     1      -1.891   0.608  -0.324  1.00  0.00    -0.188 OA
HETATM   24  O5  UNL     1      -1.623   2.022  -0.627  1.00  0.00    -0.034 OA
ENDBRANCH  10  23
TORSDOF 3
