REMARK  4 active torsions:
REMARK  status: ('A' for Active; 'I' for Inactive)
REMARK    1  A    between atoms: C2_2  and  C3_3 
REMARK    2  A    between atoms: C10_11  and  O2_14 
REMARK    3  A    between atoms: O2_14  and  C13_15 
REMARK    4  A    between atoms: C13_15  and  C14_17 
ROOT
HETATM    1  C3  UNL     1       5.870  -0.166   1.322  1.00  0.00     0.040 A 
HETATM    2  C4  UNL     1       6.354  -1.301   0.497  1.00  0.00     0.193 A 
HETATM    3  O1  UNL     1       7.413  -1.865   0.749  1.00  0.00    -0.287 OA
HETATM    4  C5  UNL     1       5.510  -1.735  -0.636  1.00  0.00     0.034 A 
HETATM    5  C6  UNL     1       4.348  -1.133  -0.946  1.00  0.00    -0.038 A 
HETATM    6  C7  UNL     1       3.789   0.042  -0.166  1.00  0.00     0.036 A 
HETATM    7  C8  UNL     1       4.707   0.420   0.983  1.00  0.00    -0.022 A 
HETATM    8  C9  UNL     1       2.391  -0.381   0.376  1.00  0.00     0.035 C 
HETATM    9  C10 UNL     1       1.469  -0.923  -0.740  1.00  0.00     0.125 C 
HETATM   10  C11 UNL     1       2.147  -2.078  -1.487  1.00  0.00     0.035 C 
HETATM   11  C12 UNL     1       3.494  -1.652  -2.076  1.00  0.00     0.025 C 
HETATM   12  C18 UNL     1       1.673   0.726   1.172  1.00  0.00     0.003 C 
HETATM   13  C19 UNL     1       3.745   1.284  -1.085  1.00  0.00     0.009 C 
ENDROOT
BRANCH   9  14
HETATM   14  O2  UNL     1       0.271  -1.417  -0.209  1.00  0.00    -0.301 OA
BRANCH  14  15
HETATM   15  C13 UNL     1      -0.912  -0.743  -0.342  1.00  0.00     0.291 C 
HETATM   16  O3  UNL     1      -1.898  -1.171   0.251  1.00  0.00    -0.260 OA
BRANCH  15  17
HETATM   17  C14 UNL     1      -1.151   0.542  -1.103  1.00  0.00     0.037 C 
HETATM   18  C15 UNL     1      -1.072   0.596  -2.449  1.00  0.00    -0.025 C 
HETATM   19  C16 UNL     1      -0.782  -0.524  -3.438  1.00  0.00     0.030 C 
HETATM   20  C17 UNL     1      -1.636   1.729  -0.303  1.00  0.00     0.036 C 
ENDBRANCH  15  17
ENDBRANCH  14  15
ENDBRANCH   9  14
BRANCH   1  21
HETATM   21  C2  UNL     1       6.738   0.309   2.480  1.00  0.00     0.148 C 
HETATM   22  C1  UNL     1       5.994   1.107   3.556  1.00  0.00     0.038 C 
HETATM   23  O4  UNL     1       7.282  -0.824   3.129  1.00  0.00    -0.221 OA
HETATM   24  C20 UNL     1       7.900   1.144   1.934  1.00  0.00     0.038 C 
ENDBRANCH   1  21
TORSDOF 4
