REMARK  6 active torsions:
REMARK  status: ('A' for Active; 'I' for Inactive)
REMARK    1  A    between atoms: C10_12  and  O6_25 
REMARK    2  A    between atoms: C11_13  and  C12_15 
REMARK    3  A    between atoms: C12_15  and  O4_17 
REMARK    4  A    between atoms: O4_17  and  C14_18 
REMARK    5  A    between atoms: C14_18  and  C15_20 
REMARK    6  A    between atoms: O6_25  and  C20_26 
ROOT
HETATM    1  C1  UNL     1       2.230  -2.898   0.558  1.00  0.00     0.024 A 
HETATM    2  C2  UNL     1       2.715  -1.798  -0.150  1.00  0.00     0.094 A 
HETATM    3  C3  UNL     1       1.882  -0.989  -0.913  1.00  0.00     0.053 A 
HETATM    4  C4  UNL     1       0.504  -1.212  -0.997  1.00  0.00     0.103 A 
HETATM    5  C5  UNL     1       0.013  -2.314  -0.269  1.00  0.00     0.023 A 
HETATM    6  C6  UNL     1       0.862  -3.147   0.487  1.00  0.00     0.004 A 
HETATM    7  C7  UNL     1      -1.424  -2.579  -0.296  1.00  0.00     0.007 A 
HETATM    8  C8  UNL     1      -2.228  -1.750  -0.996  1.00  0.00     0.069 A 
HETATM    9  C9  UNL     1      -1.627  -0.609  -1.721  1.00  0.00     0.300 A 
HETATM   10  O1  UNL     1      -0.285  -0.373  -1.732  1.00  0.00    -0.273 OA
HETATM   11  O2  UNL     1      -2.389   0.144  -2.327  1.00  0.00    -0.259 OA
HETATM   12  C10 UNL     1       2.675   0.135  -1.538  1.00  0.00     0.180 C 
HETATM   13  C11 UNL     1       4.119  -0.272  -1.120  1.00  0.00     0.178 C 
HETATM   14  O3  UNL     1       4.015  -1.348  -0.185  1.00  0.00    -0.328 OA
ENDROOT
BRANCH  13  15
HETATM   15  C12 UNL     1       5.258   0.727  -0.764  1.00  0.00     0.130 C 
HETATM   16  C13 UNL     1       6.446   0.424  -1.713  1.00  0.00     0.033 C 
HETATM   17  C19 UNL     1       4.972   2.224  -0.956  1.00  0.00     0.033 C 
BRANCH  15  18
HETATM   18  O4  UNL     1       5.801   0.527   0.512  1.00  0.00    -0.301 OA
BRANCH  18  19
HETATM   19  C14 UNL     1       5.075   0.408   1.663  1.00  0.00     0.295 C 
HETATM   20  O5  UNL     1       5.686   0.199   2.709  1.00  0.00    -0.259 OA
BRANCH  19  21
HETATM   21  C15 UNL     1       3.604   0.621   1.795  1.00  0.00     0.060 C 
HETATM   22  C16 UNL     1       2.784  -0.049   2.631  1.00  0.00    -0.038 C 
HETATM   23  C17 UNL     1       1.308   0.276   2.684  1.00  0.00     0.026 C 
HETATM   24  C18 UNL     1       3.211  -1.169   3.551  1.00  0.00     0.026 C 
ENDBRANCH  19  21
ENDBRANCH  18  19
ENDBRANCH  15  18
ENDBRANCH  13  15
BRANCH  12  25
HETATM   25  O6  UNL     1       2.238   1.364  -1.021  1.00  0.00    -0.297 OA
BRANCH  25  26
HETATM   26  C20 UNL     1       1.518   2.199  -1.819  1.00  0.00     0.273 C 
HETATM   27  C21 UNL     1       1.156   3.460  -1.063  1.00  0.00     0.106 C 
HETATM   28  O7  UNL     1       1.214   1.977  -2.970  1.00  0.00    -0.264 OA
ENDBRANCH  25  26
ENDBRANCH  12  25
TORSDOF 6
