REMARK  1 active torsions:
REMARK  status: ('A' for Active; 'I' for Inactive)
REMARK    1  A    between atoms: C16_16  and  C24_24 
ROOT
HETATM    1  C1  UNL     1       1.268  -2.257  -1.081  1.00  0.00     0.033 C 
HETATM    2  C2  UNL     1       1.209  -2.383   0.651  1.00  0.00     0.152 C 
HETATM    3  C3  UNL     1      -0.160  -1.885   1.614  1.00  0.00     0.028 C 
HETATM    4  C4  UNL     1      -1.264  -0.734   0.692  1.00  0.00     0.002 A 
HETATM    5  C5  UNL     1      -0.993  -0.228  -1.091  1.00  0.00     0.001 C 
HETATM    6  C6  UNL     1       0.195  -1.252  -2.043  1.00  0.00     0.003 C 
HETATM    7  C7  UNL     1      -0.021   0.859  -0.997  1.00  0.00     0.005 C 
HETATM    8  C8  UNL     1       0.596  -0.295  -0.167  1.00  0.00     0.004 C 
HETATM    9  C9  UNL     1      -0.664  -1.896  -0.346  1.00  0.00     0.000 A 
HETATM   10  C10 UNL     1      -2.130  -1.789   0.164  1.00  0.00     0.000 A 
HETATM   11  C11 UNL     1       2.206   0.284  -0.757  1.00  0.00     0.015 C 
HETATM   12  C12 UNL     1       2.301   1.894  -0.609  1.00  0.00    -0.049 C 
HETATM   13  C13 UNL     1       1.225   2.716  -0.501  1.00  0.00    -0.035 C 
HETATM   14  C14 UNL     1      -0.214   2.262  -0.484  1.00  0.00     0.025 C 
HETATM   15  C15 UNL     1       3.654   2.608  -0.476  1.00  0.00     0.028 C 
HETATM   16  C16 UNL     1       4.377   2.118   0.794  1.00  0.00     0.082 C 
HETATM   17  C17 UNL     1       4.717   0.712   0.277  1.00  0.00     0.010 C 
HETATM   18  C18 UNL     1       3.488  -0.194   0.030  1.00  0.00     0.004 C 
HETATM   19  C19 UNL     1       5.587   1.265  -0.880  1.00  0.00     0.001 C 
HETATM   20  C20 UNL     1       6.636   2.073  -0.069  1.00  0.00     0.001 C 
HETATM   21  C21 UNL     1       5.753   2.805   0.956  1.00  0.00     0.011 C 
HETATM   22  C22 UNL     1       6.292   0.245  -1.775  1.00  0.00     0.000 C 
HETATM   23  C23 UNL     1       4.708   2.337  -1.567  1.00  0.00     0.005 C 
HETATM   24  C25 UNL     1       2.626   0.129  -2.260  1.00  0.00     0.004 C 
HETATM   25  C26 UNL     1       0.815   0.404   1.256  1.00  0.00     0.000 C 
HETATM   26  C27 UNL     1      -2.193   0.236  -1.936  1.00  0.00     0.000 C 
HETATM   27  C28 UNL     1       0.151  -1.441   3.102  1.00  0.00     0.003 C 
HETATM   28  C29 UNL     1      -0.825  -3.268   2.090  1.00  0.00     0.003 C 
HETATM   29  O3  UNL     1       1.530  -3.733   0.927  1.00  0.00    -0.224 OA
ENDROOT
BRANCH  16  30
HETATM   30  C24 UNL     1       3.590   2.291   2.075  1.00  0.00     0.184 C 
HETATM   31  O1  UNL     1       3.846   1.322   2.971  1.00  0.00    -0.647 OA
HETATM   32  O2  UNL     1       2.857   3.212   2.342  1.00  0.00    -0.647 OA
ENDBRANCH  16  30
TORSDOF 1
