REMARK  4 active torsions:
REMARK  status: ('A' for Active; 'I' for Inactive)
REMARK    1  A    between atoms: C12_14  and  C32_49 
REMARK    2  A    between atoms: C16_20  and  C17_21 
REMARK    3  A    between atoms: C32_49  and  C33_50 
REMARK    4  A    between atoms: C33_50  and  C35_53 
ROOT
HETATM    1  C1  UNL     1       6.340   3.879   1.743  1.00  0.00     0.001 A 
HETATM    2  C2  UNL     1       5.866   2.696   1.115  1.00  0.00     0.016 A 
HETATM    3  C3  UNL     1       6.782   1.829   0.510  1.00  0.00     0.082 A 
HETATM    4  C4  UNL     1       8.176   2.086   0.490  1.00  0.00     0.019 A 
HETATM    5  C5  UNL     1       8.614   3.241   1.100  1.00  0.00     0.002 A 
HETATM    6  C6  UNL     1       7.696   4.133   1.724  1.00  0.00     0.000 A 
HETATM    7  N1  UNL     1       6.054   0.777   0.014  1.00  0.00    -0.240 NA
HETATM    8  C7  UNL     1       4.716   0.967   0.297  1.00  0.00     0.103 A 
HETATM    9  C8  UNL     1       4.545   2.150   0.980  1.00  0.00     0.005 A 
HETATM   10  C9  UNL     1       3.320   2.823   1.545  1.00  0.00     0.062 C 
HETATM   11  C10 UNL     1       1.925   2.630   0.921  1.00  0.00     0.191 C 
HETATM   12  C11 UNL     1       1.836   2.842  -0.580  1.00  0.00     0.275 C 
HETATM   13  N2  UNL     1       0.738   2.284  -1.177  1.00  0.00    -0.229 NA
HETATM   14  C12 UNL     1       0.325   2.611  -2.552  1.00  0.00     0.189 C 
HETATM   15  C13 UNL     1      -0.999   1.902  -2.833  1.00  0.00     0.274 C 
HETATM   16  N3  UNL     1      -0.898   0.540  -2.857  1.00  0.00    -0.229 NA
HETATM   17  C14 UNL     1      -2.036  -0.358  -3.088  1.00  0.00     0.186 C 
HETATM   18  C15 UNL     1      -1.656  -1.715  -2.513  1.00  0.00     0.274 C 
HETATM   19  N4  UNL     1      -1.068  -1.633  -1.282  1.00  0.00    -0.226 NA
HETATM   20  C16 UNL     1      -0.346  -2.740  -0.655  1.00  0.00     0.217 C 
HETATM   21  C19 UNL     1       0.818  -2.090   0.085  1.00  0.00     0.281 C 
HETATM   22  O2  UNL     1       0.810  -0.903   0.306  1.00  0.00    -0.268 OA
HETATM   23  N5  UNL     1       1.789  -2.963   0.487  1.00  0.00    -0.209 NA
HETATM   24  C20 UNL     1       2.994  -2.631   1.261  1.00  0.00     0.129 C 
HETATM   25  C21 UNL     1       3.495  -1.178   1.391  1.00  0.00     0.114 C 
HETATM   26  S1  UNL     1       3.552  -0.307  -0.212  1.00  0.00    -0.089 SA
HETATM   27  C22 UNL     1       3.005  -3.378   2.610  1.00  0.00     0.272 C 
HETATM   28  N6  UNL     1       1.948  -3.197   3.477  1.00  0.00    -0.306 N 
HETATM   29  C23 UNL     1       0.892  -2.186   3.420  1.00  0.00     0.167 C 
HETATM   30  C24 UNL     1       1.359  -0.839   3.973  1.00  0.00     0.272 C 
HETATM   31  N7  UNL     1       0.580   0.263   3.745  1.00  0.00    -0.229 NA
HETATM   32  C25 UNL     1      -0.520   0.406   2.777  1.00  0.00     0.186 C 
HETATM   33  C26 UNL     1      -0.105   1.424   1.712  1.00  0.00     0.274 C 
HETATM   34  N8  UNL     1       1.238   1.444   1.444  1.00  0.00    -0.228 NA
HETATM   35  O3  UNL     1      -0.874   2.203   1.204  1.00  0.00    -0.268 OA
HETATM   36  C27 UNL     1      -1.792   0.843   3.518  1.00  0.00     0.037 C 
HETATM   37  O4  UNL     1       2.354  -0.731   4.648  1.00  0.00    -0.269 OA
HETATM   38  C28 UNL     1      -0.251  -2.730   4.305  1.00  0.00     0.067 C 
HETATM   39  C29 UNL     1       0.244  -4.098   4.769  1.00  0.00     0.177 C 
HETATM   40  C30 UNL     1       1.763  -4.000   4.675  1.00  0.00     0.138 C 
HETATM   41  O5  UNL     1      -0.171  -4.369   6.084  1.00  0.00    -0.221 OA
HETATM   42  O6  UNL     1       3.899  -4.157   2.852  1.00  0.00    -0.266 OA
HETATM   43  O7  UNL     1      -1.790  -2.758  -3.106  1.00  0.00    -0.268 OA
HETATM   44  C31 UNL     1      -2.420  -0.441  -4.572  1.00  0.00     0.037 C 
HETATM   45  O8  UNL     1      -2.046   2.480  -3.009  1.00  0.00    -0.268 OA
HETATM   46  O11 UNL     1       2.640   3.534  -1.160  1.00  0.00    -0.268 OA
ENDROOT
BRANCH  14  47
HETATM   47  C32 UNL     1       1.382   2.263  -3.626  1.00  0.00     0.067 C 
BRANCH  47  48
HETATM   48  C33 UNL     1       1.340   3.121  -4.903  1.00  0.00     0.160 C 
HETATM   49  C34 UNL     1       2.417   2.650  -5.885  1.00  0.00     0.036 C 
HETATM   50  O9  UNL     1       1.652   4.444  -4.548  1.00  0.00    -0.223 OA
BRANCH  48  51
HETATM   51  C35 UNL     1      -0.022   3.148  -5.582  1.00  0.00     0.212 C 
HETATM   52  O10 UNL     1      -0.473   1.834  -5.833  1.00  0.00    -0.218 OA
ENDBRANCH  48  51
ENDBRANCH  47  48
ENDBRANCH  14  47
BRANCH  20  53
HETATM   53  C17 UNL     1      -1.216  -3.564   0.299  1.00  0.00     0.184 C 
HETATM   54  C18 UNL     1      -2.285  -4.386  -0.415  1.00  0.00     0.038 C 
HETATM   55  O1  UNL     1      -0.389  -4.451   1.018  1.00  0.00    -0.221 OA
ENDBRANCH  20  53
TORSDOF 4
