REMARK  21 active torsions:
REMARK  status: ('A' for Active; 'I' for Inactive)
REMARK    1  A    between atoms: C5_5  and  O2_7 
REMARK    2  A    between atoms: O2_7  and  C6_8 
REMARK    3  A    between atoms: C9_11  and  O4_15 
REMARK    4  A    between atoms: O4_15  and  C12_16 
REMARK    5  A    between atoms: C12_16  and  C13_17 
REMARK    6  A    between atoms: C16_20  and  O10_41 
REMARK    7  A    between atoms: C17_21  and  O6_23 
REMARK    8  A    between atoms: O6_23  and  C18_24 
REMARK    9  A    between atoms: C18_24  and  C19_25 
REMARK   10  A    between atoms: C18_24  and  C22_28 
REMARK   11  A    between atoms: C19_25  and  C20_26 
REMARK   12  A    between atoms: C22_28  and  C23_29 
REMARK   13  A    between atoms: C23_29  and  C24_30 
REMARK   14  A    between atoms: C24_30  and  C25_31 
REMARK   15  A    between atoms: C25_31  and  C26_32 
REMARK   16  A    between atoms: C26_32  and  C27_33 
REMARK   17  A    between atoms: C27_33  and  C28_34 
REMARK   18  A    between atoms: C28_34  and  C29_35 
REMARK   19  A    between atoms: C29_35  and  C30_36 
REMARK   20  A    between atoms: C30_36  and  C31_37 
REMARK   21  A    between atoms: O10_41  and  C32_42 
ROOT
HETATM    1  C13 UNL     1      -0.530   0.845  -0.229  1.00  0.00     0.180 C 
HETATM    2  C14 UNL     1      -1.535   1.951   0.063  1.00  0.00     0.214 C 
HETATM    3  C15 UNL     1      -0.898   3.288  -0.249  1.00  0.00     0.217 C 
HETATM    4  C16 UNL     1      -0.394   3.320  -1.683  1.00  0.00     0.207 C 
HETATM    5  C17 UNL     1       0.497   2.113  -1.925  1.00  0.00     0.267 C 
HETATM    6  O5  UNL     1      -0.169   0.915  -1.580  1.00  0.00    -0.326 OA
HETATM    7  O15 UNL     1      -1.843   4.314  -0.071  1.00  0.00    -0.218 OA
HETATM    8  O16 UNL     1      -1.915   1.958   1.417  1.00  0.00    -0.218 OA
ENDROOT
BRANCH   1   9
HETATM    9  C12 UNL     1      -1.083  -0.555   0.021  1.00  0.00     0.177 C 
BRANCH   9  10
HETATM   10  O4  UNL     1      -1.090  -0.832   1.401  1.00  0.00    -0.326 OA
BRANCH  10  11
HETATM   11  C9  UNL     1      -1.512  -2.145   1.705  1.00  0.00     0.270 C 
HETATM   12  C8  UNL     1      -1.754  -2.225   3.192  1.00  0.00     0.241 C 
HETATM   13  C7  UNL     1      -1.944  -3.659   3.644  1.00  0.00     0.217 C 
HETATM   14  O17 UNL     1      -0.638  -1.697   3.870  1.00  0.00    -0.215 OA
HETATM   15  C6  UNL     1      -0.860  -4.574   3.087  1.00  0.00     0.178 C 
HETATM   16  O18 UNL     1      -1.904  -3.668   5.052  1.00  0.00    -0.218 OA
HETATM   17  C10 UNL     1      -0.699  -4.331   1.586  1.00  0.00     0.148 C 
HETATM   18  O3  UNL     1      -0.439  -2.979   1.336  1.00  0.00    -0.329 OA
HETATM   19  C11 UNL     1       0.460  -5.138   0.995  1.00  0.00     0.035 C 
BRANCH  15  20
HETATM   20  O2  UNL     1      -1.232  -5.913   3.284  1.00  0.00    -0.326 OA
BRANCH  20  21
HETATM   21  C5  UNL     1      -0.561  -6.565   4.339  1.00  0.00     0.270 C 
HETATM   22  C4  UNL     1      -1.308  -7.847   4.627  1.00  0.00     0.241 C 
HETATM   23  C3  UNL     1      -0.537  -8.662   5.638  1.00  0.00     0.220 C 
HETATM   24  O19 UNL     1      -2.575  -7.543   5.154  1.00  0.00    -0.215 OA
HETATM   25  C2  UNL     1       0.860  -8.895   5.102  1.00  0.00     0.212 C 
HETATM   26  O20 UNL     1      -1.177  -9.896   5.838  1.00  0.00    -0.218 OA
HETATM   27  C1  UNL     1       1.517  -7.564   4.758  1.00  0.00     0.151 C 
HETATM   28  O21 UNL     1       1.590  -9.581   6.089  1.00  0.00    -0.218 OA
HETATM   29  O1  UNL     1       0.726  -6.859   3.839  1.00  0.00    -0.329 OA
HETATM   30  C38 UNL     1       2.902  -7.755   4.138  1.00  0.00     0.035 C 
ENDBRANCH  20  21
ENDBRANCH  15  20
ENDBRANCH  10  11
ENDBRANCH   9  10
ENDBRANCH   1   9
BRANCH   5  31
HETATM   31  O6  UNL     1       0.690   1.966  -3.314  1.00  0.00    -0.332 OA
BRANCH  31  32
HETATM   32  C18 UNL     1       1.767   1.163  -3.705  1.00  0.00     0.118 C 
BRANCH  32  33
HETATM   33  C19 UNL     1       1.340   0.394  -4.968  1.00  0.00     0.030 C 
BRANCH  33  34
HETATM   34  C20 UNL     1       0.918   1.247  -6.180  1.00  0.00     0.003 C 
HETATM   35  C21 UNL     1      -0.491   1.849  -6.085  1.00  0.00     0.000 C 
ENDBRANCH  33  34
ENDBRANCH  32  33
BRANCH  32  36
HETATM   36  C22 UNL     1       3.014   2.024  -3.967  1.00  0.00     0.030 C 
BRANCH  36  37
HETATM   37  C23 UNL     1       4.026   2.122  -2.812  1.00  0.00     0.003 C 
BRANCH  37  38
HETATM   38  C24 UNL     1       4.791   0.806  -2.589  1.00  0.00     0.000 C 
BRANCH  38  39
HETATM   39  C25 UNL     1       5.830   0.857  -1.454  1.00  0.00     0.000 C 
BRANCH  39  40
HETATM   40  C26 UNL     1       5.332   0.319  -0.100  1.00  0.00     0.000 C 
BRANCH  40  41
HETATM   41  C27 UNL     1       4.306   1.221   0.601  1.00  0.00     0.003 C 
BRANCH  41  42
HETATM   42  C28 UNL     1       3.876   0.706   1.985  1.00  0.00     0.034 C 
BRANCH  42  43
HETATM   43  C29 UNL     1       4.960   0.670   3.068  1.00  0.00     0.163 C 
HETATM   44  O9  UNL     1       4.383   0.110   4.228  1.00  0.00    -0.223 OA
BRANCH  43  45
HETATM   45  C30 UNL     1       5.530   2.043   3.442  1.00  0.00     0.130 C 
BRANCH  45  46
HETATM   46  C31 UNL     1       6.666   2.530   2.561  1.00  0.00     0.188 C 
HETATM   47  O7  UNL     1       6.665   3.869   2.431  1.00  0.00    -0.647 OA
HETATM   48  O8  UNL     1       7.510   1.847   2.032  1.00  0.00    -0.647 OA
ENDBRANCH  45  46
ENDBRANCH  43  45
ENDBRANCH  42  43
ENDBRANCH  41  42
ENDBRANCH  40  41
ENDBRANCH  39  40
ENDBRANCH  38  39
ENDBRANCH  37  38
ENDBRANCH  36  37
ENDBRANCH  32  36
ENDBRANCH  31  32
ENDBRANCH   5  31
BRANCH   4  49
HETATM   49  O10 UNL     1       0.298   4.533  -1.808  1.00  0.00    -0.324 OA
BRANCH  49  50
HETATM   50  C32 UNL     1       0.342   5.101  -3.103  1.00  0.00     0.270 C 
HETATM   51  O11 UNL     1       1.610   5.726  -3.095  1.00  0.00    -0.329 OA
HETATM   52  C33 UNL     1       1.903   6.469  -4.248  1.00  0.00     0.151 C 
HETATM   53  C34 UNL     1       0.816   7.485  -4.584  1.00  0.00     0.212 C 
HETATM   54  C37 UNL     1       2.313   5.574  -5.420  1.00  0.00     0.035 C 
HETATM   55  C35 UNL     1      -0.587   6.913  -4.531  1.00  0.00     0.220 C 
HETATM   56  O14 UNL     1       0.886   8.552  -3.663  1.00  0.00    -0.218 OA
HETATM   57  C36 UNL     1      -0.770   6.114  -3.260  1.00  0.00     0.241 C 
HETATM   58  O13 UNL     1      -0.816   6.058  -5.624  1.00  0.00    -0.218 OA
HETATM   59  O12 UNL     1      -2.014   5.462  -3.344  1.00  0.00    -0.215 OA
ENDBRANCH  49  50
ENDBRANCH   4  49
TORSDOF 21
