REMARK  3 active torsions:
REMARK  status: ('A' for Active; 'I' for Inactive)
REMARK    1  A    between atoms: C5_5  and  C7_7 
REMARK    2  A    between atoms: C7_7  and  C8_8 
REMARK    3  A    between atoms: C8_8  and  C9_9 
ROOT
HETATM    1  C1  UNL     1       3.412   1.500   0.382  1.00  0.00    -0.000 A 
HETATM    2  C2  UNL     1       3.910   0.234   0.691  1.00  0.00    -0.000 A 
HETATM    3  C3  UNL     1       3.075  -0.878   0.575  1.00  0.00    -0.000 A 
HETATM    4  C4  UNL     1       1.753  -0.724   0.151  1.00  0.00    -0.004 A 
HETATM    5  C5  UNL     1       1.232   0.539  -0.157  1.00  0.00    -0.019 A 
HETATM    6  C6  UNL     1       2.087   1.643  -0.035  1.00  0.00    -0.004 A 
ENDROOT
BRANCH   5   7
HETATM    7  C7  UNL     1      -0.191   0.771  -0.624  1.00  0.00     0.077 C 
BRANCH   7   8
HETATM    8  C8  UNL     1      -1.148  -0.433  -0.621  1.00  0.00     0.391 C 
HETATM    9  N1  UNL     1      -2.427  -0.040  -1.236  1.00  0.00     0.628 N 
BRANCH   8  10
HETATM   10  C9  UNL     1      -1.431  -0.985   0.763  1.00  0.00     0.224 C 
HETATM   11  O1  UNL     1      -2.191  -2.094   0.691  1.00  0.00    -0.646 OA
HETATM   12  O2  UNL     1      -1.059  -0.542   1.823  1.00  0.00    -0.646 OA
ENDBRANCH   8  10
ENDBRANCH   7   8
ENDBRANCH   5   7
TORSDOF 3
