REMARK  4 active torsions:
REMARK  status: ('A' for Active; 'I' for Inactive)
REMARK    1  A    between atoms: C4_4  and  C7_7 
REMARK    2  A    between atoms: C12_12  and  O1_13 
REMARK    3  A    between atoms: O1_13  and  C13_14 
REMARK    4  A    between atoms: C13_14  and  C14_15 
ROOT
HETATM    1  C7  UNL     1       0.124  -0.783  -0.728  1.00  0.00     0.050 C 
HETATM    2  C8  UNL     1      -0.768  -1.047  -1.955  1.00  0.00     0.007 C 
HETATM    3  C9  UNL     1      -1.732  -2.215  -1.704  1.00  0.00     0.001 C 
HETATM    4  C10 UNL     1      -2.585  -1.940  -0.459  1.00  0.00     0.003 C 
HETATM    5  C11 UNL     1      -1.689  -1.696   0.763  1.00  0.00     0.030 C 
HETATM    6  C12 UNL     1      -0.718  -0.531   0.533  1.00  0.00     0.119 C 
ENDROOT
BRANCH   1   7
HETATM    7  C4  UNL     1       1.101   0.347  -1.003  1.00  0.00    -0.020 A 
HETATM    8  C3  UNL     1       2.483   0.140  -0.893  1.00  0.00    -0.004 A 
HETATM    9  C2  UNL     1       3.390   1.171  -1.141  1.00  0.00    -0.000 A 
HETATM   10  C1  UNL     1       2.928   2.438  -1.502  1.00  0.00    -0.000 A 
HETATM   11  C6  UNL     1       1.555   2.663  -1.608  1.00  0.00    -0.000 A 
HETATM   12  C5  UNL     1       0.655   1.626  -1.359  1.00  0.00    -0.004 A 
ENDBRANCH   1   7
BRANCH   6  13
HETATM   13  O1  UNL     1       0.117  -0.439   1.660  1.00  0.00    -0.354 OA
BRANCH  13  14
HETATM   14  C13 UNL     1       0.259   0.865   2.167  1.00  0.00     0.178 C 
BRANCH  14  15
HETATM   15  C14 UNL     1       1.235   0.841   3.330  1.00  0.00     0.214 C 
HETATM   16  O2  UNL     1       2.538   0.566   2.856  1.00  0.00    -0.218 OA
ENDBRANCH  14  15
ENDBRANCH  13  14
ENDBRANCH   6  13
TORSDOF 4
