REMARK  4 active torsions:
REMARK  status: ('A' for Active; 'I' for Inactive)
REMARK    1  A    between atoms: C5_5  and  C7_7 
REMARK    2  A    between atoms: C7_7  and  C8_8 
REMARK    3  A    between atoms: C8_8  and  O1_9 
REMARK    4  A    between atoms: O1_9  and  C9_10 
ROOT
HETATM    1  C1  UNL     1       4.000   0.076  -0.282  1.00  0.00    -0.000 A 
HETATM    2  C2  UNL     1       4.460  -1.195   0.062  1.00  0.00    -0.000 A 
HETATM    3  C3  UNL     1       3.538  -2.205   0.337  1.00  0.00    -0.000 A 
HETATM    4  C4  UNL     1       2.169  -1.939   0.267  1.00  0.00    -0.004 A 
HETATM    5  C5  UNL     1       1.688  -0.667  -0.074  1.00  0.00    -0.020 A 
HETATM    6  C6  UNL     1       2.628   0.333  -0.349  1.00  0.00    -0.004 A 
ENDROOT
BRANCH   5   7
HETATM    7  C7  UNL     1       0.192  -0.432  -0.132  1.00  0.00     0.059 C 
BRANCH   7   8
HETATM    8  C8  UNL     1      -0.261   1.025  -0.024  1.00  0.00     0.157 C 
BRANCH   8   9
HETATM    9  O1  UNL     1      -1.664   1.065   0.019  1.00  0.00    -0.294 OA
BRANCH   9  10
HETATM   10  C9  UNL     1      -2.233   2.298   0.107  1.00  0.00     0.360 C 
HETATM   11  O2  UNL     1      -1.620   3.339   0.155  1.00  0.00    -0.253 OA
ENDBRANCH   9  10
ENDBRANCH   8   9
ENDBRANCH   7   8
ENDBRANCH   5   7
TORSDOF 4
