REMARK  4 active torsions:
REMARK  status: ('A' for Active; 'I' for Inactive)
REMARK    1  A    between atoms: C5_5  and  C7_7 
REMARK    2  A    between atoms: C7_7  and  C8_8 
REMARK    3  A    between atoms: C8_8  and  N1_9 
REMARK    4  A    between atoms: C9_10  and  C10_11 
ROOT
HETATM    1  C1  UNL     1       4.977  -0.166  -0.258  1.00  0.00    -0.000 A 
HETATM    2  C2  UNL     1       5.423  -1.442   0.089  1.00  0.00    -0.000 A 
HETATM    3  C3  UNL     1       4.489  -2.446   0.346  1.00  0.00    -0.000 A 
HETATM    4  C4  UNL     1       3.124  -2.170   0.255  1.00  0.00    -0.004 A 
HETATM    5  C5  UNL     1       2.657  -0.894  -0.090  1.00  0.00    -0.020 A 
HETATM    6  C6  UNL     1       3.609   0.101  -0.346  1.00  0.00    -0.004 A 
ENDROOT
BRANCH   5   7
HETATM    7  C7  UNL     1       1.163  -0.651  -0.174  1.00  0.00     0.053 C 
BRANCH   7   8
HETATM    8  C8  UNL     1       0.705   0.813  -0.076  1.00  0.00     0.130 C 
BRANCH   8   9
HETATM    9  N1  UNL     1      -0.777   0.882  -0.077  1.00  0.00    -0.268 NA
HETATM   10  C9  UNL     1      -1.280   2.063   0.043  1.00  0.00     0.105 C 
BRANCH  10  11
HETATM   11  C10 UNL     1      -2.707   2.252   0.042  1.00  0.00     0.085 C 
HETATM   12  S1  UNL     1      -3.518   3.593   0.181  1.00  0.00    -0.076 SA
ENDBRANCH  10  11
ENDBRANCH   8   9
ENDBRANCH   7   8
ENDBRANCH   5   7
TORSDOF 4
