REMARK  1 active torsions:
REMARK  status: ('A' for Active; 'I' for Inactive)
REMARK    1  A    between atoms: C1_1  and  C2_2 
ROOT
HETATM    1  C1  UNL     1       0.743   1.329   0.287  1.00  0.00     0.022 C 
HETATM    2  C18 UNL     1      -0.516   2.254   0.325  1.00  0.00     0.013 C 
HETATM    3  C19 UNL     1      -0.771   3.254  -0.818  1.00  0.00     0.001 C 
HETATM    4  C20 UNL     1      -0.646   3.030   1.652  1.00  0.00     0.088 C 
HETATM    5  C21 UNL     1      -0.527   2.224   2.938  1.00  0.00     0.234 C 
HETATM    6  N2  UNL     1      -1.493   1.272   3.212  1.00  0.00    -0.320 N 
HETATM    7  C22 UNL     1      -2.751   1.140   2.465  1.00  0.00     0.104 C 
HETATM    8  C23 UNL     1      -2.964  -0.139   1.625  1.00  0.00     0.029 C 
HETATM    9  C24 UNL     1      -1.784  -0.709   0.820  1.00  0.00     0.024 C 
HETATM   10  C25 UNL     1      -0.460  -0.632   1.532  1.00  0.00    -0.045 C 
HETATM   11  C26 UNL     1       0.587   0.186   1.293  1.00  0.00    -0.044 C 
HETATM   12  C27 UNL     1       1.741  -0.129   2.221  1.00  0.00     0.086 C 
HETATM   13  C28 UNL     1       1.144  -1.137   3.185  1.00  0.00     0.158 C 
HETATM   14  C29 UNL     1      -0.163  -1.649   2.608  1.00  0.00     0.076 C 
HETATM   15  C30 UNL     1      -1.244  -2.008   3.639  1.00  0.00     0.013 C 
HETATM   16  C31 UNL     1      -1.921  -0.925   4.506  1.00  0.00     0.025 C 
HETATM   17  C32 UNL     1      -1.394   0.515   4.464  1.00  0.00     0.104 C 
HETATM   18  O3  UNL     1       1.619  -1.462   4.248  1.00  0.00    -0.295 OA
HETATM   19  O4  UNL     1       0.404   2.435   3.681  1.00  0.00    -0.272 OA
ENDROOT
BRANCH   1  20
HETATM   20  C2  UNL     1       1.246   0.866  -1.113  1.00  0.00     0.022 C 
HETATM   21  C3  UNL     1       2.271   1.790  -1.847  1.00  0.00     0.013 C 
HETATM   22  C4  UNL     1       2.204   3.317  -1.656  1.00  0.00     0.001 C 
HETATM   23  C5  UNL     1       2.336   1.520  -3.365  1.00  0.00     0.088 C 
HETATM   24  C6  UNL     1       2.503   0.072  -3.802  1.00  0.00     0.234 C 
HETATM   25  N1  UNL     1       3.675  -0.587  -3.470  1.00  0.00    -0.320 N 
HETATM   26  O2  UNL     1       1.614  -0.462  -4.424  1.00  0.00    -0.272 OA
HETATM   27  C7  UNL     1       4.865   0.079  -2.924  1.00  0.00     0.104 C 
HETATM   28  C17 UNL     1       3.848  -1.974  -3.915  1.00  0.00     0.104 C 
HETATM   29  C8  UNL     1       5.282  -0.258  -1.475  1.00  0.00     0.029 C 
HETATM   30  C9  UNL     1       4.194  -0.409  -0.399  1.00  0.00     0.024 C 
HETATM   31  C10 UNL     1       2.949  -1.106  -0.878  1.00  0.00    -0.045 C 
HETATM   32  C11 UNL     1       1.732  -0.585  -1.142  1.00  0.00    -0.044 C 
HETATM   33  C14 UNL     1       2.973  -2.611  -1.004  1.00  0.00     0.076 C 
HETATM   34  C12 UNL     1       0.756  -1.671  -1.543  1.00  0.00     0.086 C 
HETATM   35  C13 UNL     1       1.638  -2.900  -1.666  1.00  0.00     0.158 C 
HETATM   36  O1  UNL     1       1.335  -3.932  -2.217  1.00  0.00    -0.295 OA
HETATM   37  C15 UNL     1       4.188  -3.304  -1.639  1.00  0.00     0.013 C 
HETATM   38  C16 UNL     1       4.680  -2.932  -3.054  1.00  0.00     0.025 C 
ENDBRANCH   1  20
TORSDOF 1
