REMARK  4 active torsions:
REMARK  status: ('A' for Active; 'I' for Inactive)
REMARK    1  A    between atoms: C11_14  and  O7_25 
REMARK    2  A    between atoms: C12_15  and  O4_16 
REMARK    3  A    between atoms: O4_16  and  C13_17 
REMARK    4  A    between atoms: O7_25  and  C19_26 
ROOT
HETATM    1  C1  UNL     1      -1.921  -2.438  -1.040  1.00  0.00     0.057 A 
HETATM    2  C2  UNL     1      -1.712  -3.814  -0.920  1.00  0.00     0.135 A 
HETATM    3  C3  UNL     1      -0.405  -4.281  -1.068  1.00  0.00     0.054 A 
HETATM    4  C4  UNL     1       0.658  -3.419  -1.355  1.00  0.00     0.127 A 
HETATM    5  C5  UNL     1       0.409  -2.048  -1.520  1.00  0.00     0.148 A 
HETATM    6  C6  UNL     1      -0.892  -1.550  -1.363  1.00  0.00     0.158 A 
HETATM    7  O1  UNL     1      -1.142  -0.215  -1.431  1.00  0.00    -0.188 OA
HETATM    8  O2  UNL     1       1.474  -1.223  -1.760  1.00  0.00    -0.299 OA
HETATM    9  C7  UNL     1       2.553  -1.583  -0.995  1.00  0.00     0.149 A 
HETATM   10  C8  UNL     1       2.796  -2.958  -0.834  1.00  0.00     0.150 A 
HETATM   11  O3  UNL     1       1.951  -3.858  -1.427  1.00  0.00    -0.301 OA
HETATM   12  C9  UNL     1       3.867  -3.381  -0.044  1.00  0.00     0.158 A 
HETATM   13  C10 UNL     1       4.648  -2.406   0.574  1.00  0.00     0.056 A 
HETATM   14  C11 UNL     1       4.427  -1.028   0.454  1.00  0.00     0.127 A 
HETATM   15  C12 UNL     1       3.345  -0.613  -0.348  1.00  0.00     0.147 A 
HETATM   16  O11 UNL     1       4.132  -4.701   0.144  1.00  0.00    -0.188 OA
HETATM   17  O12 UNL     1      -2.727  -4.663  -0.612  1.00  0.00    -0.190 OA
ENDROOT
BRANCH  14  18
HETATM   18  O7  UNL     1       5.272  -0.220   1.171  1.00  0.00    -0.301 OA
BRANCH  18  19
HETATM   19  C19 UNL     1       5.285   1.139   1.025  1.00  0.00     0.151 A 
HETATM   20  C20 UNL     1       6.280   1.782   0.273  1.00  0.00     0.158 A 
HETATM   21  C21 UNL     1       6.285   3.179   0.198  1.00  0.00     0.057 A 
HETATM   22  O10 UNL     1       7.228   1.066  -0.387  1.00  0.00    -0.188 OA
HETATM   23  C22 UNL     1       5.341   3.969   0.857  1.00  0.00     0.135 A 
HETATM   24  C23 UNL     1       4.356   3.308   1.591  1.00  0.00     0.057 A 
HETATM   25  O9  UNL     1       5.346   5.324   0.759  1.00  0.00    -0.190 OA
HETATM   26  C24 UNL     1       4.336   1.917   1.705  1.00  0.00     0.158 A 
HETATM   27  O8  UNL     1       3.326   1.277   2.352  1.00  0.00    -0.188 OA
ENDBRANCH  18  19
ENDBRANCH  14  18
BRANCH  15  28
HETATM   28  O4  UNL     1       3.077   0.714  -0.527  1.00  0.00    -0.303 OA
BRANCH  28  29
HETATM   29  C13 UNL     1       1.869   1.224  -0.136  1.00  0.00     0.104 A 
HETATM   30  C14 UNL     1       1.555   2.543  -0.486  1.00  0.00     0.052 A 
HETATM   31  C15 UNL     1       0.349   3.160  -0.144  1.00  0.00     0.135 A 
HETATM   32  C16 UNL     1      -0.598   2.396   0.540  1.00  0.00     0.055 A 
HETATM   33  O6  UNL     1       0.081   4.441  -0.508  1.00  0.00    -0.190 OA
HETATM   34  C17 UNL     1      -0.337   1.080   0.925  1.00  0.00     0.135 A 
HETATM   35  C18 UNL     1       0.914   0.534   0.622  1.00  0.00     0.052 A 
HETATM   36  O5  UNL     1      -1.289   0.345   1.555  1.00  0.00    -0.190 OA
ENDBRANCH  28  29
ENDBRANCH  15  28
TORSDOF 4
