REMARK  0 active torsions:
REMARK  status: ('A' for Active; 'I' for Inactive)
ROOT
HETATM    1  C1  UNL     1       0.758   1.012  -0.275  1.00  0.00     0.135 A 
HETATM    2  C2  UNL     1       1.276  -0.241   0.066  1.00  0.00     0.055 A 
HETATM    3  C3  UNL     1       0.453  -1.331   0.364  1.00  0.00     0.135 A 
HETATM    4  C4  UNL     1      -0.930  -1.138   0.311  1.00  0.00     0.055 A 
HETATM    5  C5  UNL     1      -1.496   0.096  -0.020  1.00  0.00     0.135 A 
HETATM    6  C6  UNL     1      -0.632   1.156  -0.309  1.00  0.00     0.055 A 
HETATM    7  O1  UNL     1      -2.844   0.265  -0.065  1.00  0.00    -0.190 OA
HETATM    8  O2  UNL     1       0.972  -2.544   0.690  1.00  0.00    -0.190 OA
HETATM    9  O3  UNL     1       1.574   2.061  -0.560  1.00  0.00    -0.190 OA
ENDROOT
TORSDOF 0
