REMARK  7 active torsions:
REMARK  status: ('A' for Active; 'I' for Inactive)
REMARK    1  A    between atoms: C4_4  and  O9_31 
REMARK    2  A    between atoms: C5_5  and  C7_7 
REMARK    3  A    between atoms: C9_10  and  O7_27 
REMARK    4  A    between atoms: C12_14  and  O3_15 
REMARK    5  A    between atoms: O3_15  and  C13_16 
REMARK    6  A    between atoms: C18_21  and  O4_22 
REMARK    7  A    between atoms: O7_27  and  C21_28 
ROOT
HETATM    1  C7  UNL     1       2.726  -1.118  -0.861  1.00  0.00     0.144 C 
HETATM    2  O1  UNL     1       3.191  -1.645  -2.078  1.00  0.00    -0.349 OA
HETATM    3  C8  UNL     1       4.532  -1.237  -2.180  1.00  0.00     0.175 C 
HETATM    4  C9  UNL     1       4.627   0.136  -1.505  1.00  0.00     0.185 C 
HETATM    5  C10 UNL     1       3.236   0.328  -0.889  1.00  0.00     0.094 C 
HETATM    6  C11 UNL     1       3.489   0.895   0.507  1.00  0.00     0.150 C 
HETATM    7  O2  UNL     1       4.879   1.060   0.632  1.00  0.00    -0.329 OA
HETATM    8  C12 UNL     1       5.482   0.143  -0.248  1.00  0.00     0.269 C 
ENDROOT
BRANCH   8   9
HETATM    9  O3  UNL     1       6.796   0.576  -0.498  1.00  0.00    -0.302 OA
BRANCH   9  10
HETATM   10  C13 UNL     1       7.592   0.586   0.618  1.00  0.00     0.121 C 
HETATM   11  C14 UNL     1       8.092  -0.627   1.125  1.00  0.00     0.053 C 
HETATM   12  C15 UNL     1       8.895  -0.608   2.259  1.00  0.00     0.121 A 
HETATM   13  C16 UNL     1       9.238   0.592   2.865  1.00  0.00     0.121 A 
HETATM   14  O6  UNL     1       9.444  -1.655   2.973  1.00  0.00    -0.299 OA
HETATM   15  C17 UNL     1       8.817   1.804   2.330  1.00  0.00     0.052 C 
HETATM   16  O5  UNL     1       9.996   0.329   3.989  1.00  0.00    -0.299 OA
HETATM   17  C18 UNL     1       8.068   1.812   1.141  1.00  0.00     0.118 C 
HETATM   18  C20 UNL     1      10.143  -1.093   4.091  1.00  0.00     0.304 A 
BRANCH  17  19
HETATM   19  O4  UNL     1       7.585   3.002   0.658  1.00  0.00    -0.326 OA
HETATM   20  C19 UNL     1       8.326   3.515  -0.425  1.00  0.00     0.181 C 
ENDBRANCH  17  19
ENDBRANCH   9  10
ENDBRANCH   8   9
BRANCH   4  21
HETATM   21  O7  UNL     1       5.044   1.061  -2.468  1.00  0.00    -0.299 OA
BRANCH  21  22
HETATM   22  C21 UNL     1       4.429   2.242  -2.751  1.00  0.00     0.273 C 
HETATM   23  O8  UNL     1       4.155   2.579  -3.883  1.00  0.00    -0.264 OA
HETATM   24  C22 UNL     1       4.374   3.239  -1.610  1.00  0.00     0.106 C 
ENDBRANCH  21  22
ENDBRANCH   4  21
BRANCH   1  25
HETATM   25  C5  UNL     1       1.247  -1.389  -0.647  1.00  0.00     0.029 C 
HETATM   26  C4  UNL     1       0.831  -2.728  -0.443  1.00  0.00     0.095 C 
HETATM   27  C3  UNL     1      -0.543  -3.010  -0.353  1.00  0.00     0.050 C 
HETATM   28  C2  UNL     1      -1.453  -1.960  -0.311  1.00  0.00     0.121 A 
HETATM   29  C1  UNL     1      -1.028  -0.644  -0.416  1.00  0.00     0.119 A 
HETATM   30  O10 UNL     1      -2.829  -1.986  -0.186  1.00  0.00    -0.299 OA
HETATM   31  C6  UNL     1       0.318  -0.338  -0.593  1.00  0.00     0.026 C 
HETATM   32  O11 UNL     1      -2.124   0.194  -0.347  1.00  0.00    -0.300 OA
HETATM   33  C24 UNL     1      -3.288  -0.628  -0.196  1.00  0.00     0.304 A 
BRANCH  26  34
HETATM   34  O9  UNL     1       1.722  -3.768  -0.530  1.00  0.00    -0.328 OA
HETATM   35  C23 UNL     1       2.036  -4.353   0.714  1.00  0.00     0.181 C 
ENDBRANCH  26  34
ENDBRANCH   1  25
TORSDOF 7
