REMARK  2 active torsions:
REMARK  status: ('A' for Active; 'I' for Inactive)
REMARK    1  A    between atoms: C1_1  and  O1_16 
REMARK    2  A    between atoms: O1_16  and  C14_17 
REMARK       I    between atoms: C14_17  and  N3_19 
ROOT
HETATM    1  C1  UNL     1      -1.011  -0.076   0.361  1.00  0.00     0.105 A 
HETATM    2  C2  UNL     1      -1.046  -1.474   0.508  1.00  0.00     0.026 A 
HETATM    3  C3  UNL     1       0.100  -2.272   0.494  1.00  0.00     0.019 A 
HETATM    4  C4  UNL     1       1.344  -1.650   0.335  1.00  0.00     0.054 A 
HETATM    5  C5  UNL     1       1.410  -0.260   0.221  1.00  0.00    -0.002 A 
HETATM    6  C6  UNL     1       0.256   0.519   0.229  1.00  0.00     0.022 A 
HETATM    7  C7  UNL     1       2.829   0.229   0.133  1.00  0.00     0.072 C 
HETATM    8  C8  UNL     1       3.605  -1.110  -0.007  1.00  0.00     0.307 C 
HETATM    9  N1  UNL     1       2.627  -2.188   0.270  1.00  0.00    -0.322 N 
HETATM   10  C9  UNL     1       2.840  -3.631   0.423  1.00  0.00     0.127 C 
HETATM   11  N2  UNL     1       4.079  -1.121  -1.383  1.00  0.00     0.158 N 
HETATM   12  C10 UNL     1       4.361   0.266  -1.700  1.00  0.00     0.253 C 
HETATM   13  C11 UNL     1       3.131   1.006  -1.159  1.00  0.00     0.043 C 
HETATM   14  C12 UNL     1       5.210  -1.997  -1.615  1.00  0.00     0.288 C 
HETATM   15  C13 UNL     1       3.217   1.000   1.401  1.00  0.00     0.008 C 
ENDROOT
BRANCH   1  16
HETATM   16  O1  UNL     1      -2.188   0.625   0.376  1.00  0.00    -0.258 OA
BRANCH  16  17
HETATM   17  C14 UNL     1      -2.122   1.932   0.013  1.00  0.00     0.388 C 
HETATM   18  O2  UNL     1      -2.346   2.282  -1.124  1.00  0.00    -0.236 OA
HETATM   19  N3  UNL     1      -1.777   2.822   0.989  1.00  0.00    -0.210 NA
HETATM   20  C15 UNL     1      -1.632   4.260   0.758  1.00  0.00     0.158 C 
ENDBRANCH  16  17
ENDBRANCH   1  16
TORSDOF 2
