REMARK  2 active torsions:
REMARK  status: ('A' for Active; 'I' for Inactive)
REMARK    1  A    between atoms: C1_1  and  O2_15 
REMARK    2  A    between atoms: O2_15  and  C13_16 
REMARK       I    between atoms: C13_16  and  N2_18 
ROOT
HETATM    1  C1  UNL     1      -0.986  -0.302   0.065  1.00  0.00     0.105 A 
HETATM    2  C2  UNL     1      -1.007  -1.698   0.238  1.00  0.00     0.026 A 
HETATM    3  C3  UNL     1       0.147  -2.481   0.283  1.00  0.00     0.019 A 
HETATM    4  C4  UNL     1       1.389  -1.848   0.159  1.00  0.00     0.054 A 
HETATM    5  C5  UNL     1       1.440  -0.459   0.015  1.00  0.00    -0.001 A 
HETATM    6  C6  UNL     1       0.277   0.305  -0.046  1.00  0.00     0.022 A 
HETATM    7  C7  UNL     1       2.854   0.043  -0.072  1.00  0.00     0.068 A 
HETATM    8  C8  UNL     1       3.663  -1.267  -0.009  1.00  0.00     0.205 A 
HETATM    9  N1  UNL     1       2.684  -2.363   0.157  1.00  0.00    -0.325 N 
HETATM   10  C9  UNL     1       2.939  -3.804   0.251  1.00  0.00     0.128 C 
HETATM   11  O1  UNL     1       4.405  -1.367  -1.204  1.00  0.00    -0.336 OA
HETATM   12  C10 UNL     1       4.549  -0.065  -1.707  1.00  0.00     0.145 C 
HETATM   13  C11 UNL     1       3.208   0.609  -1.451  1.00  0.00     0.041 C 
HETATM   14  C12 UNL     1       3.189   1.000   1.079  1.00  0.00     0.009 C 
ENDROOT
BRANCH   1  15
HETATM   15  O2  UNL     1      -2.175   0.375   0.023  1.00  0.00    -0.258 OA
BRANCH  15  16
HETATM   16  C13 UNL     1      -2.121   1.709  -0.224  1.00  0.00     0.388 C 
HETATM   17  O3  UNL     1      -2.400   2.165  -1.312  1.00  0.00    -0.236 OA
HETATM   18  N2  UNL     1      -1.739   2.514   0.810  1.00  0.00    -0.210 NA
HETATM   19  C14 UNL     1      -1.657   3.968   0.691  1.00  0.00     0.158 C 
ENDBRANCH  15  16
ENDBRANCH   1  15
TORSDOF 2
