REMARK  1 active torsions:
REMARK  status: ('A' for Active; 'I' for Inactive)
REMARK    1  A    between atoms: C12_12  and  C15_16 
ROOT
HETATM    1  C1  UNL     1      -1.646  -0.633  -2.150  1.00  0.00     0.209 C 
HETATM    2  C2  UNL     1      -2.387  -1.169  -0.938  1.00  0.00     0.180 C 
HETATM    3  C3  UNL     1      -1.510  -1.905   0.075  1.00  0.00     0.054 C 
HETATM    4  C4  UNL     1      -0.076  -1.297   0.050  1.00  0.00     0.007 C 
HETATM    5  C5  UNL     1       0.029   0.210  -0.340  1.00  0.00     0.010 C 
HETATM    6  C6  UNL     1      -0.623   0.421  -1.740  1.00  0.00     0.041 C 
HETATM    7  C7  UNL     1       1.536   0.634  -0.406  1.00  0.00     0.062 C 
HETATM    8  C8  UNL     1       2.341   0.259   0.852  1.00  0.00     0.011 C 
HETATM    9  C9  UNL     1       2.198  -1.237   1.169  1.00  0.00     0.001 C 
HETATM   10  C10 UNL     1       0.727  -1.633   1.321  1.00  0.00     0.000 C 
HETATM   11  C11 UNL     1       3.825   0.680   0.767  1.00  0.00     0.023 C 
HETATM   12  C12 UNL     1       3.959   2.154   0.445  1.00  0.00    -0.020 C 
HETATM   13  C13 UNL     1       2.994   2.778  -0.270  1.00  0.00     0.033 C 
HETATM   14  C14 UNL     1       1.784   2.094  -0.781  1.00  0.00     0.172 C 
HETATM   15  O1  UNL     1       1.022   2.722  -1.506  1.00  0.00    -0.291 OA
HETATM   16  C17 UNL     1       4.681  -0.111  -0.237  1.00  0.00     0.005 C 
HETATM   17  C18 UNL     1      -0.721   1.104   0.677  1.00  0.00     0.001 C 
HETATM   18  C19 UNL     1      -2.193  -1.877   1.461  1.00  0.00     0.007 C 
HETATM   19  C20 UNL     1      -1.481  -3.386  -0.375  1.00  0.00     0.007 C 
HETATM   20  O2  UNL     1      -3.586  -1.063  -0.803  1.00  0.00    -0.293 OA
HETATM   21  O3  UNL     1      -2.515  -0.095  -3.133  1.00  0.00    -0.215 OA
ENDROOT
BRANCH  12  22
HETATM   22  C15 UNL     1       5.165   2.857   0.909  1.00  0.00    -0.004 C 
HETATM   23  C16 UNL     1       5.598   4.062   0.490  1.00  0.00    -0.000 C 
ENDBRANCH  12  22
TORSDOF 1
