REMARK  3 active torsions:
REMARK  status: ('A' for Active; 'I' for Inactive)
REMARK    1  A    between atoms: C15_18  and  C16_19 
REMARK    2  A    between atoms: C15_18  and  C17_21 
REMARK    3  A    between atoms: C17_21  and  O3_22 
ROOT
HETATM    1  C1  UNL     1      -1.714   0.333  -3.372  1.00  0.00    -0.000 A 
HETATM    2  C2  UNL     1      -2.052  -1.016  -3.540  1.00  0.00     0.002 A 
HETATM    3  C3  UNL     1      -1.258  -2.018  -2.980  1.00  0.00     0.018 A 
HETATM    4  C4  UNL     1      -0.141  -1.622  -2.240  1.00  0.00     0.075 A 
HETATM    5  C5  UNL     1       0.173  -0.274  -2.004  1.00  0.00     0.000 A 
HETATM    6  C6  UNL     1      -0.600   0.712  -2.613  1.00  0.00    -0.003 A 
HETATM    7  C7  UNL     1       1.366  -0.104  -1.081  1.00  0.00     0.087 C 
HETATM    8  C8  UNL     1       1.948  -1.588  -1.135  1.00  0.00     0.202 C 
HETATM    9  N1  UNL     1       0.819  -2.417  -1.632  1.00  0.00    -0.246 NA
HETATM   10  C9  UNL     1       2.702  -1.903   0.199  1.00  0.00     0.130 C 
HETATM   11  N2  UNL     1       3.863  -1.050  -0.253  1.00  0.00    -0.341 N 
HETATM   12  C10 UNL     1       3.625  -0.538  -1.599  1.00  0.00     0.200 C 
HETATM   13  C11 UNL     1       2.588   0.586  -1.739  1.00  0.00     0.063 C 
HETATM   14  O1  UNL     1       2.918  -1.599  -2.146  1.00  0.00    -0.319 OA
HETATM   15  C12 UNL     1       4.572  -0.131   0.655  1.00  0.00     0.125 C 
HETATM   16  C13 UNL     1       3.635   0.679   1.548  1.00  0.00    -0.011 C 
HETATM   17  C14 UNL     1       2.201   0.238   1.386  1.00  0.00    -0.029 C 
HETATM   18  C15 UNL     1       1.008   0.476   0.386  1.00  0.00     0.158 C 
HETATM   19  C19 UNL     1       2.449  -1.276   1.609  1.00  0.00     0.049 C 
HETATM   20  C20 UNL     1       4.009   1.621   2.428  1.00  0.00    -0.029 C 
HETATM   21  C21 UNL     1       5.422   2.066   2.688  1.00  0.00     0.030 C 
ENDROOT
BRANCH  18  22
HETATM   22  C16 UNL     1       0.692   1.970   0.196  1.00  0.00     0.220 C 
HETATM   23  O2  UNL     1       1.400   2.846   0.637  1.00  0.00    -0.287 OA
ENDBRANCH  18  22
BRANCH  18  24
HETATM   24  C17 UNL     1      -0.256  -0.173   1.001  1.00  0.00     0.282 C 
HETATM   25  O4  UNL     1      -0.858  -1.052   0.422  1.00  0.00    -0.263 OA
BRANCH  24  26
HETATM   26  O3  UNL     1      -0.709   0.266   2.214  1.00  0.00    -0.298 OA
HETATM   27  C18 UNL     1      -0.134   1.308   2.961  1.00  0.00     0.184 C 
ENDBRANCH  24  26
ENDBRANCH  18  24
TORSDOF 3
