REMARK  6 active torsions:
REMARK  status: ('A' for Active; 'I' for Inactive)
REMARK    1  A    between atoms: C9_10  and  C13_16 
REMARK    2  A    between atoms: C11_13  and  O1_14 
REMARK    3  A    between atoms: C13_16  and  C14_17 
REMARK    4  A    between atoms: C14_17  and  C15_18 
REMARK    5  A    between atoms: C14_17  and  C16_20 
REMARK    6  A    between atoms: C24_29  and  O3_33 
ROOT
HETATM    1  C14 UNL     1       4.875  -1.507   1.678  1.00  0.00     0.085 C 
ENDROOT
BRANCH   1   2
HETATM    2  C13 UNL     1       3.463  -0.940   1.594  1.00  0.00     0.129 C 
HETATM    3  O4  UNL     1       2.421  -1.738   1.719  1.00  0.00    -0.193 OA
BRANCH   2   4
HETATM    4  C9  UNL     1       3.248   0.545   1.325  1.00  0.00     0.115 C 
HETATM    5  C8  UNL     1       2.132   1.272   2.003  1.00  0.00     0.093 A 
HETATM    6  C7  UNL     1       1.953   2.638   1.960  1.00  0.00     0.018 A 
HETATM    7  N1  UNL     1       1.067   0.676   2.663  1.00  0.00    -0.271 NA
HETATM    8  C5  UNL     1       0.618   3.001   2.585  1.00  0.00     0.048 A 
HETATM    9  C11 UNL     1       2.890   3.546   1.308  1.00  0.00     0.094 C 
HETATM   10  C4  UNL     1       0.117   1.649   3.079  1.00  0.00     0.107 A 
HETATM   11  C6  UNL     1      -0.326   3.565   1.528  1.00  0.00     0.006 C 
HETATM   12  C3  UNL     1      -1.337   1.281   3.251  1.00  0.00     0.025 C 
HETATM   13  C2  UNL     1      -2.246   2.017   2.295  1.00  0.00     0.002 C 
HETATM   14  C1  UNL     1      -1.583   2.801   1.191  1.00  0.00     0.001 C 
HETATM   15  C10 UNL     1       4.069   2.851   0.655  1.00  0.00     0.176 C 
HETATM   16  N2  UNL     1       4.020   1.332   0.298  1.00  0.00    -0.261 NA
BRANCH   9  17
HETATM   17  O1  UNL     1       2.942   4.904   1.472  1.00  0.00    -0.331 OA
HETATM   18  C12 UNL     1       2.478   5.435   2.693  1.00  0.00     0.181 C 
ENDBRANCH   9  17
ENDBRANCH   2   4
ENDBRANCH   1   2
BRANCH   1  19
HETATM   19  C15 UNL     1       6.023  -0.498   1.631  1.00  0.00     0.189 C 
HETATM   20  O2  UNL     1       5.768   0.573   2.518  1.00  0.00    -0.220 OA
ENDBRANCH   1  19
BRANCH   1  21
HETATM   21  C16 UNL     1       5.143  -2.609   0.667  1.00  0.00     0.035 C 
HETATM   22  C17 UNL     1       6.208  -3.639   1.003  1.00  0.00     0.003 C 
HETATM   23  C18 UNL     1       6.490  -4.743   0.011  1.00  0.00     0.004 C 
HETATM   24  C19 UNL     1       6.026  -4.483  -1.401  1.00  0.00     0.024 C 
HETATM   25  C20 UNL     1       5.065  -3.328  -1.520  1.00  0.00    -0.019 A 
HETATM   26  C21 UNL     1       4.080  -3.049  -0.369  1.00  0.00     0.122 A 
HETATM   27  C23 UNL     1       5.142  -2.347  -2.566  1.00  0.00     0.029 A 
HETATM   28  N3  UNL     1       3.598  -1.314  -1.135  1.00  0.00    -0.271 NA
HETATM   29  C22 UNL     1       4.297  -1.127  -2.321  1.00  0.00     0.091 A 
HETATM   30  C26 UNL     1       4.108   0.064  -3.241  1.00  0.00     0.336 C 
HETATM   31  N4  UNL     1       5.477  -0.055  -4.674  1.00  0.00     0.353 N 
HETATM   32  C25 UNL     1       6.454  -1.176  -4.337  1.00  0.00     0.341 C 
HETATM   33  C24 UNL     1       5.968  -2.510  -3.820  1.00  0.00     0.108 C 
BRANCH  33  34
HETATM   34  O3  UNL     1       5.690  -3.558  -4.656  1.00  0.00    -0.330 OA
HETATM   35  C27 UNL     1       5.734  -3.286  -6.037  1.00  0.00     0.181 C 
ENDBRANCH  33  34
ENDBRANCH   1  21
TORSDOF 6
