REMARK  2 active torsions:
REMARK  status: ('A' for Active; 'I' for Inactive)
REMARK    1  A    between atoms: C9_10  and  C13_16 
REMARK    2  A    between atoms: C11_13  and  O1_14 
ROOT
HETATM    1  C1  UNL     1      -1.786   1.430  -0.045  1.00  0.00     0.002 A 
HETATM    2  C2  UNL     1      -2.256   0.100   0.036  1.00  0.00     0.029 A 
HETATM    3  C3  UNL     1      -1.368  -0.959   0.091  1.00  0.00     0.148 A 
HETATM    4  C4  UNL     1       0.004  -0.617   0.061  1.00  0.00     0.107 A 
HETATM    5  C5  UNL     1       0.527   0.688  -0.015  1.00  0.00     0.023 A 
HETATM    6  C6  UNL     1      -0.434   1.727  -0.068  1.00  0.00     0.002 A 
HETATM    7  C7  UNL     1       1.981   0.586  -0.029  1.00  0.00     0.044 A 
HETATM    8  C8  UNL     1       2.240  -0.800   0.038  1.00  0.00     0.101 A 
HETATM    9  N1  UNL     1       1.048  -1.506   0.095  1.00  0.00    -0.242 NA
HETATM   10  C9  UNL     1       3.530  -1.382   0.033  1.00  0.00     0.099 A 
HETATM   11  N2  UNL     1       4.571  -0.565  -0.032  1.00  0.00    -0.240 NA
HETATM   12  C10 UNL     1       4.340   0.765  -0.085  1.00  0.00     0.123 A 
HETATM   13  C11 UNL     1       3.123   1.445  -0.088  1.00  0.00     0.115 A 
HETATM   14  O2  UNL     1      -1.771  -2.253   0.166  1.00  0.00    -0.189 OA
ENDROOT
BRANCH  10  15
HETATM   15  C13 UNL     1       3.713  -2.838   0.089  1.00  0.00     0.021 C 
HETATM   16  C14 UNL     1       4.918  -3.437   0.024  1.00  0.00     0.002 C 
ENDBRANCH  10  15
BRANCH  13  17
HETATM   17  O1  UNL     1       3.240   2.810  -0.153  1.00  0.00    -0.327 OA
HETATM   18  C12 UNL     1       2.122   3.645  -0.194  1.00  0.00     0.181 C 
ENDBRANCH  13  17
TORSDOF 2
