REMARK  1 active torsions:
REMARK  status: ('A' for Active; 'I' for Inactive)
REMARK    1  A    between atoms: C3_3  and  O4_17 
ROOT
HETATM    1  C1  UNL     1      -1.587  -1.506   1.037  1.00  0.00     0.002 A 
HETATM    2  C2  UNL     1      -2.048  -0.410   0.253  1.00  0.00     0.026 A 
HETATM    3  C3  UNL     1      -1.216   0.505  -0.367  1.00  0.00     0.112 A 
HETATM    4  C4  UNL     1       0.181   0.261  -0.173  1.00  0.00     0.104 A 
HETATM    5  C5  UNL     1       0.651  -0.823   0.596  1.00  0.00     0.025 A 
HETATM    6  C6  UNL     1      -0.244  -1.731   1.219  1.00  0.00     0.002 A 
HETATM    7  C7  UNL     1       2.073  -0.778   0.580  1.00  0.00     0.068 A 
HETATM    8  C8  UNL     1       2.449   0.313  -0.178  1.00  0.00     0.142 A 
HETATM    9  N1  UNL     1       1.305   0.933  -0.626  1.00  0.00    -0.239 NA
HETATM   10  C9  UNL     1       3.858   0.669  -0.411  1.00  0.00     0.300 A 
HETATM   11  N2  UNL     1       4.754  -0.184   0.181  1.00  0.00    -0.165 NA
HETATM   12  C10 UNL     1       4.471  -1.294   0.941  1.00  0.00     0.321 A 
HETATM   13  C11 UNL     1       3.052  -1.678   1.215  1.00  0.00     0.255 A 
HETATM   14  O1  UNL     1       2.722  -2.643   1.893  1.00  0.00    -0.281 OA
HETATM   15  O2  UNL     1       5.406  -1.943   1.379  1.00  0.00    -0.262 OA
HETATM   16  O3  UNL     1       4.240   1.626  -1.068  1.00  0.00    -0.263 OA
ENDROOT
BRANCH   3  17
HETATM   17  O4  UNL     1      -1.784   1.513  -1.104  1.00  0.00    -0.327 OA
HETATM   18  C12 UNL     1      -0.950   2.418  -1.784  1.00  0.00     0.181 C 
ENDBRANCH   3  17
TORSDOF 1
