REMARK  1 active torsions:
REMARK  status: ('A' for Active; 'I' for Inactive)
REMARK    1  A    between atoms: C1_1  and  O7_28 
ROOT
HETATM    1  C1  UNL     1      -1.716  -0.694  -1.526  1.00  0.00     0.124 C 
HETATM    2  C2  UNL     1      -1.883  -1.892  -0.932  1.00  0.00     0.001 C 
HETATM    3  C3  UNL     1      -1.368  -2.216   0.450  1.00  0.00     0.025 C 
HETATM    4  C4  UNL     1       0.033  -1.580   0.501  1.00  0.00     0.013 C 
HETATM    5  C5  UNL     1      -0.033  -0.033   0.408  1.00  0.00     0.060 C 
HETATM    6  C6  UNL     1      -0.992   0.348  -0.736  1.00  0.00     0.194 C 
HETATM    7  O1  UNL     1      -1.284   1.522  -0.926  1.00  0.00    -0.289 OA
HETATM    8  C7  UNL     1       1.432   0.467   0.156  1.00  0.00     0.041 C 
HETATM    9  C8  UNL     1       2.489  -0.027   1.193  1.00  0.00     0.055 C 
HETATM   10  C9  UNL     1       2.392  -1.548   1.423  1.00  0.00     0.127 C 
HETATM   11  C10 UNL     1       0.952  -2.040   1.643  1.00  0.00     0.031 C 
HETATM   12  O2  UNL     1       2.947  -2.364   0.429  1.00  0.00    -0.304 OA
HETATM   13  C11 UNL     1       3.807  -1.977  -0.542  1.00  0.00     0.274 C 
HETATM   14  C12 UNL     1       4.213  -0.521  -0.578  1.00  0.00     0.126 C 
HETATM   15  C13 UNL     1       3.918   0.277   0.685  1.00  0.00     0.141 C 
HETATM   16  C14 UNL     1       4.143   1.787   0.524  1.00  0.00     0.059 C 
HETATM   17  C15 UNL     1       3.046   2.481  -0.284  1.00  0.00     0.147 C 
HETATM   18  C16 UNL     1       1.618   1.960  -0.195  1.00  0.00     0.146 C 
HETATM   19  O3  UNL     1       1.105   2.209  -1.479  1.00  0.00    -0.327 OA
HETATM   20  C17 UNL     1       2.105   2.845  -2.247  1.00  0.00     0.294 C 
HETATM   21  O4  UNL     1       3.311   2.429  -1.650  1.00  0.00    -0.327 OA
HETATM   22  C18 UNL     1       5.544   2.166   0.006  1.00  0.00     0.005 C 
HETATM   23  O5  UNL     1       4.845  -0.196   1.635  1.00  0.00    -0.225 OA
HETATM   24  O6  UNL     1       4.230  -2.755  -1.372  1.00  0.00    -0.264 OA
HETATM   25  C19 UNL     1       2.289   0.674   2.566  1.00  0.00     0.005 C 
HETATM   26  C20 UNL     1      -0.739   0.602   1.632  1.00  0.00     0.008 C 
HETATM   27  C21 UNL     1      -1.379  -3.738   0.673  1.00  0.00     0.005 C 
ENDROOT
BRANCH   1  28
HETATM   28  O7  UNL     1      -2.102  -0.508  -2.830  1.00  0.00    -0.326 OA
HETATM   29  C22 UNL     1      -1.425   0.470  -3.585  1.00  0.00     0.181 C 
ENDBRANCH   1  28
TORSDOF 1
