REMARK  1 active torsions:
REMARK  status: ('A' for Active; 'I' for Inactive)
REMARK    1  A    between atoms: C1_1  and  O8_29 
ROOT
HETATM    1  C1  UNL     1      -1.701  -0.792  -1.616  1.00  0.00     0.124 C 
HETATM    2  C2  UNL     1      -1.884  -1.975  -0.996  1.00  0.00     0.001 C 
HETATM    3  C3  UNL     1      -1.335  -2.312   0.368  1.00  0.00     0.025 C 
HETATM    4  C4  UNL     1       0.059  -1.666   0.416  1.00  0.00     0.013 C 
HETATM    5  C5  UNL     1      -0.011  -0.119   0.315  1.00  0.00     0.060 C 
HETATM    6  C6  UNL     1      -0.969   0.256  -0.838  1.00  0.00     0.194 C 
HETATM    7  O1  UNL     1      -1.233   1.435  -1.030  1.00  0.00    -0.289 OA
HETATM    8  C7  UNL     1       1.461   0.385   0.090  1.00  0.00     0.042 C 
HETATM    9  C8  UNL     1       2.504  -0.110   1.142  1.00  0.00     0.057 C 
HETATM   10  C9  UNL     1       2.401  -1.633   1.376  1.00  0.00     0.127 C 
HETATM   11  C10 UNL     1       0.958  -2.120   1.576  1.00  0.00     0.031 C 
HETATM   12  O2  UNL     1       2.962  -2.460   0.397  1.00  0.00    -0.304 OA
HETATM   13  C11 UNL     1       3.829  -2.083  -0.569  1.00  0.00     0.274 C 
HETATM   14  C12 UNL     1       4.255  -0.634  -0.590  1.00  0.00     0.129 C 
HETATM   15  C13 UNL     1       3.941   0.200   0.650  1.00  0.00     0.166 C 
HETATM   16  C14 UNL     1       4.220   1.691   0.422  1.00  0.00     0.180 C 
HETATM   17  C15 UNL     1       3.098   2.393  -0.337  1.00  0.00     0.175 C 
HETATM   18  C16 UNL     1       1.665   1.880  -0.237  1.00  0.00     0.148 C 
HETATM   19  O3  UNL     1       1.136   2.158  -1.508  1.00  0.00    -0.327 OA
HETATM   20  C17 UNL     1       2.119   2.824  -2.270  1.00  0.00     0.294 C 
HETATM   21  O4  UNL     1       3.331   2.378  -1.710  1.00  0.00    -0.325 OA
HETATM   22  O5  UNL     1       4.320   2.299   1.687  1.00  0.00    -0.221 OA
HETATM   23  C18 UNL     1       5.586   1.968  -0.228  1.00  0.00     0.038 C 
HETATM   24  O6  UNL     1       4.856  -0.231   1.629  1.00  0.00    -0.223 OA
HETATM   25  O7  UNL     1       4.239  -2.864  -1.402  1.00  0.00    -0.264 OA
HETATM   26  C19 UNL     1       2.266   0.569   2.519  1.00  0.00     0.005 C 
HETATM   27  C20 UNL     1      -0.736   0.520   1.527  1.00  0.00     0.008 C 
HETATM   28  C21 UNL     1      -1.335  -3.838   0.569  1.00  0.00     0.005 C 
ENDROOT
BRANCH   1  29
HETATM   29  O8  UNL     1      -2.267  -0.597  -2.853  1.00  0.00    -0.326 OA
HETATM   30  C22 UNL     1      -2.396   0.706  -3.367  1.00  0.00     0.181 C 
ENDBRANCH   1  29
TORSDOF 1
