REMARK  1 active torsions:
REMARK  status: ('A' for Active; 'I' for Inactive)
REMARK    1  A    between atoms: C1_1  and  O6_27 
ROOT
HETATM    1  C1  UNL     1      -1.507  -0.858  -2.234  1.00  0.00     0.124 C 
HETATM    2  C2  UNL     1      -1.753  -2.018  -1.593  1.00  0.00     0.001 C 
HETATM    3  C3  UNL     1      -1.293  -2.353  -0.199  1.00  0.00     0.025 C 
HETATM    4  C4  UNL     1       0.051  -1.633   0.019  1.00  0.00     0.013 C 
HETATM    5  C5  UNL     1      -0.068  -0.090  -0.124  1.00  0.00     0.060 C 
HETATM    6  C6  UNL     1      -0.721   0.180  -1.499  1.00  0.00     0.194 C 
HETATM    7  O1  UNL     1      -0.738   1.312  -1.956  1.00  0.00    -0.289 OA
HETATM    8  C7  UNL     1       1.370   0.532   0.026  1.00  0.00     0.039 C 
HETATM    9  C8  UNL     1       2.180   0.059   1.293  1.00  0.00     0.028 C 
HETATM   10  C9  UNL     1       2.169  -1.478   1.411  1.00  0.00     0.118 C 
HETATM   11  C10 UNL     1       0.756  -2.059   1.315  1.00  0.00     0.030 C 
HETATM   12  O2  UNL     1       2.935  -2.122   0.428  1.00  0.00    -0.332 OA
HETATM   13  C11 UNL     1       4.289  -1.768   0.403  1.00  0.00     0.269 C 
HETATM   14  C12 UNL     1       4.497  -0.283   0.245  1.00  0.00     0.065 C 
HETATM   15  C13 UNL     1       3.672   0.533   1.253  1.00  0.00     0.010 C 
HETATM   16  C14 UNL     1       3.812   2.063   1.058  1.00  0.00     0.030 C 
HETATM   17  C15 UNL     1       3.021   2.437  -0.182  1.00  0.00     0.145 C 
HETATM   18  C16 UNL     1       1.561   2.059  -0.074  1.00  0.00     0.145 C 
HETATM   19  O3  UNL     1       1.099   2.703  -1.217  1.00  0.00    -0.327 OA
HETATM   20  C17 UNL     1       1.828   3.921  -1.302  1.00  0.00     0.294 C 
HETATM   21  O4  UNL     1       2.943   3.801  -0.432  1.00  0.00    -0.327 OA
HETATM   22  C18 UNL     1       5.265   2.556   0.974  1.00  0.00     0.003 C 
HETATM   23  O5  UNL     1       4.819  -2.279   1.610  1.00  0.00    -0.190 OA
HETATM   24  C19 UNL     1       1.613   0.603   2.638  1.00  0.00     0.003 C 
HETATM   25  C20 UNL     1      -1.103   0.526   0.846  1.00  0.00     0.008 C 
HETATM   26  C21 UNL     1      -1.219  -3.885  -0.051  1.00  0.00     0.005 C 
ENDROOT
BRANCH   1  27
HETATM   27  O6  UNL     1      -1.951  -0.723  -3.529  1.00  0.00    -0.326 OA
HETATM   28  C22 UNL     1      -1.468   0.324  -4.336  1.00  0.00     0.181 C 
ENDBRANCH   1  27
TORSDOF 1
