REMARK  4 active torsions:
REMARK  status: ('A' for Active; 'I' for Inactive)
REMARK    1  A    between atoms: C1_1  and  C27_37 
REMARK    2  A    between atoms: C5_5  and  O2_7 
REMARK    3  A    between atoms: O2_7  and  C6_8 
REMARK    4  A    between atoms: C20_24  and  O6_27 
ROOT
HETATM    1  C6  UNL     1       4.279  -0.436  -0.230  1.00  0.00     0.175 C 
HETATM    2  C7  UNL     1       4.533  -0.399  -1.736  1.00  0.00     0.037 C 
HETATM    3  C8  UNL     1       3.240  -0.533  -2.564  1.00  0.00     0.003 C 
HETATM    4  C9  UNL     1       2.010   0.078  -1.846  1.00  0.00     0.010 C 
HETATM    5  C10 UNL     1       2.346   1.249  -0.883  1.00  0.00     0.061 C 
HETATM    6  C11 UNL     1       3.208   0.567   0.200  1.00  0.00     0.177 C 
HETATM    7  O3  UNL     1       3.011   0.718   1.385  1.00  0.00    -0.293 OA
HETATM    8  C12 UNL     1       1.041   1.811  -0.234  1.00  0.00     0.073 C 
HETATM    9  C13 UNL     1      -0.135   2.071  -1.202  1.00  0.00     0.037 C 
HETATM   10  C14 UNL     1      -0.393   0.878  -2.128  1.00  0.00     0.125 C 
HETATM   11  C15 UNL     1       0.893   0.444  -2.840  1.00  0.00     0.031 C 
HETATM   12  O4  UNL     1      -0.945  -0.257  -1.529  1.00  0.00    -0.304 OA
HETATM   13  C16 UNL     1      -1.674  -0.273  -0.387  1.00  0.00     0.272 C 
HETATM   14  C17 UNL     1      -1.883   1.041   0.333  1.00  0.00     0.100 C 
HETATM   15  C18 UNL     1      -1.401   2.313  -0.367  1.00  0.00     0.033 C 
HETATM   16  C19 UNL     1      -1.202   3.409   0.660  1.00  0.00    -0.018 C 
HETATM   17  C20 UNL     1       0.004   3.764   1.167  1.00  0.00     0.121 C 
HETATM   18  C21 UNL     1       1.213   3.021   0.688  1.00  0.00     0.195 C 
HETATM   19  O5  UNL     1       2.340   3.385   0.996  1.00  0.00    -0.289 OA
HETATM   20  C23 UNL     1      -2.485   4.073   1.113  1.00  0.00     0.029 C 
HETATM   21  O7  UNL     1      -2.129  -1.303   0.066  1.00  0.00    -0.264 OA
HETATM   22  C24 UNL     1       0.083   3.337  -2.074  1.00  0.00     0.003 C 
HETATM   23  C25 UNL     1       3.179   2.365  -1.552  1.00  0.00     0.008 C 
HETATM   24  C26 UNL     1       2.995  -2.004  -2.961  1.00  0.00     0.000 C 
ENDROOT
BRANCH   1  25
HETATM   25  O2  UNL     1       3.868  -1.744   0.106  1.00  0.00    -0.324 OA
BRANCH  25  26
HETATM   26  C5  UNL     1       4.553  -2.336   1.187  1.00  0.00     0.270 C 
HETATM   27  C4  UNL     1       3.824  -3.622   1.511  1.00  0.00     0.241 C 
HETATM   28  C3  UNL     1       4.631  -4.456   2.479  1.00  0.00     0.220 C 
HETATM   29  O8  UNL     1       2.579  -3.327   2.093  1.00  0.00    -0.215 OA
HETATM   30  C2  UNL     1       6.009  -4.668   1.890  1.00  0.00     0.215 C 
HETATM   31  O9  UNL     1       4.007  -5.700   2.668  1.00  0.00    -0.218 OA
HETATM   32  C1  UNL     1       6.646  -3.314   1.607  1.00  0.00     0.184 C 
HETATM   33  O10 UNL     1       6.764  -5.409   2.817  1.00  0.00    -0.218 OA
HETATM   34  O1  UNL     1       5.848  -2.611   0.692  1.00  0.00    -0.326 OA
BRANCH  32  35
HETATM   35  C27 UNL     1       8.042  -3.457   1.020  1.00  0.00     0.214 C 
HETATM   36  O11 UNL     1       8.664  -2.188   0.956  1.00  0.00    -0.218 OA
ENDBRANCH  32  35
ENDBRANCH  25  26
ENDBRANCH   1  25
BRANCH  17  37
HETATM   37  O6  UNL     1       0.057   4.732   2.142  1.00  0.00    -0.326 OA
HETATM   38  C22 UNL     1       1.220   4.901   2.916  1.00  0.00     0.181 C 
ENDBRANCH  17  37
TORSDOF 4
