REMARK  5 active torsions:
REMARK  status: ('A' for Active; 'I' for Inactive)
REMARK    1  A    between atoms: C1_1  and  O11_38 
REMARK    2  A    between atoms: C11_13  and  O5_23 
REMARK    3  A    between atoms: C15_17  and  O4_20 
REMARK    4  A    between atoms: O5_23  and  C19_24 
REMARK    5  A    between atoms: C20_26  and  C24_33 
ROOT
HETATM    1  C1  UNL     1      -1.487  -0.060  -1.651  1.00  0.00     0.124 C 
HETATM    2  C2  UNL     1      -1.813  -1.177  -0.968  1.00  0.00     0.001 C 
HETATM    3  C3  UNL     1      -1.038  -1.789   0.176  1.00  0.00     0.025 C 
HETATM    4  C4  UNL     1       0.325  -1.090   0.367  1.00  0.00     0.014 C 
HETATM    5  C5  UNL     1       0.192   0.450   0.264  1.00  0.00     0.065 C 
HETATM    6  C6  UNL     1      -0.261   0.663  -1.195  1.00  0.00     0.194 C 
HETATM    7  O1  UNL     1       0.373   1.377  -1.960  1.00  0.00    -0.289 OA
HETATM    8  C7  UNL     1       1.578   1.133   0.493  1.00  0.00     0.073 C 
HETATM    9  C8  UNL     1       2.393   0.650   1.713  1.00  0.00     0.036 C 
HETATM   10  C9  UNL     1       2.434  -0.888   1.779  1.00  0.00     0.118 C 
HETATM   11  C10 UNL     1       1.042  -1.515   1.661  1.00  0.00     0.030 C 
HETATM   12  O2  UNL     1       3.212  -1.435   0.752  1.00  0.00    -0.333 OA
HETATM   13  C11 UNL     1       4.564  -1.047   0.816  1.00  0.00     0.237 C 
HETATM   14  C12 UNL     1       4.683   0.438   0.547  1.00  0.00     0.066 C 
HETATM   15  C13 UNL     1       3.835   1.202   1.578  1.00  0.00     0.028 C 
HETATM   16  C14 UNL     1       3.870   2.692   1.310  1.00  0.00    -0.019 C 
HETATM   17  C15 UNL     1       2.845   3.402   0.780  1.00  0.00     0.121 C 
HETATM   18  C16 UNL     1       1.598   2.661   0.416  1.00  0.00     0.195 C 
HETATM   19  O3  UNL     1       0.594   3.259   0.056  1.00  0.00    -0.289 OA
HETATM   20  C18 UNL     1       5.176   3.363   1.688  1.00  0.00     0.029 C 
HETATM   21  C25 UNL     1       1.826   1.201   3.046  1.00  0.00     0.003 C 
HETATM   22  C26 UNL     1      -0.923   0.980   1.197  1.00  0.00     0.008 C 
HETATM   23  C27 UNL     1      -0.900  -3.302  -0.080  1.00  0.00     0.005 C 
ENDROOT
BRANCH  13  24
HETATM   24  O5  UNL     1       5.131  -1.850  -0.199  1.00  0.00    -0.304 OA
BRANCH  24  25
HETATM   25  C19 UNL     1       6.542  -1.813  -0.247  1.00  0.00     0.272 C 
HETATM   26  O6  UNL     1       6.860  -0.963  -1.330  1.00  0.00    -0.326 OA
HETATM   27  C20 UNL     1       8.244  -0.861  -1.553  1.00  0.00     0.184 C 
HETATM   28  C21 UNL     1       8.829  -2.237  -1.854  1.00  0.00     0.215 C 
HETATM   29  C22 UNL     1       8.527  -3.187  -0.714  1.00  0.00     0.220 C 
HETATM   30  O9  UNL     1      10.227  -2.180  -1.999  1.00  0.00    -0.218 OA
HETATM   31  C23 UNL     1       7.030  -3.217  -0.519  1.00  0.00     0.241 C 
HETATM   32  O8  UNL     1       8.993  -4.473  -1.034  1.00  0.00    -0.218 OA
HETATM   33  O7  UNL     1       6.727  -4.039   0.581  1.00  0.00    -0.215 OA
BRANCH  27  34
HETATM   34  C24 UNL     1       8.477   0.104  -2.707  1.00  0.00     0.214 C 
HETATM   35  O10 UNL     1       8.099   1.411  -2.323  1.00  0.00    -0.218 OA
ENDBRANCH  27  34
ENDBRANCH  24  25
ENDBRANCH  13  24
BRANCH  17  36
HETATM   36  O4  UNL     1       3.007   4.754   0.585  1.00  0.00    -0.326 OA
HETATM   37  C17 UNL     1       2.008   5.518  -0.045  1.00  0.00     0.181 C 
ENDBRANCH  17  36
BRANCH   1  38
HETATM   38  O11 UNL     1      -2.291   0.350  -2.686  1.00  0.00    -0.326 OA
HETATM   39  C28 UNL     1      -1.937   1.492  -3.427  1.00  0.00     0.181 C 
ENDBRANCH   1  38
TORSDOF 5
