REMARK  4 active torsions:
REMARK  status: ('A' for Active; 'I' for Inactive)
REMARK    1  A    between atoms: C1_1  and  O2_12 
REMARK    2  A    between atoms: C4_4  and  C9_9 
REMARK    3  A    between atoms: O2_12  and  C11_13 
REMARK    4  A    between atoms: C12_15  and  C16_22 
ROOT
HETATM    1  O2  UNL     1       1.746  -0.963  -0.750  1.00  0.00    -0.331 OA
ENDROOT
BRANCH   1   2
HETATM    2  C1  UNL     1       2.286   0.272  -0.361  1.00  0.00     0.122 C 
HETATM    3  C2  UNL     1       3.767   0.290  -0.725  1.00  0.00     0.051 C 
HETATM    4  C3  UNL     1       4.398   1.661  -0.614  1.00  0.00    -0.042 C 
HETATM    5  C4  UNL     1       3.670   2.803  -0.555  1.00  0.00     0.012 C 
HETATM    6  C10 UNL     1       5.911   1.583  -0.574  1.00  0.00     0.026 C 
HETATM    7  C5  UNL     1       2.144   2.797  -0.678  1.00  0.00     0.024 C 
HETATM    8  C6  UNL     1       1.620   1.413  -1.122  1.00  0.00     0.034 C 
HETATM    9  C7  UNL     1       1.524   3.173   0.685  1.00  0.00     0.004 C 
HETATM   10  C8  UNL     1       1.652   3.796  -1.751  1.00  0.00     0.004 C 
BRANCH   5  11
HETATM   11  C9  UNL     1       4.364   4.099  -0.309  1.00  0.00     0.229 C 
HETATM   12  O1  UNL     1       3.815   5.189  -0.278  1.00  0.00    -0.283 OA
ENDBRANCH   5  11
ENDBRANCH   1   2
BRANCH   1  13
HETATM   13  C11 UNL     1       0.544  -1.292  -0.086  1.00  0.00     0.270 C 
HETATM   14  O3  UNL     1       0.935  -2.027   1.054  1.00  0.00    -0.326 OA
HETATM   15  C12 UNL     1      -0.162  -2.437   1.830  1.00  0.00     0.184 C 
HETATM   16  C13 UNL     1      -1.072  -3.336   0.997  1.00  0.00     0.215 C 
HETATM   17  C14 UNL     1      -1.516  -2.617  -0.261  1.00  0.00     0.220 C 
HETATM   18  O6  UNL     1      -2.227  -3.708   1.707  1.00  0.00    -0.218 OA
HETATM   19  C15 UNL     1      -0.283  -2.159  -1.005  1.00  0.00     0.241 C 
HETATM   20  O5  UNL     1      -2.260  -3.492  -1.070  1.00  0.00    -0.218 OA
HETATM   21  O4  UNL     1      -0.675  -1.410  -2.127  1.00  0.00    -0.215 OA
BRANCH  15  22
HETATM   22  C16 UNL     1       0.374  -3.134   3.075  1.00  0.00     0.214 C 
HETATM   23  O7  UNL     1      -0.567  -3.050   4.126  1.00  0.00    -0.218 OA
ENDBRANCH  15  22
ENDBRANCH   1  13
TORSDOF 4
