REMARK  1 active torsions:
REMARK  status: ('A' for Active; 'I' for Inactive)
REMARK    1  A    between atoms: C3_3  and  C13_19 
ROOT
HETATM    1  C1  UNL     1      -2.065   0.559  -0.388  1.00  0.00     0.132 C 
HETATM    2  C2  UNL     1      -2.072  -0.613   0.622  1.00  0.00     0.152 C 
HETATM    3  C3  UNL     1      -0.795  -1.452   0.716  1.00  0.00     0.070 C 
HETATM    4  C4  UNL     1       0.065  -0.387   1.401  1.00  0.00     0.119 C 
HETATM    5  C5  UNL     1       0.456   0.790   0.493  1.00  0.00     0.143 C 
HETATM    6  C6  UNL     1      -0.715   1.342  -0.372  1.00  0.00     0.086 C 
HETATM    7  C7  UNL     1      -1.172   2.545   0.427  1.00  0.00     0.199 A 
HETATM    8  C8  UNL     1      -2.603   2.621   0.557  1.00  0.00     0.299 C 
HETATM    9  O1  UNL     1      -3.073   1.463   0.022  1.00  0.00    -0.302 OA
HETATM   10  O2  UNL     1      -3.272   3.511   1.032  1.00  0.00    -0.262 OA
HETATM   11  C9  UNL     1      -0.243   2.940   1.440  1.00  0.00     0.152 A 
HETATM   12  C10 UNL     1       0.945   1.997   1.326  1.00  0.00     0.064 C 
HETATM   13  O3  UNL     1      -0.271   3.851   0.367  1.00  0.00    -0.346 OA
HETATM   14  C11 UNL     1      -0.251   1.815  -1.766  1.00  0.00     0.008 C 
HETATM   15  O4  UNL     1       1.532   0.373  -0.306  1.00  0.00    -0.225 OA
HETATM   16  C12 UNL     1      -0.933   0.051   2.461  1.00  0.00     0.274 C 
HETATM   17  O5  UNL     1      -2.168  -0.067   1.916  1.00  0.00    -0.302 OA
HETATM   18  O6  UNL     1      -0.689   0.473   3.570  1.00  0.00    -0.264 OA
HETATM   19  C16 UNL     1      -2.562   0.089  -1.767  1.00  0.00     0.033 C 
ENDROOT
BRANCH   3  20
HETATM   20  C13 UNL     1      -0.236  -2.293  -0.437  1.00  0.00     0.130 C 
HETATM   21  C14 UNL     1      -1.288  -3.288  -0.942  1.00  0.00     0.033 C 
HETATM   22  C15 UNL     1       1.016  -3.064  -0.004  1.00  0.00     0.033 C 
HETATM   23  O7  UNL     1       0.142  -1.482  -1.509  1.00  0.00    -0.226 OA
ENDBRANCH   3  20
TORSDOF 1
