REMARK  1 active torsions:
REMARK  status: ('A' for Active; 'I' for Inactive)
REMARK    1  A    between atoms: C1_1  and  C13_19 
ROOT
HETATM    1  C1  UNL     1      -0.898  -1.265   0.040  1.00  0.00     0.060 C 
HETATM    2  C2  UNL     1       0.361  -0.488  -0.354  1.00  0.00     0.121 C 
HETATM    3  C3  UNL     1       0.246   0.981   0.090  1.00  0.00     0.143 C 
HETATM    4  C4  UNL     1      -1.151   1.599  -0.183  1.00  0.00     0.088 C 
HETATM    5  C5  UNL     1      -2.256   0.681  -0.754  1.00  0.00     0.157 C 
HETATM    6  C6  UNL     1      -1.787  -0.736  -1.081  1.00  0.00     0.156 C 
HETATM    7  O1  UNL     1      -0.985  -0.676  -2.228  1.00  0.00    -0.301 OA
HETATM    8  C7  UNL     1       0.319  -0.584  -1.870  1.00  0.00     0.274 C 
HETATM    9  O2  UNL     1       1.256  -0.580  -2.638  1.00  0.00    -0.264 OA
HETATM   10  O3  UNL     1      -3.325   0.631   0.164  1.00  0.00    -0.300 OA
HETATM   11  C8  UNL     1      -3.092   1.339   1.303  1.00  0.00     0.299 C 
HETATM   12  C9  UNL     1      -1.734   1.806   1.192  1.00  0.00     0.199 A 
HETATM   13  C10 UNL     1      -0.802   1.575   2.250  1.00  0.00     0.152 A 
HETATM   14  C11 UNL     1       0.501   1.143   1.604  1.00  0.00     0.064 C 
HETATM   15  O4  UNL     1      -1.074   2.944   2.075  1.00  0.00    -0.346 OA
HETATM   16  O5  UNL     1      -3.860   1.473   2.228  1.00  0.00    -0.262 OA
HETATM   17  C12 UNL     1      -1.114   2.923  -0.971  1.00  0.00     0.008 C 
HETATM   18  O6  UNL     1       1.247   1.696  -0.584  1.00  0.00    -0.225 OA
ENDROOT
BRANCH   1  19
HETATM   19  C13 UNL     1      -0.784  -2.779   0.051  1.00  0.00    -0.041 C 
HETATM   20  C14 UNL     1      -1.445  -3.493   0.979  1.00  0.00    -0.009 C 
HETATM   21  C15 UNL     1       0.025  -3.487  -1.010  1.00  0.00     0.026 C 
ENDBRANCH   1  19
TORSDOF 1
