REMARK  6 active torsions:
REMARK  status: ('A' for Active; 'I' for Inactive)
REMARK    1  A    between atoms: C6_6  and  C7_7 
REMARK    2  A    between atoms: C9_10  and  C11_14 
REMARK    3  A    between atoms: C11_14  and  C12_15 
REMARK    4  A    between atoms: C13_16  and  C14_17 
REMARK    5  A    between atoms: C14_17  and  C15_18 
REMARK    6  A    between atoms: C15_18  and  C16_19 
ROOT
HETATM    1  C1  UNL     1       1.309  -3.527  -3.673  1.00  0.00     0.004 A 
HETATM    2  C2  UNL     1       0.233  -3.927  -4.466  1.00  0.00     0.002 A 
HETATM    3  C3  UNL     1      -0.916  -3.146  -4.489  1.00  0.00     0.025 A 
HETATM    4  C4  UNL     1      -1.016  -1.939  -3.777  1.00  0.00     0.105 A 
HETATM    5  C5  UNL     1       0.102  -1.496  -3.047  1.00  0.00     0.051 A 
HETATM    6  C6  UNL     1       1.243  -2.332  -2.953  1.00  0.00     0.046 A 
HETATM    7  C8  UNL     1       0.032  -0.165  -2.422  1.00  0.00     0.134 C 
HETATM    8  C9  UNL     1      -1.154   0.493  -2.410  1.00  0.00     0.071 C 
HETATM    9  C10 UNL     1      -2.315  -0.145  -3.077  1.00  0.00     0.298 C 
HETATM   10  O2  UNL     1      -2.188  -1.245  -3.862  1.00  0.00    -0.273 OA
HETATM   11  O3  UNL     1      -3.421   0.377  -2.956  1.00  0.00    -0.259 OA
HETATM   12  O4  UNL     1       1.140   0.444  -1.921  1.00  0.00    -0.190 OA
ENDROOT
BRANCH   8  13
HETATM   13  C11 UNL     1      -1.292   1.845  -1.742  1.00  0.00     0.059 C 
BRANCH  13  14
HETATM   14  C12 UNL     1      -1.046   1.709  -0.259  1.00  0.00    -0.030 C 
HETATM   15  C13 UNL     1      -0.679   2.694   0.581  1.00  0.00    -0.048 C 
HETATM   16  C20 UNL     1      -0.521   4.133   0.146  1.00  0.00     0.026 C 
BRANCH  15  17
HETATM   17  C14 UNL     1      -0.393   2.463   2.054  1.00  0.00     0.026 C 
BRANCH  17  18
HETATM   18  C15 UNL     1      -0.304   0.999   2.518  1.00  0.00     0.030 C 
BRANCH  18  19
HETATM   19  C16 UNL     1       0.132   0.880   3.959  1.00  0.00    -0.034 C 
HETATM   20  C17 UNL     1       0.763  -0.172   4.510  1.00  0.00    -0.048 C 
HETATM   21  C18 UNL     1       1.175  -0.166   5.964  1.00  0.00     0.026 C 
HETATM   22  C19 UNL     1       1.117  -1.440   3.769  1.00  0.00     0.026 C 
ENDBRANCH  18  19
ENDBRANCH  17  18
ENDBRANCH  15  17
ENDBRANCH  13  14
ENDBRANCH   8  13
BRANCH   6  23
HETATM   23  C7  UNL     1       2.385  -2.053  -2.039  1.00  0.00     0.234 C 
HETATM   24  O1  UNL     1       3.534  -2.393  -2.280  1.00  0.00    -0.283 OA
ENDBRANCH   6  23
TORSDOF 6
