REMARK  5 active torsions:
REMARK  status: ('A' for Active; 'I' for Inactive)
REMARK    1  A    between atoms: C7_7  and  O1_8 
REMARK    2  A    between atoms: O1_8  and  C8_9 
REMARK    3  A    between atoms: C9_11  and  C13_18 
REMARK    4  A    between atoms: C13_18  and  O6_19 
REMARK    5  A    between atoms: O6_19  and  C14_20 
ROOT
HETATM    1  C8  UNL     1       0.478  -0.684  -1.500  1.00  0.00     0.274 C 
HETATM    2  O2  UNL     1       0.181   0.646  -1.137  1.00  0.00    -0.326 OA
HETATM    3  C9  UNL     1       0.506   1.566  -2.147  1.00  0.00     0.180 C 
HETATM    4  C10 UNL     1      -0.274   1.244  -3.417  1.00  0.00     0.215 C 
HETATM    5  C11 UNL     1       0.001  -0.180  -3.859  1.00  0.00     0.220 C 
HETATM    6  C12 UNL     1      -0.328  -1.101  -2.707  1.00  0.00     0.241 C 
HETATM    7  O3  UNL     1       0.007  -2.425  -3.035  1.00  0.00    -0.215 OA
HETATM    8  O4  UNL     1      -0.804  -0.491  -4.967  1.00  0.00    -0.218 OA
HETATM    9  O5  UNL     1       0.103   2.098  -4.470  1.00  0.00    -0.218 OA
ENDROOT
BRANCH   1  10
HETATM   10  O1  UNL     1       0.058  -1.463  -0.400  1.00  0.00    -0.302 OA
BRANCH  10  11
HETATM   11  C7  UNL     1       0.999  -2.286   0.144  1.00  0.00     0.111 C 
HETATM   12  C6  UNL     1       0.718  -3.548   0.506  1.00  0.00    -0.020 C 
HETATM   13  C1  UNL     1      -0.657  -4.164   0.367  1.00  0.00     0.020 C 
HETATM   14  C5  UNL     1       1.744  -4.449   1.161  1.00  0.00     0.024 C 
HETATM   15  C2  UNL     1      -0.560  -5.713   0.291  1.00  0.00     0.004 C 
HETATM   16  C19 UNL     1      -1.264  -4.361   1.787  1.00  0.00     0.004 C 
HETATM   17  C3  UNL     1      -0.396  -5.656   1.835  1.00  0.00     0.001 C 
HETATM   18  C4  UNL     1       1.078  -5.393   2.185  1.00  0.00     0.004 C 
HETATM   19  C20 UNL     1      -2.782  -4.626   1.788  1.00  0.00     0.000 C 
HETATM   20  C21 UNL     1      -0.959  -3.261   2.814  1.00  0.00     0.000 C 
ENDBRANCH  10  11
ENDBRANCH   1  10
BRANCH   3  21
HETATM   21  C13 UNL     1       0.206   2.967  -1.622  1.00  0.00     0.177 C 
BRANCH  21  22
HETATM   22  O6  UNL     1       1.064   3.231  -0.538  1.00  0.00    -0.326 OA
BRANCH  22  23
HETATM   23  C14 UNL     1       0.842   4.483   0.074  1.00  0.00     0.270 C 
HETATM   24  O7  UNL     1       1.326   5.461  -0.818  1.00  0.00    -0.326 OA
HETATM   25  C15 UNL     1       1.170   6.764  -0.309  1.00  0.00     0.181 C 
HETATM   26  C16 UNL     1       1.903   6.953   1.010  1.00  0.00     0.215 C 
HETATM   27  C17 UNL     1       1.530   5.872   2.003  1.00  0.00     0.220 C 
HETATM   28  O10 UNL     1       3.295   6.896   0.803  1.00  0.00    -0.218 OA
HETATM   29  C18 UNL     1       1.653   4.514   1.348  1.00  0.00     0.241 C 
HETATM   30  O9  UNL     1       2.404   5.927   3.103  1.00  0.00    -0.218 OA
HETATM   31  O8  UNL     1       1.174   3.533   2.233  1.00  0.00    -0.215 OA
ENDBRANCH  22  23
ENDBRANCH  21  22
ENDBRANCH   3  21
TORSDOF 5
