REMARK  5 active torsions:
REMARK  status: ('A' for Active; 'I' for Inactive)
REMARK    1  A    between atoms: C15_15  and  C18_19 
REMARK    2  A    between atoms: C18_19  and  C19_20 
REMARK    3  A    between atoms: C22_23  and  O2_28 
REMARK    4  A    between atoms: O2_28  and  C26_29 
REMARK    5  A    between atoms: C27_31  and  C31_38 
ROOT
HETATM    1  C18 UNL     1       6.019  -1.156  -0.737  1.00  0.00     0.158 C 
HETATM    2  O8  UNL     1       6.526  -2.352  -1.297  1.00  0.00    -0.224 OA
HETATM    3  C32 UNL     1       5.352  -0.506  -1.953  1.00  0.00     0.035 C 
ENDROOT
BRANCH   1   4
HETATM    4  C15 UNL     1       4.960  -1.683   0.279  1.00  0.00     0.060 C 
HETATM    5  C12 UNL     1       4.087  -0.822   1.238  1.00  0.00     0.005 C 
HETATM    6  C11 UNL     1       3.429  -1.947   2.099  1.00  0.00     0.003 C 
HETATM    7  C13 UNL     1       3.024   0.080   0.567  1.00  0.00     0.000 C 
HETATM    8  C33 UNL     1       4.927   0.075   2.178  1.00  0.00     0.000 C 
HETATM    9  C8  UNL     1       2.138  -2.622   1.551  1.00  0.00     0.005 C 
HETATM   10  C17 UNL     1       4.589  -2.912   2.394  1.00  0.00     0.033 C 
HETATM   11  C7  UNL     1       1.334  -1.733   0.588  1.00  0.00     0.004 C 
HETATM   12  C9  UNL     1       2.226  -4.008   0.889  1.00  0.00     0.025 C 
HETATM   13  C5  UNL     1      -0.145  -2.181   0.433  1.00  0.00     0.015 C 
HETATM   14  C14 UNL     1       1.575  -0.262   0.946  1.00  0.00     0.000 C 
HETATM   15  C4  UNL     1      -0.231  -3.704   0.415  1.00  0.00    -0.046 C 
HETATM   16  C6  UNL     1      -1.035  -1.683   1.593  1.00  0.00     0.006 C 
HETATM   17  C34 UNL     1      -0.663  -1.629  -0.919  1.00  0.00     0.004 C 
HETATM   18  C3  UNL     1      -1.621  -4.289   0.300  1.00  0.00     0.055 C 
HETATM   19  C10 UNL     1       0.836  -4.503   0.581  1.00  0.00    -0.035 C 
HETATM   20  C2  UNL     1      -2.434  -3.796   1.495  1.00  0.00     0.156 C 
HETATM   21  C1  UNL     1      -2.458  -2.271   1.569  1.00  0.00     0.034 C 
HETATM   22  O9  UNL     1      -3.751  -4.285   1.395  1.00  0.00    -0.223 OA
HETATM   23  C16 UNL     1       5.491  -2.828   1.165  1.00  0.00     0.154 C 
HETATM   24  O1  UNL     1       5.479  -4.044   0.456  1.00  0.00    -0.223 OA
ENDBRANCH   1   4
BRANCH   1  25
HETATM   25  C19 UNL     1       7.247  -0.391  -0.144  1.00  0.00     0.247 C 
HETATM   26  C20 UNL     1       8.618  -0.793  -0.737  1.00  0.00     0.038 C 
HETATM   27  C21 UNL     1       9.761  -0.339   0.181  1.00  0.00     0.032 C 
HETATM   28  C22 UNL     1       9.732   1.178   0.422  1.00  0.00     0.127 C 
HETATM   29  C23 UNL     1       8.300   1.555   0.848  1.00  0.00     0.277 C 
HETATM   30  C25 UNL     1      10.734   1.478   1.552  1.00  0.00     0.032 C 
HETATM   31  N1  UNL     1       7.181   1.069   0.031  1.00  0.00     0.142 N 
HETATM   32  C24 UNL     1       7.059   1.873  -1.171  1.00  0.00     0.285 C 
BRANCH  28  33
HETATM   33  O2  UNL     1      10.162   1.748  -0.784  1.00  0.00    -0.332 OA
BRANCH  33  34
HETATM   34  C26 UNL     1      10.366   3.148  -0.845  1.00  0.00     0.270 C 
HETATM   35  O3  UNL     1       9.469   3.574  -1.852  1.00  0.00    -0.326 OA
HETATM   36  C27 UNL     1       9.545   4.943  -2.145  1.00  0.00     0.184 C 
HETATM   37  C28 UNL     1      10.941   5.278  -2.653  1.00  0.00     0.215 C 
HETATM   38  C29 UNL     1      11.957   4.890  -1.603  1.00  0.00     0.220 C 
HETATM   39  O6  UNL     1      11.079   6.656  -2.899  1.00  0.00    -0.218 OA
HETATM   40  C30 UNL     1      11.787   3.419  -1.298  1.00  0.00     0.241 C 
HETATM   41  O5  UNL     1      13.251   5.128  -2.095  1.00  0.00    -0.218 OA
HETATM   42  O4  UNL     1      12.706   3.068  -0.298  1.00  0.00    -0.215 OA
BRANCH  36  43
HETATM   43  C31 UNL     1       8.480   5.270  -3.184  1.00  0.00     0.214 C 
HETATM   44  O7  UNL     1       7.196   5.196  -2.598  1.00  0.00    -0.218 OA
ENDBRANCH  36  43
ENDBRANCH  33  34
ENDBRANCH  28  33
ENDBRANCH   1  25
TORSDOF 5
