REMARK  5 active torsions:
REMARK  status: ('A' for Active; 'I' for Inactive)
REMARK    1  A    between atoms: C3_3  and  C19_21 
REMARK    2  A    between atoms: C12_12  and  C16_16 
REMARK    3  A    between atoms: C16_16  and  C17_17 
REMARK    4  A    between atoms: C19_21  and  O3_22 
REMARK    5  A    between atoms: O3_22  and  C20_23 
ROOT
HETATM    1  C1  UNL     1      -2.693   1.174   1.344  1.00  0.00     0.000 C 
HETATM    2  C2  UNL     1      -2.981   0.758  -0.098  1.00  0.00     0.002 C 
HETATM    3  C3  UNL     1      -2.270  -0.561  -0.477  1.00  0.00     0.028 C 
HETATM    4  C4  UNL     1      -0.941  -0.748   0.324  1.00  0.00     0.003 C 
HETATM    5  C5  UNL     1      -0.236   0.594   0.689  1.00  0.00     0.004 C 
HETATM    6  C6  UNL     1      -1.197   1.463   1.557  1.00  0.00     0.000 C 
HETATM    7  C7  UNL     1       1.074   0.318   1.490  1.00  0.00     0.018 C 
HETATM    8  C8  UNL     1       1.951  -0.688   0.764  1.00  0.00    -0.048 C 
HETATM    9  C9  UNL     1       1.287  -2.008   0.463  1.00  0.00     0.022 C 
HETATM   10  C10 UNL     1       0.014  -1.762  -0.352  1.00  0.00     0.004 C 
HETATM   11  C11 UNL     1       3.225  -0.439   0.387  1.00  0.00    -0.028 C 
HETATM   12  C12 UNL     1       3.930   0.873   0.664  1.00  0.00     0.072 C 
HETATM   13  C13 UNL     1       2.918   2.010   0.912  1.00  0.00     0.011 C 
HETATM   14  C14 UNL     1       1.850   1.586   1.926  1.00  0.00     0.005 C 
HETATM   15  C15 UNL     1       4.838   0.684   1.883  1.00  0.00     0.012 C 
HETATM   16  C18 UNL     1       0.098   1.346  -0.611  1.00  0.00     0.000 C 
HETATM   17  C22 UNL     1      -2.027  -0.549  -1.992  1.00  0.00     0.003 C 
ENDROOT
BRANCH   3  18
HETATM   18  C19 UNL     1      -3.199  -1.742  -0.168  1.00  0.00     0.152 C 
BRANCH  18  19
HETATM   19  O3  UNL     1      -4.381  -1.631  -0.947  1.00  0.00    -0.302 OA
BRANCH  19  20
HETATM   20  C20 UNL     1      -5.231  -2.631  -0.725  1.00  0.00     0.272 C 
HETATM   21  C21 UNL     1      -6.508  -2.574  -1.522  1.00  0.00     0.106 C 
HETATM   22  O4  UNL     1      -5.022  -3.531   0.053  1.00  0.00    -0.264 OA
ENDBRANCH  19  20
ENDBRANCH  18  19
ENDBRANCH   3  18
BRANCH  12  23
HETATM   23  C16 UNL     1       4.799   1.215  -0.522  1.00  0.00     0.187 C 
HETATM   24  O2  UNL     1       5.990   1.363  -0.397  1.00  0.00    -0.293 OA
BRANCH  23  25
HETATM   25  C17 UNL     1       4.135   1.367  -1.865  1.00  0.00     0.246 C 
HETATM   26  O1  UNL     1       5.119   1.398  -2.873  1.00  0.00    -0.212 OA
ENDBRANCH  23  25
ENDBRANCH  12  23
TORSDOF 5
