REMARK  1 active torsions:
REMARK  status: ('A' for Active; 'I' for Inactive)
REMARK    1  A    between atoms: C2_3  and  C6_7 
ROOT
HETATM    1  C1  UNL     1      -1.557   0.607  -0.916  1.00  0.00     0.220 C 
HETATM    2  N1  UNL     1      -0.294  -0.122  -0.761  1.00  0.00     0.139 N 
HETATM    3  C2  UNL     1       0.247   0.033   0.592  1.00  0.00     0.241 C 
HETATM    4  C3  UNL     1       0.480   1.513   0.946  1.00  0.00     0.038 C 
HETATM    5  C4  UNL     1      -0.818   2.311   0.811  1.00  0.00     0.004 C 
HETATM    6  C5  UNL     1      -1.370   2.105  -0.602  1.00  0.00     0.033 C 
HETATM    7  C9  UNL     1      -0.444  -1.534  -1.097  1.00  0.00     0.286 C 
HETATM    8  C10 UNL     1      -2.161   0.481  -2.329  1.00  0.00     0.035 C 
ENDROOT
BRANCH   3   9
HETATM    9  C6  UNL     1       1.570  -0.693   0.738  1.00  0.00     0.002 C 
HETATM   10  C7  UNL     1       1.752  -1.764   1.526  1.00  0.00    -0.028 C 
HETATM   11  C8  UNL     1       3.057  -2.502   1.653  1.00  0.00     0.030 C 
ENDBRANCH   3   9
TORSDOF 1
