REMARK  3 active torsions:
REMARK  status: ('A' for Active; 'I' for Inactive)
REMARK    1  A    between atoms: C2_2  and  O2_16 
REMARK    2  A    between atoms: C4_4  and  C7_8 
REMARK    3  A    between atoms: C8_9  and  C9_10 
ROOT
HETATM    1  C1  UNL     1       2.664   1.224   0.122  1.00  0.00     0.052 A 
HETATM    2  C2  UNL     1       2.958  -0.088   0.056  1.00  0.00     0.096 A 
HETATM    3  C3  UNL     1       1.922  -0.938   0.212  1.00  0.00     0.024 A 
HETATM    4  C4  UNL     1       0.649  -0.534   0.407  1.00  0.00     0.004 A 
HETATM    5  C5  UNL     1       0.442   0.791   0.509  1.00  0.00     0.028 A 
HETATM    6  C6  UNL     1       1.427   1.688   0.349  1.00  0.00     0.133 A 
HETATM    7  O1  UNL     1       1.191   3.024   0.450  1.00  0.00    -0.190 OA
ENDROOT
BRANCH   4   8
HETATM    8  C7  UNL     1      -0.319  -1.457   0.593  1.00  0.00     0.000 C 
HETATM    9  C8  UNL     1      -1.661  -1.351   0.638  1.00  0.00     0.000 C 
BRANCH   9  10
HETATM   10  C9  UNL     1      -2.515  -0.454   0.099  1.00  0.00     0.000 A 
HETATM   11  C10 UNL     1      -3.810  -0.473   0.478  1.00  0.00     0.000 A 
HETATM   12  C11 UNL     1      -4.714   0.374  -0.038  1.00  0.00     0.000 A 
HETATM   13  C12 UNL     1      -4.349   1.253  -0.982  1.00  0.00     0.000 A 
HETATM   14  C13 UNL     1      -3.080   1.258  -1.412  1.00  0.00     0.000 A 
HETATM   15  C14 UNL     1      -2.185   0.407  -0.885  1.00  0.00     0.000 A 
ENDBRANCH   9  10
ENDBRANCH   4   8
BRANCH   2  16
HETATM   16  O2  UNL     1       4.265  -0.454  -0.168  1.00  0.00    -0.328 OA
HETATM   17  C15 UNL     1       4.575  -1.820  -0.323  1.00  0.00     0.181 C 
ENDBRANCH   2  16
TORSDOF 3
