REMARK  7 active torsions:
REMARK  status: ('A' for Active; 'I' for Inactive)
REMARK    1  A    between atoms: C1_1  and  C26_28 
REMARK    2  A    between atoms: C2_2  and  C8_8 
REMARK    3  A    between atoms: C10_10  and  C23_25 
REMARK    4  A    between atoms: C12_12  and  C14_15 
REMARK    5  A    between atoms: C16_17  and  C20_22 
REMARK    6  A    between atoms: C20_22  and  C21_23 
REMARK    7  A    between atoms: C23_25  and  C24_26 
ROOT
HETATM    1  C8  UNL     1       0.966  -0.356  -1.177  1.00  0.00     0.007 A 
HETATM    2  C9  UNL     1       1.716  -1.460  -1.314  1.00  0.00    -0.006 A 
HETATM    3  C10 UNL     1       2.105  -2.182  -0.256  1.00  0.00    -0.018 A 
HETATM    4  C11 UNL     1       1.733  -1.738   0.954  1.00  0.00    -0.002 A 
HETATM    5  C12 UNL     1       1.011  -0.615   1.171  1.00  0.00     0.025 A 
HETATM    6  C13 UNL     1       0.623   0.071   0.062  1.00  0.00     0.127 A 
HETATM    7  O1  UNL     1      -0.047   1.254   0.143  1.00  0.00    -0.191 OA
ENDROOT
BRANCH   1   8
HETATM    8  C2  UNL     1       0.571   0.405  -2.445  1.00  0.00     0.046 C 
HETATM    9  C1  UNL     1      -0.961   0.530  -2.666  1.00  0.00     0.009 C 
HETATM   10  C6  UNL     1      -1.244   1.802  -3.490  1.00  0.00     0.005 C 
HETATM   11  C5  UNL     1      -0.685   3.062  -2.818  1.00  0.00     0.022 C 
HETATM   12  C4  UNL     1       0.785   2.918  -2.542  1.00  0.00    -0.048 C 
HETATM   13  C3  UNL     1       1.342   1.706  -2.406  1.00  0.00    -0.030 C 
HETATM   14  C7  UNL     1       1.573   4.193  -2.380  1.00  0.00     0.026 C 
BRANCH   9  15
HETATM   15  C26 UNL     1      -1.614  -0.721  -3.318  1.00  0.00     0.001 C 
HETATM   16  C27 UNL     1      -1.330  -2.024  -2.549  1.00  0.00     0.000 C 
HETATM   17  C28 UNL     1      -3.145  -0.588  -3.460  1.00  0.00     0.000 C 
ENDBRANCH   9  15
ENDBRANCH   1   8
BRANCH   3  18
HETATM   18  C23 UNL     1       2.914  -3.445  -0.486  1.00  0.00     0.052 C 
BRANCH  18  19
HETATM   19  C24 UNL     1       3.257  -4.242   0.746  1.00  0.00    -0.021 C 
HETATM   20  C25 UNL     1       2.696  -5.421   1.053  1.00  0.00    -0.005 C 
ENDBRANCH  18  19
ENDBRANCH   3  18
BRANCH   5  21
HETATM   21  C14 UNL     1       0.720  -0.241   2.451  1.00  0.00     0.002 A 
HETATM   22  C15 UNL     1      -0.284   0.594   2.798  1.00  0.00    -0.002 A 
HETATM   23  C16 UNL     1      -0.575   0.986   4.053  1.00  0.00     0.008 A 
HETATM   24  C17 UNL     1       0.161   0.526   5.079  1.00  0.00     0.127 A 
HETATM   25  C18 UNL     1       1.161  -0.314   4.779  1.00  0.00     0.027 A 
HETATM   26  O2  UNL     1      -0.071   0.880   6.372  1.00  0.00    -0.191 OA
HETATM   27  C19 UNL     1       1.427  -0.682   3.517  1.00  0.00     0.002 A 
BRANCH  23  28
HETATM   28  C20 UNL     1      -1.734   1.939   4.282  1.00  0.00     0.054 C 
BRANCH  28  29
HETATM   29  C21 UNL     1      -3.031   1.337   3.805  1.00  0.00    -0.021 C 
HETATM   30  C22 UNL     1      -3.767   1.848   2.807  1.00  0.00    -0.005 C 
ENDBRANCH  28  29
ENDBRANCH  23  28
ENDBRANCH   5  21
TORSDOF 7
