REMARK  1 active torsions:
REMARK  status: ('A' for Active; 'I' for Inactive)
REMARK    1  A    between atoms: C6_6  and  O1_7 
ROOT
HETATM    1  C1  UNL     1      -3.754   0.041   0.301  1.00  0.00     0.024 A 
HETATM    2  C2  UNL     1      -2.554  -0.537   0.453  1.00  0.00     0.002 A 
HETATM    3  C3  UNL     1      -1.437   0.198   0.572  1.00  0.00     0.030 A 
HETATM    4  C4  UNL     1      -1.523   1.542   0.555  1.00  0.00     0.095 A 
HETATM    5  C5  UNL     1      -2.743   2.083   0.379  1.00  0.00     0.048 A 
HETATM    6  C6  UNL     1      -3.884   1.380   0.244  1.00  0.00     0.096 A 
HETATM    7  O2  UNL     1      -0.425   2.358   0.655  1.00  0.00    -0.328 OA
HETATM    8  C8  UNL     1       0.776   1.794   0.201  1.00  0.00     0.186 C 
HETATM    9  C9  UNL     1       1.057   0.487   0.911  1.00  0.00     0.204 C 
HETATM   10  C10 UNL     1      -0.115  -0.489   0.799  1.00  0.00     0.180 C 
HETATM   11  O3  UNL     1       0.263  -1.432  -0.207  1.00  0.00    -0.326 OA
HETATM   12  C11 UNL     1       1.475  -1.378  -0.417  1.00  0.00     0.095 A 
HETATM   13  C12 UNL     1       2.074  -0.346   0.193  1.00  0.00     0.035 A 
HETATM   14  C13 UNL     1       3.393  -0.123   0.104  1.00  0.00     0.026 A 
HETATM   15  C14 UNL     1       4.092  -0.998  -0.633  1.00  0.00     0.119 A 
HETATM   16  C15 UNL     1       3.499  -2.026  -1.259  1.00  0.00     0.121 A 
HETATM   17  C16 UNL     1       2.178  -2.239  -1.171  1.00  0.00     0.050 A 
HETATM   18  O4  UNL     1       4.319  -2.697  -1.881  1.00  0.00    -0.299 OA
HETATM   19  C17 UNL     1       5.603  -2.103  -1.682  1.00  0.00     0.304 A 
HETATM   20  O5  UNL     1       5.302  -0.987  -0.843  1.00  0.00    -0.300 OA
HETATM   21  O6  UNL     1       1.443   0.698   2.246  1.00  0.00    -0.216 OA
ENDROOT
BRANCH   6  22
HETATM   22  O1  UNL     1      -5.071   2.059   0.109  1.00  0.00    -0.328 OA
HETATM   23  C7  UNL     1      -6.277   1.344   0.255  1.00  0.00     0.181 C 
ENDBRANCH   6  22
TORSDOF 1
