REMARK  11 active torsions:
REMARK  status: ('A' for Active; 'I' for Inactive)
REMARK    1  A    between atoms: C7_9  and  C35_47 
REMARK    2  A    between atoms: C8_10  and  O4_13 
REMARK    3  A    between atoms: O4_13  and  C10_14 
REMARK    4  A    between atoms: C13_18  and  O9_32 
REMARK    5  A    between atoms: C14_19  and  O6_20 
REMARK    6  A    between atoms: O6_20  and  C15_21 
REMARK    7  A    between atoms: C15_21  and  C16_22 
REMARK    8  A    between atoms: C17_23  and  C18_24 
REMARK    9  A    between atoms: O9_32  and  C24_33 
REMARK   10  A    between atoms: C24_33  and  C25_34 
REMARK   11  A    between atoms: C26_35  and  C28_37 
ROOT
HETATM    1  C10 UNL     1       0.547   1.153  -0.505  1.00  0.00     0.271 C 
HETATM    2  O5  UNL     1       1.536   2.156  -0.445  1.00  0.00    -0.329 OA
HETATM    3  C11 UNL     1       2.776   1.646  -0.036  1.00  0.00     0.151 C 
HETATM    4  C12 UNL     1       2.655   1.021   1.350  1.00  0.00     0.209 C 
HETATM    5  C13 UNL     1       1.547  -0.030   1.415  1.00  0.00     0.190 C 
HETATM    6  C14 UNL     1       0.251   0.593   0.878  1.00  0.00     0.211 C 
HETATM    7  O12 UNL     1       3.880   0.432   1.721  1.00  0.00    -0.218 OA
HETATM    8  C34 UNL     1       3.788   2.792  -0.062  1.00  0.00     0.035 C 
ENDROOT
BRANCH   1   9
HETATM    9  O4  UNL     1      -0.548   1.791  -1.138  1.00  0.00    -0.298 OA
BRANCH   9  10
HETATM   10  C8  UNL     1      -1.663   0.999  -1.321  1.00  0.00     0.158 C 
HETATM   11  C7  UNL     1      -1.738  -0.112  -2.100  1.00  0.00     0.125 C 
HETATM   12  O2  UNL     1      -2.834  -0.923  -1.980  1.00  0.00    -0.305 OA
HETATM   13  C4  UNL     1      -3.957  -0.408  -1.414  1.00  0.00     0.107 A 
HETATM   14  C3  UNL     1      -3.950   0.749  -0.729  1.00  0.00     0.089 A 
HETATM   15  C5  UNL     1      -5.109  -1.093  -1.517  1.00  0.00     0.052 A 
HETATM   16  C2  UNL     1      -5.080   1.206  -0.145  1.00  0.00     0.138 A 
HETATM   17  C9  UNL     1      -2.775   1.433  -0.647  1.00  0.00     0.224 C 
HETATM   18  C1  UNL     1      -6.206   0.485  -0.284  1.00  0.00     0.055 A 
HETATM   19  O14 UNL     1      -5.151   2.365   0.570  1.00  0.00    -0.190 OA
HETATM   20  C6  UNL     1      -6.255  -0.666  -0.970  1.00  0.00     0.135 A 
HETATM   21  O1  UNL     1      -7.407  -1.378  -1.097  1.00  0.00    -0.190 OA
HETATM   22  O3  UNL     1      -2.697   2.460  -0.007  1.00  0.00    -0.284 OA
BRANCH  11  23
HETATM   23  C35 UNL     1      -0.751  -0.559  -2.926  1.00  0.00     0.025 A 
HETATM   24  C36 UNL     1      -0.790  -1.834  -3.374  1.00  0.00     0.004 A 
HETATM   25  C37 UNL     1       0.169  -2.364  -4.150  1.00  0.00     0.028 A 
HETATM   26  C38 UNL     1       1.220  -1.640  -4.558  1.00  0.00     0.131 A 
HETATM   27  C39 UNL     1       1.243  -0.353  -4.184  1.00  0.00     0.028 A 
HETATM   28  O13 UNL     1       2.199  -2.166  -5.342  1.00  0.00    -0.190 OA
HETATM   29  C40 UNL     1       0.282   0.166  -3.404  1.00  0.00     0.004 A 
ENDBRANCH  11  23
ENDBRANCH   9  10
ENDBRANCH   1   9
BRANCH   6  30
HETATM   30  O6  UNL     1      -0.156   1.620   1.740  1.00  0.00    -0.293 OA
BRANCH  30  31
HETATM   31  C15 UNL     1      -1.328   1.526   2.440  1.00  0.00     0.296 C 
HETATM   32  O8  UNL     1      -2.061   0.571   2.291  1.00  0.00    -0.259 OA
BRANCH  31  33
HETATM   33  C16 UNL     1      -1.694   2.472   3.350  1.00  0.00     0.068 C 
HETATM   34  C17 UNL     1      -0.935   3.550   3.621  1.00  0.00     0.005 C 
BRANCH  34  35
HETATM   35  C18 UNL     1      -1.186   4.541   4.504  1.00  0.00     0.000 A 
HETATM   36  C19 UNL     1      -0.278   5.526   4.655  1.00  0.00     0.002 A 
HETATM   37  C20 UNL     1      -0.465   6.535   5.520  1.00  0.00     0.027 A 
HETATM   38  C21 UNL     1      -1.571   6.610   6.276  1.00  0.00     0.131 A 
HETATM   39  C22 UNL     1      -2.482   5.634   6.127  1.00  0.00     0.027 A 
HETATM   40  O7  UNL     1      -1.768   7.629   7.155  1.00  0.00    -0.190 OA
HETATM   41  C23 UNL     1      -2.296   4.622   5.263  1.00  0.00     0.002 A 
ENDBRANCH  34  35
ENDBRANCH  31  33
ENDBRANCH  30  31
ENDBRANCH   6  30
BRANCH   5  42
HETATM   42  O9  UNL     1       1.921  -1.127   0.625  1.00  0.00    -0.295 OA
BRANCH  42  43
HETATM   43  C24 UNL     1       1.308  -2.334   0.793  1.00  0.00     0.296 C 
HETATM   44  O11 UNL     1       0.470  -2.445   1.664  1.00  0.00    -0.259 OA
BRANCH  43  45
HETATM   45  C25 UNL     1       1.567  -3.444   0.040  1.00  0.00     0.064 C 
HETATM   46  C26 UNL     1       2.424  -3.590  -1.001  1.00  0.00    -0.017 C 
HETATM   47  C27 UNL     1       3.176  -2.356  -1.486  1.00  0.00     0.031 C 
BRANCH  46  48
HETATM   48  C28 UNL     1       2.622  -4.799  -1.602  1.00  0.00    -0.004 A 
HETATM   49  C29 UNL     1       1.893  -5.909  -1.341  1.00  0.00     0.002 A 
HETATM   50  C30 UNL     1       2.115  -7.095  -1.931  1.00  0.00     0.027 A 
HETATM   51  C31 UNL     1       3.095  -7.262  -2.829  1.00  0.00     0.131 A 
HETATM   52  C32 UNL     1       3.836  -6.180  -3.105  1.00  0.00     0.027 A 
HETATM   53  O10 UNL     1       3.333  -8.460  -3.426  1.00  0.00    -0.190 OA
HETATM   54  C33 UNL     1       3.603  -4.998  -2.511  1.00  0.00     0.002 A 
ENDBRANCH  46  48
ENDBRANCH  43  45
ENDBRANCH  42  43
ENDBRANCH   5  42
TORSDOF 11
