REMARK  3 active torsions:
REMARK  status: ('A' for Active; 'I' for Inactive)
REMARK    1  A    between atoms: C3_3  and  C29_32 
REMARK    2  A    between atoms: C3_3  and  C30_34 
REMARK    3  A    between atoms: C16_16  and  C25_26 
ROOT
HETATM    1  C1  UNL     1      -0.548  -2.833  -1.250  1.00  0.00     0.182 C 
HETATM    2  C2  UNL     1      -0.836  -2.938   0.472  1.00  0.00     0.187 C 
HETATM    3  C3  UNL     1      -2.329  -2.466   1.260  1.00  0.00     0.092 C 
HETATM    4  C4  UNL     1      -3.299  -1.312   0.201  1.00  0.00     0.007 A 
HETATM    5  C5  UNL     1      -2.782  -0.779  -1.526  1.00  0.00     0.003 C 
HETATM    6  C6  UNL     1      -1.464  -1.793  -2.318  1.00  0.00     0.036 C 
HETATM    7  C7  UNL     1      -1.852   0.320  -1.283  1.00  0.00     0.005 C 
HETATM    8  C8  UNL     1      -1.335  -0.840  -0.402  1.00  0.00     0.004 C 
HETATM    9  C9  UNL     1      -2.545  -2.447  -0.766  1.00  0.00     0.001 A 
HETATM   10  C10 UNL     1      -4.069  -2.351  -0.485  1.00  0.00     0.000 A 
HETATM   11  C11 UNL     1       0.335  -0.237  -0.767  1.00  0.00     0.017 C 
HETATM   12  C12 UNL     1       0.391   1.378  -0.567  1.00  0.00    -0.049 C 
HETATM   13  C13 UNL     1      -0.712   2.172  -0.570  1.00  0.00    -0.035 C 
HETATM   14  C14 UNL     1      -2.135   1.699  -0.753  1.00  0.00     0.025 C 
HETATM   15  C15 UNL     1       1.764   2.071  -0.424  1.00  0.00     0.030 C 
HETATM   16  C16 UNL     1       2.612   1.434   0.701  1.00  0.00     0.110 C 
HETATM   17  C17 UNL     1       2.806  -0.049   0.354  1.00  0.00     0.162 C 
HETATM   18  C18 UNL     1       1.472  -0.783   0.182  1.00  0.00     0.037 C 
HETATM   19  O1  UNL     1       3.640  -0.230  -0.768  1.00  0.00    -0.223 OA
HETATM   20  C19 UNL     1       3.996   2.111   0.829  1.00  0.00     0.013 C 
HETATM   21  C20 UNL     1       3.908   3.634   0.972  1.00  0.00     0.001 C 
HETATM   22  C21 UNL     1       3.159   4.279  -0.208  1.00  0.00     0.000 C 
HETATM   23  C22 UNL     1       1.768   3.618  -0.336  1.00  0.00     0.005 C 
HETATM   24  C23 UNL     1       2.982   5.787   0.087  1.00  0.00     0.000 C 
HETATM   25  C24 UNL     1       3.961   4.162  -1.522  1.00  0.00     0.000 C 
HETATM   26  C26 UNL     1       0.966  -0.301  -2.209  1.00  0.00     0.004 C 
HETATM   27  C27 UNL     1      -1.317  -0.160   1.050  1.00  0.00     0.000 C 
HETATM   28  C28 UNL     1      -3.849  -0.316  -2.537  1.00  0.00     0.000 C 
HETATM   29  O6  UNL     1      -0.470  -4.228   0.913  1.00  0.00    -0.221 OA
HETATM   30  O7  UNL     1      -0.626  -4.133  -1.819  1.00  0.00    -0.221 OA
ENDROOT
BRANCH   3  31
HETATM   31  C29 UNL     1      -2.174  -2.067   2.781  1.00  0.00     0.187 C 
HETATM   32  O4  UNL     1      -0.981  -2.625   3.301  1.00  0.00    -0.221 OA
ENDBRANCH   3  31
BRANCH   3  33
HETATM   33  C30 UNL     1      -3.056  -3.856   1.617  1.00  0.00     0.187 C 
HETATM   34  O5  UNL     1      -4.328  -3.683   2.225  1.00  0.00    -0.221 OA
ENDBRANCH   3  33
BRANCH  16  35
HETATM   35  C25 UNL     1       1.901   1.582   2.052  1.00  0.00     0.187 C 
HETATM   36  O2  UNL     1       0.983   2.316   2.329  1.00  0.00    -0.647 OA
HETATM   37  O3  UNL     1       2.428   0.791   3.006  1.00  0.00    -0.647 OA
ENDBRANCH  16  35
TORSDOF 3
