REMARK  2 active torsions:
REMARK  status: ('A' for Active; 'I' for Inactive)
REMARK    1  A    between atoms: C3_3  and  C5_6 
REMARK    2  A    between atoms: C10_13  and  C20_26 
ROOT
HETATM    1  C5  UNL     1       0.776   2.462   0.512  1.00  0.00     0.149 C 
HETATM    2  C6  UNL     1       0.690   1.135   1.254  1.00  0.00     0.048 C 
HETATM    3  C7  UNL     1       0.651   0.060   0.151  1.00  0.00     0.096 C 
HETATM    4  C8  UNL     1       1.173   0.831  -1.053  1.00  0.00     0.275 C 
HETATM    5  O2  UNL     1       1.165   2.162  -0.802  1.00  0.00    -0.299 OA
HETATM    6  O3  UNL     1       1.541   0.350  -2.100  1.00  0.00    -0.264 OA
HETATM    7  C9  UNL     1      -0.775  -0.480  -0.097  1.00  0.00     0.024 C 
HETATM    8  C10 UNL     1      -0.812  -1.788  -0.913  1.00  0.00     0.081 C 
HETATM    9  C11 UNL     1       0.147  -2.893  -0.447  1.00  0.00     0.135 C 
HETATM   10  C12 UNL     1       0.940  -2.447   0.781  1.00  0.00     0.053 C 
HETATM   11  C13 UNL     1       1.577  -1.100   0.503  1.00  0.00    -0.033 C 
HETATM   12  C14 UNL     1       2.907  -0.936   0.586  1.00  0.00    -0.009 C 
HETATM   13  O4  UNL     1      -0.623  -4.041  -0.176  1.00  0.00    -0.300 OA
HETATM   14  C15 UNL     1      -1.938  -3.679  -0.216  1.00  0.00     0.292 C 
HETATM   15  C16 UNL     1      -2.136  -2.382  -0.538  1.00  0.00     0.043 C 
HETATM   16  C17 UNL     1      -3.275  -1.682  -0.531  1.00  0.00     0.007 C 
HETATM   17  C18 UNL     1      -3.248  -0.184  -0.753  1.00  0.00     0.174 C 
HETATM   18  C19 UNL     1      -1.859   0.482  -0.620  1.00  0.00     0.039 C 
HETATM   19  O5  UNL     1      -4.120   0.401   0.200  1.00  0.00    -0.219 OA
HETATM   20  O6  UNL     1      -2.834  -4.439   0.081  1.00  0.00    -0.260 OA
ENDROOT
BRANCH   1  21
HETATM   21  C3  UNL     1       1.744   3.424   1.144  1.00  0.00     0.032 A 
HETATM   22  C2  UNL     1       1.479   4.509   1.884  1.00  0.00     0.027 A 
HETATM   23  C1  UNL     1       2.688   4.999   2.186  1.00  0.00     0.122 A 
HETATM   24  O1  UNL     1       3.594   4.319   1.705  1.00  0.00    -0.303 OA
HETATM   25  C4  UNL     1       3.082   3.386   1.087  1.00  0.00     0.121 A 
ENDBRANCH   1  21
BRANCH   8  26
HETATM   26  C20 UNL     1      -0.774  -1.661  -2.445  1.00  0.00     0.189 C 
HETATM   27  O7  UNL     1      -1.091  -2.904  -3.039  1.00  0.00    -0.220 OA
ENDBRANCH   8  26
TORSDOF 2
