REMARK  6 active torsions:
REMARK  status: ('A' for Active; 'I' for Inactive)
REMARK    1  A    between atoms: C4_4  and  C8_10 
REMARK    2  A    between atoms: C9_11  and  C10_12 
REMARK       I    between atoms: C10_12  and  N1_13 
REMARK    3  A    between atoms: N1_13  and  C11_14 
REMARK    4  A    between atoms: C11_14  and  C12_15 
REMARK    5  A    between atoms: C12_15  and  C13_16 
REMARK    6  A    between atoms: C16_19  and  O3_22 
ROOT
HETATM    1  C10 UNL     1      -0.013   1.057  -0.023  1.00  0.00     0.257 C 
HETATM    2  N1  UNL     1      -0.336  -0.287  -0.038  1.00  0.00    -0.314 N 
HETATM    3  C20 UNL     1      -1.722  -0.759  -0.052  1.00  0.00     0.129 C 
HETATM    4  O4  UNL     1       1.149   1.399  -0.013  1.00  0.00    -0.267 OA
ENDROOT
BRANCH   1   5
HETATM    5  C9  UNL     1      -0.994   2.004  -0.017  1.00  0.00     0.060 C 
HETATM    6  C8  UNL     1      -0.750   3.330  -0.004  1.00  0.00     0.005 C 
BRANCH   6   7
HETATM    7  C4  UNL     1      -1.655   4.334   0.006  1.00  0.00     0.002 A 
HETATM    8  C3  UNL     1      -1.206   5.611   0.017  1.00  0.00     0.002 A 
HETATM    9  C2  UNL     1      -2.029   6.674   0.029  1.00  0.00     0.026 A 
HETATM   10  C1  UNL     1      -3.347   6.447   0.030  1.00  0.00     0.119 A 
HETATM   11  C6  UNL     1      -3.816   5.197   0.018  1.00  0.00     0.119 A 
HETATM   12  O2  UNL     1      -4.257   7.271   0.040  1.00  0.00    -0.300 OA
HETATM   13  C5  UNL     1      -2.992   4.141   0.006  1.00  0.00     0.026 A 
HETATM   14  O1  UNL     1      -5.045   5.185   0.020  1.00  0.00    -0.300 OA
HETATM   15  C7  UNL     1      -5.487   6.544   0.036  1.00  0.00     0.304 A 
ENDBRANCH   6   7
ENDBRANCH   1   5
BRANCH   2  16
HETATM   16  C11 UNL     1       0.744  -1.286  -0.024  1.00  0.00     0.109 C 
BRANCH  16  17
HETATM   17  C12 UNL     1       0.384  -2.781  -0.077  1.00  0.00     0.051 C 
BRANCH  17  18
HETATM   18  C13 UNL     1       1.529  -3.780  -0.070  1.00  0.00    -0.020 A 
HETATM   19  C14 UNL     1       1.247  -5.093  -0.134  1.00  0.00    -0.002 A 
HETATM   20  C15 UNL     1       2.219  -6.017  -0.128  1.00  0.00     0.024 A 
HETATM   21  C16 UNL     1       3.524  -5.693  -0.059  1.00  0.00     0.094 A 
HETATM   22  C17 UNL     1       3.795  -4.375   0.005  1.00  0.00     0.024 A 
HETATM   23  C18 UNL     1       2.828  -3.442  -0.000  1.00  0.00    -0.002 A 
BRANCH  21  24
HETATM   24  O3  UNL     1       4.454  -6.705  -0.055  1.00  0.00    -0.328 OA
HETATM   25  C19 UNL     1       5.820  -6.372   0.030  1.00  0.00     0.181 C 
ENDBRANCH  21  24
ENDBRANCH  17  18
ENDBRANCH  16  17
ENDBRANCH   2  16
TORSDOF 6
