REMARK  2 active torsions:
REMARK  status: ('A' for Active; 'I' for Inactive)
REMARK    1  A    between atoms: C12_16  and  C15_21 
REMARK    2  A    between atoms: C15_21  and  C16_22 
ROOT
HETATM    1  C1  UNL     1      -3.982   0.622  -0.659  1.00  0.00     0.173 A 
HETATM    2  C2  UNL     1      -4.056  -0.860  -0.306  1.00  0.00     0.190 C 
HETATM    3  C3  UNL     1      -2.768  -1.701  -0.381  1.00  0.00     0.111 C 
HETATM    4  C4  UNL     1      -1.504  -0.875  -0.648  1.00  0.00     0.048 C 
HETATM    5  C5  UNL     1      -1.539   0.543  -0.030  1.00  0.00     0.048 C 
HETATM    6  C6  UNL     1      -2.766   1.303  -0.554  1.00  0.00     0.148 A 
HETATM    7  O1  UNL     1      -3.197   0.854  -1.962  1.00  0.00    -0.351 OA
HETATM    8  C7  UNL     1      -0.168   1.188  -0.265  1.00  0.00    -0.008 C 
HETATM    9  C8  UNL     1       1.045   0.410  -0.029  1.00  0.00     0.163 A 
HETATM   10  C9  UNL     1       0.911  -1.013   0.175  1.00  0.00     0.174 A 
HETATM   11  C10 UNL     1      -0.415  -1.734  -0.030  1.00  0.00     0.155 C 
HETATM   12  O2  UNL     1      -1.015  -2.336   1.088  1.00  0.00    -0.302 OA
HETATM   13  C11 UNL     1      -2.369  -2.381   0.927  1.00  0.00     0.274 C 
HETATM   14  O3  UNL     1      -3.148  -2.889   1.702  1.00  0.00    -0.264 OA
HETATM   15  O4  UNL     1       1.342  -0.701  -1.130  1.00  0.00    -0.347 OA
HETATM   16  C12 UNL     1       2.322   1.180   0.340  1.00  0.00     0.185 C 
HETATM   17  O5  UNL     1       2.337   2.499  -0.162  1.00  0.00    -0.295 OA
HETATM   18  C13 UNL     1       1.191   3.083  -0.602  1.00  0.00     0.295 C 
HETATM   19  C14 UNL     1      -0.021   2.474  -0.613  1.00  0.00     0.062 C 
HETATM   20  O6  UNL     1       1.230   4.245  -0.957  1.00  0.00    -0.259 OA
HETATM   21  C18 UNL     1      -1.647   0.597   1.518  1.00  0.00     0.007 C 
HETATM   22  C19 UNL     1      -2.949  -2.825  -1.425  1.00  0.00     0.013 C 
HETATM   23  O9  UNL     1      -4.654  -0.971   0.977  1.00  0.00    -0.220 OA
ENDROOT
BRANCH  16  24
HETATM   24  C15 UNL     1       3.738   0.629   0.059  1.00  0.00     0.185 C 
HETATM   25  O8  UNL     1       3.853  -0.686   0.530  1.00  0.00    -0.221 OA
HETATM   26  C17 UNL     1       4.125   0.653  -1.427  1.00  0.00     0.038 C 
BRANCH  24  27
HETATM   27  C16 UNL     1       4.784   1.412   0.856  1.00  0.00     0.215 C 
HETATM   28  O7  UNL     1       6.019   0.728   0.774  1.00  0.00    -0.218 OA
ENDBRANCH  24  27
ENDBRANCH  16  24
TORSDOF 2
