REMARK  3 active torsions:
REMARK  status: ('A' for Active; 'I' for Inactive)
REMARK    1  A    between atoms: C1_1  and  C38_40 
REMARK    2  A    between atoms: C3_3  and  C18_18 
REMARK    3  A    between atoms: C22_22  and  C24_25 
ROOT
HETATM    1  C1  UNL     1      -0.012   2.836  -1.275  1.00  0.00    -0.001 A 
HETATM    2  C2  UNL     1       0.505   1.595  -1.087  1.00  0.00     0.127 A 
HETATM    3  C3  UNL     1      -0.250   0.594  -0.581  1.00  0.00     0.027 A 
HETATM    4  C4  UNL     1      -1.504   0.916  -0.224  1.00  0.00    -0.003 A 
HETATM    5  C5  UNL     1      -2.067   2.122  -0.401  1.00  0.00    -0.027 A 
HETATM    6  C6  UNL     1      -1.309   3.089  -0.965  1.00  0.00    -0.028 A 
HETATM    7  C7  UNL     1      -1.927   4.436  -1.280  1.00  0.00     0.026 C 
HETATM    8  C8  UNL     1      -3.436   4.594  -1.085  1.00  0.00     0.005 C 
HETATM    9  C9  UNL     1      -3.959   3.789   0.111  1.00  0.00     0.004 C 
HETATM   10  C10 UNL     1      -3.562   2.300  -0.088  1.00  0.00     0.019 C 
HETATM   11  C11 UNL     1      -4.134   1.499   1.111  1.00  0.00     0.004 C 
HETATM   12  C12 UNL     1      -3.693   2.049   2.467  1.00  0.00     0.000 C 
HETATM   13  C13 UNL     1      -4.249   3.468   2.616  1.00  0.00     0.000 C 
HETATM   14  C14 UNL     1      -3.712   4.418   1.520  1.00  0.00     0.000 C 
HETATM   15  C15 UNL     1      -2.240   4.739   1.854  1.00  0.00     0.000 C 
HETATM   16  C16 UNL     1      -4.502   5.745   1.659  1.00  0.00     0.000 C 
HETATM   17  C17 UNL     1      -4.265   1.695  -1.339  1.00  0.00     0.004 C 
HETATM   18  O2  UNL     1       1.757   1.324  -1.565  1.00  0.00    -0.191 OA
ENDROOT
BRANCH   3  19
HETATM   19  C18 UNL     1       0.210  -0.680  -0.465  1.00  0.00     0.027 A 
HETATM   20  C19 UNL     1       1.469  -0.927  -0.070  1.00  0.00    -0.003 A 
HETATM   21  C20 UNL     1       2.044  -2.140  -0.059  1.00  0.00    -0.027 A 
HETATM   22  C21 UNL     1       1.291  -3.189  -0.460  1.00  0.00    -0.028 A 
HETATM   23  C30 UNL     1       3.547  -2.246   0.252  1.00  0.00     0.019 C 
HETATM   24  C22 UNL     1      -0.015  -3.004  -0.782  1.00  0.00    -0.001 A 
HETATM   25  C27 UNL     1       1.929  -4.557  -0.589  1.00  0.00     0.026 C 
HETATM   26  C23 UNL     1      -0.544  -1.754  -0.787  1.00  0.00     0.127 A 
HETATM   27  O1  UNL     1      -1.807  -1.557  -1.273  1.00  0.00    -0.191 OA
HETATM   28  C28 UNL     1       3.446  -4.656  -0.420  1.00  0.00     0.005 C 
HETATM   29  C29 UNL     1       3.981  -3.687   0.641  1.00  0.00     0.004 C 
HETATM   30  C34 UNL     1       3.786  -4.128   2.128  1.00  0.00     0.000 C 
HETATM   31  C33 UNL     1       4.314  -3.025   3.075  1.00  0.00     0.000 C 
HETATM   32  C35 UNL     1       2.333  -4.447   2.540  1.00  0.00     0.000 C 
HETATM   33  C36 UNL     1       4.625  -5.399   2.422  1.00  0.00     0.000 C 
HETATM   34  C32 UNL     1       3.707  -1.657   2.751  1.00  0.00     0.000 C 
HETATM   35  C31 UNL     1       4.108  -1.278   1.326  1.00  0.00     0.004 C 
HETATM   36  C37 UNL     1       4.224  -1.801  -1.077  1.00  0.00     0.004 C 
BRANCH  24  37
HETATM   37  C24 UNL     1      -0.957  -4.141  -1.232  1.00  0.00     0.024 C 
HETATM   38  C25 UNL     1      -0.916  -4.308  -2.761  1.00  0.00     0.005 C 
HETATM   39  C26 UNL     1      -0.913  -5.507  -0.520  1.00  0.00     0.005 C 
ENDBRANCH  24  37
ENDBRANCH   3  19
BRANCH   1  40
HETATM   40  C38 UNL     1       0.937   3.867  -1.922  1.00  0.00     0.024 C 
HETATM   41  C39 UNL     1       0.829   3.828  -3.457  1.00  0.00     0.005 C 
HETATM   42  C40 UNL     1       0.955   5.315  -1.397  1.00  0.00     0.005 C 
ENDBRANCH   1  40
TORSDOF 3
