REMARK  4 active torsions:
REMARK  status: ('A' for Active; 'I' for Inactive)
REMARK    1  A    between atoms: C4_5  and  C6_8 
REMARK    2  A    between atoms: C6_8  and  C7_9 
REMARK    3  A    between atoms: C7_9  and  C8_10 
REMARK    4  A    between atoms: C8_10  and  C9_11 
ROOT
HETATM    1  C1  UNL     1       1.043  -2.273   2.304  1.00  0.00     0.048 A 
HETATM    2  C2  UNL     1       0.205  -3.216   2.748  1.00  0.00     0.083 A 
HETATM    3  O1  UNL     1      -1.094  -3.252   2.364  1.00  0.00    -0.277 OA
HETATM    4  C3  UNL     1      -1.480  -2.272   1.492  1.00  0.00     0.305 A 
HETATM    5  C4  UNL     1      -0.641  -1.292   1.019  1.00  0.00     0.123 A 
HETATM    6  C5  UNL     1       0.644  -1.315   1.450  1.00  0.00     0.141 A 
HETATM    7  O2  UNL     1       1.597  -0.415   1.081  1.00  0.00    -0.190 OA
HETATM    8  O4  UNL     1      -2.645  -2.318   1.148  1.00  0.00    -0.259 OA
HETATM    9  C12 UNL     1       0.686  -4.282   3.700  1.00  0.00     0.059 C 
ENDROOT
BRANCH   5  10
HETATM   10  C6  UNL     1      -1.108  -0.347   0.139  1.00  0.00     0.180 C 
HETATM   11  O3  UNL     1      -2.264  -0.332  -0.228  1.00  0.00    -0.291 OA
BRANCH  10  12
HETATM   12  C7  UNL     1      -0.245   0.749  -0.486  1.00  0.00     0.069 C 
BRANCH  12  13
HETATM   13  C8  UNL     1      -0.974   1.659  -1.494  1.00  0.00     0.008 C 
BRANCH  13  14
HETATM   14  C9  UNL     1      -0.103   2.810  -2.039  1.00  0.00     0.000 C 
HETATM   15  C10 UNL     1       1.127   2.309  -2.815  1.00  0.00     0.000 C 
HETATM   16  C11 UNL     1      -0.947   3.727  -2.943  1.00  0.00     0.000 C 
ENDBRANCH  13  14
ENDBRANCH  12  13
ENDBRANCH  10  12
ENDBRANCH   5  10
TORSDOF 4
