REMARK  1 active torsions:
REMARK  status: ('A' for Active; 'I' for Inactive)
REMARK    1  A    between atoms: C5_6  and  C6_7 
ROOT
HETATM    1  C1  UNL     1      -0.814  -0.031  -0.368  1.00  0.00     0.214 C 
HETATM    2  C2  UNL     1      -0.148  -1.393  -0.282  1.00  0.00     0.217 C 
HETATM    3  C3  UNL     1       0.748  -1.449   0.937  1.00  0.00     0.214 C 
HETATM    4  C4  UNL     1       1.718  -0.285   0.906  1.00  0.00     0.178 C 
HETATM    5  O1  UNL     1       1.006   0.926   0.901  1.00  0.00    -0.348 OA
HETATM    6  C5  UNL     1       0.214   1.092  -0.245  1.00  0.00     0.181 C 
HETATM    7  O3  UNL     1       1.444  -2.671   0.923  1.00  0.00    -0.218 OA
HETATM    8  O4  UNL     1      -1.105  -2.418  -0.163  1.00  0.00    -0.218 OA
HETATM    9  O5  UNL     1      -1.464   0.072  -1.615  1.00  0.00    -0.218 OA
ENDROOT
BRANCH   6  10
HETATM   10  C6  UNL     1      -0.434   2.467  -0.141  1.00  0.00     0.214 C 
HETATM   11  O2  UNL     1      -1.274   2.699  -1.251  1.00  0.00    -0.218 OA
ENDBRANCH   6  10
TORSDOF 1
