REMARK  4 active torsions:
REMARK  status: ('A' for Active; 'I' for Inactive)
REMARK    1  A    between atoms: C3_3  and  C10_12 
REMARK    2  A    between atoms: C4_4  and  O2_10 
REMARK    3  A    between atoms: C10_12  and  C11_13 
REMARK    4  A    between atoms: C12_14  and  C13_15 
ROOT
HETATM    1  C1  UNL     1      -1.446   3.221  -2.291  1.00  0.00     0.025 C 
HETATM    2  C2  UNL     1      -2.048   2.344  -1.472  1.00  0.00     0.007 C 
HETATM    3  C3  UNL     1      -1.369   1.502  -0.656  1.00  0.00     0.061 C 
HETATM    4  C4  UNL     1      -0.018   1.631  -0.553  1.00  0.00     0.099 C 
HETATM    5  C5  UNL     1       0.560   2.478  -1.421  1.00  0.00     0.047 A 
HETATM    6  C6  UNL     1      -0.112   3.256  -2.276  1.00  0.00     0.102 A 
HETATM    7  O1  UNL     1       0.635   3.960  -2.954  1.00  0.00    -0.305 OA
HETATM    8  C7  UNL     1       1.792   3.709  -2.616  1.00  0.00     0.123 A 
HETATM    9  C8  UNL     1       1.845   2.785  -1.647  1.00  0.00     0.031 A 
ENDROOT
BRANCH   3  10
HETATM   10  C10 UNL     1      -2.117   0.624   0.084  1.00  0.00     0.200 C 
HETATM   11  O4  UNL     1      -3.275   0.905   0.319  1.00  0.00    -0.286 OA
BRANCH  10  12
HETATM   12  C11 UNL     1      -1.690  -0.556   0.624  1.00  0.00     0.070 C 
HETATM   13  C12 UNL     1      -0.661  -1.332   0.218  1.00  0.00     0.134 C 
HETATM   14  O3  UNL     1      -0.044  -1.028  -0.962  1.00  0.00    -0.190 OA
BRANCH  13  15
HETATM   15  C13 UNL     1      -0.251  -2.439   0.886  1.00  0.00     0.025 A 
HETATM   16  C14 UNL     1       0.749  -3.184   0.366  1.00  0.00     0.002 A 
HETATM   17  C15 UNL     1       1.218  -4.286   0.972  1.00  0.00     0.000 A 
HETATM   18  C16 UNL     1       0.699  -4.685   2.140  1.00  0.00     0.000 A 
HETATM   19  C17 UNL     1      -0.288  -3.962   2.687  1.00  0.00     0.000 A 
HETATM   20  C18 UNL     1      -0.748  -2.862   2.068  1.00  0.00     0.002 A 
ENDBRANCH  13  15
ENDBRANCH  10  12
ENDBRANCH   3  10
BRANCH   4  21
HETATM   21  O2  UNL     1       0.781   0.927   0.314  1.00  0.00    -0.328 OA
HETATM   22  C9  UNL     1       1.106   1.628   1.493  1.00  0.00     0.181 C 
ENDBRANCH   4  21
TORSDOF 4
