REMARK  1 active torsions:
REMARK  status: ('A' for Active; 'I' for Inactive)
REMARK    1  A    between atoms: C15_16  and  C18_19 
ROOT
HETATM    1  C1  UNL     1      -3.764  -1.492   1.861  1.00  0.00     0.182 C 
HETATM    2  C2  UNL     1      -3.076  -2.134   3.052  1.00  0.00     0.183 C 
HETATM    3  C3  UNL     1      -1.768  -2.823   2.674  1.00  0.00     0.043 C 
HETATM    4  C4  UNL     1      -0.840  -1.908   1.855  1.00  0.00     0.065 C 
HETATM    5  C5  UNL     1      -1.524  -1.286   0.623  1.00  0.00     0.013 C 
HETATM    6  C6  UNL     1      -2.820  -0.581   1.079  1.00  0.00     0.036 C 
HETATM    7  C7  UNL     1      -0.534  -0.312  -0.071  1.00  0.00     0.021 C 
HETATM    8  C8  UNL     1       0.866  -0.873  -0.138  1.00  0.00    -0.015 C 
HETATM    9  C9  UNL     1       1.259  -1.945   0.571  1.00  0.00     0.031 C 
HETATM   10  C10 UNL     1       0.487  -2.560   1.500  1.00  0.00     0.172 C 
HETATM   11  O1  UNL     1       0.886  -3.540   2.090  1.00  0.00    -0.291 OA
HETATM   12  C11 UNL     1       1.860  -0.118  -1.000  1.00  0.00     0.142 C 
HETATM   13  C12 UNL     1       1.380   1.253  -1.529  1.00  0.00     0.036 C 
HETATM   14  C13 UNL     1       0.494   1.980  -0.480  1.00  0.00     0.003 C 
HETATM   15  C14 UNL     1      -0.356   1.109   0.470  1.00  0.00     0.004 C 
HETATM   16  C15 UNL     1       2.715   2.021  -1.748  1.00  0.00     0.060 C 
HETATM   17  C16 UNL     1       3.597   1.605  -0.565  1.00  0.00     0.010 C 
HETATM   18  C17 UNL     1       3.132   0.192  -0.190  1.00  0.00     0.035 C 
HETATM   19  C20 UNL     1       0.655   1.153  -2.895  1.00  0.00     0.003 C 
HETATM   20  O3  UNL     1       2.225  -0.950  -2.082  1.00  0.00    -0.222 OA
HETATM   21  C21 UNL     1      -1.881  -2.389  -0.408  1.00  0.00     0.001 C 
HETATM   22  O4  UNL     1      -2.827  -1.120   3.998  1.00  0.00    -0.221 OA
HETATM   23  O5  UNL     1      -4.839  -0.728   2.356  1.00  0.00    -0.221 OA
ENDROOT
BRANCH  16  24
HETATM   24  C18 UNL     1       2.649   3.529  -1.968  1.00  0.00     0.151 C 
HETATM   25  O2  UNL     1       1.629   4.095  -2.290  1.00  0.00    -0.296 OA
HETATM   26  C19 UNL     1       3.938   4.318  -1.826  1.00  0.00     0.072 C 
ENDBRANCH  16  24
TORSDOF 1
