REMARK  11 active torsions:
REMARK  status: ('A' for Active; 'I' for Inactive)
REMARK    1  A    between atoms: C2_2  and  C26_34 
REMARK    2  A    between atoms: C5_5  and  O1_7 
REMARK    3  A    between atoms: C10_11  and  O4_21 
REMARK    4  A    between atoms: N1_17  and  C14_18 
REMARK    5  A    between atoms: O4_21  and  C17_22 
REMARK    6  A    between atoms: C20_26  and  O7_32 
REMARK    7  A    between atoms: C22_28  and  O6_29 
REMARK    8  A    between atoms: C26_34  and  O8_35 
REMARK    9  A    between atoms: O8_35  and  C27_36 
REMARK   10  A    between atoms: C27_36  and  C28_37 
REMARK   11  A    between atoms: C33_42  and  N2_43 
ROOT
HETATM    1  C1  UNL     1      -2.889   0.720  -1.175  1.00  0.00     0.007 C 
HETATM    2  C2  UNL     1      -1.948  -0.375  -0.587  1.00  0.00     0.062 C 
HETATM    3  C3  UNL     1      -0.651   0.299  -0.060  1.00  0.00     0.042 C 
HETATM    4  C4  UNL     1       0.085   0.997  -1.234  1.00  0.00     0.060 C 
HETATM    5  C5  UNL     1      -0.852   1.968  -2.047  1.00  0.00     0.117 C 
HETATM    6  C6  UNL     1      -2.234   2.079  -1.411  1.00  0.00     0.030 C 
HETATM    7  C8  UNL     1       1.190   2.002  -0.776  1.00  0.00     0.009 C 
HETATM    8  C9  UNL     1       2.297   1.500   0.142  1.00  0.00     0.056 C 
HETATM    9  C10 UNL     1       2.749   0.131  -0.372  1.00  0.00     0.136 C 
HETATM   10  C11 UNL     1       1.487  -0.737  -0.611  1.00  0.00     0.207 C 
HETATM   11  C12 UNL     1       0.362  -0.737   0.430  1.00  0.00     0.184 C 
HETATM   12  O2  UNL     1       0.717  -0.497   1.766  1.00  0.00    -0.221 OA
HETATM   13  O3  UNL     1       2.031  -2.052  -0.722  1.00  0.00    -0.219 OA
HETATM   14  C13 UNL     1       0.707  -0.252  -1.976  1.00  0.00     0.254 C 
HETATM   15  N1  UNL     1      -0.567  -0.703  -2.624  1.00  0.00     0.138 N 
HETATM   16  C16 UNL     1      -1.539  -1.336  -1.735  1.00  0.00     0.253 C 
HETATM   17  C19 UNL     1       3.500   0.208  -1.734  1.00  0.00     0.060 C 
HETATM   18  C20 UNL     1       4.270   1.503  -2.009  1.00  0.00     0.120 C 
HETATM   19  C21 UNL     1       3.485   2.698  -1.454  1.00  0.00     0.055 C 
HETATM   20  C22 UNL     1       3.394   2.566   0.065  1.00  0.00     0.120 C 
HETATM   21  C24 UNL     1       2.005   2.696  -1.901  1.00  0.00     0.005 C 
ENDROOT
BRANCH   2  22
HETATM   22  C26 UNL     1      -2.758  -1.098   0.524  1.00  0.00     0.154 C 
BRANCH  22  23
HETATM   23  O8  UNL     1      -2.394  -2.443   0.711  1.00  0.00    -0.298 OA
BRANCH  23  24
HETATM   24  C27 UNL     1      -1.937  -2.919   1.921  1.00  0.00     0.297 C 
HETATM   25  O11 UNL     1      -1.116  -3.812   1.807  1.00  0.00    -0.259 OA
BRANCH  24  26
HETATM   26  C28 UNL     1      -2.228  -2.502   3.201  1.00  0.00     0.079 C 
HETATM   27  C29 UNL     1      -1.277  -2.825   4.109  1.00  0.00     0.007 C 
HETATM   28  C30 UNL     1      -1.273  -2.353   5.361  1.00  0.00     0.000 C 
HETATM   29  C31 UNL     1      -2.237  -1.502   5.718  1.00  0.00     0.002 C 
HETATM   30  C32 UNL     1      -3.223  -1.235   4.851  1.00  0.00     0.018 C 
HETATM   31  C33 UNL     1      -3.299  -1.755   3.601  1.00  0.00     0.074 C 
BRANCH  31  32
HETATM   32  N2  UNL     1      -4.404  -1.567   2.965  1.00  0.00    -0.249 N 
HETATM   33  C34 UNL     1      -4.882  -2.373   2.096  1.00  0.00     0.244 C 
HETATM   34  C35 UNL     1      -6.179  -1.923   1.441  1.00  0.00     0.098 C 
HETATM   35  O10 UNL     1      -4.497  -3.509   1.935  1.00  0.00    -0.272 OA
HETATM   36  C36 UNL     1      -6.619  -0.900   2.482  1.00  0.00     0.098 C 
HETATM   37  C37 UNL     1      -5.286  -0.663   3.171  1.00  0.00     0.244 C 
HETATM   38  O9  UNL     1      -5.097   0.397   3.723  1.00  0.00    -0.272 OA
ENDBRANCH  31  32
ENDBRANCH  24  26
ENDBRANCH  23  24
ENDBRANCH  22  23
ENDBRANCH   2  22
BRANCH  15  39
HETATM   39  C14 UNL     1      -0.313  -1.471  -3.849  1.00  0.00     0.250 C 
HETATM   40  C15 UNL     1      -1.547  -1.604  -4.757  1.00  0.00     0.037 C 
ENDBRANCH  15  39
BRANCH   5  41
HETATM   41  O1  UNL     1      -0.902   1.681  -3.420  1.00  0.00    -0.354 OA
HETATM   42  C7  UNL     1      -1.134   2.797  -4.254  1.00  0.00     0.174 C 
ENDBRANCH   5  41
BRANCH   9  43
HETATM   43  O4  UNL     1       3.725  -0.304   0.542  1.00  0.00    -0.304 OA
BRANCH  43  44
HETATM   44  C17 UNL     1       3.638  -1.268   1.494  1.00  0.00     0.272 C 
HETATM   45  O5  UNL     1       2.690  -1.953   1.792  1.00  0.00    -0.264 OA
HETATM   46  C18 UNL     1       4.977  -1.373   2.203  1.00  0.00     0.106 C 
ENDBRANCH  43  44
ENDBRANCH   9  43
BRANCH  20  47
HETATM   47  O6  UNL     1       2.998   3.799   0.604  1.00  0.00    -0.354 OA
HETATM   48  C23 UNL     1       3.164   3.875   2.003  1.00  0.00     0.174 C 
ENDBRANCH  20  47
BRANCH  18  49
HETATM   49  O7  UNL     1       5.547   1.477  -1.427  1.00  0.00    -0.354 OA
HETATM   50  C25 UNL     1       6.519   0.828  -2.219  1.00  0.00     0.174 C 
ENDBRANCH  18  49
TORSDOF 11
