REMARK  4 active torsions:
REMARK  status: ('A' for Active; 'I' for Inactive)
REMARK    1  A    between atoms: C10_12  and  O4_22 
REMARK    2  A    between atoms: C11_13  and  C15_18 
REMARK    3  A    between atoms: C15_18  and  C16_19 
REMARK    4  A    between atoms: O4_22  and  C19_23 
ROOT
HETATM    1  C1  UNL     1      -1.068  -1.770   0.444  1.00  0.00     0.094 A 
HETATM    2  C2  UNL     1      -1.268  -0.480   0.101  1.00  0.00     0.050 A 
HETATM    3  C3  UNL     1      -2.506   0.069   0.112  1.00  0.00     0.103 A 
HETATM    4  C4  UNL     1      -3.562  -0.693   0.461  1.00  0.00     0.023 A 
HETATM    5  C5  UNL     1      -3.379  -1.982   0.786  1.00  0.00     0.004 A 
HETATM    6  C6  UNL     1      -2.147  -2.504   0.768  1.00  0.00     0.024 A 
HETATM    7  C7  UNL     1      -4.795  -0.157   0.479  1.00  0.00     0.007 A 
HETATM    8  C8  UNL     1      -4.991   1.128   0.156  1.00  0.00     0.069 A 
HETATM    9  C9  UNL     1      -3.927   1.891  -0.194  1.00  0.00     0.300 A 
HETATM   10  O1  UNL     1      -2.662   1.385  -0.228  1.00  0.00    -0.273 OA
HETATM   11  O2  UNL     1      -4.112   3.057  -0.479  1.00  0.00    -0.259 OA
HETATM   12  C10 UNL     1      -0.080   0.391  -0.297  1.00  0.00     0.153 C 
HETATM   13  C11 UNL     1       1.234  -0.302   0.108  1.00  0.00     0.062 C 
HETATM   14  C12 UNL     1       1.196  -1.797  -0.265  1.00  0.00     0.101 C 
HETATM   15  O3  UNL     1       0.152  -2.393   0.440  1.00  0.00    -0.336 OA
HETATM   16  C13 UNL     1       2.465  -2.536   0.189  1.00  0.00     0.030 C 
HETATM   17  C14 UNL     1       1.002  -2.092  -1.761  1.00  0.00     0.030 C 
ENDROOT
BRANCH  12  18
HETATM   18  O4  UNL     1      -0.108   0.618  -1.688  1.00  0.00    -0.299 OA
BRANCH  18  19
HETATM   19  C19 UNL     1      -0.168   1.835  -2.303  1.00  0.00     0.273 C 
HETATM   20  O5  UNL     1      -0.235   1.928  -3.510  1.00  0.00    -0.264 OA
HETATM   21  C20 UNL     1      -0.111   3.078  -1.433  1.00  0.00     0.106 C 
ENDBRANCH  18  19
ENDBRANCH  12  18
BRANCH  13  22
HETATM   22  C15 UNL     1       2.469   0.497  -0.360  1.00  0.00     0.031 C 
BRANCH  22  23
HETATM   23  C16 UNL     1       3.729   0.247   0.432  1.00  0.00    -0.030 C 
HETATM   24  C17 UNL     1       3.967   0.668   1.685  1.00  0.00    -0.030 C 
HETATM   25  C18 UNL     1       3.038   1.480   2.548  1.00  0.00     0.030 C 
ENDBRANCH  22  23
ENDBRANCH  13  22
TORSDOF 4
