REMARK  1 active torsions:
REMARK  status: ('A' for Active; 'I' for Inactive)
REMARK    1  A    between atoms: C19_20  and  C22_23 
ROOT
HETATM    1  C1  UNL     1      -2.230   0.309  -1.529  1.00  0.00     0.000 C 
HETATM    2  C2  UNL     1      -2.821  -0.930  -0.863  1.00  0.00     0.000 C 
HETATM    3  C3  UNL     1      -1.796  -2.087  -0.847  1.00  0.00     0.002 C 
HETATM    4  C4  UNL     1      -0.335  -1.582  -0.583  1.00  0.00     0.030 C 
HETATM    5  C5  UNL     1      -0.163  -0.156   0.030  1.00  0.00     0.002 C 
HETATM    6  C6  UNL     1      -1.078   0.883  -0.695  1.00  0.00     0.000 C 
HETATM    7  C7  UNL     1       1.328   0.352  -0.059  1.00  0.00     0.000 C 
HETATM    8  C8  UNL     1       2.470  -0.711  -0.109  1.00  0.00     0.002 C 
HETATM    9  C9  UNL     1       2.139  -1.795  -1.175  1.00  0.00     0.033 C 
HETATM   10  C10 UNL     1       0.697  -1.819  -1.692  1.00  0.00     0.152 C 
HETATM   11  O1  UNL     1       0.544  -0.887  -2.735  1.00  0.00    -0.224 OA
HETATM   12  C11 UNL     1       3.856   0.014  -0.447  1.00  0.00     0.000 C 
HETATM   13  C12 UNL     1       4.133   1.046   0.694  1.00  0.00     0.000 C 
HETATM   14  C13 UNL     1       3.040   2.126   0.761  1.00  0.00     0.000 C 
HETATM   15  C14 UNL     1       1.643   1.507   0.920  1.00  0.00     0.000 C 
HETATM   16  C15 UNL     1       5.583   1.578   0.847  1.00  0.00     0.000 C 
HETATM   17  C16 UNL     1       6.538   0.365   0.873  1.00  0.00     0.002 C 
HETATM   18  C17 UNL     1       6.459  -0.449  -0.415  1.00  0.00     0.000 C 
HETATM   19  C18 UNL     1       5.028  -1.007  -0.581  1.00  0.00     0.000 C 
HETATM   20  C19 UNL     1       7.861   0.780   1.559  1.00  0.00     0.028 C 
HETATM   21  C20 UNL     1       7.427   2.014   2.391  1.00  0.00     0.002 C 
HETATM   22  C21 UNL     1       5.898   2.147   2.252  1.00  0.00     0.000 C 
HETATM   23  C25 UNL     1       5.936   2.673  -0.181  1.00  0.00     0.000 C 
HETATM   24  C26 UNL     1       3.809   0.728  -1.832  1.00  0.00     0.000 C 
HETATM   25  C27 UNL     1       2.511  -1.458   1.262  1.00  0.00     0.000 C 
HETATM   26  C28 UNL     1      -0.620  -0.202   1.516  1.00  0.00     0.000 C 
HETATM   27  C29 UNL     1      -2.234  -3.087   0.258  1.00  0.00     0.000 C 
HETATM   28  C30 UNL     1      -1.958  -2.877  -2.172  1.00  0.00     0.000 C 
ENDROOT
BRANCH  20  29
HETATM   29  C22 UNL     1       9.174   0.969   0.772  1.00  0.00     0.127 C 
HETATM   30  C23 UNL     1      10.303   1.405   1.721  1.00  0.00     0.033 C 
HETATM   31  C24 UNL     1       9.652  -0.290   0.039  1.00  0.00     0.033 C 
HETATM   32  O2  UNL     1       9.015   1.974  -0.191  1.00  0.00    -0.226 OA
ENDBRANCH  20  29
TORSDOF 1
