REMARK  3 active torsions:
REMARK  status: ('A' for Active; 'I' for Inactive)
REMARK    1  A    between atoms: C10_10  and  O1_11 
REMARK    2  A    between atoms: O1_11  and  C11_12 
REMARK    3  A    between atoms: C15_18  and  C17_20 
ROOT
HETATM    1  C1  UNL     1      -2.479  -0.063  -0.107  1.00  0.00     0.026 C 
HETATM    2  C2  UNL     1      -2.399  -1.460   0.442  1.00  0.00    -0.025 C 
HETATM    3  C3  UNL     1      -1.200  -2.037   0.605  1.00  0.00     0.041 C 
HETATM    4  C4  UNL     1       0.173  -1.440   0.395  1.00  0.00     0.078 C 
HETATM    5  C5  UNL     1       0.043   0.006  -0.122  1.00  0.00     0.018 C 
HETATM    6  C6  UNL     1      -1.226   0.207  -0.972  1.00  0.00     0.006 C 
HETATM    7  C7  UNL     1       1.356   0.652  -0.629  1.00  0.00     0.081 A 
HETATM    8  C8  UNL     1       2.552   0.254   0.289  1.00  0.00     0.011 C 
HETATM    9  C9  UNL     1       2.083  -0.263   1.667  1.00  0.00     0.031 C 
HETATM   10  C10 UNL     1       1.032  -1.394   1.685  1.00  0.00     0.130 C 
HETATM   11  C13 UNL     1       3.679  -0.600  -0.318  1.00  0.00     0.001 C 
HETATM   12  C14 UNL     1       1.572   0.287  -2.090  1.00  0.00     0.271 A 
HETATM   13  O3  UNL     1       1.545   1.387  -2.879  1.00  0.00    -0.300 OA
HETATM   14  C15 UNL     1       1.359   2.575  -2.161  1.00  0.00     0.149 A 
HETATM   15  C16 UNL     1       1.193   2.192  -0.698  1.00  0.00     0.044 A 
HETATM   16  O5  UNL     1       1.730  -0.833  -2.521  1.00  0.00    -0.264 OA
HETATM   17  C21 UNL     1       0.640  -2.622  -0.494  1.00  0.00     0.159 C 
HETATM   18  O6  UNL     1       0.160  -3.830   0.083  1.00  0.00    -0.298 OA
HETATM   19  C22 UNL     1      -0.983  -3.488   0.731  1.00  0.00     0.292 C 
HETATM   20  O7  UNL     1      -1.713  -4.280   1.315  1.00  0.00    -0.260 OA
ENDROOT
BRANCH  14  21
HETATM   21  C17 UNL     1       2.515   3.510  -2.385  1.00  0.00     0.032 A 
HETATM   22  C18 UNL     1       2.465   4.774  -2.892  1.00  0.00     0.121 A 
HETATM   23  O4  UNL     1       3.712   5.320  -2.956  1.00  0.00    -0.303 OA
HETATM   24  C19 UNL     1       4.569   4.375  -2.476  1.00  0.00     0.122 A 
HETATM   25  C20 UNL     1       3.896   3.250  -2.108  1.00  0.00     0.027 A 
ENDBRANCH  14  21
BRANCH  10  26
HETATM   26  O1  UNL     1       0.188  -1.178   2.789  1.00  0.00    -0.304 OA
BRANCH  26  27
HETATM   27  C11 UNL     1       0.056  -2.011   3.860  1.00  0.00     0.272 C 
HETATM   28  O2  UNL     1      -0.702  -1.754   4.773  1.00  0.00    -0.264 OA
HETATM   29  C12 UNL     1       0.906  -3.267   3.879  1.00  0.00     0.106 C 
ENDBRANCH  26  27
ENDBRANCH  10  26
TORSDOF 3
