REMARK  3 active torsions:
REMARK  status: ('A' for Active; 'I' for Inactive)
REMARK    1  A    between atoms: C10_10  and  O1_11 
REMARK    2  A    between atoms: O1_11  and  C11_12 
REMARK    3  A    between atoms: C17_20  and  C20_23 
ROOT
HETATM    1  C1  UNL     1      -1.215  -1.268   1.335  1.00  0.00     0.038 C 
HETATM    2  C2  UNL     1      -1.542   0.211   1.460  1.00  0.00     0.174 C 
HETATM    3  C3  UNL     1      -0.620   1.083   0.655  1.00  0.00    -0.000 C 
HETATM    4  C4  UNL     1       0.555   0.693   0.129  1.00  0.00    -0.019 C 
HETATM    5  C5  UNL     1       1.062  -0.742   0.235  1.00  0.00     0.020 C 
HETATM    6  C6  UNL     1       0.306  -1.456   1.391  1.00  0.00     0.007 C 
HETATM    7  C7  UNL     1       2.590  -0.742   0.560  1.00  0.00     0.041 C 
HETATM    8  C8  UNL     1       3.456   0.221  -0.272  1.00  0.00     0.156 C 
HETATM    9  C9  UNL     1       2.849   1.630  -0.237  1.00  0.00     0.067 C 
HETATM   10  C10 UNL     1       1.381   1.689  -0.664  1.00  0.00     0.145 C 
HETATM   11  C13 UNL     1       4.943   0.221   0.129  1.00  0.00     0.159 C 
HETATM   12  C14 UNL     1       5.630  -1.154   0.271  1.00  0.00     0.083 C 
HETATM   13  C15 UNL     1       4.676  -2.098   1.013  1.00  0.00     0.153 C 
HETATM   14  C16 UNL     1       3.226  -2.141   0.568  1.00  0.00     0.067 C 
HETATM   15  O3  UNL     1       5.060  -2.830   1.898  1.00  0.00    -0.296 OA
HETATM   16  C17 UNL     1       6.885  -0.864   1.145  1.00  0.00     0.033 C 
HETATM   17  C18 UNL     1       6.351   0.144   2.174  1.00  0.00     0.007 C 
HETATM   18  C19 UNL     1       5.253   0.943   1.453  1.00  0.00     0.034 C 
HETATM   19  C25 UNL     1       5.997  -1.866  -1.044  1.00  0.00     0.010 C 
HETATM   20  O6  UNL     1       5.599   0.920  -0.902  1.00  0.00    -0.223 OA
HETATM   21  O7  UNL     1       3.443  -0.201  -1.607  1.00  0.00    -0.223 OA
HETATM   22  C26 UNL     1       0.716  -1.487  -1.076  1.00  0.00     0.004 C 
HETATM   23  O8  UNL     1      -2.882   0.432   1.058  1.00  0.00    -0.219 OA
ENDROOT
BRANCH  16  24
HETATM   24  C20 UNL     1       8.127  -0.417   0.383  1.00  0.00     0.003 A 
HETATM   25  C21 UNL     1       9.003  -1.445  -0.179  1.00  0.00     0.003 A 
HETATM   26  C22 UNL     1      10.105  -1.089  -0.873  1.00  0.00     0.068 A 
HETATM   27  C23 UNL     1      10.394   0.352  -1.021  1.00  0.00     0.300 A 
HETATM   28  O4  UNL     1       9.602   1.301  -0.451  1.00  0.00    -0.271 OA
HETATM   29  O5  UNL     1      11.382   0.680  -1.675  1.00  0.00    -0.259 OA
HETATM   30  C24 UNL     1       8.494   0.876   0.225  1.00  0.00     0.122 A 
ENDBRANCH  16  24
BRANCH  10  31
HETATM   31  O1  UNL     1       1.259   1.469  -2.050  1.00  0.00    -0.300 OA
BRANCH  31  32
HETATM   32  C11 UNL     1       0.729   2.359  -2.937  1.00  0.00     0.273 C 
HETATM   33  O2  UNL     1       0.624   2.100  -4.118  1.00  0.00    -0.264 OA
HETATM   34  C12 UNL     1       0.297   3.712  -2.401  1.00  0.00     0.106 C 
ENDBRANCH  31  32
ENDBRANCH  10  31
TORSDOF 3
