REMARK  2 active torsions:
REMARK  status: ('A' for Active; 'I' for Inactive)
REMARK    1  A    between atoms: C10_11  and  O2_12 
REMARK    2  A    between atoms: O2_12  and  C11_13 
ROOT
HETATM    1  C1  UNL     1      -2.083   0.070  -2.148  1.00  0.00     0.203 C 
HETATM    2  C2  UNL     1      -2.447  -1.109  -1.343  1.00  0.00     0.032 C 
HETATM    3  C3  UNL     1      -1.567  -1.691  -0.503  1.00  0.00    -0.039 C 
HETATM    4  C4  UNL     1      -0.127  -1.182  -0.428  1.00  0.00     0.052 C 
HETATM    5  C5  UNL     1      -0.104   0.381  -0.520  1.00  0.00     0.044 C 
HETATM    6  C6  UNL     1      -0.755   0.746  -1.877  1.00  0.00     0.213 C 
HETATM    7  O1  UNL     1      -1.040   2.131  -1.978  1.00  0.00    -0.215 OA
HETATM    8  C7  UNL     1       1.382   0.890  -0.502  1.00  0.00     0.041 C 
HETATM    9  C8  UNL     1       2.342   0.365   0.611  1.00  0.00     0.059 C 
HETATM   10  C9  UNL     1       2.189  -1.174   0.656  1.00  0.00     0.155 C 
HETATM   11  C10 UNL     1       0.745  -1.699   0.737  1.00  0.00     0.156 C 
HETATM   12  O4  UNL     1       2.793  -1.796  -0.446  1.00  0.00    -0.300 OA
HETATM   13  C13 UNL     1       4.071  -1.516  -0.790  1.00  0.00     0.305 C 
HETATM   14  C14 UNL     1       4.729  -0.495   0.113  1.00  0.00     0.265 C 
HETATM   15  C15 UNL     1       3.851   0.733   0.343  1.00  0.00     0.169 C 
HETATM   16  C16 UNL     1       4.088   1.795  -0.759  1.00  0.00     0.064 C 
HETATM   17  C17 UNL     1       3.022   2.871  -0.605  1.00  0.00     0.185 C 
HETATM   18  C18 UNL     1       1.635   2.353  -0.923  1.00  0.00     0.183 C 
HETATM   19  O5  UNL     1       0.742   3.264  -0.335  1.00  0.00    -0.221 OA
HETATM   20  O6  UNL     1       3.292   3.985  -1.423  1.00  0.00    -0.221 OA
HETATM   21  C19 UNL     1       4.244   1.301  -2.211  1.00  0.00     0.005 C 
HETATM   22  O7  UNL     1       4.422   1.292   1.508  1.00  0.00    -0.223 OA
HETATM   23  O8  UNL     1       5.069  -1.078   1.361  1.00  0.00    -0.210 OA
HETATM   24  O9  UNL     1       4.631  -2.030  -1.735  1.00  0.00    -0.261 OA
HETATM   25  C20 UNL     1       1.906   0.933   1.986  1.00  0.00     0.005 C 
HETATM   26  C21 UNL     1      -1.016   0.950   0.600  1.00  0.00     0.004 C 
HETATM   27  C22 UNL     1      -2.024  -2.902   0.275  1.00  0.00     0.026 C 
HETATM   28  O10 UNL     1      -2.827   0.620  -2.952  1.00  0.00    -0.289 OA
ENDROOT
BRANCH  11  29
HETATM   29  O2  UNL     1       0.803  -3.103   0.709  1.00  0.00    -0.301 OA
BRANCH  29  30
HETATM   30  C11 UNL     1       0.808  -3.897   1.819  1.00  0.00     0.272 C 
HETATM   31  O3  UNL     1       0.831  -5.108   1.736  1.00  0.00    -0.264 OA
HETATM   32  C12 UNL     1       0.777  -3.210   3.173  1.00  0.00     0.106 C 
ENDBRANCH  29  30
ENDBRANCH  11  29
TORSDOF 2
