REMARK  4 active torsions:
REMARK  status: ('A' for Active; 'I' for Inactive)
REMARK    1  A    between atoms: C10_10  and  O1_11 
REMARK    2  A    between atoms: O1_11  and  C11_12 
REMARK    3  A    between atoms: C11_12  and  C12_13 
REMARK    4  A    between atoms: C13_14  and  C14_15 
ROOT
HETATM    1  C1  UNL     1       2.683   0.645   0.266  1.00  0.00    -0.030 C 
HETATM    2  C2  UNL     1       1.707  -0.319   1.390  1.00  0.00    -0.029 C 
HETATM    3  C3  UNL     1      -0.005  -0.225   1.522  1.00  0.00     0.047 C 
HETATM    4  C4  UNL     1      -0.750   0.954   0.410  1.00  0.00     0.162 C 
HETATM    5  C5  UNL     1       0.221   2.325  -0.376  1.00  0.00     0.037 C 
HETATM    6  C6  UNL     1       2.027   1.993  -0.667  1.00  0.00     0.029 C 
HETATM    7  C7  UNL     1       0.499   3.183   0.780  1.00  0.00     0.029 C 
HETATM    8  C8  UNL     1       1.038   1.755   1.023  1.00  0.00    -0.017 C 
HETATM    9  C9  UNL     1       0.667   0.437  -0.472  1.00  0.00     0.131 C 
HETATM   10  C10 UNL     1      -0.801   0.299  -0.896  1.00  0.00     0.199 C 
HETATM   11  O3  UNL     1       1.184  -0.889  -0.722  1.00  0.00    -0.193 OA
HETATM   12  C20 UNL     1       2.245   2.279   2.058  1.00  0.00     0.044 C 
HETATM   13  C21 UNL     1       1.566   3.104   3.168  1.00  0.00     0.002 A 
HETATM   14  C22 UNL     1       0.376   3.772   3.065  1.00  0.00     0.074 A 
HETATM   15  C23 UNL     1      -0.462   3.757   1.819  1.00  0.00     0.055 C 
HETATM   16  O4  UNL     1       0.067   4.394   4.238  1.00  0.00    -0.310 OA
HETATM   17  C24 UNL     1       1.085   4.111   5.099  1.00  0.00     0.122 A 
HETATM   18  C25 UNL     1       2.027   3.328   4.505  1.00  0.00     0.024 A 
HETATM   19  C26 UNL     1       3.413   3.241   1.678  1.00  0.00     0.009 C 
HETATM   20  C27 UNL     1      -0.411   3.164  -1.497  1.00  0.00     0.003 C 
HETATM   21  O5  UNL     1      -2.043   1.315   0.790  1.00  0.00    -0.223 OA
HETATM   22  C28 UNL     1      -0.636  -1.667   1.496  1.00  0.00     0.007 C 
HETATM   23  C29 UNL     1      -0.424   0.061   3.035  1.00  0.00     0.007 C 
ENDROOT
BRANCH  10  24
HETATM   24  O1  UNL     1      -1.334  -0.980  -0.976  1.00  0.00    -0.292 OA
BRANCH  24  25
HETATM   25  C11 UNL     1      -1.493  -1.488  -2.236  1.00  0.00     0.296 C 
HETATM   26  O2  UNL     1      -1.351  -0.769  -3.223  1.00  0.00    -0.259 OA
BRANCH  25  27
HETATM   27  C12 UNL     1      -1.704  -2.941  -2.448  1.00  0.00     0.068 C 
HETATM   28  C13 UNL     1      -1.810  -3.485  -3.686  1.00  0.00     0.005 C 
BRANCH  28  29
HETATM   29  C14 UNL     1      -2.010  -4.908  -3.997  1.00  0.00     0.000 A 
HETATM   30  C15 UNL     1      -1.949  -5.312  -5.344  1.00  0.00     0.000 A 
HETATM   31  C16 UNL     1      -2.135  -6.644  -5.710  1.00  0.00     0.000 A 
HETATM   32  C17 UNL     1      -2.397  -7.606  -4.732  1.00  0.00     0.000 A 
HETATM   33  C18 UNL     1      -2.475  -7.222  -3.393  1.00  0.00     0.000 A 
HETATM   34  C19 UNL     1      -2.286  -5.886  -3.029  1.00  0.00     0.000 A 
ENDBRANCH  28  29
ENDBRANCH  25  27
ENDBRANCH  24  25
ENDBRANCH  10  24
TORSDOF 4
