REMARK  1 active torsions:
REMARK  status: ('A' for Active; 'I' for Inactive)
REMARK    1  A    between atoms: C9_9  and  C11_12 
ROOT
HETATM    1  C1  UNL     1       2.659   1.282  -2.257  1.00  0.00     0.000 C 
HETATM    2  C2  UNL     1       1.770   2.392  -1.685  1.00  0.00     0.000 C 
HETATM    3  C3  UNL     1       0.415   1.853  -1.185  1.00  0.00     0.003 C 
HETATM    4  C4  UNL     1       0.619   0.661  -0.213  1.00  0.00     0.031 C 
HETATM    5  C5  UNL     1       1.606  -0.448  -0.658  1.00  0.00     0.002 C 
HETATM    6  C6  UNL     1       2.904   0.201  -1.196  1.00  0.00     0.000 C 
HETATM    7  C7  UNL     1       1.962  -1.332   0.576  1.00  0.00     0.001 C 
HETATM    8  C8  UNL     1       0.986  -1.220   1.762  1.00  0.00     0.007 C 
HETATM    9  C9  UNL     1      -0.467  -1.134   1.278  1.00  0.00     0.049 C 
HETATM   10  C10 UNL     1      -0.682   0.081   0.360  1.00  0.00     0.156 C 
HETATM   11  O1  UNL     1      -1.363   1.094   1.065  1.00  0.00    -0.223 OA
HETATM   12  C14 UNL     1       1.027  -1.371  -1.756  1.00  0.00     0.000 C 
HETATM   13  C15 UNL     1      -0.571   1.652  -2.349  1.00  0.00     0.000 C 
ENDROOT
BRANCH   9  14
HETATM   14  C11 UNL     1      -1.511  -1.202   2.380  1.00  0.00    -0.042 C 
HETATM   15  C12 UNL     1      -2.728  -1.713   2.128  1.00  0.00    -0.009 C 
HETATM   16  C13 UNL     1      -1.185  -0.614   3.732  1.00  0.00     0.026 C 
ENDBRANCH   9  14
TORSDOF 1
