REMARK  1 active torsions:
REMARK  status: ('A' for Active; 'I' for Inactive)
REMARK    1  A    between atoms: C13_14  and  C15_18 
ROOT
HETATM    1  C1  UNL     1      -2.434  -0.464   0.414  1.00  0.00     0.026 C 
HETATM    2  C2  UNL     1      -2.301  -1.838   1.012  1.00  0.00    -0.025 C 
HETATM    3  C3  UNL     1      -1.085  -2.389   1.146  1.00  0.00     0.041 C 
HETATM    4  C4  UNL     1       0.265  -1.782   0.839  1.00  0.00     0.080 C 
HETATM    5  C5  UNL     1       0.079  -0.345   0.315  1.00  0.00     0.018 C 
HETATM    6  C6  UNL     1      -1.218  -0.195  -0.501  1.00  0.00     0.006 C 
HETATM    7  C7  UNL     1       1.358   0.333  -0.235  1.00  0.00     0.081 A 
HETATM    8  C8  UNL     1       2.597  -0.015   0.645  1.00  0.00     0.012 C 
HETATM    9  C9  UNL     1       2.179  -0.520   2.042  1.00  0.00     0.034 C 
HETATM   10  C10 UNL     1       1.218  -1.717   2.053  1.00  0.00     0.158 C 
HETATM   11  O1  UNL     1       0.454  -1.650   3.235  1.00  0.00    -0.223 OA
HETATM   12  C11 UNL     1       3.700  -0.893   0.028  1.00  0.00     0.001 C 
HETATM   13  C12 UNL     1       1.151   1.868  -0.310  1.00  0.00     0.044 A 
HETATM   14  C13 UNL     1       1.328   2.248  -1.773  1.00  0.00     0.149 A 
HETATM   15  O2  UNL     1       1.507   1.057  -2.489  1.00  0.00    -0.300 OA
HETATM   16  C14 UNL     1       1.538  -0.041  -1.698  1.00  0.00     0.271 A 
HETATM   17  O3  UNL     1       1.677  -1.164  -2.128  1.00  0.00    -0.264 OA
HETATM   18  C19 UNL     1       0.685  -2.972  -0.059  1.00  0.00     0.159 C 
HETATM   19  O5  UNL     1       0.266  -4.174   0.577  1.00  0.00    -0.298 OA
HETATM   20  C20 UNL     1      -0.839  -3.833   1.293  1.00  0.00     0.292 C 
HETATM   21  O6  UNL     1      -1.536  -4.629   1.911  1.00  0.00    -0.260 OA
ENDROOT
BRANCH  14  22
HETATM   22  C15 UNL     1       2.490   3.175  -1.999  1.00  0.00     0.032 A 
HETATM   23  C16 UNL     1       2.450   4.439  -2.506  1.00  0.00     0.121 A 
HETATM   24  O4  UNL     1       3.701   4.978  -2.572  1.00  0.00    -0.303 OA
HETATM   25  C17 UNL     1       4.551   4.025  -2.095  1.00  0.00     0.122 A 
HETATM   26  C18 UNL     1       3.871   2.904  -1.730  1.00  0.00     0.027 A 
ENDBRANCH  14  22
TORSDOF 1
