REMARK  0 active torsions:
REMARK  status: ('A' for Active; 'I' for Inactive)
ROOT
HETATM    1  C1  UNL     1      -2.499  -0.099  -0.435  1.00  0.00     0.203 C 
HETATM    2  C2  UNL     1      -2.541  -1.530  -0.089  1.00  0.00     0.032 C 
HETATM    3  C3  UNL     1      -1.422  -2.212   0.216  1.00  0.00    -0.038 C 
HETATM    4  C4  UNL     1      -0.047  -1.565   0.256  1.00  0.00     0.059 C 
HETATM    5  C5  UNL     1      -0.038  -0.008   0.357  1.00  0.00     0.044 C 
HETATM    6  C6  UNL     1      -1.144   0.558  -0.565  1.00  0.00     0.213 C 
HETATM    7  O1  UNL     1      -1.365   1.944  -0.364  1.00  0.00    -0.215 OA
HETATM    8  C7  UNL     1       1.352   0.557  -0.086  1.00  0.00     0.043 C 
HETATM    9  C8  UNL     1       2.596  -0.357   0.102  1.00  0.00     0.066 C 
HETATM   10  C9  UNL     1       2.329  -1.668  -0.642  1.00  0.00     0.181 C 
HETATM   11  C10 UNL     1       0.888  -2.122  -0.820  1.00  0.00     0.212 C 
HETATM   12  O2  UNL     1       0.431  -1.764  -2.110  1.00  0.00    -0.215 OA
HETATM   13  O3  UNL     1       3.220  -2.350  -1.096  1.00  0.00    -0.293 OA
HETATM   14  C11 UNL     1       3.844   0.330  -0.528  1.00  0.00     0.096 C 
HETATM   15  C12 UNL     1       4.167   1.655   0.170  1.00  0.00     0.040 C 
HETATM   16  C13 UNL     1       3.032   2.461  -0.450  1.00  0.00     0.155 C 
HETATM   17  C14 UNL     1       1.683   2.047   0.154  1.00  0.00     0.180 C 
HETATM   18  O4  UNL     1       1.696   2.352   1.526  1.00  0.00    -0.221 OA
HETATM   19  O5  UNL     1       3.055   2.112  -1.806  1.00  0.00    -0.302 OA
HETATM   20  C15 UNL     1       3.546   0.848  -1.930  1.00  0.00     0.272 C 
HETATM   21  O6  UNL     1       3.665   0.243  -2.972  1.00  0.00    -0.264 OA
HETATM   22  C16 UNL     1       5.558   2.205  -0.186  1.00  0.00     0.003 C 
HETATM   23  C17 UNL     1       2.922  -0.745   1.559  1.00  0.00     0.008 C 
HETATM   24  C18 UNL     1      -0.390   0.345   1.823  1.00  0.00     0.004 C 
HETATM   25  C19 UNL     1      -1.504  -3.678   0.582  1.00  0.00     0.026 C 
HETATM   26  O7  UNL     1      -3.486   0.594  -0.645  1.00  0.00    -0.289 OA
ENDROOT
TORSDOF 0
