REMARK  0 active torsions:
REMARK  status: ('A' for Active; 'I' for Inactive)
ROOT
HETATM    1  C1  UNL     1      -0.289  -0.548  -0.581  1.00  0.00    -0.004 C 
HETATM    2  C2  UNL     1       0.852  -1.185   0.191  1.00  0.00     0.309 C 
HETATM    3  C3  UNL     1       2.155  -0.511  -0.197  1.00  0.00     0.032 A 
HETATM    4  C4  UNL     1       2.174   0.695  -0.804  1.00  0.00     0.091 A 
HETATM    5  C5  UNL     1       0.937   1.468  -1.176  1.00  0.00     0.199 C 
HETATM    6  C6  UNL     1      -0.275   0.953  -0.407  1.00  0.00     0.078 C 
HETATM    7  C7  UNL     1      -0.179   1.318   1.053  1.00  0.00    -0.028 C 
HETATM    8  C8  UNL     1       0.213   0.460   2.009  1.00  0.00    -0.045 C 
HETATM    9  C9  UNL     1       0.263   0.851   3.465  1.00  0.00     0.026 C 
HETATM   10  C10 UNL     1       0.577  -0.970   1.690  1.00  0.00     0.067 C 
HETATM   11  O1  UNL     1       1.127   2.846  -0.911  1.00  0.00    -0.216 OA
HETATM   12  N1  UNL     1       3.331   1.302  -1.115  1.00  0.00    -0.210 NA
HETATM   13  C11 UNL     1       4.577   0.821  -0.887  1.00  0.00     0.279 A 
HETATM   14  C12 UNL     1       4.604  -0.489  -0.206  1.00  0.00     0.062 A 
HETATM   15  C13 UNL     1       3.449  -1.115   0.125  1.00  0.00     0.004 A 
HETATM   16  O2  UNL     1       5.572   1.444  -1.220  1.00  0.00    -0.265 OA
HETATM   17  N2  UNL     1       0.955  -2.629  -0.079  1.00  0.00     0.623 N 
HETATM   18  C14 UNL     1      -1.164  -1.238  -1.334  1.00  0.00    -0.032 C 
HETATM   19  C15 UNL     1      -2.294  -0.686  -2.164  1.00  0.00     0.030 C 
ENDROOT
TORSDOF 0
