REMARK  2 active torsions:
REMARK  status: ('A' for Active; 'I' for Inactive)
REMARK    1  A    between atoms: C16_20  and  O6_25 
REMARK    2  A    between atoms: C17_21  and  O5_23 
ROOT
HETATM    1  C1  UNL     1      -2.417   1.270  -2.087  1.00  0.00     0.102 A 
HETATM    2  C2  UNL     1      -2.450  -0.133  -2.026  1.00  0.00     0.025 A 
HETATM    3  C3  UNL     1      -1.297  -0.772  -1.595  1.00  0.00     0.007 A 
HETATM    4  C4  UNL     1      -0.140  -0.035  -1.234  1.00  0.00     0.060 A 
HETATM    5  C5  UNL     1      -0.093   1.363  -1.267  1.00  0.00     0.099 A 
HETATM    6  C6  UNL     1      -1.271   1.982  -1.731  1.00  0.00     0.047 A 
HETATM    7  C7  UNL     1      -1.595   3.373  -1.940  1.00  0.00     0.031 A 
HETATM    8  C8  UNL     1      -2.878   3.390  -2.384  1.00  0.00     0.123 A 
HETATM    9  O1  UNL     1      -3.407   2.126  -2.485  1.00  0.00    -0.305 OA
HETATM   10  O2  UNL     1       1.024   2.100  -0.983  1.00  0.00    -0.327 OA
HETATM   11  C9  UNL     1       2.211   1.362  -0.967  1.00  0.00     0.190 C 
HETATM   12  C10 UNL     1       2.076   0.148  -0.059  1.00  0.00     0.229 C 
HETATM   13  C11 UNL     1       1.056  -0.762  -0.741  1.00  0.00     0.209 C 
HETATM   14  O3  UNL     1       1.196  -1.975  -0.830  1.00  0.00    -0.288 OA
HETATM   15  C12 UNL     1       3.436  -0.444   0.227  1.00  0.00     0.039 C 
HETATM   16  C13 UNL     1       4.598   0.258  -0.117  1.00  0.00     0.095 C 
HETATM   17  O4  UNL     1       4.575   1.504  -0.689  1.00  0.00    -0.328 OA
HETATM   18  C14 UNL     1       3.380   2.222  -0.525  1.00  0.00     0.182 C 
HETATM   19  C15 UNL     1       5.823  -0.327   0.229  1.00  0.00     0.050 C 
HETATM   20  C16 UNL     1       5.958  -1.565   0.873  1.00  0.00     0.118 C 
HETATM   21  C17 UNL     1       4.778  -2.189   1.318  1.00  0.00     0.116 C 
HETATM   22  C18 UNL     1       3.549  -1.646   0.928  1.00  0.00     0.027 C 
HETATM   23  O7  UNL     1       1.558   0.541   1.204  1.00  0.00    -0.211 OA
ENDROOT
BRANCH  20  24
HETATM   24  O6  UNL     1       7.160  -2.132   1.223  1.00  0.00    -0.326 OA
HETATM   25  C20 UNL     1       8.328  -1.350   1.137  1.00  0.00     0.181 C 
ENDBRANCH  20  24
BRANCH  21  26
HETATM   26  O5  UNL     1       4.818  -3.407   1.947  1.00  0.00    -0.326 OA
HETATM   27  C19 UNL     1       4.844  -3.312   3.353  1.00  0.00     0.181 C 
ENDBRANCH  21  26
TORSDOF 2
