REMARK  7 active torsions:
REMARK  status: ('A' for Active; 'I' for Inactive)
REMARK    1  A    between atoms: C4_4  and  O3_18 
REMARK    2  A    between atoms: C6_6  and  C7_7 
REMARK    3  A    between atoms: C7_7  and  C8_8 
REMARK    4  A    between atoms: C8_8  and  C9_9 
REMARK    5  A    between atoms: C10_10  and  C11_11 
REMARK    6  A    between atoms: C11_11  and  O1_12 
REMARK    7  A    between atoms: O3_18  and  C16_19 
ROOT
HETATM    1  C1  UNL     1       0.541  -1.056   0.120  1.00  0.00     0.011 C 
HETATM    2  C2  UNL     1       0.595  -2.585  -0.157  1.00  0.00     0.018 C 
HETATM    3  C3  UNL     1       1.712  -3.186   0.722  1.00  0.00     0.034 C 
HETATM    4  C4  UNL     1       3.064  -2.481   0.648  1.00  0.00     0.124 C 
HETATM    5  C5  UNL     1       2.958  -0.964   0.895  1.00  0.00     0.028 C 
HETATM    6  C6  UNL     1       1.877  -0.229   0.032  1.00  0.00     0.003 C 
HETATM    7  C14 UNL     1       2.400  -0.040  -1.409  1.00  0.00     0.000 C 
HETATM    8  C15 UNL     1       4.384  -0.365   0.852  1.00  0.00     0.003 C 
HETATM    9  C18 UNL     1       0.746  -2.958  -1.648  1.00  0.00     0.004 C 
HETATM   10  C19 UNL     1      -0.748  -3.223   0.228  1.00  0.00    -0.042 C 
HETATM   11  C20 UNL     1      -1.910  -2.556   0.082  1.00  0.00     0.029 C 
HETATM   12  C21 UNL     1      -1.975  -1.163  -0.405  1.00  0.00     0.172 C 
HETATM   13  C22 UNL     1      -0.672  -0.409  -0.570  1.00  0.00     0.070 C 
HETATM   14  O5  UNL     1      -3.050  -0.627  -0.645  1.00  0.00    -0.291 OA
HETATM   15  C23 UNL     1      -0.785  -4.676   0.651  1.00  0.00     0.026 C 
ENDROOT
BRANCH   6  16
HETATM   16  C7  UNL     1       1.645   1.197   0.651  1.00  0.00     0.004 C 
BRANCH  16  17
HETATM   17  C8  UNL     1       1.217   2.356  -0.275  1.00  0.00     0.022 C 
BRANCH  17  18
HETATM   18  C9  UNL     1       1.020   3.685   0.439  1.00  0.00    -0.039 C 
HETATM   19  C10 UNL     1       1.620   4.799  -0.037  1.00  0.00     0.060 C 
HETATM   20  C13 UNL     1       0.089   3.653   1.629  1.00  0.00     0.026 C 
BRANCH  19  21
HETATM   21  C11 UNL     1       1.541   6.175   0.520  1.00  0.00     0.295 C 
HETATM   22  O2  UNL     1       1.220   6.353   1.691  1.00  0.00    -0.259 OA
BRANCH  21  23
HETATM   23  O1  UNL     1       1.935   7.232  -0.252  1.00  0.00    -0.296 OA
HETATM   24  C12 UNL     1       1.986   8.498   0.361  1.00  0.00     0.185 C 
ENDBRANCH  21  23
ENDBRANCH  19  21
ENDBRANCH  17  18
ENDBRANCH  16  17
ENDBRANCH   6  16
BRANCH   4  25
HETATM   25  O3  UNL     1       3.696  -2.743  -0.569  1.00  0.00    -0.304 OA
BRANCH  25  26
HETATM   26  C16 UNL     1       4.361  -3.918  -0.725  1.00  0.00     0.272 C 
HETATM   27  C17 UNL     1       4.956  -3.988  -2.117  1.00  0.00     0.106 C 
HETATM   28  O4  UNL     1       4.462  -4.785   0.113  1.00  0.00    -0.264 OA
ENDBRANCH  25  26
ENDBRANCH   4  25
TORSDOF 7
