REMARK  1 active torsions:
REMARK  status: ('A' for Active; 'I' for Inactive)
REMARK    1  A    between atoms: C2_2  and  O6_19 
ROOT
HETATM    1  C1  UNL     1      -0.159   3.458  -1.635  1.00  0.00     0.080 A 
HETATM    2  C2  UNL     1      -0.212   3.821  -0.275  1.00  0.00     0.107 A 
HETATM    3  C3  UNL     1      -0.181   2.747   0.633  1.00  0.00     0.050 A 
HETATM    4  C4  UNL     1      -0.094   1.391   0.304  1.00  0.00     0.105 A 
HETATM    5  C5  UNL     1      -0.039   1.088  -1.060  1.00  0.00     0.063 A 
HETATM    6  C6  UNL     1      -0.072   2.113  -2.012  1.00  0.00     0.019 A 
HETATM    7  C7  UNL     1       0.054  -0.329  -1.483  1.00  0.00     0.201 A 
HETATM    8  C8  UNL     1       0.091  -1.336  -0.392  1.00  0.00     0.089 A 
HETATM    9  C9  UNL     1       0.027  -0.867   0.933  1.00  0.00     0.107 A 
HETATM   10  O1  UNL     1      -0.070   0.449   1.289  1.00  0.00    -0.307 OA
HETATM   11  C10 UNL     1       0.063  -1.825   1.950  1.00  0.00     0.054 A 
HETATM   12  C11 UNL     1       0.159  -3.194   1.699  1.00  0.00     0.160 A 
HETATM   13  C12 UNL     1       0.220  -3.628   0.375  1.00  0.00     0.182 A 
HETATM   14  C13 UNL     1       0.186  -2.711  -0.682  1.00  0.00     0.163 A 
HETATM   15  O2  UNL     1       0.255  -3.228  -1.940  1.00  0.00    -0.188 OA
HETATM   16  O3  UNL     1       0.313  -4.957   0.108  1.00  0.00    -0.186 OA
HETATM   17  O4  UNL     1       0.193  -4.111   2.701  1.00  0.00    -0.188 OA
HETATM   18  O5  UNL     1       0.099  -0.628  -2.673  1.00  0.00    -0.286 OA
HETATM   19 CL1  UNL     1      -0.183   4.572  -2.958  1.00  0.00    -0.080 Cl
ENDROOT
BRANCH   2  20
HETATM   20  O6  UNL     1      -0.305   5.071   0.295  1.00  0.00    -0.327 OA
HETATM   21  C14 UNL     1      -0.417   6.241  -0.475  1.00  0.00     0.181 C 
ENDBRANCH   2  20
TORSDOF 1
