REMARK  4 active torsions:
REMARK  status: ('A' for Active; 'I' for Inactive)
REMARK    1  A    between atoms: C9_9  and  O2_12 
REMARK    2  A    between atoms: O2_12  and  C11_13 
REMARK    3  A    between atoms: C11_13  and  C12_15 
REMARK    4  A    between atoms: C20_23  and  C23_27 
ROOT
HETATM    1  C1  UNL     1       0.713  -2.030  -2.155  1.00  0.00     0.033 C 
HETATM    2  C2  UNL     1       1.094  -3.105  -0.937  1.00  0.00     0.172 C 
HETATM    3  C3  UNL     1       0.321  -2.933   0.702  1.00  0.00     0.058 C 
HETATM    4  C4  UNL     1      -0.736  -1.541   0.709  1.00  0.00     0.044 C 
HETATM    5  C5  UNL     1      -0.779  -0.205  -0.461  1.00  0.00     0.022 C 
HETATM    6  C6  UNL     1      -0.013  -0.801  -2.032  1.00  0.00    -0.024 C 
HETATM    7  C7  UNL     1       0.079   1.010  -0.050  1.00  0.00     0.010 C 
HETATM    8  C8  UNL     1       1.040   0.229   0.809  1.00  0.00     0.044 C 
HETATM    9  C9  UNL     1       1.112  -1.013  -0.199  1.00  0.00     0.158 C 
HETATM   10  C10 UNL     1      -0.563  -2.002  -0.619  1.00  0.00     0.181 C 
HETATM   11  O1  UNL     1      -1.760  -1.791  -1.454  1.00  0.00    -0.221 OA
HETATM   12  C16 UNL     1       2.271   1.109   0.994  1.00  0.00    -0.040 C 
HETATM   13  C17 UNL     1       2.260   2.584   0.623  1.00  0.00     0.026 C 
HETATM   14  C18 UNL     1       0.881   3.198   0.962  1.00  0.00     0.004 C 
HETATM   15  C19 UNL     1      -0.354   2.334   0.593  1.00  0.00     0.001 C 
HETATM   16  C20 UNL     1       3.404   3.131   1.533  1.00  0.00     0.089 C 
HETATM   17  C21 UNL     1       4.261   1.916   1.864  1.00  0.00     0.176 C 
HETATM   18  C22 UNL     1       3.389   0.744   1.641  1.00  0.00     0.029 C 
HETATM   19  O4  UNL     1       5.384   1.910   2.346  1.00  0.00    -0.291 OA
HETATM   20  C27 UNL     1       2.683   2.809  -0.847  1.00  0.00     0.005 C 
HETATM   21  C28 UNL     1       0.562   0.083   2.281  1.00  0.00     0.007 C 
HETATM   22  C29 UNL     1      -2.199   0.451  -0.534  1.00  0.00     0.004 C 
HETATM   23  C30 UNL     1      -0.543  -4.235   0.987  1.00  0.00     0.008 C 
HETATM   24  C31 UNL     1       1.296  -3.089   1.916  1.00  0.00     0.008 C 
HETATM   25  O6  UNL     1       1.770  -4.098  -1.162  1.00  0.00    -0.291 OA
ENDROOT
BRANCH   9  26
HETATM   26  O2  UNL     1       2.048  -0.436  -1.160  1.00  0.00    -0.298 OA
BRANCH  26  27
HETATM   27  C11 UNL     1       3.231  -0.934  -1.648  1.00  0.00     0.291 C 
HETATM   28  O3  UNL     1       3.851  -0.215  -2.428  1.00  0.00    -0.260 OA
BRANCH  27  29
HETATM   29  C12 UNL     1       3.941  -2.225  -1.332  1.00  0.00     0.037 C 
HETATM   30  C13 UNL     1       4.336  -3.018  -2.347  1.00  0.00    -0.025 C 
HETATM   31  C14 UNL     1       4.084  -2.824  -3.820  1.00  0.00     0.030 C 
HETATM   32  C15 UNL     1       4.366  -2.571   0.071  1.00  0.00     0.036 C 
ENDBRANCH  27  29
ENDBRANCH  26  27
ENDBRANCH   9  26
BRANCH  16  33
HETATM   33  C23 UNL     1       4.160   4.312   1.000  1.00  0.00     0.012 A 
HETATM   34  C24 UNL     1       3.781   5.620   1.081  1.00  0.00     0.119 A 
HETATM   35  O5  UNL     1       4.687   6.431   0.465  1.00  0.00    -0.303 OA
HETATM   36  C25 UNL     1       5.662   5.612  -0.022  1.00  0.00     0.122 A 
HETATM   37  C26 UNL     1       5.395   4.310   0.274  1.00  0.00     0.025 A 
ENDBRANCH  16  33
TORSDOF 4
