REMARK  5 active torsions:
REMARK  status: ('A' for Active; 'I' for Inactive)
REMARK    1  A    between atoms: C1_1  and  C14_21 
REMARK    2  A    between atoms: C2_2  and  O2_9 
REMARK    3  A    between atoms: C4_4  and  C7_7 
REMARK    4  A    between atoms: O2_9  and  C8_10 
REMARK    5  A    between atoms: C9_12  and  C13_19 
ROOT
HETATM    1  O2  UNL     1       3.096   0.625   0.625  1.00  0.00    -0.304 OA
ENDROOT
BRANCH   1   2
HETATM    2  C2  UNL     1       1.883   0.759  -0.006  1.00  0.00     0.092 A 
HETATM    3  C1  UNL     1       1.606   1.882  -0.813  1.00  0.00    -0.000 A 
HETATM    4  C6  UNL     1       0.383   1.949  -1.496  1.00  0.00    -0.003 A 
HETATM    5  C5  UNL     1      -0.588   0.957  -1.381  1.00  0.00    -0.002 A 
HETATM    6  C4  UNL     1      -0.357  -0.140  -0.553  1.00  0.00     0.013 A 
HETATM    7  C3  UNL     1       0.874  -0.212   0.104  1.00  0.00     0.022 A 
BRANCH   3   8
HETATM    8  C14 UNL     1       2.569   3.052  -0.986  1.00  0.00     0.024 C 
HETATM    9  C15 UNL     1       3.074   3.639   0.342  1.00  0.00     0.005 C 
HETATM   10  C16 UNL     1       3.724   2.710  -1.936  1.00  0.00     0.005 C 
ENDBRANCH   3   8
BRANCH   6  11
HETATM   11  C7  UNL     1      -1.413  -1.203  -0.374  1.00  0.00     0.209 C 
HETATM   12  O1  UNL     1      -2.673  -0.624  -0.056  1.00  0.00    -0.215 OA
ENDBRANCH   6  11
ENDBRANCH   1   2
BRANCH   1  13
HETATM   13  C8  UNL     1       3.728  -0.638   0.565  1.00  0.00     0.274 C 
HETATM   14  O3  UNL     1       4.699  -0.584   1.590  1.00  0.00    -0.326 OA
HETATM   15  C9  UNL     1       5.405  -1.794   1.714  1.00  0.00     0.184 C 
HETATM   16  C10 UNL     1       6.146  -2.091   0.414  1.00  0.00     0.215 C 
HETATM   17  C11 UNL     1       5.174  -2.134  -0.749  1.00  0.00     0.220 C 
HETATM   18  O6  UNL     1       6.796  -3.337   0.474  1.00  0.00    -0.218 OA
HETATM   19  C12 UNL     1       4.400  -0.835  -0.775  1.00  0.00     0.241 C 
HETATM   20  O5  UNL     1       5.890  -2.282  -1.949  1.00  0.00    -0.218 OA
HETATM   21  O4  UNL     1       3.438  -0.885  -1.799  1.00  0.00    -0.215 OA
BRANCH  15  22
HETATM   22  C13 UNL     1       6.355  -1.684   2.897  1.00  0.00     0.214 C 
HETATM   23  O7  UNL     1       5.614  -1.566   4.096  1.00  0.00    -0.218 OA
ENDBRANCH  15  22
ENDBRANCH   1  13
TORSDOF 5
