REMARK  3 active torsions:
REMARK  status: ('A' for Active; 'I' for Inactive)
REMARK    1  A    between atoms: C9_10  and  C12_14 
REMARK    2  A    between atoms: C12_14  and  C13_15 
REMARK    3  A    between atoms: C13_15  and  C14_16 
ROOT
HETATM    1  C1  UNL     1      -0.623   2.772  -0.066  1.00  0.00     0.028 A 
HETATM    2  C2  UNL     1      -1.237   1.494   0.018  1.00  0.00     0.133 A 
HETATM    3  C3  UNL     1      -0.435   0.364   0.091  1.00  0.00     0.046 A 
HETATM    4  C4  UNL     1       0.967   0.520   0.075  1.00  0.00     0.084 A 
HETATM    5  C5  UNL     1       1.554   1.790  -0.011  1.00  0.00     0.019 A 
HETATM    6  C6  UNL     1       0.751   2.945  -0.081  1.00  0.00     0.004 A 
HETATM    7  C7  UNL     1       2.979   1.598  -0.012  1.00  0.00     0.022 A 
HETATM    8  C8  UNL     1       3.215   0.221   0.077  1.00  0.00     0.095 A 
HETATM    9  N1  UNL     1       1.978  -0.428   0.132  1.00  0.00    -0.244 NA
HETATM   10  C9  UNL     1       4.529  -0.291   0.098  1.00  0.00     0.077 A 
HETATM   11  N2  UNL     1       5.557   0.545   0.028  1.00  0.00    -0.247 NA
HETATM   12  C10 UNL     1       5.325   1.883  -0.059  1.00  0.00     0.099 A 
HETATM   13  C11 UNL     1       4.074   2.479  -0.082  1.00  0.00     0.022 A 
HETATM   14  O3  UNL     1      -2.591   1.370   0.026  1.00  0.00    -0.190 OA
ENDROOT
BRANCH  10  15
HETATM   15  C12 UNL     1       4.801  -1.772   0.197  1.00  0.00     0.059 C 
BRANCH  15  16
HETATM   16  C13 UNL     1       6.225  -2.210  -0.177  1.00  0.00     0.104 C 
BRANCH  16  17
HETATM   17  C14 UNL     1       6.410  -3.714  -0.089  1.00  0.00     0.186 C 
HETATM   18  O1  UNL     1       7.653  -4.083  -0.452  1.00  0.00    -0.647 OA
HETATM   19  O2  UNL     1       5.587  -4.528   0.254  1.00  0.00    -0.647 OA
ENDBRANCH  16  17
ENDBRANCH  15  16
ENDBRANCH  10  15
TORSDOF 3
