REMARK  7 active torsions:
REMARK  status: ('A' for Active; 'I' for Inactive)
REMARK    1  A    between atoms: C5_5  and  C7_7 
REMARK    2  A    between atoms: C7_7  and  C8_8 
REMARK    3  A    between atoms: C9_9  and  C10_10 
REMARK    4  A    between atoms: C10_10  and  C11_11 
REMARK    5  A    between atoms: C13_13  and  O3_21 
REMARK    6  A    between atoms: C14_14  and  O2_19 
REMARK    7  A    between atoms: C15_15  and  O1_17 
ROOT
HETATM    1  C8  UNL     1       3.990   2.148  -1.548  1.00  0.00     0.075 C 
HETATM    2  C9  UNL     1       4.256   0.637  -1.466  1.00  0.00     0.096 C 
HETATM    3  C20 UNL     1       5.464   0.468  -2.377  1.00  0.00     0.272 C 
HETATM    4  O4  UNL     1       6.057   1.672  -2.569  1.00  0.00    -0.302 OA
HETATM    5  C21 UNL     1       5.380   2.688  -1.880  1.00  0.00     0.155 C 
HETATM    6  O5  UNL     1       5.860  -0.576  -2.847  1.00  0.00    -0.264 OA
ENDROOT
BRANCH   2   7
HETATM    7  C10 UNL     1       3.079  -0.279  -1.861  1.00  0.00     0.036 C 
BRANCH   7   8
HETATM    8  C11 UNL     1       2.388  -1.099  -0.788  1.00  0.00    -0.018 C 
HETATM    9  C12 UNL     1       1.064  -1.494  -0.972  1.00  0.00     0.022 C 
HETATM   10  C13 UNL     1       0.391  -2.313  -0.061  1.00  0.00     0.118 C 
HETATM   11  C14 UNL     1       0.991  -2.619   1.179  1.00  0.00     0.138 C 
HETATM   12  C15 UNL     1       2.345  -2.264   1.393  1.00  0.00     0.118 C 
HETATM   13  C16 UNL     1       3.003  -1.540   0.386  1.00  0.00     0.022 C 
BRANCH  10  14
HETATM   14  O3  UNL     1      -0.926  -2.624  -0.292  1.00  0.00    -0.326 OA
HETATM   15  C19 UNL     1      -1.101  -3.873  -0.922  1.00  0.00     0.181 C 
ENDBRANCH  10  14
BRANCH  11  16
HETATM   16  O2  UNL     1       0.190  -3.325   2.050  1.00  0.00    -0.324 OA
HETATM   17  C18 UNL     1       0.688  -3.861   3.250  1.00  0.00     0.182 C 
ENDBRANCH  11  16
BRANCH  12  18
HETATM   18  O1  UNL     1       2.964  -2.588   2.575  1.00  0.00    -0.326 OA
HETATM   19  C17 UNL     1       4.220  -2.033   2.886  1.00  0.00     0.181 C 
ENDBRANCH  12  18
ENDBRANCH   7   8
ENDBRANCH   2   7
BRANCH   1  20
HETATM   20  C7  UNL     1       3.406   2.785  -0.286  1.00  0.00     0.177 C 
HETATM   21  O6  UNL     1       3.513   4.195  -0.390  1.00  0.00    -0.218 OA
BRANCH  20  22
HETATM   22  C5  UNL     1       1.955   2.437  -0.044  1.00  0.00     0.010 A 
HETATM   23  C4  UNL     1       1.593   1.507   0.944  1.00  0.00     0.000 A 
HETATM   24  C3  UNL     1       0.256   1.194   1.220  1.00  0.00     0.026 A 
HETATM   25  C2  UNL     1      -0.718   1.870   0.492  1.00  0.00     0.119 A 
HETATM   26  C1  UNL     1      -0.373   2.801  -0.481  1.00  0.00     0.119 A 
HETATM   27  O7  UNL     1      -2.095   1.786   0.571  1.00  0.00    -0.300 OA
HETATM   28  C6  UNL     1       0.955   3.097  -0.773  1.00  0.00     0.025 A 
HETATM   29  O8  UNL     1      -1.525   3.326  -1.034  1.00  0.00    -0.300 OA
HETATM   30  C22 UNL     1      -2.641   2.713  -0.377  1.00  0.00     0.304 A 
ENDBRANCH  20  22
ENDBRANCH   1  20
TORSDOF 7
