REMARK  1 active torsions:
REMARK  status: ('A' for Active; 'I' for Inactive)
REMARK    1  A    between atoms: C6_8  and  C9_13 
ROOT
HETATM    1  C1  UNL     1       1.358  -1.714   0.501  1.00  0.00     0.040 C 
HETATM    2  C2  UNL     1       0.251  -1.064  -0.325  1.00  0.00     0.063 C 
HETATM    3  C3  UNL     1       0.399   0.410  -0.122  1.00  0.00     0.040 C 
HETATM    4  C4  UNL     1       1.746   0.994   0.006  1.00  0.00     0.291 C 
HETATM    5  O1  UNL     1       2.860   0.209   0.074  1.00  0.00    -0.299 OA
HETATM    6  C5  UNL     1       2.719  -1.192   0.030  1.00  0.00     0.153 C 
HETATM    7  O2  UNL     1       1.852   2.216   0.063  1.00  0.00    -0.260 OA
HETATM    8  C6  UNL     1      -0.786   1.044  -0.058  1.00  0.00     0.022 C 
HETATM    9  C7  UNL     1      -1.907   0.045  -0.164  1.00  0.00     0.203 C 
HETATM   10  C8  UNL     1      -1.199  -1.280   0.115  1.00  0.00     0.191 C 
HETATM   11  O3  UNL     1      -1.808  -2.314  -0.616  1.00  0.00    -0.220 OA
HETATM   12  O4  UNL     1      -2.398   0.029  -1.489  1.00  0.00    -0.216 OA
ENDROOT
BRANCH   8  13
HETATM   13  C9  UNL     1      -1.043   2.511   0.108  1.00  0.00     0.207 C 
HETATM   14  O5  UNL     1      -0.381   2.998   1.266  1.00  0.00    -0.216 OA
ENDBRANCH   8  13
TORSDOF 1
