REMARK  3 active torsions:
REMARK  status: ('A' for Active; 'I' for Inactive)
REMARK    1  A    between atoms: C3_3  and  C10_13 
REMARK    2  A    between atoms: C4_4  and  C5_5 
REMARK    3  A    between atoms: C10_13  and  C11_14 
ROOT
HETATM    1  C3  UNL     1       0.498   0.161   0.906  1.00  0.00     0.056 C 
HETATM    2  C4  UNL     1      -0.413   0.161  -0.303  1.00  0.00    -0.015 C 
HETATM    3  C6  UNL     1       0.274   0.345  -1.441  1.00  0.00    -0.017 C 
HETATM    4  C7  UNL     1       1.741   0.514  -1.169  1.00  0.00     0.201 C 
HETATM    5  C8  UNL     1       1.876  -0.016   0.251  1.00  0.00     0.190 C 
HETATM    6  O2  UNL     1       2.877   0.697   0.934  1.00  0.00    -0.220 OA
HETATM    7  O3  UNL     1       2.057   1.893  -1.176  1.00  0.00    -0.216 OA
HETATM    8  C9  UNL     1      -0.248   0.476  -2.842  1.00  0.00     0.028 C 
ENDROOT
BRANCH   1   9
HETATM    9  C10 UNL     1       0.170  -0.922   1.945  1.00  0.00     0.042 C 
BRANCH   9  10
HETATM   10  C11 UNL     1       1.113  -0.884   3.143  1.00  0.00     0.183 C 
HETATM   11  O4  UNL     1       0.714  -1.854   4.091  1.00  0.00    -0.221 OA
ENDBRANCH   9  10
ENDBRANCH   1   9
BRANCH   2  12
HETATM   12  C5  UNL     1      -1.905   0.075  -0.143  1.00  0.00     0.204 C 
HETATM   13  O1  UNL     1      -2.372   1.092   0.733  1.00  0.00    -0.216 OA
ENDBRANCH   2  12
TORSDOF 3
