REMARK  1 active torsions:
REMARK  status: ('A' for Active; 'I' for Inactive)
REMARK    1  A    between atoms: C8_9  and  C10_12 
ROOT
HETATM    1  C1  UNL     1      -1.505   0.722  -0.074  1.00  0.00     0.133 A 
HETATM    2  C2  UNL     1      -0.914   1.963   0.177  1.00  0.00     0.028 A 
HETATM    3  C3  UNL     1       0.456   2.067   0.410  1.00  0.00     0.007 A 
HETATM    4  C4  UNL     1       1.251   0.914   0.391  1.00  0.00     0.062 A 
HETATM    5  C5  UNL     1       0.704  -0.347   0.119  1.00  0.00     0.105 A 
HETATM    6  C6  UNL     1      -0.678  -0.407  -0.093  1.00  0.00     0.052 A 
HETATM    7  O1  UNL     1       1.458  -1.484   0.110  1.00  0.00    -0.311 OA
HETATM    8  C7  UNL     1       2.808  -1.339  -0.049  1.00  0.00     0.081 C 
HETATM    9  C8  UNL     1       3.489  -0.203   0.234  1.00  0.00     0.058 C 
HETATM   10  C9  UNL     1       2.712   1.008   0.615  1.00  0.00     0.199 C 
HETATM   11  O2  UNL     1       3.244   2.026   1.048  1.00  0.00    -0.286 OA
HETATM   12  C16 UNL     1       3.485  -2.590  -0.567  1.00  0.00     0.058 C 
HETATM   13  O3  UNL     1      -2.843   0.607  -0.284  1.00  0.00    -0.190 OA
ENDROOT
BRANCH   9  14
HETATM   14  C10 UNL     1       4.965  -0.055   0.120  1.00  0.00     0.005 A 
HETATM   15  C11 UNL     1       5.831  -0.975   0.726  1.00  0.00     0.000 A 
HETATM   16  C12 UNL     1       7.216  -0.829   0.624  1.00  0.00     0.000 A 
HETATM   17  C13 UNL     1       7.755   0.254  -0.072  1.00  0.00     0.000 A 
HETATM   18  C14 UNL     1       6.904   1.190  -0.662  1.00  0.00     0.000 A 
HETATM   19  C15 UNL     1       5.519   1.034  -0.567  1.00  0.00     0.000 A 
ENDBRANCH   9  14
TORSDOF 1
