REMARK  0 active torsions:
REMARK  status: ('A' for Active; 'I' for Inactive)
ROOT
HETATM    1  C1  UNL     1      -2.946   3.638  -1.433  1.00  0.00     0.000 A 
HETATM    2  C2  UNL     1      -3.007   3.944  -0.074  1.00  0.00     0.002 A 
HETATM    3  C3  UNL     1      -2.974   2.916   0.871  1.00  0.00     0.025 A 
HETATM    4  C4  UNL     1      -2.880   1.567   0.506  1.00  0.00     0.103 A 
HETATM    5  C5  UNL     1      -2.820   1.282  -0.870  1.00  0.00     0.062 A 
HETATM    6  C6  UNL     1      -2.853   2.303  -1.830  1.00  0.00     0.005 A 
HETATM    7  C7  UNL     1      -2.720  -0.130  -1.308  1.00  0.00     0.199 A 
HETATM    8  C8  UNL     1      -2.692  -1.134  -0.218  1.00  0.00     0.064 A 
HETATM    9  C9  UNL     1      -2.759  -0.694   1.114  1.00  0.00     0.103 A 
HETATM   10  O1  UNL     1      -2.853   0.616   1.483  1.00  0.00    -0.307 OA
HETATM   11  C10 UNL     1      -2.725  -1.685   2.101  1.00  0.00     0.027 A 
HETATM   12  C11 UNL     1      -2.633  -3.043   1.789  1.00  0.00     0.029 A 
HETATM   13  C12 UNL     1      -2.570  -3.475   0.463  1.00  0.00     0.131 A 
HETATM   14  C13 UNL     1      -2.598  -2.497  -0.534  1.00  0.00     0.033 A 
HETATM   15  O2  UNL     1      -2.479  -4.795   0.150  1.00  0.00    -0.190 OA
HETATM   16  O3  UNL     1      -2.663  -0.450  -2.494  1.00  0.00    -0.286 OA
ENDROOT
TORSDOF 0
