REMARK  1 active torsions:
REMARK  status: ('A' for Active; 'I' for Inactive)
REMARK    1  A    between atoms: C9_10  and  C10_11 
ROOT
HETATM    1  C1  UNL     1       0.150  -2.707  -1.587  1.00  0.00     0.129 A 
HETATM    2  C2  UNL     1       1.275  -2.284  -0.869  1.00  0.00     0.004 A 
HETATM    3  C3  UNL     1       1.248  -1.042  -0.232  1.00  0.00    -0.001 A 
HETATM    4  C4  UNL     1       0.136  -0.182  -0.274  1.00  0.00     0.019 A 
HETATM    5  C5  UNL     1      -1.000  -0.601  -0.997  1.00  0.00     0.105 A 
HETATM    6  C6  UNL     1      -0.951  -1.850  -1.629  1.00  0.00     0.052 A 
HETATM    7  O1  UNL     1      -2.144   0.136  -1.119  1.00  0.00    -0.273 OA
HETATM    8  C7  UNL     1      -2.175   1.337  -0.489  1.00  0.00     0.300 A 
HETATM    9  C8  UNL     1      -1.027   1.852   0.285  1.00  0.00     0.065 A 
HETATM   10  C9  UNL     1       0.112   1.129   0.402  1.00  0.00    -0.015 A 
HETATM   11  O2  UNL     1      -3.183   2.038  -0.554  1.00  0.00    -0.259 OA
HETATM   12  C13 UNL     1       2.517  -3.138  -0.766  1.00  0.00     0.033 C 
HETATM   13  O3  UNL     1       0.108  -3.904  -2.232  1.00  0.00    -0.190 OA
ENDROOT
BRANCH  10  14
HETATM   14  C10 UNL     1       1.266   1.707   1.210  1.00  0.00     0.023 C 
HETATM   15  C11 UNL     1       1.786   3.013   0.584  1.00  0.00     0.005 C 
HETATM   16  C12 UNL     1       0.871   1.909   2.683  1.00  0.00     0.005 C 
ENDBRANCH  10  14
TORSDOF 1
