REMARK  9 active torsions:
REMARK  status: ('A' for Active; 'I' for Inactive)
REMARK    1  A    between atoms: C2_2  and  O8_42 
REMARK    2  A    between atoms: C6_6  and  O1_7 
REMARK    3  A    between atoms: O1_7  and  C7_8 
REMARK    4  A    between atoms: C7_8  and  C8_9 
REMARK    5  A    between atoms: C19_22  and  C30_35 
REMARK    6  A    between atoms: C21_24  and  O4_25 
REMARK    7  A    between atoms: O4_25  and  C22_26 
REMARK    8  A    between atoms: C22_26  and  C23_27 
REMARK    9  A    between atoms: O8_42  and  C35_43 
ROOT
HETATM    1  C1  UNL     1       1.873  -1.527  -1.907  1.00  0.00     0.207 C 
HETATM    2  C2  UNL     1       1.126  -2.405  -0.918  1.00  0.00     0.157 C 
HETATM    3  C3  UNL     1       2.082  -3.299  -0.095  1.00  0.00     0.028 C 
HETATM    4  C4  UNL     1       3.466  -2.586   0.101  1.00  0.00     0.007 C 
HETATM    5  C5  UNL     1       3.464  -1.020   0.127  1.00  0.00     0.034 C 
HETATM    6  C6  UNL     1       2.832  -0.531  -1.233  1.00  0.00     0.157 C 
HETATM    7  C14 UNL     1       4.929  -0.467   0.365  1.00  0.00     0.068 C 
HETATM    8  C15 UNL     1       5.745  -1.187   1.464  1.00  0.00     0.207 C 
HETATM    9  C16 UNL     1       5.709  -2.702   1.318  1.00  0.00     0.187 C 
HETATM   10  C17 UNL     1       4.281  -3.221   1.242  1.00  0.00     0.036 C 
HETATM   11  O3  UNL     1       6.435  -3.083   0.172  1.00  0.00    -0.220 OA
HETATM   12  C18 UNL     1       7.218  -0.739   1.411  1.00  0.00     0.183 C 
HETATM   13  C19 UNL     1       7.557   0.756   1.407  1.00  0.00     0.075 C 
HETATM   14  C20 UNL     1       6.590   1.458   0.438  1.00  0.00     0.041 C 
HETATM   15  C21 UNL     1       5.116   1.060   0.583  1.00  0.00     0.128 C 
HETATM   16  C29 UNL     1       7.436   1.295   2.846  1.00  0.00     0.012 C 
HETATM   17  O6  UNL     1       8.088  -1.582   1.395  1.00  0.00    -0.293 OA
HETATM   18  O7  UNL     1       5.242  -0.902   2.754  1.00  0.00    -0.216 OA
HETATM   19  C32 UNL     1       2.595  -0.500   1.303  1.00  0.00     0.003 C 
HETATM   20  C33 UNL     1       1.378  -3.648   1.242  1.00  0.00     0.003 C 
HETATM   21  C34 UNL     1       2.301  -4.667  -0.802  1.00  0.00     0.003 C 
HETATM   22  O10 UNL     1       2.562  -2.341  -2.830  1.00  0.00    -0.218 OA
ENDROOT
BRANCH   6  23
HETATM   23  O1  UNL     1       3.817  -0.234  -2.178  1.00  0.00    -0.298 OA
BRANCH  23  24
HETATM   24  C7  UNL     1       3.829   0.791  -3.086  1.00  0.00     0.296 C 
HETATM   25  O2  UNL     1       4.831   0.824  -3.802  1.00  0.00    -0.259 OA
BRANCH  24  26
HETATM   26  C8  UNL     1       2.837   1.876  -3.385  1.00  0.00     0.063 A 
HETATM   27  C9  UNL     1       3.293   2.998  -4.104  1.00  0.00     0.005 A 
HETATM   28  C10 UNL     1       2.447   4.064  -4.418  1.00  0.00     0.000 A 
HETATM   29  C11 UNL     1       1.112   4.037  -4.019  1.00  0.00     0.000 A 
HETATM   30  C12 UNL     1       0.637   2.933  -3.309  1.00  0.00     0.000 A 
HETATM   31  C13 UNL     1       1.487   1.871  -2.999  1.00  0.00     0.005 A 
ENDBRANCH  24  26
ENDBRANCH  23  24
ENDBRANCH   6  23
BRANCH   2  32
HETATM   32  O8  UNL     1       0.138  -3.169  -1.552  1.00  0.00    -0.302 OA
BRANCH  32  33
HETATM   33  C35 UNL     1      -1.004  -2.539  -1.944  1.00  0.00     0.272 C 
HETATM   34  C36 UNL     1      -1.945  -3.528  -2.600  1.00  0.00     0.106 C 
HETATM   35  O9  UNL     1      -1.244  -1.363  -1.789  1.00  0.00    -0.264 OA
ENDBRANCH  32  33
ENDBRANCH   2  32
BRANCH  15  36
HETATM   36  O4  UNL     1       4.391   1.836  -0.326  1.00  0.00    -0.301 OA
BRANCH  36  37
HETATM   37  C22 UNL     1       3.490   2.785   0.073  1.00  0.00     0.296 C 
HETATM   38  O5  UNL     1       2.833   3.356  -0.794  1.00  0.00    -0.259 OA
BRANCH  37  39
HETATM   39  C23 UNL     1       3.149   3.192   1.478  1.00  0.00     0.063 A 
HETATM   40  C24 UNL     1       1.795   3.266   1.827  1.00  0.00     0.005 A 
HETATM   41  C25 UNL     1       1.422   3.604   3.129  1.00  0.00     0.000 A 
HETATM   42  C26 UNL     1       2.403   3.878   4.085  1.00  0.00     0.000 A 
HETATM   43  C27 UNL     1       3.754   3.825   3.733  1.00  0.00     0.000 A 
HETATM   44  C28 UNL     1       4.130   3.488   2.432  1.00  0.00     0.005 A 
ENDBRANCH  37  39
ENDBRANCH  36  37
ENDBRANCH  15  36
BRANCH  13  45
HETATM   45  C30 UNL     1       8.986   1.004   0.938  1.00  0.00    -0.020 C 
HETATM   46  C31 UNL     1       9.551   2.216   0.825  1.00  0.00    -0.004 C 
ENDBRANCH  13  45
TORSDOF 9
