REMARK  1 active torsions:
REMARK  status: ('A' for Active; 'I' for Inactive)
REMARK    1  A    between atoms: C5_5  and  O2_9 
ROOT
HETATM    1  C1  UNL     1      -0.965   0.758  -0.178  1.00  0.00     0.040 C 
HETATM    2  C2  UNL     1      -0.850  -0.781  -0.125  1.00  0.00     0.106 C 
HETATM    3  C3  UNL     1       0.357  -1.339   0.682  1.00  0.00     0.056 C 
HETATM    4  C4  UNL     1       1.639  -0.626   0.216  1.00  0.00     0.056 C 
HETATM    5  C5  UNL     1       1.387   0.723   0.889  1.00  0.00     0.187 C 
HETATM    6  C6  UNL     1       0.369   1.505   0.062  1.00  0.00     0.059 C 
HETATM    7  O1  UNL     1       0.858   0.441   2.156  1.00  0.00    -0.335 OA
HETATM    8  C7  UNL     1       0.365  -0.872   2.144  1.00  0.00     0.147 C 
HETATM    9  C9  UNL     1       2.960  -1.304   0.621  1.00  0.00     0.005 C 
HETATM   10  C10 UNL     1       0.414  -2.879   0.634  1.00  0.00     0.005 C 
HETATM   11  C11 UNL     1      -0.847  -1.240  -1.600  1.00  0.00     0.061 C 
HETATM   12  C12 UNL     1      -0.807   0.023  -2.452  1.00  0.00     0.155 C 
HETATM   13  C13 UNL     1      -1.512   1.080  -1.601  1.00  0.00     0.033 C 
HETATM   14  C14 UNL     1      -3.039   1.028  -1.799  1.00  0.00     0.003 C 
HETATM   15  O3  UNL     1      -1.427  -0.182  -3.697  1.00  0.00    -0.223 OA
HETATM   16  O4  UNL     1      -2.029  -1.226   0.481  1.00  0.00    -0.306 OA
HETATM   17  C15 UNL     1      -2.752  -0.232   1.056  1.00  0.00     0.272 C 
HETATM   18  C16 UNL     1      -1.985   1.061   0.927  1.00  0.00     0.098 C 
HETATM   19  O5  UNL     1      -3.819  -0.376   1.609  1.00  0.00    -0.264 OA
ENDROOT
BRANCH   5  20
HETATM   20  O2  UNL     1       2.618   1.385   1.051  1.00  0.00    -0.332 OA
HETATM   21  C8  UNL     1       2.531   2.680   1.602  1.00  0.00     0.177 C 
ENDBRANCH   5  20
TORSDOF 1
