REMARK  11 active torsions:
REMARK  status: ('A' for Active; 'I' for Inactive)
REMARK    1  A    between atoms: C4_4  and  O6_13 
REMARK    2  A    between atoms: C5_6  and  C6_7 
REMARK    3  A    between atoms: C6_7  and  O2_8 
REMARK    4  A    between atoms: O2_8  and  S1_9 
REMARK    5  A    between atoms: O6_13  and  C7_14 
REMARK    6  A    between atoms: C14_21  and  C24_37 
REMARK    7  A    between atoms: N1_22  and  C15_23 
REMARK    8  A    between atoms: C15_23  and  C16_24 
REMARK    9  A    between atoms: C16_24  and  C17_25 
REMARK   10  A    between atoms: C19_27  and  C23_34 
REMARK   11  A    between atoms: C20_29  and  C22_31 
ROOT
HETATM    1  C7  UNL     1      -1.685   1.623  -2.237  1.00  0.00     0.122 A 
HETATM    2  C8  UNL     1      -1.905   0.356  -1.829  1.00  0.00     0.155 A 
HETATM    3  C9  UNL     1      -0.876  -0.392  -1.394  1.00  0.00     0.046 A 
HETATM    4  C10 UNL     1       0.369   0.105  -1.366  1.00  0.00     0.059 A 
HETATM    5  C11 UNL     1       0.597   1.318  -1.887  1.00  0.00    -0.002 A 
HETATM    6  C12 UNL     1      -0.417   2.067  -2.331  1.00  0.00     0.024 A 
HETATM    7  C13 UNL     1       2.042   1.726  -1.886  1.00  0.00     0.062 C 
HETATM    8  C14 UNL     1       2.616   0.655  -0.937  1.00  0.00     0.178 C 
HETATM    9  N1  UNL     1       1.480  -0.379  -0.867  1.00  0.00    -0.319 N 
HETATM   10  O13 UNL     1      -3.167  -0.131  -1.700  1.00  0.00    -0.188 OA
ENDROOT
BRANCH   1  11
HETATM   11  O6  UNL     1      -2.730   2.455  -2.546  1.00  0.00    -0.301 OA
BRANCH  11  12
HETATM   12  C4  UNL     1      -2.898   3.477  -1.573  1.00  0.00     0.274 C 
HETATM   13  C3  UNL     1      -4.361   3.783  -1.396  1.00  0.00     0.241 C 
HETATM   14  C2  UNL     1      -4.477   4.826  -0.307  1.00  0.00     0.220 C 
HETATM   15  O14 UNL     1      -4.886   4.302  -2.590  1.00  0.00    -0.215 OA
HETATM   16  C1  UNL     1      -3.868   4.282   0.970  1.00  0.00     0.215 C 
HETATM   17  O15 UNL     1      -5.830   5.139  -0.105  1.00  0.00    -0.218 OA
HETATM   18  C5  UNL     1      -2.428   3.844   0.736  1.00  0.00     0.182 C 
HETATM   19  O16 UNL     1      -3.949   5.300   1.937  1.00  0.00    -0.218 OA
HETATM   20  O1  UNL     1      -2.361   2.984  -0.365  1.00  0.00    -0.326 OA
BRANCH  18  21
HETATM   21  C6  UNL     1      -1.857   3.089   1.941  1.00  0.00     0.198 C 
BRANCH  21  22
HETATM   22  O2  UNL     1      -0.633   2.466   1.615  1.00  0.00    -0.235 OA
BRANCH  22  23
HETATM   23  S1  UNL     1      -0.490   0.824   1.875  1.00  0.00     0.252 S 
HETATM   24  O3  UNL     1       0.832   0.292   1.015  1.00  0.00    -0.572 OA
HETATM   25  O4  UNL     1      -0.180   0.611   3.279  1.00  0.00    -0.572 OA
HETATM   26  O5  UNL     1      -1.666   0.129   1.379  1.00  0.00    -0.572 OA
ENDBRANCH  22  23
ENDBRANCH  21  22
ENDBRANCH  18  21
ENDBRANCH  11  12
ENDBRANCH   1  11
BRANCH   9  27
HETATM   27  C15 UNL     1       1.626  -1.610  -0.441  1.00  0.00     0.076 C 
BRANCH  27  28
HETATM   28  C16 UNL     1       2.760  -2.166   0.021  1.00  0.00     0.015 C 
BRANCH  28  29
HETATM   29  C17 UNL     1       2.962  -3.422   0.468  1.00  0.00    -0.017 C 
HETATM   30  C18 UNL     1       4.357  -3.786   0.934  1.00  0.00     0.062 C 
HETATM   31  C19 UNL     1       4.614  -5.288   0.819  1.00  0.00     0.194 C 
HETATM   32  N2  UNL     1       3.407  -6.054   1.164  1.00  0.00    -0.255 NA
HETATM   33  C20 UNL     1       2.228  -5.608   1.008  1.00  0.00     0.141 C 
HETATM   34  C21 UNL     1       1.991  -4.345   0.608  1.00  0.00     0.021 C 
BRANCH  31  35
HETATM   35  C23 UNL     1       5.058  -5.731  -0.570  1.00  0.00     0.209 C 
HETATM   36  O9  UNL     1       5.333  -7.049  -0.598  1.00  0.00    -0.646 OA
HETATM   37  O10 UNL     1       5.203  -5.053  -1.559  1.00  0.00    -0.646 OA
ENDBRANCH  31  35
BRANCH  33  38
HETATM   38  C22 UNL     1       1.190  -6.463   1.231  1.00  0.00     0.229 C 
HETATM   39  O7  UNL     1      -0.113  -6.131   1.086  1.00  0.00    -0.643 OA
HETATM   40  O8  UNL     1       1.401  -7.605   1.577  1.00  0.00    -0.643 OA
ENDBRANCH  33  38
ENDBRANCH  28  29
ENDBRANCH  27  28
ENDBRANCH   9  27
BRANCH   8  41
HETATM   41  C24 UNL     1       2.966   1.173   0.453  1.00  0.00     0.207 C 
HETATM   42  O11 UNL     1       2.107   2.125   0.871  1.00  0.00    -0.646 OA
HETATM   43  O12 UNL     1       3.933   0.829   1.092  1.00  0.00    -0.646 OA
ENDBRANCH   8  41
TORSDOF 11
