REMARK  9 active torsions:
REMARK  status: ('A' for Active; 'I' for Inactive)
REMARK    1  A    between atoms: C1_1  and  O6_27 
REMARK    2  A    between atoms: C3_3  and  O4_24 
REMARK    3  A    between atoms: C5_5  and  C7_7 
REMARK    4  A    between atoms: C7_7  and  C8_8 
REMARK    5  A    between atoms: C8_8  and  C10_10 
REMARK    6  A    between atoms: C10_10  and  C11_11 
REMARK    7  A    between atoms: C11_11  and  C12_12 
REMARK    8  A    between atoms: C14_14  and  O3_21 
REMARK    9  A    between atoms: C16_16  and  O1_18 
ROOT
HETATM    1  C8  UNL     1      -1.525  -1.081   1.247  1.00  0.00     0.005 C 
HETATM    2  C9  UNL     1      -1.743  -0.827   2.754  1.00  0.00     0.000 C 
ENDROOT
BRANCH   1   3
HETATM    3  C7  UNL     1      -0.414  -0.141   0.730  1.00  0.00     0.026 C 
BRANCH   3   4
HETATM    4  C5  UNL     1       0.964  -0.167   1.367  1.00  0.00    -0.018 A 
HETATM    5  C4  UNL     1       1.460  -1.242   1.999  1.00  0.00     0.022 A 
HETATM    6  C3  UNL     1       2.696  -1.259   2.532  1.00  0.00     0.121 A 
HETATM    7  C2  UNL     1       3.449  -0.145   2.407  1.00  0.00     0.175 A 
HETATM    8  C1  UNL     1       2.999   0.959   1.774  1.00  0.00     0.121 A 
HETATM    9  O5  UNL     1       4.707  -0.145   2.933  1.00  0.00    -0.186 OA
HETATM   10  C6  UNL     1       1.755   0.913   1.262  1.00  0.00     0.022 A 
BRANCH   6  11
HETATM   11  O4  UNL     1       3.242  -2.330   3.200  1.00  0.00    -0.326 OA
HETATM   12  C21 UNL     1       2.442  -3.459   3.462  1.00  0.00     0.181 C 
ENDBRANCH   6  11
BRANCH   8  13
HETATM   13  O6  UNL     1       3.846   2.039   1.673  1.00  0.00    -0.326 OA
HETATM   14  C22 UNL     1       3.450   3.151   0.904  1.00  0.00     0.181 C 
ENDBRANCH   8  13
ENDBRANCH   3   4
ENDBRANCH   1   3
BRANCH   1  15
HETATM   15  C10 UNL     1      -2.858  -0.924   0.455  1.00  0.00     0.005 C 
HETATM   16  C20 UNL     1      -3.991  -1.772   1.078  1.00  0.00     0.000 C 
BRANCH  15  17
HETATM   17  C11 UNL     1      -2.777  -1.305  -1.046  1.00  0.00     0.026 C 
BRANCH  17  18
HETATM   18  C12 UNL     1      -1.921  -0.448  -1.957  1.00  0.00    -0.018 A 
HETATM   19  C13 UNL     1      -1.068  -1.007  -2.828  1.00  0.00     0.022 A 
HETATM   20  C14 UNL     1      -0.252  -0.300  -3.632  1.00  0.00     0.121 A 
HETATM   21  C15 UNL     1      -0.336   1.050  -3.563  1.00  0.00     0.175 A 
HETATM   22  C16 UNL     1      -1.196   1.660  -2.715  1.00  0.00     0.121 A 
HETATM   23  O2  UNL     1       0.457   1.852  -4.327  1.00  0.00    -0.186 OA
HETATM   24  C17 UNL     1      -1.968   0.892  -1.925  1.00  0.00     0.022 A 
BRANCH  20  25
HETATM   25  O3  UNL     1       0.558  -1.027  -4.477  1.00  0.00    -0.326 OA
HETATM   26  C19 UNL     1       1.050  -0.452  -5.664  1.00  0.00     0.181 C 
ENDBRANCH  20  25
BRANCH  22  27
HETATM   27  O1  UNL     1      -1.189   3.035  -2.663  1.00  0.00    -0.326 OA
HETATM   28  C18 UNL     1      -1.671   3.673  -1.502  1.00  0.00     0.181 C 
ENDBRANCH  22  27
ENDBRANCH  17  18
ENDBRANCH  15  17
ENDBRANCH   1  15
TORSDOF 9
