REMARK  1 active torsions:
REMARK  status: ('A' for Active; 'I' for Inactive)
REMARK    1  A    between atoms: C13_16  and  O3_19 
ROOT
HETATM    1  C1  UNL     1      -3.602  -0.982  -0.022  1.00  0.00     0.119 A 
HETATM    2  C2  UNL     1      -3.591  -2.318  -0.084  1.00  0.00     0.119 A 
HETATM    3  C3  UNL     1      -2.439  -3.000  -0.088  1.00  0.00     0.027 A 
HETATM    4  C4  UNL     1      -1.281  -2.316  -0.025  1.00  0.00     0.035 A 
HETATM    5  C5  UNL     1      -1.303  -0.969   0.058  1.00  0.00    -0.012 A 
HETATM    6  C6  UNL     1      -2.461  -0.286   0.048  1.00  0.00     0.022 A 
HETATM    7  C7  UNL     1       0.012  -0.254   0.115  1.00  0.00     0.094 C 
HETATM    8  C8  UNL     1       1.072  -1.120   0.647  1.00  0.00     0.161 C 
HETATM    9  O1  UNL     1       1.200  -2.257  -0.145  1.00  0.00    -0.325 OA
HETATM   10  C9  UNL     1       0.036  -3.063  -0.048  1.00  0.00     0.293 C 
HETATM   11  O2  UNL     1       0.280  -3.765   1.167  1.00  0.00    -0.185 OA
HETATM   12  C10 UNL     1       1.738   0.167   0.169  1.00  0.00     0.280 C 
HETATM   13  N1  UNL     1       0.474   1.223  -0.696  1.00  0.00     0.141 N 
HETATM   14  C11 UNL     1       0.699   0.150  -1.469  1.00  0.00     0.232 C 
HETATM   15  C12 UNL     1       2.099   1.147  -1.646  1.00  0.00     0.068 C 
HETATM   16  C13 UNL     1       2.350   2.209  -0.241  1.00  0.00     0.139 C 
HETATM   17  C14 UNL     1       1.183   2.107   1.084  1.00  0.00    -0.001 C 
HETATM   18  C15 UNL     1       0.198   1.114   1.274  1.00  0.00    -0.021 C 
HETATM   19  C17 UNL     1       0.266   2.575  -1.304  1.00  0.00     0.285 C 
HETATM   20  O4  UNL     1      -4.731  -2.771  -0.141  1.00  0.00    -0.300 OA
HETATM   21  C18 UNL     1      -5.632  -1.663  -0.116  1.00  0.00     0.304 A 
HETATM   22  O5  UNL     1      -4.748  -0.543  -0.039  1.00  0.00    -0.300 OA
ENDROOT
BRANCH  16  23
HETATM   23  O3  UNL     1       3.702   2.041   0.160  1.00  0.00    -0.350 OA
HETATM   24  C16 UNL     1       4.074   2.847   1.257  1.00  0.00     0.175 C 
ENDBRANCH  16  23
TORSDOF 1
