REMARK  6 active torsions:
REMARK  status: ('A' for Active; 'I' for Inactive)
REMARK    1  A    between atoms: C3_3  and  O4_10 
REMARK    2  A    between atoms: C4_5  and  C6_8 
REMARK    3  A    between atoms: O4_10  and  C7_11 
REMARK    4  A    between atoms: C7_11  and  C8_12 
REMARK    5  A    between atoms: C16_21  and  O6_22 
REMARK    6  A    between atoms: C19_25  and  C20_27 
ROOT
HETATM    1  C8  UNL     1      -0.721   0.048  -0.296  1.00  0.00     0.111 A 
HETATM    2  C9  UNL     1      -0.759  -1.098   0.399  1.00  0.00     0.065 A 
HETATM    3  C10 UNL     1       0.374  -1.770   0.722  1.00  0.00     0.201 A 
HETATM    4  C11 UNL     1       1.580  -1.252   0.339  1.00  0.00     0.084 A 
HETATM    5  C12 UNL     1       1.583  -0.095  -0.368  1.00  0.00     0.107 A 
HETATM    6  O5  UNL     1       0.449   0.577  -0.735  1.00  0.00    -0.309 OA
HETATM    7  C13 UNL     1       2.761   0.448  -0.731  1.00  0.00     0.049 A 
HETATM    8  C14 UNL     1       3.908  -0.139  -0.381  1.00  0.00     0.094 A 
HETATM    9  C15 UNL     1       3.879  -1.272   0.320  1.00  0.00     0.025 A 
HETATM   10  C16 UNL     1       2.735  -1.894   0.657  1.00  0.00     0.097 A 
HETATM   11  C18 UNL     1       5.278  -1.695   0.665  1.00  0.00     0.063 C 
HETATM   12  C19 UNL     1       6.033  -0.645  -0.177  1.00  0.00     0.154 C 
HETATM   13  O7  UNL     1       5.038   0.277  -0.630  1.00  0.00    -0.331 OA
HETATM   14  O9  UNL     1       0.229  -2.799   1.345  1.00  0.00    -0.286 OA
ENDROOT
BRANCH   1  15
HETATM   15  C7  UNL     1      -1.978   0.813  -0.662  1.00  0.00     0.196 C 
BRANCH  15  16
HETATM   16  O4  UNL     1      -3.087   0.424   0.124  1.00  0.00    -0.322 OA
BRANCH  16  17
HETATM   17  C3  UNL     1      -4.290   1.085  -0.208  1.00  0.00     0.270 C 
HETATM   18  C2  UNL     1      -5.252   0.849   0.937  1.00  0.00     0.241 C 
HETATM   19  C1  UNL     1      -6.635   1.327   0.545  1.00  0.00     0.220 C 
HETATM   20  O10 UNL     1      -5.253  -0.532   1.216  1.00  0.00    -0.215 OA
HETATM   21  C5  UNL     1      -7.051   0.666  -0.751  1.00  0.00     0.215 C 
HETATM   22  O11 UNL     1      -7.589   1.040   1.538  1.00  0.00    -0.218 OA
HETATM   23  C4  UNL     1      -5.999   0.868  -1.834  1.00  0.00     0.184 C 
HETATM   24  O2  UNL     1      -8.299   1.200  -1.130  1.00  0.00    -0.218 OA
HETATM   25  O1  UNL     1      -4.731   0.457  -1.394  1.00  0.00    -0.326 OA
BRANCH  23  26
HETATM   26  C6  UNL     1      -5.947   2.265  -2.440  1.00  0.00     0.214 C 
HETATM   27  O3  UNL     1      -7.163   2.524  -3.112  1.00  0.00    -0.218 OA
ENDBRANCH  23  26
ENDBRANCH  16  17
ENDBRANCH  15  16
ENDBRANCH   1  15
BRANCH  10  28
HETATM   28  O6  UNL     1       2.817  -3.029   1.427  1.00  0.00    -0.328 OA
HETATM   29  C17 UNL     1       2.809  -4.229   0.685  1.00  0.00     0.181 C 
ENDBRANCH  10  28
BRANCH  12  30
HETATM   30  C20 UNL     1       7.210   0.059   0.511  1.00  0.00     0.152 C 
HETATM   31  O8  UNL     1       7.927   0.754  -0.478  1.00  0.00    -0.224 OA
HETATM   32  C21 UNL     1       8.178  -0.947   1.139  1.00  0.00     0.036 C 
HETATM   33  C22 UNL     1       6.747   1.085   1.548  1.00  0.00     0.036 C 
ENDBRANCH  12  30
TORSDOF 6
