REMARK  2 active torsions:
REMARK  status: ('A' for Active; 'I' for Inactive)
REMARK    1  A    between atoms: C7_9  and  C25_34 
REMARK    2  A    between atoms: C16_19  and  C19_23 
ROOT
HETATM    1  C1  UNL     1      -3.803   1.603   0.243  1.00  0.00     0.055 A 
HETATM    2  C2  UNL     1      -2.703   0.849   0.398  1.00  0.00     0.131 A 
HETATM    3  C3  UNL     1      -1.508   1.454   0.559  1.00  0.00     0.032 A 
HETATM    4  C4  UNL     1      -1.430   2.802   0.596  1.00  0.00     0.097 A 
HETATM    5  C5  UNL     1      -2.562   3.510   0.431  1.00  0.00     0.051 A 
HETATM    6  C6  UNL     1      -3.763   2.942   0.253  1.00  0.00     0.135 A 
HETATM    7  O1  UNL     1      -4.893   3.681   0.091  1.00  0.00    -0.190 OA
HETATM    8  O2  UNL     1      -0.260   3.495   0.766  1.00  0.00    -0.304 OA
HETATM    9  C7  UNL     1       0.953   2.771   0.688  1.00  0.00     0.245 C 
HETATM   10  C8  UNL     1       0.805   1.473   1.444  1.00  0.00     0.216 C 
HETATM   11  C9  UNL     1      -0.234   0.639   0.712  1.00  0.00     0.088 C 
HETATM   12  C10 UNL     1       0.339   0.355  -0.663  1.00  0.00     0.029 A 
HETATM   13  C11 UNL     1       0.974   1.375  -1.273  1.00  0.00     0.097 A 
HETATM   14  C12 UNL     1       1.492   1.139  -2.489  1.00  0.00     0.051 A 
HETATM   15  C13 UNL     1       1.380  -0.041  -3.113  1.00  0.00     0.131 A 
HETATM   16  C14 UNL     1       0.753  -1.044  -2.471  1.00  0.00     0.028 A 
HETATM   17  C15 UNL     1       0.227  -0.862  -1.241  1.00  0.00     0.091 A 
HETATM   18  O3  UNL     1      -0.366  -1.881  -0.543  1.00  0.00    -0.327 OA
HETATM   19  C16 UNL     1      -0.159  -3.196  -0.988  1.00  0.00     0.174 C 
HETATM   20  C17 UNL     1      -0.379  -3.277  -2.485  1.00  0.00     0.188 C 
HETATM   21  C18 UNL     1       0.650  -2.385  -3.165  1.00  0.00     0.066 C 
HETATM   22  O4  UNL     1      -1.672  -2.828  -2.813  1.00  0.00    -0.220 OA
HETATM   23  O7  UNL     1       1.930  -0.209  -4.347  1.00  0.00    -0.190 OA
HETATM   24  O8  UNL     1       1.176   2.605  -0.705  1.00  0.00    -0.304 OA
HETATM   25  O9  UNL     1       2.033   0.786   1.495  1.00  0.00    -0.217 OA
HETATM   26  O12 UNL     1      -2.830  -0.503   0.363  1.00  0.00    -0.190 OA
ENDROOT
BRANCH   9  27
HETATM   27  C25 UNL     1       2.092   3.571   1.326  1.00  0.00     0.034 A 
HETATM   28  C26 UNL     1       3.375   3.349   0.986  1.00  0.00     0.030 A 
HETATM   29  C27 UNL     1       4.399   4.007   1.555  1.00  0.00     0.156 A 
HETATM   30  C28 UNL     1       4.146   4.930   2.499  1.00  0.00     0.156 A 
HETATM   31  O11 UNL     1       5.689   3.758   1.198  1.00  0.00    -0.188 OA
HETATM   32  C29 UNL     1       2.873   5.159   2.853  1.00  0.00     0.029 A 
HETATM   33  O10 UNL     1       5.168   5.610   3.084  1.00  0.00    -0.188 OA
HETATM   34  C30 UNL     1       1.863   4.486   2.285  1.00  0.00     0.003 A 
ENDBRANCH   9  27
BRANCH  19  35
HETATM   35  C19 UNL     1      -1.041  -4.163  -0.218  1.00  0.00     0.010 A 
HETATM   36  C20 UNL     1      -0.548  -5.321   0.254  1.00  0.00     0.028 A 
HETATM   37  C21 UNL     1      -1.300  -6.194   0.945  1.00  0.00     0.156 A 
HETATM   38  C22 UNL     1      -2.594  -5.908   1.176  1.00  0.00     0.156 A 
HETATM   39  O6  UNL     1      -0.779  -7.359   1.415  1.00  0.00    -0.188 OA
HETATM   40  C23 UNL     1      -3.100  -4.758   0.704  1.00  0.00     0.029 A 
HETATM   41  O5  UNL     1      -3.371  -6.779   1.873  1.00  0.00    -0.188 OA
HETATM   42  C24 UNL     1      -2.337  -3.896   0.016  1.00  0.00     0.000 A 
ENDBRANCH  19  35
TORSDOF 2
