REMARK  3 active torsions:
REMARK  status: ('A' for Active; 'I' for Inactive)
REMARK    1  A    between atoms: C3_3  and  O4_10 
REMARK    2  A    between atoms: C4_5  and  C6_8 
REMARK    3  A    between atoms: O4_10  and  C7_11 
ROOT
HETATM    1  C7  UNL     1      -1.194  -1.898   0.882  1.00  0.00     0.128 C 
HETATM    2  C8  UNL     1       0.276  -2.392   0.761  1.00  0.00     0.030 C 
HETATM    3  C9  UNL     1       1.099  -1.571  -0.234  1.00  0.00     0.003 C 
HETATM    4  C10 UNL     1       1.415  -0.247   0.454  1.00  0.00     0.000 C 
HETATM    5  C11 UNL     1       0.218   0.373   1.232  1.00  0.00     0.005 C 
HETATM    6  C12 UNL     1      -1.195  -0.356   1.261  1.00  0.00     0.056 C 
HETATM    7  C13 UNL     1      -1.751  -0.258   2.715  1.00  0.00     0.187 C 
HETATM    8  C14 UNL     1      -3.117  -0.886   2.912  1.00  0.00     0.215 C 
HETATM    9  C15 UNL     1      -3.098  -2.379   2.657  1.00  0.00     0.217 C 
HETATM   10  C16 UNL     1      -1.848  -2.852   1.923  1.00  0.00     0.210 C 
HETATM   11  O5  UNL     1      -0.929  -3.192   2.947  1.00  0.00    -0.218 OA
HETATM   12  O6  UNL     1      -4.277  -2.752   1.991  1.00  0.00    -0.218 OA
HETATM   13  O7  UNL     1      -3.529  -0.635   4.236  1.00  0.00    -0.218 OA
HETATM   14  O8  UNL     1      -1.863   1.073   3.163  1.00  0.00    -0.221 OA
HETATM   15  C17 UNL     1      -2.150   0.465   0.358  1.00  0.00     0.005 C 
HETATM   16  C18 UNL     1       0.239   1.923   1.052  1.00  0.00     0.000 C 
HETATM   17  C19 UNL     1       0.311   2.444  -0.401  1.00  0.00     0.000 C 
HETATM   18  C20 UNL     1       1.364   1.719  -1.266  1.00  0.00     0.003 C 
HETATM   19  C21 UNL     1       2.192   0.782  -0.376  1.00  0.00     0.003 C 
HETATM   20  C22 UNL     1       3.382   0.353  -1.239  1.00  0.00     0.030 C 
HETATM   21  C23 UNL     1       3.694   1.622  -2.052  1.00  0.00     0.118 C 
HETATM   22  C24 UNL     1       2.503   2.570  -1.889  1.00  0.00     0.032 C 
HETATM   23  C25 UNL     1       3.071   3.722  -1.043  1.00  0.00     0.054 C 
HETATM   24  C26 UNL     1       4.550   3.389  -0.818  1.00  0.00     0.188 C 
HETATM   25  O9  UNL     1       4.856   2.260  -1.609  1.00  0.00    -0.337 OA
HETATM   26  C27 UNL     1       4.909   3.049   0.637  1.00  0.00     0.061 C 
HETATM   27  C28 UNL     1       6.390   3.309   0.932  1.00  0.00     0.029 C 
HETATM   28  C29 UNL     1       6.588   4.786   0.740  1.00  0.00    -0.015 C 
HETATM   29  C30 UNL     1       5.800   5.367  -0.402  1.00  0.00     0.167 C 
HETATM   30  O10 UNL     1       5.399   4.391  -1.344  1.00  0.00    -0.330 OA
HETATM   31  C31 UNL     1       7.346   5.538   1.551  1.00  0.00    -0.007 C 
HETATM   32  C32 UNL     1       2.743   5.063  -1.730  1.00  0.00     0.005 C 
HETATM   33  C33 UNL     1       0.645   1.004  -2.434  1.00  0.00     0.000 C 
ENDROOT
BRANCH   1  34
HETATM   34  O4  UNL     1      -1.635  -2.137  -0.443  1.00  0.00    -0.331 OA
BRANCH  34  35
HETATM   35  C3  UNL     1      -2.993  -2.343  -0.774  1.00  0.00     0.270 C 
HETATM   36  C2  UNL     1      -3.119  -2.132  -2.273  1.00  0.00     0.241 C 
HETATM   37  C1  UNL     1      -4.523  -2.460  -2.733  1.00  0.00     0.220 C 
HETATM   38  O11 UNL     1      -2.845  -0.798  -2.613  1.00  0.00    -0.215 OA
HETATM   39  C5  UNL     1      -4.844  -3.882  -2.325  1.00  0.00     0.215 C 
HETATM   40  O12 UNL     1      -4.604  -2.341  -4.130  1.00  0.00    -0.218 OA
HETATM   41  C4  UNL     1      -4.634  -4.019  -0.825  1.00  0.00     0.184 C 
HETATM   42  O2  UNL     1      -6.180  -4.143  -2.675  1.00  0.00    -0.218 OA
HETATM   43  O1  UNL     1      -3.308  -3.689  -0.501  1.00  0.00    -0.326 OA
BRANCH  41  44
HETATM   44  C6  UNL     1      -4.907  -5.421  -0.307  1.00  0.00     0.214 C 
HETATM   45  O3  UNL     1      -4.750  -5.432   1.099  1.00  0.00    -0.218 OA
ENDBRANCH  41  44
ENDBRANCH  34  35
ENDBRANCH   1  34
TORSDOF 3
