REMARK  6 active torsions:
REMARK  status: ('A' for Active; 'I' for Inactive)
REMARK    1  A    between atoms: C7_9  and  C32_45 
REMARK    2  A    between atoms: C9_11  and  C10_12 
REMARK    3  A    between atoms: C16_20  and  C26_35 
REMARK    4  A    between atoms: C17_21  and  O5_23 
REMARK    5  A    between atoms: O5_23  and  C19_24 
REMARK    6  A    between atoms: C19_24  and  C20_25 
ROOT
HETATM    1  C10 UNL     1       1.079   0.264  -1.732  1.00  0.00     0.035 A 
HETATM    2  C11 UNL     1       0.916   0.702  -0.468  1.00  0.00     0.127 A 
HETATM    3  C12 UNL     1       1.131  -0.143   0.561  1.00  0.00     0.028 A 
HETATM    4  C13 UNL     1       1.515  -1.420   0.360  1.00  0.00     0.095 A 
HETATM    5  C14 UNL     1       1.708  -1.801  -0.914  1.00  0.00     0.051 A 
HETATM    6  C15 UNL     1       1.488  -0.996  -1.964  1.00  0.00     0.131 A 
HETATM    7  O3  UNL     1       1.712  -1.433  -3.233  1.00  0.00    -0.190 OA
HETATM    8  O4  UNL     1       1.764  -2.318   1.368  1.00  0.00    -0.327 OA
HETATM    9  C16 UNL     1       1.871  -1.803   2.673  1.00  0.00     0.172 C 
HETATM   10  C17 UNL     1       0.729  -0.821   2.924  1.00  0.00     0.161 C 
HETATM   11  C18 UNL     1       0.906   0.356   1.972  1.00  0.00     0.064 C 
HETATM   12  O12 UNL     1       0.550   1.991  -0.214  1.00  0.00    -0.191 OA
ENDROOT
BRANCH   1  13
HETATM   13  C9  UNL     1       0.770   1.164  -2.919  1.00  0.00     0.086 C 
HETATM   14  C3  UNL     1      -0.540   1.895  -2.734  1.00  0.00     0.032 A 
HETATM   15  C2  UNL     1      -1.656   1.196  -2.442  1.00  0.00     0.131 A 
HETATM   16  C4  UNL     1      -0.563   3.239  -2.845  1.00  0.00     0.095 A 
HETATM   17  C1  UNL     1      -2.803   1.870  -2.259  1.00  0.00     0.055 A 
HETATM   18  O16 UNL     1      -1.648  -0.163  -2.338  1.00  0.00    -0.190 OA
HETATM   19  C6  UNL     1      -2.874   3.205  -2.362  1.00  0.00     0.135 A 
HETATM   20  C5  UNL     1      -1.743   3.859  -2.666  1.00  0.00     0.051 A 
HETATM   21  O1  UNL     1      -4.051   3.861  -2.180  1.00  0.00    -0.190 OA
HETATM   22  O2  UNL     1       0.533   3.984  -3.184  1.00  0.00    -0.326 OA
HETATM   23  C7  UNL     1       1.573   3.345  -3.885  1.00  0.00     0.174 C 
HETATM   24  C8  UNL     1       1.970   2.063  -3.182  1.00  0.00     0.192 C 
HETATM   25  O13 UNL     1       2.895   1.341  -3.963  1.00  0.00    -0.220 OA
BRANCH  23  26
HETATM   26  C32 UNL     1       1.332   3.159  -5.376  1.00  0.00     0.010 A 
HETATM   27  C33 UNL     1       2.327   3.408  -6.249  1.00  0.00     0.028 A 
HETATM   28  C34 UNL     1       2.185   3.261  -7.577  1.00  0.00     0.156 A 
HETATM   29  C35 UNL     1       1.005   2.845  -8.069  1.00  0.00     0.156 A 
HETATM   30  O15 UNL     1       3.208   3.527  -8.433  1.00  0.00    -0.188 OA
HETATM   31  C36 UNL     1       0.005   2.586  -7.213  1.00  0.00     0.029 A 
HETATM   32  O14 UNL     1       0.839   2.689  -9.409  1.00  0.00    -0.188 OA
HETATM   33  C37 UNL     1       0.164   2.739  -5.891  1.00  0.00     0.000 A 
ENDBRANCH  23  26
ENDBRANCH   1  13
BRANCH  10  34
HETATM   34  O5  UNL     1       0.764  -0.379   4.250  1.00  0.00    -0.298 OA
BRANCH  34  35
HETATM   35  C19 UNL     1      -0.185  -0.688   5.196  1.00  0.00     0.296 C 
HETATM   36  O9  UNL     1       0.235  -0.706   6.338  1.00  0.00    -0.259 OA
BRANCH  35  37
HETATM   37  C20 UNL     1      -1.526  -0.947   5.063  1.00  0.00     0.067 A 
HETATM   38  C21 UNL     1      -2.228  -0.782   3.927  1.00  0.00     0.035 A 
HETATM   39  C22 UNL     1      -3.534  -1.083   3.829  1.00  0.00     0.158 A 
HETATM   40  C23 UNL     1      -4.188  -1.538   4.909  1.00  0.00     0.181 A 
HETATM   41  O8  UNL     1      -4.214  -0.921   2.662  1.00  0.00    -0.188 OA
HETATM   42  C24 UNL     1      -3.536  -1.671   6.074  1.00  0.00     0.158 A 
HETATM   43  O7  UNL     1      -5.510  -1.844   4.836  1.00  0.00    -0.186 OA
HETATM   44  C25 UNL     1      -2.229  -1.371   6.134  1.00  0.00     0.035 A 
HETATM   45  O6  UNL     1      -4.204  -2.111   7.173  1.00  0.00    -0.188 OA
ENDBRANCH  35  37
ENDBRANCH  34  35
ENDBRANCH  10  34
BRANCH   9  46
HETATM   46  C26 UNL     1       1.859  -2.948   3.679  1.00  0.00     0.010 A 
HETATM   47  C27 UNL     1       2.958  -3.267   4.383  1.00  0.00     0.000 A 
HETATM   48  C28 UNL     1       2.929  -4.257   5.287  1.00  0.00     0.029 A 
HETATM   49  C29 UNL     1       1.805  -4.954   5.523  1.00  0.00     0.156 A 
HETATM   50  C30 UNL     1       0.697  -4.650   4.824  1.00  0.00     0.156 A 
HETATM   51  O11 UNL     1       1.761  -5.952   6.446  1.00  0.00    -0.188 OA
HETATM   52  C31 UNL     1       0.745  -3.665   3.913  1.00  0.00     0.028 A 
HETATM   53  O10 UNL     1      -0.458  -5.333   5.045  1.00  0.00    -0.188 OA
ENDBRANCH   9  46
TORSDOF 6
