REMARK  3 active torsions:
REMARK  status: ('A' for Active; 'I' for Inactive)
REMARK    1  A    between atoms: C1_1  and  O5_25 
REMARK    2  A    between atoms: C2_2  and  O4_23 
REMARK    3  A    between atoms: C13_13  and  O3_17 
ROOT
HETATM    1  C1  UNL     1      -2.807  -1.761  -0.256  1.00  0.00     0.116 A 
HETATM    2  C2  UNL     1      -1.459  -1.674  -0.399  1.00  0.00     0.112 A 
HETATM    3  C3  UNL     1      -0.843  -0.465  -0.348  1.00  0.00     0.002 A 
HETATM    4  C4  UNL     1      -1.570   0.658  -0.189  1.00  0.00     0.003 A 
HETATM    5  C5  UNL     1      -2.897   0.573  -0.035  1.00  0.00    -0.000 A 
HETATM    6  C6  UNL     1      -3.497  -0.621  -0.066  1.00  0.00     0.026 A 
HETATM    7  C7  UNL     1      -0.913   2.021  -0.258  1.00  0.00     0.142 C 
HETATM    8  C8  UNL     1       0.117   1.945  -1.371  1.00  0.00     0.071 C 
HETATM    9  C9  UNL     1       1.175   1.130  -0.600  1.00  0.00     0.253 C 
HETATM   10  C10 UNL     1       0.686  -0.337  -0.481  1.00  0.00     0.060 C 
HETATM   11  C11 UNL     1       1.361  -1.052   0.716  1.00  0.00     0.034 C 
HETATM   12  C12 UNL     1       1.737  -0.193   1.887  1.00  0.00    -0.001 C 
HETATM   13  C13 UNL     1       1.635   1.143   1.942  1.00  0.00     0.123 C 
HETATM   14  C14 UNL     1       1.135   1.886   0.725  1.00  0.00     0.287 C 
HETATM   15  O1  UNL     1      -0.200   2.303   0.917  1.00  0.00    -0.325 OA
HETATM   16  O2  UNL     1       1.801   3.135   0.584  1.00  0.00    -0.186 OA
HETATM   17  C16 UNL     1       1.189  -0.895  -1.837  1.00  0.00     0.042 C 
HETATM   18  C17 UNL     1       2.179   0.142  -2.403  1.00  0.00     0.251 C 
HETATM   19  N1  UNL     1       2.416   1.135  -1.365  1.00  0.00     0.141 N 
HETATM   20  C18 UNL     1       3.635   0.854  -0.628  1.00  0.00     0.285 C 
ENDROOT
BRANCH   1  21
HETATM   21  O5  UNL     1      -3.411  -2.994  -0.335  1.00  0.00    -0.326 OA
HETATM   22  C20 UNL     1      -4.816  -3.088  -0.308  1.00  0.00     0.181 C 
ENDBRANCH   1  21
BRANCH   2  23
HETATM   23  O4  UNL     1      -0.698  -2.804  -0.619  1.00  0.00    -0.327 OA
HETATM   24  C19 UNL     1      -0.827  -3.872   0.294  1.00  0.00     0.181 C 
ENDBRANCH   2  23
BRANCH  13  25
HETATM   25  O3  UNL     1       1.990   1.818   3.082  1.00  0.00    -0.328 OA
HETATM   26  C15 UNL     1       1.029   2.706   3.606  1.00  0.00     0.181 C 
ENDBRANCH  13  25
TORSDOF 3
