REMARK  2 active torsions:
REMARK  status: ('A' for Active; 'I' for Inactive)
REMARK    1  A    between atoms: C5_5  and  C7_7 
REMARK    2  A    between atoms: C7_7  and  C8_8 
ROOT
HETATM    1  C1  UNL     1       0.865   0.496   2.134  1.00  0.00     0.000 C 
HETATM    2  C2  UNL     1      -0.377   1.375   2.333  1.00  0.00     0.000 C 
HETATM    3  C3  UNL     1      -0.838   1.964   0.993  1.00  0.00     0.000 C 
HETATM    4  C4  UNL     1      -1.117   0.850  -0.027  1.00  0.00     0.000 C 
HETATM    5  C5  UNL     1       0.115  -0.052  -0.238  1.00  0.00     0.004 C 
HETATM    6  C6  UNL     1       0.587  -0.619   1.115  1.00  0.00     0.000 C 
ENDROOT
BRANCH   5   7
HETATM    7  C7  UNL     1      -0.179  -1.181  -1.253  1.00  0.00     0.026 C 
BRANCH   7   8
HETATM    8  C8  UNL     1       0.675  -1.157  -2.498  1.00  0.00    -0.026 C 
HETATM    9  C9  UNL     1       0.549  -2.064  -3.477  1.00  0.00    -0.004 C 
ENDBRANCH   7   8
ENDBRANCH   5   7
TORSDOF 2
