REMARK  4 active torsions:
REMARK  status: ('A' for Active; 'I' for Inactive)
REMARK    1  A    between atoms: C3_3  and  S1_4 
REMARK    2  A    between atoms: S1_4  and  S2_5 
REMARK    3  A    between atoms: S2_5  and  C4_6 
REMARK    4  A    between atoms: C4_6  and  C5_7 
ROOT
HETATM    1  S1  UNL     1      -1.030   0.668   0.000  1.00  0.00    -0.055 SA
ENDROOT
BRANCH   1   2
HETATM    2  C3  UNL     1      -2.615  -0.219   0.000  1.00  0.00     0.037 C 
HETATM    3  C2  UNL     1      -3.801   0.404  -0.000  1.00  0.00    -0.018 C 
HETATM    4  C1  UNL     1      -5.105  -0.346  -0.000  1.00  0.00     0.031 C 
ENDBRANCH   1   2
BRANCH   1   5
HETATM    5  S2  UNL     1       0.498  -0.664   0.000  1.00  0.00    -0.078 SA
BRANCH   5   6
HETATM    6  C4  UNL     1       1.986   0.391   0.000  1.00  0.00     0.069 C 
BRANCH   6   7
HETATM    7  C5  UNL     1       3.234  -0.505   0.000  1.00  0.00     0.013 C 
HETATM    8  C6  UNL     1       4.524   0.327  -0.000  1.00  0.00     0.001 C 
ENDBRANCH   6   7
ENDBRANCH   5   6
ENDBRANCH   1   5
TORSDOF 4
