REMARK  2 active torsions:
REMARK  status: ('A' for Active; 'I' for Inactive)
REMARK    1  A    between atoms: C1_1  and  O2_25 
REMARK       I    between atoms: N1_9  and  C9_10 
REMARK    2  A    between atoms: C13_15  and  C20_23 
ROOT
HETATM    1  C1  UNL     1      -3.471  -0.804  -0.141  1.00  0.00     0.110 A 
HETATM    2  C2  UNL     1      -2.083  -0.707  -0.363  1.00  0.00     0.081 A 
HETATM    3  C3  UNL     1      -1.395   0.508  -0.378  1.00  0.00    -0.001 A 
HETATM    4  C4  UNL     1      -2.084   1.700  -0.148  1.00  0.00    -0.003 A 
HETATM    5  C5  UNL     1      -3.454   1.641   0.097  1.00  0.00     0.002 A 
HETATM    6  C6  UNL     1      -4.131   0.417   0.063  1.00  0.00     0.026 A 
HETATM    7  C7  UNL     1       0.055   0.352  -0.782  1.00  0.00     0.071 C 
HETATM    8  C8  UNL     1       0.191  -1.195  -0.739  1.00  0.00     0.094 C 
HETATM    9  N1  UNL     1      -1.181  -1.759  -0.603  1.00  0.00    -0.299 N 
HETATM   10  C9  UNL     1      -1.319  -3.143  -0.568  1.00  0.00     0.238 C 
HETATM   11  C10 UNL     1      -0.644  -3.990  -1.632  1.00  0.00     0.098 C 
HETATM   12  O1  UNL     1      -2.003  -3.692   0.289  1.00  0.00    -0.272 OA
HETATM   13  C11 UNL     1       1.108  -1.715   0.375  1.00  0.00     0.023 C 
HETATM   14  C12 UNL     1       2.363  -0.847   0.484  1.00  0.00     0.004 C 
HETATM   15  C13 UNL     1       2.034   0.565   1.007  1.00  0.00     0.030 C 
HETATM   16  C14 UNL     1       1.036   1.240   0.030  1.00  0.00     0.225 C 
HETATM   17  N2  UNL     1       1.772   1.995  -0.969  1.00  0.00     0.135 N 
HETATM   18  C15 UNL     1       0.853   2.259  -2.056  1.00  0.00     0.251 C 
HETATM   19  C16 UNL     1       0.192   0.889  -2.232  1.00  0.00     0.043 C 
HETATM   20  C17 UNL     1       2.401   3.189  -0.433  1.00  0.00     0.250 C 
HETATM   21  C18 UNL     1       3.104   2.890   0.903  1.00  0.00     0.035 C 
HETATM   22  C19 UNL     1       3.355   1.383   1.042  1.00  0.00     0.004 C 
ENDROOT
BRANCH   1  23
HETATM   23  O2  UNL     1      -4.108  -2.009  -0.297  1.00  0.00    -0.327 OA
HETATM   24  C22 UNL     1      -5.479  -2.002  -0.620  1.00  0.00     0.181 C 
ENDBRANCH   1  23
BRANCH  15  25
HETATM   25  C20 UNL     1       1.398   0.532   2.425  1.00  0.00     0.002 C 
HETATM   26  C21 UNL     1       2.098  -0.345   3.475  1.00  0.00     0.000 C 
ENDBRANCH  15  25
TORSDOF 2
