REMARK  3 active torsions:
REMARK  status: ('A' for Active; 'I' for Inactive)
REMARK    1  A    between atoms: C3_3  and  O4_10 
REMARK    2  A    between atoms: C4_5  and  C6_8 
REMARK    3  A    between atoms: O4_10  and  C7_11 
ROOT
HETATM    1  C1  UNL     1       0.675   0.301   2.407  1.00  0.00     0.220 C 
HETATM    2  C2  UNL     1       1.542   0.275   1.166  1.00  0.00     0.241 C 
HETATM    3  C3  UNL     1       0.660   0.094  -0.052  1.00  0.00     0.272 C 
HETATM    4  O1  UNL     1      -0.103  -1.089   0.047  1.00  0.00    -0.326 OA
HETATM    5  C4  UNL     1      -0.961  -1.135   1.156  1.00  0.00     0.184 C 
HETATM    6  C5  UNL     1      -0.194  -0.938   2.457  1.00  0.00     0.215 C 
HETATM    7  O2  UNL     1      -1.072  -0.803   3.549  1.00  0.00    -0.218 OA
HETATM    8  O7  UNL     1       2.450  -0.801   1.204  1.00  0.00    -0.215 OA
HETATM    9  O8  UNL     1       1.446   0.372   3.582  1.00  0.00    -0.218 OA
ENDROOT
BRANCH   3  10
HETATM   10  O4  UNL     1       1.506  -0.115  -1.165  1.00  0.00    -0.304 OA
BRANCH  10  11
HETATM   11  C7  UNL     1       0.952   0.189  -2.433  1.00  0.00     0.217 A 
HETATM   12  O5  UNL     1       0.874   1.606  -2.553  1.00  0.00    -0.274 OA
HETATM   13  C8  UNL     1      -0.445   1.877  -2.811  1.00  0.00     0.298 A 
HETATM   14  C9  UNL     1      -1.247   0.788  -2.877  1.00  0.00     0.069 A 
HETATM   15  O6  UNL     1      -0.865   3.004  -2.961  1.00  0.00    -0.259 OA
HETATM   16  C10 UNL     1      -0.467  -0.274  -2.658  1.00  0.00     0.035 A 
HETATM   17  C11 UNL     1       1.880  -0.356  -3.506  1.00  0.00     0.067 C 
ENDBRANCH  10  11
ENDBRANCH   3  10
BRANCH   5  18
HETATM   18  C6  UNL     1      -2.162  -0.218   0.967  1.00  0.00     0.214 C 
HETATM   19  O3  UNL     1      -3.174  -0.590   1.883  1.00  0.00    -0.218 OA
ENDBRANCH   5  18
TORSDOF 3
