REMARK  11 active torsions:
REMARK  status: ('A' for Active; 'I' for Inactive)
REMARK    1  A    between atoms: C3_3  and  O4_10 
REMARK    2  A    between atoms: C4_5  and  C6_8 
REMARK    3  A    between atoms: O4_10  and  C7_11 
REMARK    4  A    between atoms: C29_35  and  O7_37 
REMARK    5  A    between atoms: O7_37  and  C31_38 
REMARK    6  A    between atoms: C32_40  and  C48_68 
REMARK    7  A    between atoms: C34_42  and  O14_55 
REMARK    8  A    between atoms: C35_43  and  O9_44 
REMARK    9  A    between atoms: O9_44  and  C36_45 
REMARK   10  A    between atoms: O14_55  and  C42_56 
REMARK   11  A    between atoms: C43_58  and  C47_65 
ROOT
HETATM    1  C7  UNL     1       4.978   1.337  -3.633  1.00  0.00     0.239 C 
HETATM    2  O5  UNL     1       4.876   2.400  -2.702  1.00  0.00    -0.311 OA
HETATM    3  C8  UNL     1       6.042   3.157  -2.489  1.00  0.00     0.190 C 
HETATM    4  C9  UNL     1       6.593   3.668  -3.817  1.00  0.00     0.057 C 
HETATM    5  C10 UNL     1       6.621   2.604  -4.918  1.00  0.00     0.010 C 
HETATM    6  C11 UNL     1       5.247   1.918  -5.015  1.00  0.00     0.057 C 
HETATM    7  C12 UNL     1       5.253   0.922  -6.183  1.00  0.00     0.005 C 
HETATM    8  C13 UNL     1       5.775   4.300  -1.500  1.00  0.00     0.054 C 
HETATM    9  C14 UNL     1       6.102   3.751  -0.085  1.00  0.00     0.032 C 
HETATM   10  C15 UNL     1       6.721   2.384  -0.458  1.00  0.00     0.118 C 
HETATM   11  O6  UNL     1       6.980   2.351  -1.833  1.00  0.00    -0.337 OA
HETATM   12  C16 UNL     1       5.709   1.300  -0.043  1.00  0.00     0.030 C 
HETATM   13  C17 UNL     1       4.483   2.120   0.364  1.00  0.00     0.003 C 
HETATM   14  C18 UNL     1       5.036   3.396   1.000  1.00  0.00     0.003 C 
HETATM   15  C19 UNL     1       3.904   4.395   1.328  1.00  0.00     0.000 C 
HETATM   16  C20 UNL     1       2.479   3.821   1.169  1.00  0.00     0.000 C 
HETATM   17  C21 UNL     1       2.353   2.400   1.752  1.00  0.00     0.004 C 
HETATM   18  C22 UNL     1       3.273   1.439   0.991  1.00  0.00     0.005 C 
HETATM   19  C23 UNL     1       3.472   0.164   1.811  1.00  0.00     0.025 C 
HETATM   20  C24 UNL     1       2.103  -0.450   1.970  1.00  0.00    -0.035 C 
HETATM   21  C25 UNL     1       0.960   0.256   1.895  1.00  0.00    -0.047 C 
HETATM   22  C26 UNL     1       0.920   1.786   1.806  1.00  0.00     0.015 C 
HETATM   23  C27 UNL     1       0.111   2.136   0.537  1.00  0.00     0.006 C 
HETATM   24  C28 UNL     1      -1.260   1.456   0.476  1.00  0.00     0.030 C 
HETATM   25  C29 UNL     1      -1.183  -0.067   0.619  1.00  0.00     0.122 C 
HETATM   26  C30 UNL     1      -0.375  -0.456   1.864  1.00  0.00     0.051 C 
HETATM   27  C49 UNL     1       0.232   2.354   3.069  1.00  0.00     0.004 C 
HETATM   28  C50 UNL     1       5.766   3.089   2.333  1.00  0.00     0.000 C 
HETATM   29  C51 UNL     1       4.468   5.059  -1.766  1.00  0.00     0.005 C 
ENDROOT
BRANCH  25  30
HETATM   30  O7  UNL     1      -2.507  -0.500   0.741  1.00  0.00    -0.331 OA
BRANCH  30  31
HETATM   31  C31 UNL     1      -2.780  -1.855   0.467  1.00  0.00     0.266 C 
HETATM   32  O8  UNL     1      -3.479  -1.910  -0.757  1.00  0.00    -0.326 OA
HETATM   33  C32 UNL     1      -4.767  -1.349  -0.773  1.00  0.00     0.184 C 
HETATM   34  C33 UNL     1      -5.644  -1.780   0.398  1.00  0.00     0.211 C 
HETATM   35  C34 UNL     1      -4.939  -1.781   1.752  1.00  0.00     0.183 C 
HETATM   36  O20 UNL     1      -6.177  -3.061   0.141  1.00  0.00    -0.218 OA
HETATM   37  C35 UNL     1      -3.568  -2.456   1.620  1.00  0.00     0.204 C 
BRANCH  33  38
HETATM   38  C48 UNL     1      -4.736   0.156  -1.023  1.00  0.00     0.214 C 
HETATM   39  O21 UNL     1      -6.024   0.617  -1.384  1.00  0.00    -0.218 OA
ENDBRANCH  33  38
BRANCH  35  40
HETATM   40  O14 UNL     1      -4.831  -0.452   2.186  1.00  0.00    -0.326 OA
BRANCH  40  41
HETATM   41  C42 UNL     1      -4.642  -0.279   3.571  1.00  0.00     0.270 C 
HETATM   42  O15 UNL     1      -5.914  -0.146   4.169  1.00  0.00    -0.326 OA
HETATM   43  C43 UNL     1      -6.617   1.040   3.898  1.00  0.00     0.184 C 
HETATM   44  C44 UNL     1      -5.770   2.290   4.102  1.00  0.00     0.215 C 
HETATM   45  C45 UNL     1      -4.407   2.211   3.442  1.00  0.00     0.220 C 
HETATM   46  O18 UNL     1      -5.575   2.487   5.487  1.00  0.00    -0.218 OA
HETATM   47  C46 UNL     1      -3.743   0.908   3.833  1.00  0.00     0.241 C 
HETATM   48  O17 UNL     1      -4.517   2.275   2.039  1.00  0.00    -0.218 OA
HETATM   49  O16 UNL     1      -3.402   0.944   5.199  1.00  0.00    -0.215 OA
BRANCH  43  50
HETATM   50  C47 UNL     1      -7.372   0.984   2.573  1.00  0.00     0.214 C 
HETATM   51  O19 UNL     1      -8.394   1.961   2.562  1.00  0.00    -0.218 OA
ENDBRANCH  43  50
ENDBRANCH  40  41
ENDBRANCH  35  40
BRANCH  37  52
HETATM   52  O9  UNL     1      -3.796  -3.837   1.514  1.00  0.00    -0.324 OA
BRANCH  52  53
HETATM   53  C36 UNL     1      -2.669  -4.667   1.338  1.00  0.00     0.270 C 
HETATM   54  O10 UNL     1      -2.597  -4.989  -0.037  1.00  0.00    -0.329 OA
HETATM   55  C37 UNL     1      -3.675  -5.753  -0.516  1.00  0.00     0.151 C 
HETATM   56  C38 UNL     1      -3.791  -7.061   0.253  1.00  0.00     0.212 C 
HETATM   57  C41 UNL     1      -3.467  -5.989  -2.012  1.00  0.00     0.035 C 
HETATM   58  C39 UNL     1      -3.907  -6.801   1.740  1.00  0.00     0.220 C 
HETATM   59  O13 UNL     1      -4.934  -7.783  -0.140  1.00  0.00    -0.218 OA
HETATM   60  C40 UNL     1      -2.778  -5.907   2.199  1.00  0.00     0.241 C 
HETATM   61  O12 UNL     1      -3.816  -8.030   2.418  1.00  0.00    -0.218 OA
HETATM   62  O11 UNL     1      -1.587  -6.655   2.125  1.00  0.00    -0.215 OA
ENDBRANCH  52  53
ENDBRANCH  37  52
ENDBRANCH  30  31
ENDBRANCH  25  30
BRANCH   1  63
HETATM   63  O4  UNL     1       3.699   0.746  -3.467  1.00  0.00    -0.304 OA
BRANCH  63  64
HETATM   64  C3  UNL     1       3.579  -0.603  -3.869  1.00  0.00     0.272 C 
HETATM   65  C2  UNL     1       3.620  -1.631  -2.755  1.00  0.00     0.241 C 
HETATM   66  C1  UNL     1       2.324  -1.795  -1.980  1.00  0.00     0.220 C 
HETATM   67  O22 UNL     1       3.896  -2.883  -3.347  1.00  0.00    -0.215 OA
HETATM   68  C5  UNL     1       1.140  -1.786  -2.922  1.00  0.00     0.215 C 
HETATM   69  O23 UNL     1       2.202  -0.775  -1.031  1.00  0.00    -0.218 OA
HETATM   70  C4  UNL     1       1.199  -0.661  -3.945  1.00  0.00     0.184 C 
HETATM   71  O2  UNL     1       1.135  -3.019  -3.608  1.00  0.00    -0.218 OA
HETATM   72  O1  UNL     1       2.408  -0.690  -4.656  1.00  0.00    -0.326 OA
BRANCH  70  73
HETATM   73  C6  UNL     1       0.852   0.730  -3.424  1.00  0.00     0.214 C 
HETATM   74  O3  UNL     1      -0.458   0.738  -2.894  1.00  0.00    -0.218 OA
ENDBRANCH  70  73
ENDBRANCH  63  64
ENDBRANCH   1  63
TORSDOF 11
