REMARK  0 active torsions:
REMARK  status: ('A' for Active; 'I' for Inactive)
ROOT
HETATM    1  C1  UNL     1      -4.372  -0.768  -0.220  1.00  0.00     0.119 A 
HETATM    2  C2  UNL     1      -3.363  -1.492   0.276  1.00  0.00     0.029 A 
HETATM    3  C3  UNL     1      -2.115  -0.973   0.374  1.00  0.00     0.033 A 
HETATM    4  C4  UNL     1      -1.904   0.283  -0.107  1.00  0.00    -0.015 A 
HETATM    5  C5  UNL     1      -2.938   1.001  -0.599  1.00  0.00     0.022 A 
HETATM    6  C6  UNL     1      -4.166   0.479  -0.639  1.00  0.00     0.119 A 
HETATM    7  O1  UNL     1      -5.200   0.995  -1.054  1.00  0.00    -0.300 OA
HETATM    8  C7  UNL     1      -6.243   0.031  -0.901  1.00  0.00     0.304 A 
HETATM    9  O2  UNL     1      -5.551  -1.090  -0.346  1.00  0.00    -0.300 OA
HETATM   10  C8  UNL     1      -0.552   0.952  -0.264  1.00  0.00     0.062 C 
HETATM   11  C9  UNL     1      -0.119   1.865   0.891  1.00  0.00     0.255 C 
HETATM   12  N1  UNL     1       1.316   2.101   1.013  1.00  0.00     0.144 N 
HETATM   13  C10 UNL     1       2.085   0.987   1.574  1.00  0.00     0.279 C 
HETATM   14  C11 UNL     1       2.247  -0.224   0.659  1.00  0.00     0.032 A 
HETATM   15  C12 UNL     1       1.393  -1.278   0.637  1.00  0.00    -0.015 A 
HETATM   16  C13 UNL     1       0.173  -1.352   1.531  1.00  0.00     0.095 C 
HETATM   17  C14 UNL     1      -1.183  -1.783   0.969  1.00  0.00     0.177 C 
HETATM   18  O3  UNL     1      -1.461  -2.933   1.243  1.00  0.00    -0.291 OA
HETATM   19  C15 UNL     1       1.625  -2.323  -0.185  1.00  0.00    -0.002 A 
HETATM   20  C16 UNL     1       2.695  -2.377  -0.994  1.00  0.00     0.026 A 
HETATM   21  C17 UNL     1       3.544  -1.346  -0.954  1.00  0.00     0.119 A 
HETATM   22  C18 UNL     1       3.322  -0.303  -0.146  1.00  0.00     0.117 A 
HETATM   23  O4  UNL     1       4.226   0.523  -0.261  1.00  0.00    -0.300 OA
HETATM   24  C19 UNL     1       5.160   0.033  -1.222  1.00  0.00     0.304 A 
HETATM   25  O5  UNL     1       4.580  -1.215  -1.599  1.00  0.00    -0.300 OA
HETATM   26  C20 UNL     1       1.891   2.628  -0.214  1.00  0.00     0.286 C 
ENDROOT
TORSDOF 0
