REMARK  0 active torsions:
REMARK  status: ('A' for Active; 'I' for Inactive)
ROOT
HETATM    1  C1  UNL     1       2.860   3.259   1.262  1.00  0.00     0.250 C 
HETATM    2  N1  UNL     1       2.351   1.925   1.568  1.00  0.00     0.137 N 
HETATM    3  C2  UNL     1       3.358   1.059   2.176  1.00  0.00     0.247 C 
HETATM    4  C3  UNL     1       4.029   1.734   3.394  1.00  0.00     0.036 C 
HETATM    5  C4  UNL     1       4.527   3.152   3.097  1.00  0.00     0.004 C 
HETATM    6  C5  UNL     1       3.403   3.999   2.493  1.00  0.00     0.033 C 
HETATM    7  C6  UNL     1       2.288   4.328   3.499  1.00  0.00     0.002 C 
HETATM    8  C7  UNL     1       2.704  -0.284   2.566  1.00  0.00     0.159 C 
HETATM    9  C8  UNL     1       2.021  -0.974   1.373  1.00  0.00     0.065 C 
HETATM   10  C9  UNL     1       1.127  -0.023   0.558  1.00  0.00     0.041 C 
HETATM   11  C10 UNL     1       1.829   1.331   0.343  1.00  0.00     0.251 C 
HETATM   12  C11 UNL     1       0.771  -0.704  -0.793  1.00  0.00     0.035 C 
HETATM   13  C12 UNL     1       0.273  -2.132  -0.633  1.00  0.00     0.162 C 
HETATM   14  C13 UNL     1       0.033  -2.491   0.817  1.00  0.00     0.210 C 
HETATM   15  C14 UNL     1       1.264  -2.281   1.684  1.00  0.00     0.187 C 
HETATM   16  O1  UNL     1       0.808  -2.390   3.015  1.00  0.00    -0.221 OA
HETATM   17  O2  UNL     1      -0.321  -3.849   0.907  1.00  0.00    -0.218 OA
HETATM   18  C15 UNL     1      -0.991  -2.151  -1.469  1.00  0.00     0.089 C 
HETATM   19  C16 UNL     1      -1.741  -0.859  -1.464  1.00  0.00     0.100 C 
HETATM   20  C17 UNL     1      -3.144  -1.241  -2.171  1.00  0.00     0.030 C 
HETATM   21  C18 UNL     1      -2.824  -0.069  -3.042  1.00  0.00     0.092 C 
HETATM   22  C19 UNL     1      -1.651  -0.825  -3.809  1.00  0.00     0.187 C 
HETATM   23  C20 UNL     1      -0.799  -1.991  -3.064  1.00  0.00     0.187 C 
HETATM   24  O3  UNL     1       0.547  -1.862  -3.472  1.00  0.00    -0.221 OA
HETATM   25  O4  UNL     1      -0.835   0.114  -4.475  1.00  0.00    -0.221 OA
HETATM   26  C21 UNL     1      -2.772   0.849  -1.745  1.00  0.00     0.250 C 
HETATM   27  C22 UNL     1      -4.138   1.360  -1.330  1.00  0.00     0.206 C 
HETATM   28  C23 UNL     1      -5.149   0.231  -1.408  1.00  0.00     0.038 C 
HETATM   29  C24 UNL     1      -4.413  -1.102  -1.235  1.00  0.00     0.005 C 
HETATM   30  O5  UNL     1      -4.537   2.408  -2.183  1.00  0.00    -0.218 OA
HETATM   31  O6  UNL     1      -2.032   2.015  -2.049  1.00  0.00    -0.193 OA
HETATM   32  O7  UNL     1      -2.256   0.072  -0.606  1.00  0.00    -0.335 OA
HETATM   33  C25 UNL     1      -3.530  -2.575  -2.884  1.00  0.00     0.003 C 
HETATM   34  C26 UNL     1      -0.353  -0.020  -1.617  1.00  0.00     0.030 C 
HETATM   35  O8  UNL     1       1.171  -3.077  -1.146  1.00  0.00    -0.223 OA
HETATM   36  C27 UNL     1       3.726  -1.236   3.204  1.00  0.00     0.035 C 
HETATM   37  O9  UNL     1       1.707   0.017   3.507  1.00  0.00    -0.224 OA
ENDROOT
TORSDOF 0
