REMARK  1 active torsions:
REMARK  status: ('A' for Active; 'I' for Inactive)
REMARK    1  A    between atoms: C8_10  and  C10_13 
ROOT
HETATM    1  C1  UNL     1       3.767   2.576  -0.290  1.00  0.00     0.028 A 
HETATM    2  C2  UNL     1       2.452   2.321  -0.223  1.00  0.00     0.007 A 
HETATM    3  C3  UNL     1       1.990   1.057  -0.138  1.00  0.00     0.062 A 
HETATM    4  C4  UNL     1       2.874   0.046  -0.118  1.00  0.00     0.105 A 
HETATM    5  C5  UNL     1       4.188   0.329  -0.187  1.00  0.00     0.052 A 
HETATM    6  C6  UNL     1       4.665   1.581  -0.274  1.00  0.00     0.133 A 
HETATM    7  O1  UNL     1       6.002   1.822  -0.341  1.00  0.00    -0.190 OA
HETATM    8  O2  UNL     1       2.472  -1.245  -0.031  1.00  0.00    -0.305 OA
HETATM    9  C7  UNL     1       1.131  -1.452   0.024  1.00  0.00     0.126 A 
HETATM   10  C8  UNL     1       0.182  -0.488   0.009  1.00  0.00     0.064 A 
HETATM   11  C9  UNL     1       0.650   0.799  -0.073  1.00  0.00     0.199 A 
HETATM   12  O3  UNL     1      -0.064   1.775  -0.091  1.00  0.00    -0.286 OA
ENDROOT
BRANCH  10  13
HETATM   13  C10 UNL     1      -1.152  -0.800   0.066  1.00  0.00     0.007 A 
HETATM   14  C11 UNL     1      -2.161   0.107   0.033  1.00  0.00     0.026 A 
HETATM   15  C12 UNL     1      -3.453  -0.245   0.088  1.00  0.00     0.119 A 
HETATM   16  C13 UNL     1      -3.821  -1.522   0.180  1.00  0.00     0.119 A 
HETATM   17  O5  UNL     1      -4.438   0.491   0.065  1.00  0.00    -0.300 OA
HETATM   18  C14 UNL     1      -2.881  -2.467   0.219  1.00  0.00     0.026 A 
HETATM   19  O4  UNL     1      -5.041  -1.650   0.219  1.00  0.00    -0.300 OA
HETATM   20  C15 UNL     1      -1.592  -2.084   0.162  1.00  0.00     0.002 A 
HETATM   21  C16 UNL     1      -5.600  -0.337   0.153  1.00  0.00     0.304 A 
ENDBRANCH  10  13
TORSDOF 1
