REMARK  1 active torsions:
REMARK  status: ('A' for Active; 'I' for Inactive)
REMARK    1  A    between atoms: C8_8  and  C15_18 
ROOT
HETATM    1  C1  UNL     1      -5.318  -0.502  -2.078  1.00  0.00     0.228 C 
HETATM    2  C2  UNL     1      -4.820  -1.903  -2.506  1.00  0.00     0.060 C 
HETATM    3  C3  UNL     1      -4.211  -2.539  -1.258  1.00  0.00     0.056 C 
HETATM    4  C4  UNL     1      -3.052  -1.670  -0.879  1.00  0.00     0.001 A 
HETATM    5  C5  UNL     1      -3.002  -0.342  -0.968  1.00  0.00    -0.022 A 
HETATM    6  C6  UNL     1      -4.149   0.406  -1.607  1.00  0.00     0.060 C 
HETATM    7  C7  UNL     1      -1.855   0.237  -0.577  1.00  0.00    -0.002 A 
HETATM    8  C8  UNL     1      -0.780  -0.433  -0.095  1.00  0.00     0.029 A 
HETATM    9  C9  UNL     1      -0.860  -1.790  -0.070  1.00  0.00     0.153 A 
HETATM   10  C10 UNL     1      -1.995  -2.374  -0.487  1.00  0.00     0.115 A 
HETATM   11  O1  UNL     1      -2.179  -3.583  -0.624  1.00  0.00    -0.328 OA
HETATM   12  C11 UNL     1      -3.372  -3.822  -1.388  1.00  0.00     0.160 C 
HETATM   13  C12 UNL     1      -3.005  -4.135  -2.844  1.00  0.00     0.202 C 
HETATM   14  C13 UNL     1      -2.926  -2.917  -3.729  1.00  0.00     0.004 C 
HETATM   15  C14 UNL     1      -3.780  -1.892  -3.595  1.00  0.00    -0.026 C 
HETATM   16  O2  UNL     1      -1.769  -4.828  -2.864  1.00  0.00    -0.216 OA
HETATM   17  O3  UNL     1       0.105  -2.596   0.456  1.00  0.00    -0.188 OA
HETATM   18  C32 UNL     1      -5.247  -2.625  -0.129  1.00  0.00     0.042 C 
HETATM   19  C33 UNL     1      -5.880  -1.254   0.155  1.00  0.00     0.251 C 
HETATM   20  N2  UNL     1      -6.354  -0.570  -1.042  1.00  0.00     0.138 N 
HETATM   21  C34 UNL     1      -7.599  -1.150  -1.525  1.00  0.00     0.285 C 
ENDROOT
BRANCH   8  22
HETATM   22  C15 UNL     1       0.342   0.259   0.249  1.00  0.00     0.029 A 
HETATM   23  C16 UNL     1       0.289   1.532   0.741  1.00  0.00     0.153 A 
HETATM   24  C17 UNL     1       1.447   2.161   0.995  1.00  0.00     0.115 A 
HETATM   25  O6  UNL     1      -0.851   2.205   1.066  1.00  0.00    -0.188 OA
HETATM   26  C18 UNL     1       2.592   1.517   0.797  1.00  0.00     0.001 A 
HETATM   27  O4  UNL     1       1.642   3.331   1.357  1.00  0.00    -0.328 OA
HETATM   28  C19 UNL     1       2.731   0.290   0.318  1.00  0.00    -0.022 A 
HETATM   29  C24 UNL     1       3.748   2.316   1.240  1.00  0.00     0.056 C 
HETATM   30  C20 UNL     1       1.562  -0.304   0.031  1.00  0.00    -0.002 A 
HETATM   31  C21 UNL     1       4.144  -0.226   0.086  1.00  0.00     0.060 C 
HETATM   32  C22 UNL     1       5.345   0.730   0.465  1.00  0.00     0.228 C 
HETATM   33  C23 UNL     1       4.907   2.198   0.275  1.00  0.00     0.060 C 
HETATM   34  N1  UNL     1       5.998   0.541   1.766  1.00  0.00     0.138 N 
HETATM   35  C28 UNL     1       5.773   3.391   0.623  1.00  0.00    -0.026 C 
HETATM   36  C27 UNL     1       5.292   4.518   1.198  1.00  0.00     0.004 C 
HETATM   37  C26 UNL     1       3.833   4.780   1.578  1.00  0.00     0.202 C 
HETATM   38  C25 UNL     1       3.009   3.629   1.031  1.00  0.00     0.160 C 
HETATM   39  O5  UNL     1       3.706   4.924   2.976  1.00  0.00    -0.216 OA
HETATM   40  C30 UNL     1       5.511   1.414   2.827  1.00  0.00     0.251 C 
HETATM   41  C31 UNL     1       6.073  -0.844   2.197  1.00  0.00     0.285 C 
HETATM   42  C29 UNL     1       4.041   1.806   2.668  1.00  0.00     0.042 C 
ENDBRANCH   8  22
TORSDOF 1
