REMARK  4 active torsions:
REMARK  status: ('A' for Active; 'I' for Inactive)
REMARK    1  A    between atoms: C1_1  and  O6_28 
REMARK    2  A    between atoms: C2_2  and  O5_26 
REMARK    3  A    between atoms: C3_3  and  O4_24 
REMARK    4  A    between atoms: C15_15  and  O1_17 
ROOT
HETATM    1  C1  UNL     1      -3.259  -0.623  -0.002  1.00  0.00     0.118 C 
HETATM    2  C2  UNL     1      -2.542  -1.669  -0.475  1.00  0.00     0.138 C 
HETATM    3  C3  UNL     1      -1.188  -1.616  -0.486  1.00  0.00     0.118 C 
HETATM    4  C4  UNL     1      -0.541  -0.595   0.122  1.00  0.00     0.022 C 
HETATM    5  C5  UNL     1      -1.236   0.434   0.642  1.00  0.00    -0.018 C 
HETATM    6  C6  UNL     1      -2.574   0.395   0.547  1.00  0.00     0.022 C 
HETATM    7  C7  UNL     1      -0.604   1.565   1.441  1.00  0.00     0.026 C 
HETATM    8  C8  UNL     1      -0.455   2.888   0.669  1.00  0.00     0.005 C 
HETATM    9  C9  UNL     1       0.783   2.898  -0.257  1.00  0.00     0.005 C 
HETATM   10  C10 UNL     1       0.935   1.589  -1.052  1.00  0.00     0.026 C 
HETATM   11  C11 UNL     1       1.549   0.439  -0.266  1.00  0.00    -0.018 A 
HETATM   12  C12 UNL     1       0.806  -0.590   0.196  1.00  0.00     0.022 A 
HETATM   13  C13 UNL     1       1.472  -1.621   0.743  1.00  0.00     0.121 A 
HETATM   14  C14 UNL     1       2.806  -1.627   0.846  1.00  0.00     0.141 A 
HETATM   15  C15 UNL     1       3.578  -0.616   0.417  1.00  0.00     0.118 A 
HETATM   16  C16 UNL     1       2.893   0.400  -0.149  1.00  0.00     0.022 A 
HETATM   17  O2  UNL     1       3.203  -2.656   1.388  1.00  0.00    -0.298 OA
HETATM   18  C18 UNL     1       2.063  -3.452   1.700  1.00  0.00     0.304 A 
HETATM   19  O3  UNL     1       0.987  -2.635   1.244  1.00  0.00    -0.299 OA
HETATM   20  C19 UNL     1       0.733   4.082  -1.245  1.00  0.00     0.000 C 
HETATM   21  C20 UNL     1      -0.406   4.055   1.678  1.00  0.00     0.000 C 
ENDROOT
BRANCH   1  22
HETATM   22  O6  UNL     1      -4.633  -0.512  -0.023  1.00  0.00    -0.326 OA
HETATM   23  C23 UNL     1      -5.347  -0.940  -1.161  1.00  0.00     0.181 C 
ENDBRANCH   1  22
BRANCH   2  24
HETATM   24  O5  UNL     1      -3.161  -2.736  -1.080  1.00  0.00    -0.324 OA
HETATM   25  C22 UNL     1      -3.403  -3.821  -0.213  1.00  0.00     0.182 C 
ENDBRANCH   2  24
BRANCH   3  26
HETATM   26  O4  UNL     1      -0.484  -2.667  -1.034  1.00  0.00    -0.326 OA
HETATM   27  C21 UNL     1      -0.201  -2.504  -2.406  1.00  0.00     0.181 C 
ENDBRANCH   3  26
BRANCH  15  28
HETATM   28  O1  UNL     1       4.943  -0.698   0.548  1.00  0.00    -0.326 OA
HETATM   29  C17 UNL     1       5.738   0.337   0.016  1.00  0.00     0.181 C 
ENDBRANCH  15  28
TORSDOF 4
