REMARK  0 active torsions:
REMARK  status: ('A' for Active; 'I' for Inactive)
ROOT
HETATM    1  C1  UNL     1      -0.022   1.897  -0.396  1.00  0.00     0.028 C 
HETATM    2  C2  UNL     1       1.146   1.442  -1.290  1.00  0.00     0.003 C 
HETATM    3  C3  UNL     1       1.898   0.226  -0.751  1.00  0.00     0.007 C 
HETATM    4  C4  UNL     1       1.324  -1.093  -1.282  1.00  0.00     0.058 C 
HETATM    5  C5  UNL     1      -0.158  -1.433  -1.022  1.00  0.00     0.159 C 
HETATM    6  C6  UNL     1      -1.236  -0.373  -0.709  1.00  0.00     0.175 C 
HETATM    7  C7  UNL     1      -0.880   0.781   0.271  1.00  0.00     0.130 C 
HETATM    8  C8  UNL     1      -0.336   0.281   1.617  1.00  0.00     0.041 C 
HETATM    9  C9  UNL     1      -1.515   0.340   2.586  1.00  0.00     0.098 C 
HETATM   10  C10 UNL     1      -2.491   1.244   1.878  1.00  0.00     0.272 C 
HETATM   11  O1  UNL     1      -2.080   1.428   0.600  1.00  0.00    -0.304 OA
HETATM   12  O2  UNL     1      -3.496   1.720   2.358  1.00  0.00    -0.264 OA
HETATM   13  C11 UNL     1      -2.511  -1.145  -0.297  1.00  0.00     0.038 C 
HETATM   14  O3  UNL     1      -1.593   0.229  -1.932  1.00  0.00    -0.221 OA
HETATM   15  O4  UNL     1      -0.185  -2.487  -0.090  1.00  0.00    -0.298 OA
HETATM   16  C12 UNL     1       1.081  -2.946   0.074  1.00  0.00     0.292 C 
HETATM   17  C13 UNL     1       2.019  -2.247  -0.603  1.00  0.00     0.043 C 
HETATM   18  C14 UNL     1       3.328  -2.534  -0.616  1.00  0.00     0.001 C 
HETATM   19  O5  UNL     1       1.330  -3.904   0.774  1.00  0.00    -0.260 OA
HETATM   20  C15 UNL     1       0.459   3.003   0.571  1.00  0.00     0.003 C 
ENDROOT
TORSDOF 0
