REMARK  3 active torsions:
REMARK  status: ('A' for Active; 'I' for Inactive)
REMARK    1  A    between atoms: C4_4  and  C17_23 
REMARK    2  A    between atoms: C10_11  and  C16_18 
REMARK    3  A    between atoms: C12_13  and  O2_16 
ROOT
HETATM    1  C1  UNL     1      -2.911   1.305   0.132  1.00  0.00    -0.013 C 
HETATM    2  C2  UNL     1      -3.882   0.390  -0.003  1.00  0.00     0.024 C 
HETATM    3  C3  UNL     1      -3.747  -0.712  -0.750  1.00  0.00     0.136 C 
HETATM    4  C4  UNL     1      -2.562  -0.917  -1.359  1.00  0.00     0.090 C 
HETATM    5  C5  UNL     1      -1.512  -0.077  -1.162  1.00  0.00     0.110 C 
HETATM    6  C6  UNL     1      -1.718   1.081  -0.472  1.00  0.00     0.083 C 
HETATM    7  C7  UNL     1      -0.726   2.029  -0.395  1.00  0.00     0.302 C 
HETATM    8  O1  UNL     1       0.495   1.931  -1.013  1.00  0.00    -0.271 OA
HETATM    9  C8  UNL     1       1.220   0.890  -0.516  1.00  0.00     0.124 A 
HETATM   10  C9  UNL     1       0.793  -0.347  -0.837  1.00  0.00     0.128 A 
HETATM   11  C10 UNL     1       1.472  -1.395  -0.314  1.00  0.00     0.091 A 
HETATM   12  C11 UNL     1       2.547  -1.162   0.463  1.00  0.00     0.032 A 
HETATM   13  C12 UNL     1       2.997   0.067   0.778  1.00  0.00     0.092 A 
HETATM   14  C13 UNL     1       2.295   1.100   0.270  1.00  0.00     0.025 A 
HETATM   15  C14 UNL     1       2.699   2.531   0.576  1.00  0.00     0.035 C 
HETATM   16  O5  UNL     1      -0.285  -0.409  -1.695  1.00  0.00    -0.305 OA
HETATM   17  O6  UNL     1      -0.892   3.055   0.232  1.00  0.00    -0.259 OA
HETATM   18  O8  UNL     1      -4.820  -1.542  -0.881  1.00  0.00    -0.190 OA
HETATM   19  C18 UNL     1      -3.275   2.531   0.957  1.00  0.00     0.031 C 
ENDROOT
BRANCH  11  20
HETATM   20  C16 UNL     1       1.128  -2.699  -0.526  1.00  0.00     0.213 C 
HETATM   21  O3  UNL     1       0.149  -3.024  -1.153  1.00  0.00    -0.644 OA
HETATM   22  O4  UNL     1       1.820  -3.748  -0.022  1.00  0.00    -0.644 OA
ENDBRANCH  11  20
BRANCH  13  23
HETATM   23  O2  UNL     1       4.090   0.318   1.576  1.00  0.00    -0.328 OA
HETATM   24  C15 UNL     1       4.833  -0.758   2.100  1.00  0.00     0.181 C 
ENDBRANCH  13  23
BRANCH   4  25
HETATM   25  C17 UNL     1      -2.477  -1.996  -2.192  1.00  0.00     0.238 C 
HETATM   26  O7  UNL     1      -1.570  -2.270  -2.942  1.00  0.00    -0.283 OA
ENDBRANCH   4  25
TORSDOF 3
