REMARK  6 active torsions:
REMARK  status: ('A' for Active; 'I' for Inactive)
REMARK    1  A    between atoms: C1_1  and  C21_28 
REMARK    2  A    between atoms: C5_5  and  O2_7 
REMARK    3  A    between atoms: O2_7  and  C6_8 
REMARK    4  A    between atoms: C6_8  and  C7_9 
REMARK    5  A    between atoms: C7_9  and  C8_10 
REMARK    6  A    between atoms: C17_19  and  C20_22 
ROOT
HETATM    1  C8  UNL     1       0.651  -1.145   0.112  1.00  0.00    -0.010 A 
HETATM    2  C9  UNL     1       0.506  -2.484  -0.079  1.00  0.00    -0.023 A 
HETATM    3  C10 UNL     1      -0.849  -3.158  -0.226  1.00  0.00     0.031 C 
HETATM    4  C11 UNL     1       1.580  -3.290  -0.119  1.00  0.00    -0.009 A 
HETATM    5  C12 UNL     1       2.803  -2.773   0.004  1.00  0.00    -0.019 A 
HETATM    6  C13 UNL     1       2.958  -1.461   0.192  1.00  0.00     0.027 A 
HETATM    7  C14 UNL     1       1.898  -0.629   0.290  1.00  0.00    -0.020 A 
HETATM    8  C15 UNL     1       2.119   0.828   0.637  1.00  0.00     0.031 C 
HETATM    9  C16 UNL     1       4.282  -1.165   0.269  1.00  0.00     0.174 A 
HETATM   10  C17 UNL     1       5.128  -2.435   0.089  1.00  0.00     0.090 A 
HETATM   11  C18 UNL     1       4.077  -3.561  -0.025  1.00  0.00     0.036 A 
HETATM   12  C19 UNL     1       6.024  -2.631   1.324  1.00  0.00     0.011 C 
HETATM   13  O4  UNL     1       4.793  -0.080   0.419  1.00  0.00    -0.291 OA
ENDROOT
BRANCH   1  14
HETATM   14  C7  UNL     1      -0.647  -0.328   0.098  1.00  0.00     0.005 C 
BRANCH  14  15
HETATM   15  C6  UNL     1      -0.708   1.180  -0.164  1.00  0.00     0.171 C 
BRANCH  15  16
HETATM   16  O2  UNL     1      -2.021   1.518  -0.557  1.00  0.00    -0.324 OA
BRANCH  16  17
HETATM   17  C5  UNL     1      -2.321   2.888  -0.420  1.00  0.00     0.270 C 
HETATM   18  C4  UNL     1      -3.372   3.334  -1.413  1.00  0.00     0.241 C 
HETATM   19  C3  UNL     1      -4.751   2.789  -1.097  1.00  0.00     0.220 C 
HETATM   20  O5  UNL     1      -3.430   4.743  -1.388  1.00  0.00    -0.215 OA
HETATM   21  C2  UNL     1      -5.075   3.046   0.361  1.00  0.00     0.215 C 
HETATM   22  O6  UNL     1      -4.800   1.413  -1.382  1.00  0.00    -0.218 OA
HETATM   23  C1  UNL     1      -3.958   2.638   1.313  1.00  0.00     0.184 C 
HETATM   24  O7  UNL     1      -5.327   4.427   0.518  1.00  0.00    -0.218 OA
HETATM   25  O1  UNL     1      -2.707   3.134   0.916  1.00  0.00    -0.326 OA
BRANCH  23  26
HETATM   26  C21 UNL     1      -3.922   1.155   1.666  1.00  0.00     0.214 C 
HETATM   27  O8  UNL     1      -5.043   0.824   2.463  1.00  0.00    -0.218 OA
ENDBRANCH  23  26
ENDBRANCH  16  17
ENDBRANCH  15  16
ENDBRANCH  14  15
ENDBRANCH   1  14
BRANCH  10  28
HETATM   28  C20 UNL     1       5.952  -2.367  -1.202  1.00  0.00     0.190 C 
HETATM   29  O3  UNL     1       6.961  -1.382  -1.124  1.00  0.00    -0.220 OA
ENDBRANCH  10  28
TORSDOF 6
