REMARK  5 active torsions:
REMARK  status: ('A' for Active; 'I' for Inactive)
REMARK    1  A    between atoms: C4_4  and  O3_9 
REMARK    2  A    between atoms: C5_6  and  C6_7 
REMARK    3  A    between atoms: O3_9  and  C7_10 
REMARK    4  A    between atoms: C7_10  and  C8_11 
REMARK    5  A    between atoms: C8_11  and  C9_12 
ROOT
HETATM    1  C9  UNL     1       0.554  -1.997   0.419  1.00  0.00    -0.028 A 
HETATM    2  C10 UNL     1       0.313  -3.188  -0.187  1.00  0.00    -0.026 A 
HETATM    3  C11 UNL     1      -1.077  -3.634  -0.600  1.00  0.00     0.031 C 
HETATM    4  C12 UNL     1       1.329  -4.029  -0.448  1.00  0.00    -0.006 A 
HETATM    5  C13 UNL     1       2.579  -3.682  -0.131  1.00  0.00     0.010 A 
HETATM    6  C14 UNL     1       2.817  -2.505   0.453  1.00  0.00     0.029 A 
HETATM    7  C15 UNL     1       1.823  -1.649   0.760  1.00  0.00    -0.024 A 
HETATM    8  C16 UNL     1       2.150  -0.348   1.469  1.00  0.00     0.031 C 
HETATM    9  C17 UNL     1       4.148  -2.345   0.661  1.00  0.00     0.175 A 
HETATM   10  C18 UNL     1       4.895  -3.571   0.131  1.00  0.00     0.097 A 
HETATM   11  C19 UNL     1       3.800  -4.518  -0.374  1.00  0.00     0.182 A 
HETATM   12  O4  UNL     1       3.762  -5.700   0.402  1.00  0.00    -0.218 OA
HETATM   13  C20 UNL     1       5.894  -3.199  -0.972  1.00  0.00     0.011 C 
HETATM   14  O5  UNL     1       4.729  -1.400   1.141  1.00  0.00    -0.291 OA
ENDROOT
BRANCH   1  15
HETATM   15  C8  UNL     1      -0.614  -1.053   0.690  1.00  0.00     0.058 C 
BRANCH  15  16
HETATM   16  C7  UNL     1      -0.588   0.191  -0.205  1.00  0.00     0.150 C 
BRANCH  16  17
HETATM   17  O3  UNL     1      -1.895   0.700  -0.336  1.00  0.00    -0.329 OA
BRANCH  17  18
HETATM   18  C4  UNL     1      -1.947   2.104  -0.489  1.00  0.00     0.270 C 
HETATM   19  C3  UNL     1      -3.203   2.457  -1.244  1.00  0.00     0.241 C 
HETATM   20  C2  UNL     1      -3.354   3.961  -1.284  1.00  0.00     0.220 C 
HETATM   21  O6  UNL     1      -3.108   1.970  -2.559  1.00  0.00    -0.215 OA
HETATM   22  C1  UNL     1      -3.349   4.497   0.137  1.00  0.00     0.215 C 
HETATM   23  O7  UNL     1      -4.565   4.257  -1.937  1.00  0.00    -0.218 OA
HETATM   24  C5  UNL     1      -2.147   3.974   0.924  1.00  0.00     0.184 C 
HETATM   25  O8  UNL     1      -3.285   5.904   0.085  1.00  0.00    -0.218 OA
HETATM   26  O1  UNL     1      -2.036   2.580   0.835  1.00  0.00    -0.326 OA
BRANCH  24  27
HETATM   27  C6  UNL     1      -2.250   4.304   2.410  1.00  0.00     0.214 C 
HETATM   28  O2  UNL     1      -2.486   5.683   2.599  1.00  0.00    -0.218 OA
ENDBRANCH  24  27
ENDBRANCH  17  18
ENDBRANCH  16  17
ENDBRANCH  15  16
ENDBRANCH   1  15
TORSDOF 5
