REMARK  3 active torsions:
REMARK  status: ('A' for Active; 'I' for Inactive)
REMARK    1  A    between atoms: C1_1  and  C2_2 
REMARK    2  A    between atoms: C1_1  and  C3_4 
REMARK    3  A    between atoms: C12_13  and  C14_15 
ROOT
HETATM    1  C3  UNL     1      -1.136   0.991   0.232  1.00  0.00    -0.027 A 
HETATM    2  C4  UNL     1      -0.579   1.527  -0.882  1.00  0.00    -0.026 A 
HETATM    3  C5  UNL     1      -1.311   2.515  -1.769  1.00  0.00     0.031 C 
HETATM    4  C6  UNL     1       0.667   1.176  -1.246  1.00  0.00    -0.009 A 
HETATM    5  C7  UNL     1       1.359   0.308  -0.502  1.00  0.00    -0.019 A 
HETATM    6  C8  UNL     1       0.808  -0.215   0.596  1.00  0.00     0.027 A 
HETATM    7  C9  UNL     1      -0.445   0.095   0.983  1.00  0.00    -0.024 A 
HETATM    8  C10 UNL     1      -1.025  -0.559   2.224  1.00  0.00     0.031 C 
HETATM    9  C11 UNL     1       1.678  -1.061   1.205  1.00  0.00     0.175 A 
HETATM   10  C12 UNL     1       2.998  -1.068   0.434  1.00  0.00     0.099 A 
HETATM   11  C13 UNL     1       2.745  -0.182  -0.799  1.00  0.00     0.037 A 
HETATM   12  O3  UNL     1       1.515  -1.721   2.204  1.00  0.00    -0.291 OA
ENDROOT
BRANCH   1  13
HETATM   13  C1  UNL     1      -2.544   1.416   0.631  1.00  0.00     0.061 C 
BRANCH  13  14
HETATM   14  C2  UNL     1      -3.594   0.447   0.095  1.00  0.00     0.187 C 
HETATM   15  O1  UNL     1      -4.880   0.883   0.486  1.00  0.00    -0.220 OA
ENDBRANCH  13  14
ENDBRANCH   1  13
BRANCH  10  16
HETATM   16  C14 UNL     1       3.474  -2.477   0.097  1.00  0.00     0.190 C 
HETATM   17  O2  UNL     1       4.685  -2.404  -0.627  1.00  0.00    -0.220 OA
ENDBRANCH  10  16
TORSDOF 3
