REMARK  3 active torsions:
REMARK  status: ('A' for Active; 'I' for Inactive)
REMARK    1  A    between atoms: C1_1  and  C2_2 
REMARK    2  A    between atoms: C1_1  and  C3_4 
REMARK    3  A    between atoms: C12_13  and  C14_16 
ROOT
HETATM    1  C3  UNL     1      -1.564   0.935   0.097  1.00  0.00    -0.027 A 
HETATM    2  C4  UNL     1      -1.070   1.361  -1.092  1.00  0.00    -0.026 A 
HETATM    3  C5  UNL     1      -1.866   2.241  -2.038  1.00  0.00     0.031 C 
HETATM    4  C6  UNL     1       0.167   1.001  -1.476  1.00  0.00    -0.006 A 
HETATM    5  C7  UNL     1       0.909   0.231  -0.676  1.00  0.00     0.010 A 
HETATM    6  C8  UNL     1       0.424  -0.186   0.494  1.00  0.00     0.029 A 
HETATM    7  C9  UNL     1      -0.818   0.138   0.905  1.00  0.00    -0.024 A 
HETATM    8  C10 UNL     1      -1.321  -0.389   2.237  1.00  0.00     0.031 C 
HETATM    9  C11 UNL     1       1.346  -0.942   1.143  1.00  0.00     0.177 A 
HETATM   10  C12 UNL     1       2.643  -1.017   0.320  1.00  0.00     0.118 A 
HETATM   11  C13 UNL     1       2.299  -0.241  -0.963  1.00  0.00     0.184 A 
HETATM   12  O2  UNL     1       3.129   0.881  -1.181  1.00  0.00    -0.218 OA
HETATM   13  C15 UNL     1       3.768  -0.377   1.155  1.00  0.00     0.013 C 
HETATM   14  O4  UNL     1       1.236  -1.490   2.214  1.00  0.00    -0.291 OA
ENDROOT
BRANCH   1  15
HETATM   15  C1  UNL     1      -2.961   1.376   0.518  1.00  0.00     0.061 C 
BRANCH  15  16
HETATM   16  C2  UNL     1      -4.015   0.331   0.163  1.00  0.00     0.187 C 
HETATM   17  O1  UNL     1      -5.289   0.794   0.566  1.00  0.00    -0.220 OA
ENDBRANCH  15  16
ENDBRANCH   1  15
BRANCH  10  18
HETATM   18  C14 UNL     1       2.954  -2.491   0.036  1.00  0.00     0.192 C 
HETATM   19  O3  UNL     1       4.078  -2.595  -0.814  1.00  0.00    -0.220 OA
ENDBRANCH  10  18
TORSDOF 3
