REMARK  2 active torsions:
REMARK  status: ('A' for Active; 'I' for Inactive)
REMARK    1  A    between atoms: C1_1  and  C2_2 
REMARK    2  A    between atoms: C1_1  and  C3_4 
ROOT
HETATM    1  C3  UNL     1      -1.357   0.904   0.075  1.00  0.00    -0.027 A 
HETATM    2  C4  UNL     1      -0.893   1.392  -1.102  1.00  0.00    -0.026 A 
HETATM    3  C5  UNL     1      -1.690   2.358  -1.958  1.00  0.00     0.031 C 
HETATM    4  C6  UNL     1       0.316   1.016  -1.555  1.00  0.00    -0.009 A 
HETATM    5  C7  UNL     1       1.065   0.175  -0.837  1.00  0.00    -0.020 A 
HETATM    6  C8  UNL     1       0.608  -0.299   0.324  1.00  0.00     0.026 A 
HETATM    7  C9  UNL     1      -0.609   0.032   0.800  1.00  0.00    -0.024 A 
HETATM    8  C10 UNL     1      -1.088  -0.568   2.109  1.00  0.00     0.031 C 
HETATM    9  C11 UNL     1       1.529  -1.117   0.893  1.00  0.00     0.172 A 
HETATM   10  C12 UNL     1       2.790  -1.167   0.022  1.00  0.00     0.060 A 
HETATM   11  C13 UNL     1       2.426  -0.325  -1.219  1.00  0.00     0.034 A 
HETATM   12  C14 UNL     1       3.119  -2.622  -0.345  1.00  0.00     0.008 C 
HETATM   13  C15 UNL     1       3.953  -0.531   0.804  1.00  0.00     0.008 C 
HETATM   14  O2  UNL     1       1.448  -1.718   1.939  1.00  0.00    -0.291 OA
ENDROOT
BRANCH   1  15
HETATM   15  C1  UNL     1      -2.719   1.365   0.579  1.00  0.00     0.061 C 
BRANCH  15  16
HETATM   16  C2  UNL     1      -3.832   0.407   0.165  1.00  0.00     0.187 C 
HETATM   17  O1  UNL     1      -5.070   0.888   0.651  1.00  0.00    -0.220 OA
ENDBRANCH  15  16
ENDBRANCH   1  15
TORSDOF 2
