REMARK  5 active torsions:
REMARK  status: ('A' for Active; 'I' for Inactive)
REMARK    1  A    between atoms: C5_5  and  C7_7 
REMARK    2  A    between atoms: C14_16  and  O8_29 
REMARK    3  A    between atoms: C15_17  and  C16_18 
REMARK    4  A    between atoms: C20_22  and  C21_24 
REMARK    5  A    between atoms: O8_29  and  C22_30 
ROOT
HETATM    1  C7  UNL     1       0.060  -0.032   4.165  1.00  0.00     0.064 A 
HETATM    2  C8  UNL     1      -0.963  -0.336   3.339  1.00  0.00     0.126 A 
HETATM    3  O1  UNL     1      -0.860  -0.524   2.002  1.00  0.00    -0.305 OA
HETATM    4  C9  UNL     1       0.358  -0.383   1.431  1.00  0.00     0.103 A 
HETATM    5  C10 UNL     1       1.416  -0.080   2.204  1.00  0.00     0.062 A 
HETATM    6  C11 UNL     1       1.281   0.094   3.554  1.00  0.00     0.199 A 
HETATM    7  O2  UNL     1       2.299   0.362   4.152  1.00  0.00    -0.286 OA
HETATM    8  C12 UNL     1       2.626   0.035   1.627  1.00  0.00     0.007 A 
HETATM    9  C13 UNL     1       2.765  -0.139   0.308  1.00  0.00     0.024 A 
HETATM   10  C14 UNL     1       1.713  -0.383  -0.491  1.00  0.00     0.097 A 
HETATM   11  C15 UNL     1       0.503  -0.558   0.095  1.00  0.00     0.052 A 
ENDROOT
BRANCH  11  12
HETATM   12  C16 UNL     1      -0.685  -0.922  -0.807  1.00  0.00     0.174 C 
HETATM   13  C17 UNL     1      -1.825  -1.749  -0.234  1.00  0.00     0.216 C 
HETATM   14  C18 UNL     1      -2.744  -2.162  -1.365  1.00  0.00     0.218 C 
HETATM   15  O7  UNL     1      -1.306  -2.878   0.418  1.00  0.00    -0.218 OA
HETATM   16  C19 UNL     1      -3.255  -0.891  -2.019  1.00  0.00     0.214 C 
HETATM   17  O6  UNL     1      -3.829  -2.893  -0.854  1.00  0.00    -0.218 OA
HETATM   18  C20 UNL     1      -2.093  -0.003  -2.450  1.00  0.00     0.181 C 
HETATM   19  O5  UNL     1      -4.038  -1.260  -3.127  1.00  0.00    -0.218 OA
HETATM   20  O3  UNL     1      -1.237   0.249  -1.365  1.00  0.00    -0.347 OA
BRANCH  18  21
HETATM   21  C21 UNL     1      -2.564   1.337  -2.998  1.00  0.00     0.214 C 
HETATM   22  O4  UNL     1      -1.451   2.073  -3.464  1.00  0.00    -0.218 OA
ENDBRANCH  18  21
ENDBRANCH  11  12
BRANCH  10  23
HETATM   23  O8  UNL     1       1.939  -0.617  -1.825  1.00  0.00    -0.304 OA
BRANCH  23  24
HETATM   24  C22 UNL     1       1.790   0.485  -2.692  1.00  0.00     0.274 C 
HETATM   25  C23 UNL     1       1.571  -0.075  -4.080  1.00  0.00     0.241 C 
HETATM   26  C24 UNL     1       1.676   0.997  -5.141  1.00  0.00     0.220 C 
HETATM   27  O12 UNL     1       2.558  -1.047  -4.337  1.00  0.00    -0.215 OA
HETATM   28  C25 UNL     1       2.929   1.821  -4.927  1.00  0.00     0.215 C 
HETATM   29  O11 UNL     1       1.751   0.379  -6.403  1.00  0.00    -0.218 OA
HETATM   30  C26 UNL     1       3.010   2.304  -3.490  1.00  0.00     0.181 C 
HETATM   31  O10 UNL     1       2.890   2.911  -5.815  1.00  0.00    -0.218 OA
HETATM   32  O9  UNL     1       2.999   1.205  -2.611  1.00  0.00    -0.326 OA
ENDBRANCH  23  24
ENDBRANCH  10  23
BRANCH   1  33
HETATM   33  C5  UNL     1      -0.138   0.124   5.510  1.00  0.00     0.005 A 
HETATM   34  C4  UNL     1      -1.360   0.007   6.085  1.00  0.00     0.002 A 
HETATM   35  C3  UNL     1      -1.601   0.144   7.399  1.00  0.00     0.027 A 
HETATM   36  C2  UNL     1      -0.619   0.417   8.267  1.00  0.00     0.131 A 
HETATM   37  C1  UNL     1       0.605   0.545   7.738  1.00  0.00     0.027 A 
HETATM   38  O13 UNL     1      -0.859   0.554   9.598  1.00  0.00    -0.190 OA
HETATM   39  C6  UNL     1       0.824   0.404   6.420  1.00  0.00     0.002 A 
ENDBRANCH   1  33
TORSDOF 5
