REMARK  15 active torsions:
REMARK  status: ('A' for Active; 'I' for Inactive)
REMARK    1  A    between atoms: C5_5  and  O2_7 
REMARK    2  A    between atoms: O2_7  and  C6_8 
REMARK    3  A    between atoms: C10_13  and  O4_14 
REMARK    4  A    between atoms: O4_14  and  C11_15 
REMARK    5  A    between atoms: C12_16  and  C13_17 
REMARK    6  A    between atoms: C28_32  and  C37_41 
REMARK    7  A    between atoms: C33_37  and  C34_38 
REMARK    8  A    between atoms: C37_41  and  O5_42 
REMARK    9  A    between atoms: O5_42  and  C38_43 
REMARK   10  A    between atoms: C42_47  and  C44_49 
REMARK   11  A    between atoms: C44_49  and  O6_50 
REMARK   12  A    between atoms: O6_50  and  C45_51 
REMARK   13  A    between atoms: C48_54  and  O9_59 
REMARK   14  A    between atoms: C49_55  and  C50_57 
REMARK   15  A    between atoms: O9_59  and  C51_60 
ROOT
HETATM    1  C11 UNL     1      -2.810  -3.579   0.905  1.00  0.00     0.118 C 
HETATM    2  C12 UNL     1      -1.848  -3.829  -0.310  1.00  0.00     0.025 C 
HETATM    3  C15 UNL     1      -0.387  -3.421   0.087  1.00  0.00     0.002 C 
HETATM    4  C16 UNL     1      -0.202  -2.034   0.745  1.00  0.00     0.000 C 
HETATM    5  C17 UNL     1      -0.978  -2.113   2.073  1.00  0.00     0.003 C 
HETATM    6  C18 UNL     1      -2.460  -2.420   1.848  1.00  0.00     0.030 C 
HETATM    7  C19 UNL     1       1.309  -1.683   0.940  1.00  0.00     0.000 C 
HETATM    8  C20 UNL     1       2.369  -2.813   1.096  1.00  0.00     0.000 C 
HETATM    9  C21 UNL     1       2.185  -3.608  -0.242  1.00  0.00     0.000 C 
HETATM   10  C22 UNL     1       0.774  -3.643  -0.897  1.00  0.00     0.000 C 
HETATM   11  C23 UNL     1       3.860  -2.229   1.354  1.00  0.00     0.000 C 
HETATM   12  C24 UNL     1       3.939  -0.709   1.014  1.00  0.00     0.001 C 
HETATM   13  C25 UNL     1       2.870   0.068   1.792  1.00  0.00     0.000 C 
HETATM   14  C26 UNL     1       1.515  -0.600   1.991  1.00  0.00     0.000 C 
HETATM   15  C27 UNL     1       5.335  -0.097   1.271  1.00  0.00     0.013 C 
HETATM   16  C28 UNL     1       5.795  -0.128   2.745  1.00  0.00     0.078 C 
HETATM   17  C29 UNL     1       5.749  -1.619   3.148  1.00  0.00     0.009 C 
HETATM   18  C30 UNL     1       4.397  -2.313   2.828  1.00  0.00     0.001 C 
HETATM   19  C31 UNL     1       7.210   0.474   2.606  1.00  0.00     0.010 C 
HETATM   20  C32 UNL     1       7.054   1.589   1.551  1.00  0.00     0.004 C 
HETATM   21  C33 UNL     1       5.751   1.294   0.769  1.00  0.00     0.019 C 
HETATM   22  C57 UNL     1       4.870  -3.045   0.498  1.00  0.00     0.000 C 
HETATM   23  C58 UNL     1       2.071  -3.794   2.260  1.00  0.00     0.000 C 
HETATM   24  C59 UNL     1      -0.774  -0.884  -0.126  1.00  0.00     0.000 C 
HETATM   25  C60 UNL     1      -1.859  -5.366  -0.563  1.00  0.00     0.002 C 
ENDROOT
BRANCH  16  26
HETATM   26  C37 UNL     1       5.119   0.744   3.825  1.00  0.00     0.271 C 
HETATM   27  O19 UNL     1       5.071   0.389   4.982  1.00  0.00    -0.264 OA
BRANCH  26  28
HETATM   28  O5  UNL     1       4.581   1.931   3.388  1.00  0.00    -0.302 OA
BRANCH  28  29
HETATM   29  C38 UNL     1       3.758   2.648   4.277  1.00  0.00     0.157 C 
HETATM   30  C39 UNL     1       4.514   3.830   4.865  1.00  0.00     0.212 C 
HETATM   31  C40 UNL     1       4.545   5.037   3.940  1.00  0.00     0.215 C 
HETATM   32  O18 UNL     1       3.893   4.200   6.075  1.00  0.00    -0.218 OA
HETATM   33  C41 UNL     1       3.156   5.471   3.499  1.00  0.00     0.187 C 
HETATM   34  O17 UNL     1       5.332   4.741   2.811  1.00  0.00    -0.218 OA
HETATM   35  C42 UNL     1       2.340   4.358   2.828  1.00  0.00     0.065 C 
HETATM   36  O16 UNL     1       2.456   5.955   4.626  1.00  0.00    -0.221 OA
HETATM   37  C43 UNL     1       2.407   3.064   3.663  1.00  0.00     0.038 C 
BRANCH  35  38
HETATM   38  C44 UNL     1       2.657   4.205   1.332  1.00  0.00     0.148 C 
BRANCH  38  39
HETATM   39  O6  UNL     1       1.697   3.396   0.691  1.00  0.00    -0.329 OA
BRANCH  39  40
HETATM   40  C45 UNL     1       1.829   3.349  -0.719  1.00  0.00     0.270 C 
HETATM   41  C46 UNL     1       1.819   1.923  -1.217  1.00  0.00     0.241 C 
HETATM   42  C47 UNL     1       1.094   1.778  -2.535  1.00  0.00     0.217 C 
HETATM   43  O15 UNL     1       3.148   1.498  -1.403  1.00  0.00    -0.215 OA
HETATM   44  C48 UNL     1      -0.343   2.233  -2.347  1.00  0.00     0.181 C 
HETATM   45  O14 UNL     1       1.135   0.418  -2.898  1.00  0.00    -0.218 OA
HETATM   46  C49 UNL     1      -0.415   3.545  -1.546  1.00  0.00     0.181 C 
HETATM   47  O7  UNL     1       0.831   4.149  -1.315  1.00  0.00    -0.326 OA
BRANCH  44  48
HETATM   48  O9  UNL     1      -1.005   2.400  -3.578  1.00  0.00    -0.326 OA
BRANCH  48  49
HETATM   49  C51 UNL     1      -1.364   1.207  -4.252  1.00  0.00     0.270 C 
HETATM   50  O10 UNL     1      -0.298   0.884  -5.116  1.00  0.00    -0.329 OA
HETATM   51  C52 UNL     1      -0.505  -0.296  -5.849  1.00  0.00     0.151 C 
HETATM   52  C53 UNL     1      -1.795  -0.250  -6.664  1.00  0.00     0.212 C 
HETATM   53  C56 UNL     1      -0.366  -1.556  -4.989  1.00  0.00     0.035 C 
HETATM   54  C54 UNL     1      -2.988   0.281  -5.892  1.00  0.00     0.220 C 
HETATM   55  O13 UNL     1      -1.595   0.581  -7.785  1.00  0.00    -0.218 OA
HETATM   56  C55 UNL     1      -2.596   1.498  -5.079  1.00  0.00     0.241 C 
HETATM   57  O12 UNL     1      -3.466  -0.696  -5.002  1.00  0.00    -0.218 OA
HETATM   58  O11 UNL     1      -3.655   1.834  -4.215  1.00  0.00    -0.215 OA
ENDBRANCH  48  49
ENDBRANCH  44  48
BRANCH  46  59
HETATM   59  C50 UNL     1      -1.248   3.414  -0.276  1.00  0.00     0.214 C 
HETATM   60  O8  UNL     1      -1.476   4.684   0.303  1.00  0.00    -0.218 OA
ENDBRANCH  46  59
ENDBRANCH  39  40
ENDBRANCH  38  39
ENDBRANCH  35  38
ENDBRANCH  28  29
ENDBRANCH  26  28
ENDBRANCH  16  26
BRANCH  21  61
HETATM   61  C34 UNL     1       5.947   1.520  -0.715  1.00  0.00    -0.044 C 
HETATM   62  C35 UNL     1       5.762   2.745  -1.237  1.00  0.00    -0.009 C 
HETATM   63  C36 UNL     1       6.428   0.379  -1.574  1.00  0.00     0.026 C 
ENDBRANCH  21  61
BRANCH   2  64
HETATM   64  C13 UNL     1      -2.310  -3.147  -1.631  1.00  0.00     0.002 C 
HETATM   65  C14 UNL     1      -3.306  -3.890  -2.540  1.00  0.00     0.000 C 
ENDBRANCH   2  64
BRANCH   1  66
HETATM   66  O4  UNL     1      -4.130  -3.465   0.427  1.00  0.00    -0.332 OA
BRANCH  66  67
HETATM   67  C10 UNL     1      -5.168  -3.238   1.369  1.00  0.00     0.267 C 
HETATM   68  C6  UNL     1      -6.487  -2.899   0.673  1.00  0.00     0.207 C 
HETATM   69  C7  UNL     1      -7.605  -2.940   1.710  1.00  0.00     0.217 C 
HETATM   70  C8  UNL     1      -7.599  -4.218   2.516  1.00  0.00     0.214 C 
HETATM   71  O21 UNL     1      -8.844  -2.826   1.053  1.00  0.00    -0.218 OA
HETATM   72  C9  UNL     1      -6.211  -4.490   3.062  1.00  0.00     0.181 C 
HETATM   73  O20 UNL     1      -8.017  -5.269   1.679  1.00  0.00    -0.218 OA
HETATM   74  O3  UNL     1      -5.256  -4.483   2.033  1.00  0.00    -0.326 OA
BRANCH  68  75
HETATM   75  O2  UNL     1      -6.588  -1.608   0.112  1.00  0.00    -0.324 OA
BRANCH  75  76
HETATM   76  C5  UNL     1      -5.591  -1.257  -0.819  1.00  0.00     0.270 C 
HETATM   77  C4  UNL     1      -6.098  -0.419  -1.978  1.00  0.00     0.241 C 
HETATM   78  C3  UNL     1      -6.159   1.073  -1.713  1.00  0.00     0.220 C 
HETATM   79  O22 UNL     1      -5.221  -0.606  -3.063  1.00  0.00    -0.215 OA
HETATM   80  C2  UNL     1      -4.958   1.535  -0.919  1.00  0.00     0.212 C 
HETATM   81  O23 UNL     1      -6.162   1.782  -2.931  1.00  0.00    -0.218 OA
HETATM   82  C1  UNL     1      -4.858   0.681   0.327  1.00  0.00     0.151 C 
HETATM   83  O24 UNL     1      -5.136   2.893  -0.599  1.00  0.00    -0.218 OA
HETATM   84  O1  UNL     1      -4.571  -0.631  -0.069  1.00  0.00    -0.329 OA
HETATM   85  C61 UNL     1      -3.764   1.157   1.283  1.00  0.00     0.035 C 
ENDBRANCH  75  76
ENDBRANCH  68  75
ENDBRANCH  66  67
ENDBRANCH   1  66
TORSDOF 15
