REMARK  3 active torsions:
REMARK  status: ('A' for Active; 'I' for Inactive)
REMARK    1  A    between atoms: C17_23  and  O22_60 
REMARK    2  A    between atoms: O22_60  and  C39_61 
REMARK    3  A    between atoms: C39_61  and  C40_62 
ROOT
HETATM    1  C1  UNL     1      -3.743   3.632   0.620  1.00  0.00     0.158 C 
HETATM    2  C2  UNL     1      -5.074   3.635   0.739  1.00  0.00     0.181 C 
HETATM    3  C3  UNL     1      -5.764   2.494   0.796  1.00  0.00     0.158 C 
HETATM    4  C4  UNL     1      -5.129   1.339   1.006  1.00  0.00     0.035 C 
HETATM    5  C5  UNL     1      -3.763   1.297   1.111  1.00  0.00     0.067 C 
HETATM    6  C6  UNL     1      -3.130   2.450   0.729  1.00  0.00     0.035 C 
HETATM    7  C7  UNL     1      -1.816   2.565   0.453  1.00  0.00     0.035 C 
HETATM    8  C8  UNL     1      -1.227   1.719  -0.387  1.00  0.00     0.067 C 
HETATM    9  C9  UNL     1       0.063   1.834  -0.400  1.00  0.00     0.035 C 
HETATM   10  C10 UNL     1       0.865   2.420   0.429  1.00  0.00     0.158 C 
HETATM   11  C11 UNL     1       0.288   3.557   0.993  1.00  0.00     0.181 C 
HETATM   12  C12 UNL     1      -1.057   3.451   1.126  1.00  0.00     0.158 C 
HETATM   13  O1  UNL     1      -1.533   4.231   2.128  1.00  0.00    -0.188 OA
HETATM   14  O2  UNL     1       0.934   4.546   1.676  1.00  0.00    -0.186 OA
HETATM   15  O3  UNL     1       2.230   1.865   0.566  1.00  0.00    -0.188 OA
HETATM   16  C13 UNL     1      -1.852   0.621  -0.990  1.00  0.00     0.296 C 
HETATM   17  O4  UNL     1      -2.857   0.840  -1.611  1.00  0.00    -0.259 OA
HETATM   18  O5  UNL     1      -1.222  -0.654  -1.112  1.00  0.00    -0.296 OA
HETATM   19  C14 UNL     1      -0.204  -1.315  -0.236  1.00  0.00     0.187 C 
HETATM   20  C15 UNL     1      -0.103  -1.171   1.319  1.00  0.00     0.184 C 
HETATM   21  C16 UNL     1      -1.013  -2.224   2.005  1.00  0.00     0.178 C 
HETATM   22  O6  UNL     1      -0.358  -3.502   1.738  1.00  0.00    -0.326 OA
HETATM   23  C17 UNL     1      -0.295  -3.724   0.358  1.00  0.00     0.274 C 
HETATM   24  C18 UNL     1       0.399  -2.708  -0.500  1.00  0.00     0.211 C 
HETATM   25  O7  UNL     1       1.846  -2.774  -0.344  1.00  0.00    -0.293 OA
HETATM   26  C19 UNL     1       2.601  -3.045  -1.453  1.00  0.00     0.296 C 
HETATM   27  O8  UNL     1       2.886  -4.202  -1.735  1.00  0.00    -0.259 OA
HETATM   28  C20 UNL     1       3.070  -2.075  -2.293  1.00  0.00     0.063 C 
HETATM   29  C21 UNL     1       3.599  -0.873  -1.952  1.00  0.00     0.012 C 
HETATM   30  C22 UNL     1       3.655   0.090  -2.923  1.00  0.00     0.121 C 
HETATM   31  C23 UNL     1       3.084  -0.163  -4.128  1.00  0.00     0.178 C 
HETATM   32  C24 UNL     1       2.755  -1.409  -4.503  1.00  0.00     0.158 C 
HETATM   33  C25 UNL     1       2.773  -2.367  -3.572  1.00  0.00     0.035 C 
HETATM   34  O9  UNL     1       2.299  -1.703  -5.760  1.00  0.00    -0.188 OA
HETATM   35  O10 UNL     1       2.846   0.833  -5.030  1.00  0.00    -0.186 OA
HETATM   36  O11 UNL     1       4.030   1.399  -2.683  1.00  0.00    -0.298 OA
HETATM   37  C26 UNL     1       3.911   1.909  -1.361  1.00  0.00     0.323 C 
HETATM   38  C27 UNL     1       4.655   0.852  -0.430  1.00  0.00     0.278 C 
HETATM   39  C28 UNL     1       4.056  -0.562  -0.480  1.00  0.00     0.087 C 
HETATM   40  C29 UNL     1       2.942  -0.141   0.499  1.00  0.00     0.121 C 
HETATM   41  C30 UNL     1       2.391  -1.251   1.449  1.00  0.00     0.274 C 
HETATM   42  O12 UNL     1       1.143  -1.332   1.954  1.00  0.00    -0.299 OA
HETATM   43  O13 UNL     1       3.158  -1.970   2.037  1.00  0.00    -0.264 OA
HETATM   44  C31 UNL     1       3.634   1.032   1.706  1.00  0.00     0.181 C 
HETATM   45  O14 UNL     1       4.863   1.119   0.959  1.00  0.00    -0.325 OA
HETATM   46  C32 UNL     1       2.773   2.743   1.921  1.00  0.00     0.246 C 
HETATM   47  O15 UNL     1       2.616   3.590   0.268  1.00  0.00    -0.304 OA
HETATM   48  C33 UNL     1       2.521   2.466  -1.140  1.00  0.00     0.277 C 
HETATM   49  C34 UNL     1       2.069   0.598  -0.780  1.00  0.00     0.077 C 
HETATM   50  O16 UNL     1       1.803   2.846  -2.387  1.00  0.00    -0.190 OA
HETATM   51  C35 UNL     1       1.508   2.287   2.902  1.00  0.00     0.238 C 
HETATM   52  O17 UNL     1       1.404   0.936   3.225  1.00  0.00    -0.215 OA
HETATM   53  C36 UNL     1       1.517   3.096   4.176  1.00  0.00     0.217 C 
HETATM   54  C37 UNL     1       2.806   3.824   3.999  1.00  0.00     0.181 C 
HETATM   55  O18 UNL     1       3.532   3.405   2.819  1.00  0.00    -0.328 OA
HETATM   56  O19 UNL     1       0.381   3.938   4.213  1.00  0.00    -0.218 OA
HETATM   57  C38 UNL     1       5.082  -1.637   0.015  1.00  0.00     0.010 C 
HETATM   58  O20 UNL     1       5.942   0.720  -1.018  1.00  0.00    -0.190 OA
HETATM   59  O21 UNL     1       4.636   3.117  -1.296  1.00  0.00    -0.184 OA
HETATM   60  C46 UNL     1      -2.561  -2.157   1.686  1.00  0.00     0.184 C 
HETATM   61  O27 UNL     1      -3.484  -1.095   1.979  1.00  0.00    -0.296 OA
HETATM   62  C47 UNL     1      -3.131   0.185   1.564  1.00  0.00     0.296 C 
HETATM   63  O28 UNL     1      -1.980   0.464   1.679  1.00  0.00    -0.259 OA
HETATM   64  O29 UNL     1      -7.118   2.474   0.757  1.00  0.00    -0.188 OA
HETATM   65  O30 UNL     1      -5.703   4.828   0.683  1.00  0.00    -0.186 OA
HETATM   66  O31 UNL     1      -3.151   4.862   0.374  1.00  0.00    -0.188 OA
ENDROOT
BRANCH  23  67
HETATM   67  O22 UNL     1      -0.133  -5.017  -0.130  1.00  0.00    -0.270 OA
BRANCH  67  68
HETATM   68  C39 UNL     1      -1.207  -5.585  -0.813  1.00  0.00     0.298 C 
HETATM   69  O26 UNL     1      -1.036  -6.752  -1.107  1.00  0.00    -0.259 OA
BRANCH  68  70
HETATM   70  C40 UNL     1      -2.449  -5.069  -1.137  1.00  0.00     0.068 C 
HETATM   71  C41 UNL     1      -3.415  -5.878  -1.607  1.00  0.00     0.035 C 
HETATM   72  C42 UNL     1      -4.683  -5.501  -1.855  1.00  0.00     0.158 C 
HETATM   73  C43 UNL     1      -5.084  -4.261  -1.519  1.00  0.00     0.181 C 
HETATM   74  O25 UNL     1      -5.590  -6.338  -2.426  1.00  0.00    -0.188 OA
HETATM   75  C44 UNL     1      -4.151  -3.400  -1.100  1.00  0.00     0.158 C 
HETATM   76  O24 UNL     1      -6.352  -3.790  -1.690  1.00  0.00    -0.186 OA
HETATM   77  C45 UNL     1      -2.871  -3.790  -1.105  1.00  0.00     0.035 C 
HETATM   78  O23 UNL     1      -4.461  -2.114  -0.778  1.00  0.00    -0.188 OA
ENDBRANCH  68  70
ENDBRANCH  67  68
ENDBRANCH  23  67
TORSDOF 3
