REMARK  7 active torsions:
REMARK  status: ('A' for Active; 'I' for Inactive)
REMARK    1  A    between atoms: C2_2  and  O2_12 
REMARK    2  A    between atoms: C5_5  and  C6_6 
REMARK    3  A    between atoms: C6_6  and  C7_7 
REMARK    4  A    between atoms: C8_8  and  C9_9 
REMARK    5  A    between atoms: O2_12  and  C11_13 
REMARK    6  A    between atoms: C11_13  and  C12_14 
REMARK    7  A    between atoms: C13_15  and  C17_19 
ROOT
HETATM    1  C1  UNL     1       0.763   1.757  -1.199  1.00  0.00    -0.017 C 
HETATM    2  C2  UNL     1       1.356   0.370  -1.087  1.00  0.00     0.150 C 
HETATM    3  C3  UNL     1       2.799   0.705  -0.686  1.00  0.00     0.103 C 
HETATM    4  C4  UNL     1       2.795   2.203  -0.432  1.00  0.00     0.172 C 
HETATM    5  C5  UNL     1       1.593   2.724  -0.777  1.00  0.00     0.011 C 
HETATM    6  O1  UNL     1       3.741   2.825  -0.008  1.00  0.00    -0.292 OA
HETATM    7  C21 UNL     1      -0.644   1.930  -1.699  1.00  0.00     0.029 C 
ENDROOT
BRANCH   2   8
HETATM    8  O2  UNL     1       0.754  -0.376  -0.057  1.00  0.00    -0.300 OA
BRANCH   8   9
HETATM    9  C11 UNL     1      -0.387  -1.064  -0.342  1.00  0.00     0.272 C 
HETATM   10  O3  UNL     1      -0.889  -1.132  -1.441  1.00  0.00    -0.264 OA
BRANCH   9  11
HETATM   11  C12 UNL     1      -0.921  -1.650   0.886  1.00  0.00     0.091 A 
HETATM   12  C13 UNL     1      -1.948  -2.725   0.597  1.00  0.00     0.031 A 
HETATM   13  C14 UNL     1      -0.555  -3.109   1.058  1.00  0.00     0.013 A 
HETATM   14  C15 UNL     1      -0.316  -3.575   2.489  1.00  0.00     0.001 C 
HETATM   15  C16 UNL     1       0.321  -3.819   0.032  1.00  0.00     0.001 C 
BRANCH  12  16
HETATM   16  C17 UNL     1      -2.945  -2.833   1.686  1.00  0.00    -0.034 C 
HETATM   17  C18 UNL     1      -3.734  -3.907   1.864  1.00  0.00    -0.048 C 
HETATM   18  C19 UNL     1      -4.763  -3.946   2.970  1.00  0.00     0.026 C 
HETATM   19  C20 UNL     1      -3.677  -5.146   1.004  1.00  0.00     0.026 C 
ENDBRANCH  12  16
ENDBRANCH   9  11
ENDBRANCH   8   9
ENDBRANCH   2   8
BRANCH   5  20
HETATM   20  C6  UNL     1       1.292   4.197  -0.671  1.00  0.00     0.055 C 
BRANCH  20  21
HETATM   21  C7  UNL     1       2.048   4.972  -1.720  1.00  0.00    -0.021 C 
HETATM   22  C8  UNL     1       2.845   6.016  -1.436  1.00  0.00    -0.004 C 
BRANCH  22  23
HETATM   23  C9  UNL     1       3.501   6.718  -2.375  1.00  0.00    -0.000 C 
HETATM   24  C10 UNL     1       4.285   7.766  -2.081  1.00  0.00    -0.000 C 
ENDBRANCH  22  23
ENDBRANCH  20  21
ENDBRANCH   5  20
TORSDOF 7
