REMARK  5 active torsions:
REMARK  status: ('A' for Active; 'I' for Inactive)
REMARK    1  A    between atoms: C1_1  and  O6_38 
REMARK    2  A    between atoms: C3_3  and  O5_36 
REMARK    3  A    between atoms: C15_17  and  C24_28 
REMARK    4  A    between atoms: C16_18  and  C17_20 
REMARK    5  A    between atoms: C20_23  and  O2_26 
ROOT
HETATM    1  C1  UNL     1      -2.617   2.260   0.478  1.00  0.00     0.097 A 
HETATM    2  C2  UNL     1      -3.959   2.142   0.504  1.00  0.00     0.048 A 
HETATM    3  C3  UNL     1      -4.634   0.972   0.505  1.00  0.00     0.098 A 
HETATM    4  C4  UNL     1      -3.893  -0.153   0.437  1.00  0.00     0.048 A 
HETATM    5  C5  UNL     1      -2.558  -0.073   0.364  1.00  0.00     0.097 A 
HETATM    6  C6  UNL     1      -1.939   1.106   0.374  1.00  0.00     0.058 A 
HETATM    7  C7  UNL     1      -0.461   0.903   0.258  1.00  0.00     0.211 A 
HETATM    8  C8  UNL     1       0.061   1.250  -1.103  1.00  0.00     0.095 A 
HETATM    9  N1  UNL     1       0.160   2.445  -1.511  1.00  0.00    -0.234 NA
HETATM   10  C9  UNL     1       0.582   2.573  -2.698  1.00  0.00     0.122 A 
HETATM   11  N2  UNL     1       0.886   1.581  -3.425  1.00  0.00    -0.285 N 
HETATM   12  C10 UNL     1       1.344   2.043  -4.746  1.00  0.00     0.111 C 
HETATM   13  C11 UNL     1       1.674   3.528  -4.480  1.00  0.00     0.033 C 
HETATM   14  C12 UNL     1       0.746   3.930  -3.318  1.00  0.00     0.066 C 
HETATM   15  C13 UNL     1       0.825   0.365  -3.096  1.00  0.00     0.259 A 
HETATM   16  C14 UNL     1       0.378   0.169  -1.831  1.00  0.00     0.057 A 
HETATM   17  C15 UNL     1       0.195  -1.119  -1.083  1.00  0.00     0.083 A 
HETATM   18  C16 UNL     1      -0.407  -0.653   0.280  1.00  0.00     0.159 A 
HETATM   19  O1  UNL     1      -1.796  -1.032   0.276  1.00  0.00    -0.328 OA
HETATM   20  O3  UNL     1       1.135  -0.543  -3.830  1.00  0.00    -0.267 OA
HETATM   21  O4  UNL     1       0.244   1.524   1.310  1.00  0.00    -0.212 OA
ENDROOT
BRANCH  18  22
HETATM   22  C17 UNL     1       0.280  -1.330   1.462  1.00  0.00     0.006 A 
HETATM   23  C18 UNL     1      -0.260  -2.417   2.042  1.00  0.00     0.000 A 
HETATM   24  C19 UNL     1       0.350  -3.050   3.055  1.00  0.00     0.024 A 
HETATM   25  C20 UNL     1       1.536  -2.651   3.551  1.00  0.00     0.094 A 
HETATM   26  C21 UNL     1       2.077  -1.568   2.959  1.00  0.00     0.024 A 
HETATM   27  C22 UNL     1       1.474  -0.936   1.939  1.00  0.00     0.000 A 
BRANCH  25  28
HETATM   28  O2  UNL     1       2.089  -3.356   4.594  1.00  0.00    -0.328 OA
HETATM   29  C23 UNL     1       3.277  -2.876   5.179  1.00  0.00     0.181 C 
ENDBRANCH  25  28
ENDBRANCH  18  22
BRANCH  17  30
HETATM   30  C24 UNL     1       1.491  -1.896  -0.960  1.00  0.00    -0.015 A 
HETATM   31  C25 UNL     1       1.465  -3.239  -0.877  1.00  0.00    -0.004 A 
HETATM   32  C26 UNL     1       2.595  -3.950  -0.744  1.00  0.00    -0.000 A 
HETATM   33  C27 UNL     1       3.780  -3.323  -0.685  1.00  0.00    -0.000 A 
HETATM   34  C28 UNL     1       3.823  -1.985  -0.759  1.00  0.00    -0.000 A 
HETATM   35  C29 UNL     1       2.688  -1.282  -0.895  1.00  0.00    -0.004 A 
ENDBRANCH  17  30
BRANCH   1  36
HETATM   36  O6  UNL     1      -1.993   3.479   0.432  1.00  0.00    -0.328 OA
HETATM   37  C31 UNL     1      -1.947   4.151   1.670  1.00  0.00     0.181 C 
ENDBRANCH   1  36
BRANCH   3  38
HETATM   38  O5  UNL     1      -6.007   1.009   0.566  1.00  0.00    -0.328 OA
HETATM   39  C30 UNL     1      -6.717  -0.207   0.610  1.00  0.00     0.181 C 
ENDBRANCH   3  38
TORSDOF 5
