REMARK  1 active torsions:
REMARK  status: ('A' for Active; 'I' for Inactive)
REMARK    1  A    between atoms: C4_4  and  C7_7 
ROOT
HETATM    1  C1  UNL     1       1.044   1.760  -0.462  1.00  0.00     0.029 A 
HETATM    2  C2  UNL     1       1.571   0.567  -0.145  1.00  0.00     0.156 A 
HETATM    3  C3  UNL     1       0.765  -0.482   0.125  1.00  0.00     0.162 A 
HETATM    4  C4  UNL     1      -0.578  -0.315   0.083  1.00  0.00     0.092 A 
HETATM    5  C5  UNL     1      -1.084   0.893  -0.236  1.00  0.00     0.008 A 
HETATM    6  C6  UNL     1      -0.282   1.929  -0.511  1.00  0.00     0.003 A 
HETATM    7  O3  UNL     1       1.389  -1.656   0.434  1.00  0.00    -0.188 OA
HETATM    8  O4  UNL     1       2.924   0.412  -0.099  1.00  0.00    -0.188 OA
ENDROOT
BRANCH   4   9
HETATM    9  C7  UNL     1      -1.467  -1.316   0.348  1.00  0.00     0.213 C 
HETATM   10  O1  UNL     1      -2.809  -1.144   0.309  1.00  0.00    -0.644 OA
HETATM   11  O2  UNL     1      -1.119  -2.437   0.637  1.00  0.00    -0.644 OA
ENDBRANCH   4   9
TORSDOF 1
