REMARK  7 active torsions:
REMARK  status: ('A' for Active; 'I' for Inactive)
REMARK    1  A    between atoms: C1_1  and  C2_2 
REMARK    2  A    between atoms: C2_2  and  C3_3 
REMARK    3  A    between atoms: C2_2  and  N1_11 
REMARK    4  A    between atoms: C3_3  and  C4_4 
REMARK    5  A    between atoms: C4_4  and  C5_6 
REMARK    6  A    between atoms: C5_6  and  C6_8 
REMARK       I    between atoms: N1_11  and  C7_12 
REMARK    7  A    between atoms: C7_12  and  C8_14 
ROOT
HETATM    1  C2  UNL     1      -1.045   0.627   0.388  1.00  0.00     0.203 C 
ENDROOT
BRANCH   1   2
HETATM    2  C1  UNL     1      -2.469   0.089   0.488  1.00  0.00     0.234 C 
HETATM    3  O7  UNL     1      -3.213   0.523   1.337  1.00  0.00    -0.286 OA
ENDBRANCH   1   2
BRANCH   1   4
HETATM    4  C3  UNL     1       0.030  -0.392   0.785  1.00  0.00     0.215 C 
HETATM    5  O4  UNL     1      -0.060  -0.595   2.175  1.00  0.00    -0.218 OA
BRANCH   4   6
HETATM    6  C4  UNL     1      -0.019  -1.737   0.072  1.00  0.00     0.217 C 
HETATM    7  O1  UNL     1      -1.117  -2.477   0.548  1.00  0.00    -0.218 OA
BRANCH   6   8
HETATM    8  C5  UNL     1       1.240  -2.572   0.273  1.00  0.00     0.218 C 
HETATM    9  O2  UNL     1       1.499  -2.661   1.656  1.00  0.00    -0.218 OA
BRANCH   8  10
HETATM   10  C6  UNL     1       1.128  -3.988  -0.265  1.00  0.00     0.218 C 
HETATM   11  O3  UNL     1       0.489  -4.781   0.715  1.00  0.00    -0.218 OA
ENDBRANCH   8  10
ENDBRANCH   6   8
ENDBRANCH   4   6
ENDBRANCH   1   4
BRANCH   1  12
HETATM   12  N1  UNL     1      -0.958   1.787   1.287  1.00  0.00    -0.228 NA
HETATM   13  C7  UNL     1      -0.490   3.046   1.019  1.00  0.00     0.274 C 
HETATM   14  O5  UNL     1      -0.595   3.916   1.851  1.00  0.00    -0.268 OA
BRANCH  13  15
HETATM   15  C8  UNL     1       0.191   3.320  -0.319  1.00  0.00     0.187 C 
HETATM   16  N2  UNL     1       1.078   2.266  -0.793  1.00  0.00    -0.230 NA
HETATM   17  C9  UNL     1       0.946   1.961  -2.106  1.00  0.00     0.252 C 
HETATM   18  C10 UNL     1      -0.078   2.877  -2.740  1.00  0.00     0.092 C 
HETATM   19  O6  UNL     1       1.575   1.079  -2.634  1.00  0.00    -0.271 OA
HETATM   20  C11 UNL     1      -0.775   3.515  -1.512  1.00  0.00     0.044 C 
ENDBRANCH  13  15
ENDBRANCH   1  12
TORSDOF 7
