REMARK  0 active torsions:
REMARK  status: ('A' for Active; 'I' for Inactive)
ROOT
HETATM    1  O1  UNL     1      -1.225   1.198   0.165  1.00  0.00    -0.301 OA
HETATM    2  C1  UNL     1      -1.673  -0.059   0.426  1.00  0.00     0.126 A 
HETATM    3  C2  UNL     1      -0.871  -1.131   0.356  1.00  0.00     0.071 A 
HETATM    4  C3  UNL     1       0.437  -1.020   0.016  1.00  0.00     0.225 A 
HETATM    5  C4  UNL     1       0.912   0.225  -0.258  1.00  0.00     0.194 A 
HETATM    6  C5  UNL     1       0.090   1.283  -0.180  1.00  0.00     0.153 A 
HETATM    7  O2  UNL     1       2.220   0.375  -0.607  1.00  0.00    -0.185 OA
HETATM    8  O3  UNL     1       1.143  -2.002  -0.041  1.00  0.00    -0.284 OA
ENDROOT
TORSDOF 0
