REMARK  1 active torsions:
REMARK  status: ('A' for Active; 'I' for Inactive)
REMARK    1  A    between atoms: C9_9  and  C10_11 
ROOT
HETATM    1  C1  UNL     1      -1.805   3.149   0.057  1.00  0.00     0.163 A 
HETATM    2  C2  UNL     1      -3.131   2.913   0.030  1.00  0.00     0.182 A 
HETATM    3  C3  UNL     1      -3.605   1.658   0.003  1.00  0.00     0.160 A 
HETATM    4  C4  UNL     1      -2.727   0.647   0.006  1.00  0.00     0.054 A 
HETATM    5  C5  UNL     1      -1.399   0.846   0.032  1.00  0.00     0.107 A 
HETATM    6  C6  UNL     1      -0.941   2.109   0.054  1.00  0.00     0.091 A 
HETATM    7  C7  UNL     1       0.408   2.293   0.066  1.00  0.00     0.227 A 
HETATM    8  C8  UNL     1       1.255   1.221   0.044  1.00  0.00     0.192 A 
HETATM    9  C9  UNL     1       0.778  -0.046   0.042  1.00  0.00     0.128 A 
HETATM   10  O1  UNL     1      -0.578  -0.236   0.028  1.00  0.00    -0.305 OA
HETATM   11  O4  UNL     1       2.573   1.551  -0.059  1.00  0.00    -0.185 OA
HETATM   12  O5  UNL     1       0.896   3.404   0.069  1.00  0.00    -0.284 OA
HETATM   13  O6  UNL     1      -4.944   1.427  -0.029  1.00  0.00    -0.188 OA
HETATM   14  O7  UNL     1      -4.018   3.945   0.028  1.00  0.00    -0.186 OA
HETATM   15  O8  UNL     1      -1.409   4.454   0.080  1.00  0.00    -0.188 OA
ENDROOT
BRANCH   9  16
HETATM   16  C10 UNL     1       1.544  -1.175   0.038  1.00  0.00     0.027 A 
HETATM   17  C11 UNL     1       0.914  -2.370  -0.048  1.00  0.00     0.032 A 
HETATM   18  C12 UNL     1       1.530  -3.564  -0.068  1.00  0.00     0.156 A 
HETATM   19  C13 UNL     1       2.869  -3.613   0.003  1.00  0.00     0.156 A 
HETATM   20  O3  UNL     1       0.827  -4.726  -0.163  1.00  0.00    -0.188 OA
HETATM   21  C14 UNL     1       3.530  -2.453   0.114  1.00  0.00     0.030 A 
HETATM   22  O2  UNL     1       3.518  -4.807  -0.020  1.00  0.00    -0.188 OA
HETATM   23  C15 UNL     1       2.885  -1.276   0.142  1.00  0.00     0.004 A 
ENDBRANCH   9  16
TORSDOF 1
