REMARK  2 active torsions:
REMARK  status: ('A' for Active; 'I' for Inactive)
REMARK    1  A    between atoms: C3_3  and  O6_22 
REMARK    2  A    between atoms: C12_13  and  O2_17 
ROOT
HETATM    1  C1  UNL     1      -2.675   2.145   0.026  1.00  0.00     0.007 A 
HETATM    2  C2  UNL     1      -3.881   1.465   0.075  1.00  0.00     0.026 A 
HETATM    3  C3  UNL     1      -3.966   0.063  -0.004  1.00  0.00     0.121 A 
HETATM    4  C4  UNL     1      -2.759  -0.657  -0.046  1.00  0.00     0.169 A 
HETATM    5  C5  UNL     1      -1.507   0.018  -0.015  1.00  0.00     0.091 A 
HETATM    6  C6  UNL     1      -1.475   1.420  -0.036  1.00  0.00     0.057 A 
HETATM    7  C7  UNL     1      -0.198   2.163  -0.066  1.00  0.00     0.200 C 
HETATM    8  C8  UNL     1       1.078   1.409  -0.136  1.00  0.00     0.082 A 
HETATM    9  C9  UNL     1       1.048   0.001  -0.076  1.00  0.00     0.093 A 
HETATM   10  N1  UNL     1      -0.234  -0.608   0.078  1.00  0.00    -0.322 N 
HETATM   11  C10 UNL     1      -0.220  -1.984   0.640  1.00  0.00     0.131 C 
HETATM   12  C11 UNL     1       2.267  -0.722  -0.152  1.00  0.00     0.169 A 
HETATM   13  C12 UNL     1       3.493  -0.056  -0.255  1.00  0.00     0.123 A 
HETATM   14  C13 UNL     1       3.475   1.346  -0.231  1.00  0.00     0.054 A 
HETATM   15  C14 UNL     1       2.307   2.103  -0.203  1.00  0.00     0.138 A 
HETATM   16  O1  UNL     1       2.438   3.459  -0.247  1.00  0.00    -0.190 OA
HETATM   17  O3  UNL     1       2.317  -2.080  -0.257  1.00  0.00    -0.186 OA
HETATM   18  O4  UNL     1      -0.228   3.391  -0.053  1.00  0.00    -0.286 OA
HETATM   19  O5  UNL     1      -2.780  -1.990  -0.312  1.00  0.00    -0.186 OA
ENDROOT
BRANCH   3  20
HETATM   20  O6  UNL     1      -5.241  -0.454  -0.012  1.00  0.00    -0.326 OA
HETATM   21  C16 UNL     1      -5.467  -1.840   0.063  1.00  0.00     0.181 C 
ENDBRANCH   3  20
BRANCH  13  22
HETATM   22  O2  UNL     1       4.642  -0.808  -0.279  1.00  0.00    -0.326 OA
HETATM   23  C15 UNL     1       5.832  -0.223   0.196  1.00  0.00     0.181 C 
ENDBRANCH  13  22
TORSDOF 2
