REMARK  7 active torsions:
REMARK  status: ('A' for Active; 'I' for Inactive)
REMARK    1  A    between atoms: C2_2  and  O12_33 
REMARK    2  A    between atoms: C5_5  and  C7_7 
REMARK    3  A    between atoms: C8_8  and  O1_9 
REMARK    4  A    between atoms: O1_9  and  C9_10 
REMARK    5  A    between atoms: C10_12  and  C14_19 
REMARK    6  A    between atoms: O12_33  and  C22_34 
REMARK    7  A    between atoms: C23_36  and  C27_43 
ROOT
HETATM    1  C7  UNL     1       2.213  -1.064  -1.634  1.00  0.00     0.125 C 
HETATM    2  C8  UNL     1       2.423   0.138  -2.233  1.00  0.00     0.158 C 
HETATM    3  C15 UNL     1       2.951   0.171  -3.498  1.00  0.00     0.224 C 
HETATM    4  C16 UNL     1       3.304  -0.980  -4.138  1.00  0.00     0.089 A 
HETATM    5  C17 UNL     1       2.992  -2.147  -3.549  1.00  0.00     0.107 A 
HETATM    6  O7  UNL     1       2.293  -2.203  -2.387  1.00  0.00    -0.305 OA
HETATM    7  C18 UNL     1       3.347  -3.295  -4.154  1.00  0.00     0.052 A 
HETATM    8  C19 UNL     1       4.008  -3.321  -5.320  1.00  0.00     0.135 A 
HETATM    9  C20 UNL     1       4.287  -2.138  -5.886  1.00  0.00     0.055 A 
HETATM   10  C21 UNL     1       3.947  -0.963  -5.327  1.00  0.00     0.138 A 
HETATM   11  O8  UNL     1       4.294   0.178  -5.987  1.00  0.00    -0.190 OA
HETATM   12  O9  UNL     1       4.361  -4.497  -5.904  1.00  0.00    -0.190 OA
HETATM   13  O10 UNL     1       3.127   1.251  -4.019  1.00  0.00    -0.284 OA
ENDROOT
BRANCH   1  14
HETATM   14  C5  UNL     1       1.720  -1.205  -0.376  1.00  0.00     0.027 C 
HETATM   15  C4  UNL     1       1.062  -2.332  -0.035  1.00  0.00     0.032 C 
HETATM   16  C3  UNL     1       0.366  -2.484   1.108  1.00  0.00     0.153 C 
HETATM   17  C2  UNL     1       0.328  -1.478   2.009  1.00  0.00     0.122 C 
HETATM   18  O11 UNL     1      -0.305  -3.653   1.299  1.00  0.00    -0.188 OA
HETATM   19  C1  UNL     1       1.145  -0.439   1.763  1.00  0.00     0.026 C 
HETATM   20  C6  UNL     1       1.832  -0.310   0.620  1.00  0.00     0.004 C 
BRANCH  17  21
HETATM   21  O12 UNL     1      -0.400  -1.506   3.177  1.00  0.00    -0.301 OA
BRANCH  21  22
HETATM   22  C22 UNL     1      -1.796  -1.711   3.079  1.00  0.00     0.274 C 
HETATM   23  O13 UNL     1      -2.401  -0.697   2.301  1.00  0.00    -0.326 OA
HETATM   24  C23 UNL     1      -2.683   0.530   2.927  1.00  0.00     0.184 C 
HETATM   25  C24 UNL     1      -3.381   0.345   4.264  1.00  0.00     0.215 C 
HETATM   26  C25 UNL     1      -2.619  -0.598   5.166  1.00  0.00     0.220 C 
HETATM   27  O16 UNL     1      -3.532   1.566   4.946  1.00  0.00    -0.218 OA
HETATM   28  C26 UNL     1      -2.407  -1.908   4.448  1.00  0.00     0.241 C 
HETATM   29  O15 UNL     1      -3.392  -0.830   6.320  1.00  0.00    -0.218 OA
HETATM   30  O14 UNL     1      -3.660  -2.541   4.324  1.00  0.00    -0.215 OA
BRANCH  24  31
HETATM   31  C27 UNL     1      -1.467   1.443   2.931  1.00  0.00     0.214 C 
HETATM   32  O17 UNL     1      -1.840   2.810   2.877  1.00  0.00    -0.218 OA
ENDBRANCH  24  31
ENDBRANCH  21  22
ENDBRANCH  17  21
ENDBRANCH   1  14
BRANCH   2  33
HETATM   33  O1  UNL     1       2.147   1.394  -1.722  1.00  0.00    -0.298 OA
BRANCH  33  34
HETATM   34  C9  UNL     1       0.830   1.688  -1.295  1.00  0.00     0.274 C 
HETATM   35  O2  UNL     1       0.646   3.060  -1.573  1.00  0.00    -0.326 OA
HETATM   36  C10 UNL     1      -0.419   3.609  -0.836  1.00  0.00     0.184 C 
HETATM   37  C11 UNL     1      -1.708   2.803  -1.052  1.00  0.00     0.215 C 
HETATM   38  C12 UNL     1      -1.545   1.301  -1.240  1.00  0.00     0.220 C 
HETATM   39  O5  UNL     1      -2.626   2.973   0.004  1.00  0.00    -0.218 OA
HETATM   40  C13 UNL     1      -0.278   0.933  -1.981  1.00  0.00     0.241 C 
HETATM   41  O4  UNL     1      -2.650   0.793  -1.948  1.00  0.00    -0.218 OA
HETATM   42  O3  UNL     1      -0.369   1.333  -3.327  1.00  0.00    -0.215 OA
BRANCH  36  43
HETATM   43  C14 UNL     1       0.031   3.897   0.594  1.00  0.00     0.214 C 
HETATM   44  O6  UNL     1      -0.881   4.751   1.259  1.00  0.00    -0.218 OA
ENDBRANCH  36  43
ENDBRANCH  33  34
ENDBRANCH   2  33
TORSDOF 7
