REMARK  7 active torsions:
REMARK  status: ('A' for Active; 'I' for Inactive)
REMARK    1  A    between atoms: C1_1  and  O13_34 
REMARK    2  A    between atoms: C7_8  and  C16_25 
REMARK    3  A    between atoms: C8_9  and  O3_12 
REMARK    4  A    between atoms: O3_12  and  C10_13 
REMARK    5  A    between atoms: C11_15  and  C15_22 
REMARK    6  A    between atoms: O13_34  and  C22_35 
REMARK    7  A    between atoms: C23_37  and  C27_44 
ROOT
HETATM    1  C1  UNL     1      -0.368   3.433  -0.990  1.00  0.00     0.101 A 
HETATM    2  C2  UNL     1       0.303   3.119  -2.112  1.00  0.00     0.052 A 
HETATM    3  C3  UNL     1       0.853   1.915  -2.350  1.00  0.00     0.138 A 
HETATM    4  C4  UNL     1       0.682   0.944  -1.427  1.00  0.00     0.089 A 
HETATM    5  C5  UNL     1       0.031   1.208  -0.285  1.00  0.00     0.107 A 
HETATM    6  C6  UNL     1      -0.469   2.441  -0.089  1.00  0.00     0.049 A 
HETATM    7  O1  UNL     1      -0.100   0.276   0.692  1.00  0.00    -0.305 OA
HETATM    8  C7  UNL     1       0.019  -1.046   0.350  1.00  0.00     0.125 C 
HETATM    9  C8  UNL     1       0.780  -1.329  -0.750  1.00  0.00     0.158 C 
HETATM   10  C9  UNL     1       1.141  -0.324  -1.610  1.00  0.00     0.224 C 
HETATM   11  O2  UNL     1       1.815  -0.608  -2.577  1.00  0.00    -0.284 OA
HETATM   12  O12 UNL     1       1.506   1.727  -3.532  1.00  0.00    -0.190 OA
ENDROOT
BRANCH   1  13
HETATM   13  O13 UNL     1      -0.931   4.679  -0.864  1.00  0.00    -0.303 OA
BRANCH  13  14
HETATM   14  C22 UNL     1      -2.041   4.841  -0.004  1.00  0.00     0.275 C 
HETATM   15  O14 UNL     1      -2.364   6.201  -0.214  1.00  0.00    -0.318 OA
HETATM   16  C23 UNL     1      -3.457   6.631   0.565  1.00  0.00     0.237 C 
HETATM   17  C24 UNL     1      -4.710   5.837   0.220  1.00  0.00     0.223 C 
HETATM   18  C25 UNL     1      -4.473   4.340   0.293  1.00  0.00     0.221 C 
HETATM   19  O17 UNL     1      -5.128   6.171  -1.083  1.00  0.00    -0.217 OA
HETATM   20  C26 UNL     1      -3.199   3.967  -0.441  1.00  0.00     0.241 C 
HETATM   21  O16 UNL     1      -4.334   3.965   1.643  1.00  0.00    -0.218 OA
HETATM   22  O15 UNL     1      -3.366   4.142  -1.828  1.00  0.00    -0.215 OA
BRANCH  16  23
HETATM   23  C27 UNL     1      -3.703   8.128   0.399  1.00  0.00     0.217 C 
HETATM   24  O18 UNL     1      -4.205   8.857   1.222  1.00  0.00    -0.646 OA
HETATM   25  O19 UNL     1      -3.326   8.578  -0.812  1.00  0.00    -0.646 OA
ENDBRANCH  16  23
ENDBRANCH  13  14
ENDBRANCH   1  13
BRANCH   8  26
HETATM   26  C16 UNL     1      -0.475  -2.018   1.222  1.00  0.00     0.027 C 
HETATM   27  C17 UNL     1      -0.734  -1.444   2.425  1.00  0.00     0.004 C 
HETATM   28  C18 UNL     1      -0.942  -2.139   3.538  1.00  0.00     0.030 C 
HETATM   29  C19 UNL     1      -0.796  -3.446   3.369  1.00  0.00     0.156 C 
HETATM   30  C20 UNL     1      -0.648  -3.895   2.111  1.00  0.00     0.156 C 
HETATM   31  O11 UNL     1      -0.832  -4.295   4.432  1.00  0.00    -0.188 OA
HETATM   32  C21 UNL     1      -0.666  -3.371   0.866  1.00  0.00     0.032 C 
HETATM   33  O10 UNL     1      -0.529  -5.257   2.045  1.00  0.00    -0.188 OA
ENDBRANCH   8  26
BRANCH   9  34
HETATM   34  O3  UNL     1       1.143  -2.596  -1.182  1.00  0.00    -0.298 OA
BRANCH  34  35
HETATM   35  C10 UNL     1       2.170  -3.222  -0.440  1.00  0.00     0.275 C 
HETATM   36  O4  UNL     1       1.820  -4.591  -0.482  1.00  0.00    -0.318 OA
HETATM   37  C11 UNL     1       2.735  -5.422   0.202  1.00  0.00     0.237 C 
HETATM   38  C12 UNL     1       4.155  -5.228  -0.321  1.00  0.00     0.223 C 
HETATM   39  C13 UNL     1       4.549  -3.765  -0.334  1.00  0.00     0.221 C 
HETATM   40  O7  UNL     1       5.065  -5.911   0.506  1.00  0.00    -0.217 OA
HETATM   41  C14 UNL     1       3.504  -2.997  -1.111  1.00  0.00     0.241 C 
HETATM   42  O6  UNL     1       5.800  -3.619  -0.957  1.00  0.00    -0.218 OA
HETATM   43  O5  UNL     1       3.827  -1.630  -1.098  1.00  0.00    -0.215 OA
BRANCH  37  44
HETATM   44  C15 UNL     1       2.272  -6.871   0.059  1.00  0.00     0.217 C 
HETATM   45  O8  UNL     1       1.123  -7.086   0.722  1.00  0.00    -0.646 OA
HETATM   46  O9  UNL     1       2.804  -7.752  -0.575  1.00  0.00    -0.646 OA
ENDBRANCH  37  44
ENDBRANCH  34  35
ENDBRANCH   9  34
TORSDOF 7
