REMARK  2 active torsions:
REMARK  status: ('A' for Active; 'I' for Inactive)
REMARK    1  A    between atoms: C11_11  and  C26_28 
REMARK    2  A    between atoms: C16_16  and  C25_25 
ROOT
HETATM    1  C1  UNL     1      -3.444   0.359  -1.404  1.00  0.00     0.003 C 
HETATM    2  C2  UNL     1      -4.478  -0.068  -2.459  1.00  0.00     0.033 C 
HETATM    3  C3  UNL     1      -4.757  -1.569  -2.438  1.00  0.00     0.152 C 
HETATM    4  C4  UNL     1      -3.480  -2.425  -2.566  1.00  0.00     0.028 C 
HETATM    5  C5  UNL     1      -2.409  -1.908  -1.556  1.00  0.00     0.002 C 
HETATM    6  C6  UNL     1      -2.091  -0.392  -1.482  1.00  0.00     0.001 C 
HETATM    7  C7  UNL     1      -1.144  -0.042  -0.265  1.00  0.00     0.005 C 
HETATM    8  C8  UNL     1      -0.407  -1.184   0.489  1.00  0.00     0.013 C 
HETATM    9  C9  UNL     1      -0.003  -2.203  -0.599  1.00  0.00     0.001 C 
HETATM   10  C10 UNL     1      -1.168  -2.806  -1.402  1.00  0.00     0.000 C 
HETATM   11  C11 UNL     1       0.850  -0.575   1.254  1.00  0.00     0.096 C 
HETATM   12  C12 UNL     1       0.828   0.969   1.329  1.00  0.00    -0.025 C 
HETATM   13  C13 UNL     1      -0.355   1.607   1.382  1.00  0.00    -0.030 C 
HETATM   14  C14 UNL     1      -1.600   0.992   0.788  1.00  0.00     0.026 C 
HETATM   15  C15 UNL     1       2.163   1.732   1.259  1.00  0.00    -0.039 C 
HETATM   16  C16 UNL     1       3.192   1.035   2.175  1.00  0.00     0.093 C 
HETATM   17  C17 UNL     1       3.393  -0.405   1.615  1.00  0.00     0.015 C 
HETATM   18  C18 UNL     1       2.253  -0.929   0.707  1.00  0.00     0.015 C 
HETATM   19  C19 UNL     1       4.556   1.757   2.198  1.00  0.00     0.014 C 
HETATM   20  C20 UNL     1       4.415   3.259   2.462  1.00  0.00     0.001 C 
HETATM   21  C21 UNL     1       3.571   3.920   1.361  1.00  0.00     0.004 C 
HETATM   22  C22 UNL     1       2.154   3.287   1.268  1.00  0.00     0.018 C 
HETATM   23  C23 UNL     1       1.442   3.898   0.036  1.00  0.00     0.004 C 
HETATM   24  C24 UNL     1       4.348   3.955   0.029  1.00  0.00     0.000 C 
HETATM   25  C27 UNL     1      -1.357  -1.893   1.499  1.00  0.00     0.001 C 
HETATM   26  C28 UNL     1      -1.365   0.084  -2.771  1.00  0.00     0.000 C 
HETATM   27  C29 UNL     1      -3.842  -3.900  -2.232  1.00  0.00     0.003 C 
HETATM   28  C30 UNL     1      -3.033  -2.455  -4.046  1.00  0.00     0.003 C 
HETATM   29  O5  UNL     1      -5.446  -1.870  -1.244  1.00  0.00    -0.224 OA
ENDROOT
BRANCH  11  30
HETATM   30  C26 UNL     1       0.831  -1.101   2.704  1.00  0.00     0.188 C 
HETATM   31  O3  UNL     1       0.468  -0.474   3.675  1.00  0.00    -0.647 OA
HETATM   32  O4  UNL     1       1.260  -2.380   2.791  1.00  0.00    -0.647 OA
ENDBRANCH  11  30
BRANCH  16  33
HETATM   33  C25 UNL     1       2.684   1.110   3.620  1.00  0.00     0.188 C 
HETATM   34  O1  UNL     1       3.157   0.124   4.404  1.00  0.00    -0.647 OA
HETATM   35  O2  UNL     1       1.965   1.964   4.083  1.00  0.00    -0.647 OA
ENDBRANCH  16  33
TORSDOF 2
