REMARK  1 active torsions:
REMARK  status: ('A' for Active; 'I' for Inactive)
REMARK    1  A    between atoms: C2_2  and  O5_19 
ROOT
HETATM    1  C1  UNL     1       2.828   0.533  -0.255  1.00  0.00     0.026 A 
HETATM    2  C2  UNL     1       2.522  -0.244  -1.314  1.00  0.00     0.092 A 
HETATM    3  C3  UNL     1       1.237  -0.623  -1.403  1.00  0.00     0.024 A 
HETATM    4  C4  UNL     1       0.307  -0.260  -0.503  1.00  0.00     0.008 A 
HETATM    5  C5  UNL     1       0.610   0.516   0.556  1.00  0.00     0.051 A 
HETATM    6  C6  UNL     1       1.905   0.908   0.661  1.00  0.00     0.131 A 
HETATM    7  O1  UNL     1       2.358   1.688   1.677  1.00  0.00    -0.190 OA
HETATM    8  C7  UNL     1      -0.389   0.837   1.423  1.00  0.00     0.138 A 
HETATM    9  C8  UNL     1      -1.652   0.382   1.212  1.00  0.00     0.087 A 
HETATM   10  C9  UNL     1      -1.949  -0.393   0.149  1.00  0.00     0.105 A 
HETATM   11  C10 UNL     1      -0.948  -0.696  -0.689  1.00  0.00     0.025 A 
HETATM   12  O2  UNL     1      -3.193  -0.888  -0.131  1.00  0.00    -0.311 OA
HETATM   13  C11 UNL     1      -4.165  -0.547   0.750  1.00  0.00     0.081 A 
HETATM   14  C12 UNL     1      -3.913   0.220   1.819  1.00  0.00     0.062 A 
HETATM   15  C13 UNL     1      -2.668   0.696   2.073  1.00  0.00     0.201 A 
HETATM   16  O3  UNL     1      -2.569   1.377   3.071  1.00  0.00    -0.286 OA
HETATM   17  C14 UNL     1      -5.558  -1.062   0.491  1.00  0.00     0.058 C 
HETATM   18  O4  UNL     1      -0.186   1.621   2.523  1.00  0.00    -0.190 OA
HETATM   19  C16 UNL     1       4.264   1.008  -0.080  1.00  0.00     0.035 C 
ENDROOT
BRANCH   2  20
HETATM   20  O5  UNL     1       3.502  -0.595  -2.215  1.00  0.00    -0.328 OA
HETATM   21  C15 UNL     1       3.173  -1.400  -3.323  1.00  0.00     0.181 C 
ENDBRANCH   2  20
TORSDOF 1
