REMARK  1 active torsions:
REMARK  status: ('A' for Active; 'I' for Inactive)
REMARK    1  A    between atoms: C18_23  and  O6_24 
ROOT
HETATM    1  C1  UNL     1      -2.414   0.968  -1.052  1.00  0.00     0.003 C 
HETATM    2  C2  UNL     1      -2.572  -0.475  -0.525  1.00  0.00     0.005 C 
HETATM    3  C3  UNL     1      -1.210  -1.229  -0.522  1.00  0.00     0.064 C 
HETATM    4  C4  UNL     1       0.125  -0.428  -0.468  1.00  0.00     0.086 C 
HETATM    5  C5  UNL     1       0.073   0.719  -1.495  1.00  0.00     0.157 C 
HETATM    6  C6  UNL     1      -1.289   1.095  -2.082  1.00  0.00     0.033 C 
HETATM    7  O1  UNL     1       0.990   0.525  -2.541  1.00  0.00    -0.223 OA
HETATM    8  C7  UNL     1       1.008  -1.658  -0.731  1.00  0.00     0.247 C 
HETATM    9  O2  UNL     1       2.336  -1.394  -1.058  1.00  0.00    -0.275 OA
HETATM   10  C8  UNL     1       3.067  -0.680  -0.167  1.00  0.00     0.276 C 
HETATM   11  C9  UNL     1       2.296   0.197   0.829  1.00  0.00     0.110 C 
HETATM   12  C10 UNL     1       0.739   0.045   0.886  1.00  0.00     0.019 C 
HETATM   13  C11 UNL     1       0.059   1.195   1.666  1.00  0.00     0.001 C 
HETATM   14  C12 UNL     1       0.746   2.568   1.648  1.00  0.00     0.004 C 
HETATM   15  C13 UNL     1       2.267   2.426   1.731  1.00  0.00     0.021 C 
HETATM   16  C14 UNL     1       2.730   1.650   0.495  1.00  0.00     0.016 C 
HETATM   17  C15 UNL     1       2.675   1.477   2.831  1.00  0.00    -0.014 C 
HETATM   18  C16 UNL     1       2.918   0.111   2.245  1.00  0.00     0.179 C 
HETATM   19  O3  UNL     1       2.354  -0.906   3.044  1.00  0.00    -0.218 OA
HETATM   20  C17 UNL     1       2.791   1.796   4.125  1.00  0.00    -0.007 C 
HETATM   21  O4  UNL     1       4.279  -0.653  -0.223  1.00  0.00    -0.264 OA
HETATM   22  O5  UNL     1       0.443  -2.434  -1.748  1.00  0.00    -0.306 OA
HETATM   23  C18 UNL     1      -0.952  -2.245  -1.655  1.00  0.00     0.237 C 
HETATM   24  C20 UNL     1      -3.155  -0.446   0.914  1.00  0.00     0.000 C 
HETATM   25  C21 UNL     1      -3.680  -1.185  -1.347  1.00  0.00     0.000 C 
ENDROOT
BRANCH  23  26
HETATM   26  O6  UNL     1      -1.288  -1.774  -2.940  1.00  0.00    -0.328 OA
HETATM   27  C19 UNL     1      -1.349  -2.799  -3.908  1.00  0.00     0.177 C 
ENDBRANCH  23  26
TORSDOF 1
