REMARK  0 active torsions:
REMARK  status: ('A' for Active; 'I' for Inactive)
ROOT
HETATM    1  C1  UNL     1      -1.926   0.748  -1.341  1.00  0.00     0.157 C 
HETATM    2  C2  UNL     1      -2.978   1.031  -0.280  1.00  0.00     0.033 C 
HETATM    3  C3  UNL     1      -3.521  -0.320   0.227  1.00  0.00     0.005 C 
HETATM    4  C4  UNL     1      -2.490  -1.485   0.092  1.00  0.00     0.028 C 
HETATM    5  C5  UNL     1      -1.115  -0.841   0.540  1.00  0.00     0.012 C 
HETATM    6  C6  UNL     1      -0.742  -0.056  -0.731  1.00  0.00     0.081 C 
HETATM    7  C7  UNL     1       0.565   0.775  -0.601  1.00  0.00     0.019 C 
HETATM    8  C8  UNL     1       1.733  -0.045   0.004  1.00  0.00     0.109 C 
HETATM    9  C9  UNL     1       1.309  -1.508  -0.131  1.00  0.00     0.127 C 
HETATM   10  C10 UNL     1       0.124  -1.756   0.880  1.00  0.00     0.030 C 
HETATM   11  O1  UNL     1       0.911  -1.692  -1.499  1.00  0.00    -0.333 OA
HETATM   12  C11 UNL     1      -0.452  -1.375  -1.478  1.00  0.00     0.237 C 
HETATM   13  O2  UNL     1      -1.494  -1.821  -2.289  1.00  0.00    -0.331 OA
HETATM   14  C12 UNL     1      -2.581  -2.116  -1.381  1.00  0.00     0.145 C 
HETATM   15  C13 UNL     1       2.983   0.428  -0.765  1.00  0.00     0.165 C 
HETATM   16  C14 UNL     1       3.209   1.824  -0.165  1.00  0.00     0.056 C 
HETATM   17  C15 UNL     1       2.027   2.784  -0.431  1.00  0.00     0.007 C 
HETATM   18  C16 UNL     1       0.648   2.199  -0.021  1.00  0.00     0.001 C 
HETATM   19  C17 UNL     1       3.141   1.467   1.288  1.00  0.00     0.015 C 
HETATM   20  C18 UNL     1       2.149   0.383   1.429  1.00  0.00     0.173 C 
HETATM   21  O3  UNL     1       1.750  -0.015   2.514  1.00  0.00    -0.291 OA
HETATM   22  C19 UNL     1       3.822   2.021   2.305  1.00  0.00    -0.002 C 
HETATM   23  O4  UNL     1       4.075  -0.408  -0.466  1.00  0.00    -0.223 OA
HETATM   24  C20 UNL     1      -2.909  -2.574   1.106  1.00  0.00     0.003 C 
HETATM   25  O5  UNL     1      -1.546   1.920  -2.017  1.00  0.00    -0.223 OA
ENDROOT
TORSDOF 0
