REMARK  5 active torsions:
REMARK  status: ('A' for Active; 'I' for Inactive)
REMARK    1  A    between atoms: C3_3  and  C16_18 
REMARK    2  A    between atoms: C5_5  and  C7_8 
REMARK    3  A    between atoms: C9_10  and  C13_15 
REMARK    4  A    between atoms: C13_15  and  C14_16 
REMARK    5  A    between atoms: C17_19  and  C18_20 
ROOT
HETATM    1  C1  UNL     1       3.207   0.782   0.281  1.00  0.00     0.027 A 
HETATM    2  C2  UNL     1       3.738  -0.499   0.155  1.00  0.00     0.002 A 
HETATM    3  C3  UNL     1       2.892  -1.606  -0.011  1.00  0.00     0.000 A 
HETATM    4  C4  UNL     1       1.517  -1.364  -0.137  1.00  0.00     0.002 A 
HETATM    5  C5  UNL     1       0.979  -0.079   0.009  1.00  0.00     0.027 A 
HETATM    6  C6  UNL     1       1.829   1.017   0.223  1.00  0.00     0.131 A 
HETATM    7  O1  UNL     1       1.354   2.278   0.404  1.00  0.00    -0.190 OA
ENDROOT
BRANCH   5   8
HETATM    8  C7  UNL     1      -0.498   0.116  -0.046  1.00  0.00     0.027 A 
HETATM    9  C8  UNL     1      -1.044   1.114  -0.863  1.00  0.00    -0.002 A 
HETATM   10  C9  UNL     1      -2.421   1.356  -0.907  1.00  0.00    -0.018 A 
HETATM   11  C10 UNL     1      -3.258   0.547  -0.134  1.00  0.00    -0.002 A 
HETATM   12  C11 UNL     1      -2.721  -0.458   0.672  1.00  0.00     0.027 A 
HETATM   13  C12 UNL     1      -1.344  -0.693   0.730  1.00  0.00     0.131 A 
HETATM   14  O2  UNL     1      -0.845  -1.635   1.574  1.00  0.00    -0.190 OA
BRANCH  10  15
HETATM   15  C13 UNL     1      -3.001   2.476  -1.736  1.00  0.00     0.052 C 
BRANCH  15  16
HETATM   16  C14 UNL     1      -3.429   3.598  -0.823  1.00  0.00    -0.021 C 
HETATM   17  C15 UNL     1      -4.698   4.005  -0.682  1.00  0.00    -0.005 C 
ENDBRANCH  15  16
ENDBRANCH  10  15
ENDBRANCH   5   8
BRANCH   3  18
HETATM   18  C16 UNL     1       3.484  -2.951  -0.085  1.00  0.00     0.003 C 
HETATM   19  C17 UNL     1       2.807  -4.099   0.152  1.00  0.00     0.045 C 
BRANCH  19  20
HETATM   20  C18 UNL     1       3.459  -5.426   0.110  1.00  0.00     0.234 C 
HETATM   21  O3  UNL     1       2.851  -6.460   0.346  1.00  0.00    -0.283 OA
ENDBRANCH  19  20
ENDBRANCH   3  18
TORSDOF 5
