REMARK  10 active torsions:
REMARK  status: ('A' for Active; 'I' for Inactive)
REMARK    1  A    between atoms: C3_3  and  O13_34 
REMARK    2  A    between atoms: C4_4  and  O3_9 
REMARK    3  A    between atoms: C5_6  and  C6_7 
REMARK    4  A    between atoms: O3_9  and  C7_10 
REMARK    5  A    between atoms: C9_12  and  O5_16 
REMARK    6  A    between atoms: O5_16  and  C12_17 
REMARK    7  A    between atoms: C13_19  and  C17_26 
REMARK    8  A    between atoms: C18_28  and  C21_32 
REMARK    9  A    between atoms: O13_34  and  C22_35 
REMARK   10  A    between atoms: C23_37  and  C27_44 
ROOT
HETATM    1  C7  UNL     1      -2.165   1.197  -0.603  1.00  0.00     0.156 C 
HETATM    2  C8  UNL     1      -2.381  -0.155  -1.316  1.00  0.00     0.109 C 
HETATM    3  C9  UNL     1      -1.335  -0.451  -2.370  1.00  0.00     0.248 C 
HETATM    4  O4  UNL     1      -1.256   0.555  -3.350  1.00  0.00    -0.303 OA
HETATM    5  C10 UNL     1      -1.380   1.840  -2.917  1.00  0.00     0.117 C 
HETATM    6  C11 UNL     1      -1.764   2.187  -1.679  1.00  0.00     0.030 C 
HETATM    7  C18 UNL     1      -3.803  -0.008  -1.790  1.00  0.00    -0.006 C 
HETATM    8  C19 UNL     1      -4.442   0.927  -1.077  1.00  0.00     0.003 C 
HETATM    9  C20 UNL     1      -3.546   1.528  -0.027  1.00  0.00     0.203 C 
HETATM   10  O11 UNL     1      -3.754   0.845   1.200  1.00  0.00    -0.216 OA
ENDROOT
BRANCH   1  11
HETATM   11  O3  UNL     1      -1.180   1.045   0.382  1.00  0.00    -0.326 OA
BRANCH  11  12
HETATM   12  C4  UNL     1      -0.861   2.189   1.144  1.00  0.00     0.267 C 
HETATM   13  C3  UNL     1       0.634   2.310   1.390  1.00  0.00     0.207 C 
HETATM   14  C2  UNL     1       0.848   3.627   2.132  1.00  0.00     0.217 C 
HETATM   15  C1  UNL     1      -0.052   3.727   3.357  1.00  0.00     0.215 C 
HETATM   16  O19 UNL     1       0.576   4.703   1.265  1.00  0.00    -0.218 OA
HETATM   17  C5  UNL     1      -1.484   3.235   3.145  1.00  0.00     0.184 C 
HETATM   18  O20 UNL     1       0.537   2.997   4.411  1.00  0.00    -0.218 OA
HETATM   19  O1  UNL     1      -1.546   2.070   2.366  1.00  0.00    -0.326 OA
BRANCH  13  20
HETATM   20  O13 UNL     1       1.203   1.300   2.184  1.00  0.00    -0.324 OA
BRANCH  20  21
HETATM   21  C22 UNL     1       1.168  -0.004   1.653  1.00  0.00     0.270 C 
HETATM   22  O14 UNL     1       0.037  -0.616   2.232  1.00  0.00    -0.326 OA
HETATM   23  C23 UNL     1      -0.181  -1.906   1.729  1.00  0.00     0.184 C 
HETATM   24  C24 UNL     1       1.008  -2.790   2.092  1.00  0.00     0.215 C 
HETATM   25  C25 UNL     1       2.297  -2.174   1.584  1.00  0.00     0.220 C 
HETATM   26  O17 UNL     1       0.888  -4.069   1.520  1.00  0.00    -0.218 OA
HETATM   27  C26 UNL     1       2.404  -0.753   2.092  1.00  0.00     0.241 C 
HETATM   28  O16 UNL     1       3.395  -2.925   2.032  1.00  0.00    -0.218 OA
HETATM   29  O15 UNL     1       3.542  -0.148   1.534  1.00  0.00    -0.215 OA
BRANCH  23  30
HETATM   30  C27 UNL     1      -1.492  -2.418   2.308  1.00  0.00     0.214 C 
HETATM   31  O18 UNL     1      -2.538  -1.526   1.974  1.00  0.00    -0.218 OA
ENDBRANCH  23  30
ENDBRANCH  20  21
ENDBRANCH  13  20
BRANCH  17  32
HETATM   32  C6  UNL     1      -2.446   4.299   2.628  1.00  0.00     0.214 C 
HETATM   33  O2  UNL     1      -2.574   5.328   3.588  1.00  0.00    -0.218 OA
ENDBRANCH  17  32
ENDBRANCH  11  12
ENDBRANCH   1  11
BRANCH   3  34
HETATM   34  O5  UNL     1      -0.060  -0.450  -1.766  1.00  0.00    -0.303 OA
BRANCH  34  35
HETATM   35  C12 UNL     1       0.950  -1.067  -2.531  1.00  0.00     0.272 C 
HETATM   36  O6  UNL     1       1.117  -2.342  -1.954  1.00  0.00    -0.326 OA
HETATM   37  C13 UNL     1       2.134  -3.089  -2.569  1.00  0.00     0.184 C 
HETATM   38  C14 UNL     1       3.462  -2.341  -2.479  1.00  0.00     0.215 C 
HETATM   39  C15 UNL     1       3.338  -0.947  -3.064  1.00  0.00     0.220 C 
HETATM   40  O9  UNL     1       4.481  -3.000  -3.189  1.00  0.00    -0.218 OA
HETATM   41  C16 UNL     1       2.200  -0.241  -2.368  1.00  0.00     0.241 C 
HETATM   42  O8  UNL     1       4.534  -0.241  -2.854  1.00  0.00    -0.218 OA
HETATM   43  O7  UNL     1       1.980   1.019  -2.952  1.00  0.00    -0.215 OA
BRANCH  37  44
HETATM   44  C17 UNL     1       2.163  -4.451  -1.885  1.00  0.00     0.214 C 
HETATM   45  O10 UNL     1       2.834  -5.401  -2.688  1.00  0.00    -0.218 OA
ENDBRANCH  37  44
ENDBRANCH  34  35
ENDBRANCH   3  34
BRANCH   7  46
HETATM   46  C21 UNL     1      -4.413  -0.878  -2.847  1.00  0.00     0.205 C 
HETATM   47  O12 UNL     1      -4.257  -2.251  -2.516  1.00  0.00    -0.216 OA
ENDBRANCH   7  46
TORSDOF 10
