REMARK  4 active torsions:
REMARK  status: ('A' for Active; 'I' for Inactive)
REMARK    1  A    between atoms: C1_2  and  C16_23 
REMARK    2  A    between atoms: C5_6  and  O2_7 
REMARK    3  A    between atoms: O2_7  and  C6_8 
REMARK    4  A    between atoms: C8_10  and  C14_16 
ROOT
HETATM    1  C6  UNL     1      -0.037   0.616  -0.110  1.00  0.00     0.136 C 
HETATM    2  C7  UNL     1      -1.111   1.644   0.226  1.00  0.00    -0.015 C 
HETATM    3  C8  UNL     1      -1.473   2.652  -0.609  1.00  0.00     0.036 C 
HETATM    4  C9  UNL     1      -0.734   2.912  -1.927  1.00  0.00     0.024 C 
HETATM    5  C10 UNL     1       0.598   2.129  -1.980  1.00  0.00     0.007 C 
HETATM    6  C11 UNL     1       0.417   0.673  -1.565  1.00  0.00     0.034 C 
HETATM    7  C12 UNL     1      -1.645   2.501  -3.105  1.00  0.00     0.005 C 
HETATM    8  C13 UNL     1      -0.330   4.396  -2.100  1.00  0.00     0.005 C 
HETATM    9  C15 UNL     1      -1.706   1.409   1.599  1.00  0.00     0.029 C 
ENDROOT
BRANCH   1  10
HETATM   10  O2  UNL     1      -0.517  -0.694   0.128  1.00  0.00    -0.327 OA
BRANCH  10  11
HETATM   11  C5  UNL     1       0.251  -1.461   1.028  1.00  0.00     0.270 C 
HETATM   12  O1  UNL     1       1.494  -1.701   0.406  1.00  0.00    -0.326 OA
HETATM   13  C1  UNL     1       2.341  -2.486   1.204  1.00  0.00     0.184 C 
HETATM   14  C2  UNL     1       1.704  -3.853   1.429  1.00  0.00     0.215 C 
HETATM   15  C3  UNL     1       0.351  -3.687   2.090  1.00  0.00     0.220 C 
HETATM   16  O7  UNL     1       2.497  -4.654   2.269  1.00  0.00    -0.218 OA
HETATM   17  C4  UNL     1      -0.487  -2.763   1.237  1.00  0.00     0.241 C 
HETATM   18  O6  UNL     1      -0.278  -4.939   2.191  1.00  0.00    -0.218 OA
HETATM   19  O5  UNL     1      -1.706  -2.507   1.888  1.00  0.00    -0.215 OA
BRANCH  13  20
HETATM   20  C16 UNL     1       3.695  -2.592   0.516  1.00  0.00     0.214 C 
HETATM   21  O8  UNL     1       4.288  -1.310   0.436  1.00  0.00    -0.218 OA
ENDBRANCH  13  20
ENDBRANCH  10  11
ENDBRANCH   1  10
BRANCH   3  22
HETATM   22  C14 UNL     1      -2.659   3.509  -0.283  1.00  0.00     0.206 C 
HETATM   23  O3  UNL     1      -2.975   4.447  -1.001  1.00  0.00    -0.644 OA
HETATM   24  O4  UNL     1      -3.532   3.278   0.721  1.00  0.00    -0.644 OA
ENDBRANCH   3  22
TORSDOF 4
