REMARK  6 active torsions:
REMARK  status: ('A' for Active; 'I' for Inactive)
REMARK    1  A    between atoms: C1_1  and  C2_2 
REMARK    2  A    between atoms: C1_1  and  C12_13 
REMARK    3  A    between atoms: C3_3  and  C4_4 
REMARK    4  A    between atoms: C5_5  and  C6_6 
REMARK    5  A    between atoms: C7_7  and  C8_8 
REMARK    6  A    between atoms: C12_13  and  C13_14 
ROOT
HETATM    1  C4  UNL     1      -0.169   0.616   0.211  1.00  0.00    -0.009 C 
HETATM    2  C5  UNL     1      -0.818  -0.196  -0.415  1.00  0.00    -0.050 C 
ENDROOT
BRANCH   2   3
HETATM    3  C6  UNL     1      -1.625  -1.161  -1.190  1.00  0.00     0.052 C 
HETATM    4  C7  UNL     1      -1.145  -1.687  -2.333  1.00  0.00     0.034 C 
BRANCH   4   5
HETATM    5  C8  UNL     1      -1.879  -2.627  -3.179  1.00  0.00     0.101 A 
HETATM    6  O1  UNL     1      -1.342  -3.151  -4.325  1.00  0.00    -0.305 OA
HETATM    7  C9  UNL     1      -2.292  -3.957  -4.877  1.00  0.00     0.123 A 
HETATM    8  C10 UNL     1      -3.421  -3.966  -4.116  1.00  0.00     0.029 A 
HETATM    9  C11 UNL     1      -3.155  -3.099  -3.010  1.00  0.00     0.027 A 
ENDBRANCH   4   5
ENDBRANCH   2   3
BRANCH   1  10
HETATM   10  C3  UNL     1       0.593   1.607   0.946  1.00  0.00    -0.014 C 
HETATM   11  C2  UNL     1       1.217   2.454   1.549  1.00  0.00    -0.078 C 
BRANCH  11  12
HETATM   12  C1  UNL     1       1.939   3.533   2.246  1.00  0.00     0.080 C 
BRANCH  12  13
HETATM   13  C12 UNL     1       2.058   3.289   3.757  1.00  0.00     0.050 C 
BRANCH  13  14
HETATM   14  C13 UNL     1       3.082   2.221   4.136  1.00  0.00     0.183 C 
HETATM   15  O2  UNL     1       2.675   0.953   3.664  1.00  0.00    -0.221 OA
ENDBRANCH  13  14
ENDBRANCH  12  13
ENDBRANCH  11  12
ENDBRANCH   1  10
TORSDOF 6
