REMARK  3 active torsions:
REMARK  status: ('A' for Active; 'I' for Inactive)
REMARK    1  A    between atoms: C1_1  and  C18_24 
REMARK    2  A    between atoms: C5_5  and  O2_7 
REMARK    3  A    between atoms: O2_7  and  C6_8 
ROOT
HETATM    1  C6  UNL     1      -0.276   0.574  -0.051  1.00  0.00     0.093 A 
HETATM    2  C7  UNL     1      -1.032   1.324  -0.969  1.00  0.00     0.003 A 
HETATM    3  C8  UNL     1      -0.683   2.640  -1.295  1.00  0.00     0.005 A 
HETATM    4  C9  UNL     1       0.435   3.253  -0.706  1.00  0.00     0.123 A 
HETATM    5  C10 UNL     1       1.190   2.530   0.227  1.00  0.00     0.005 A 
HETATM    6  C11 UNL     1       0.817   1.220   0.540  1.00  0.00     0.022 A 
HETATM    7  C12 UNL     1       2.404   3.108   0.920  1.00  0.00     0.033 C 
HETATM    8  O3  UNL     1       0.770   4.527  -1.046  1.00  0.00    -0.191 OA
HETATM    9  C13 UNL     1      -1.484   3.445  -2.292  1.00  0.00     0.050 A 
HETATM   10  C14 UNL     1      -2.721   2.784  -2.832  1.00  0.00    -0.043 A 
HETATM   11  C15 UNL     1      -3.046   1.525  -2.512  1.00  0.00    -0.029 A 
HETATM   12  C16 UNL     1      -2.233   0.657  -1.600  1.00  0.00     0.053 A 
HETATM   13  C17 UNL     1      -3.567   3.614  -3.767  1.00  0.00     0.026 C 
ENDROOT
BRANCH   1  14
HETATM   14  O2  UNL     1      -0.669  -0.713   0.216  1.00  0.00    -0.304 OA
BRANCH  14  15
HETATM   15  C5  UNL     1      -0.007  -1.487   1.187  1.00  0.00     0.274 C 
HETATM   16  C4  UNL     1      -0.812  -2.757   1.356  1.00  0.00     0.241 C 
HETATM   17  C3  UNL     1      -0.079  -3.712   2.270  1.00  0.00     0.220 C 
HETATM   18  O4  UNL     1      -2.063  -2.447   1.917  1.00  0.00    -0.215 OA
HETATM   19  C2  UNL     1       1.307  -3.944   1.701  1.00  0.00     0.215 C 
HETATM   20  O5  UNL     1      -0.768  -4.934   2.335  1.00  0.00    -0.218 OA
HETATM   21  C1  UNL     1       2.019  -2.608   1.524  1.00  0.00     0.184 C 
HETATM   22  O6  UNL     1       2.002  -4.778   2.595  1.00  0.00    -0.218 OA
HETATM   23  O1  UNL     1       1.267  -1.793   0.662  1.00  0.00    -0.326 OA
BRANCH  21  24
HETATM   24  C18 UNL     1       3.416  -2.772   0.943  1.00  0.00     0.214 C 
HETATM   25  O7  UNL     1       4.100  -1.535   0.996  1.00  0.00    -0.218 OA
ENDBRANCH  21  24
ENDBRANCH  14  15
ENDBRANCH   1  14
TORSDOF 3
