REMARK  9 active torsions:
REMARK  status: ('A' for Active; 'I' for Inactive)
REMARK    1  A    between atoms: C15_22  and  O17_44 
REMARK    2  A    between atoms: C19_29  and  O12_32 
REMARK    3  A    between atoms: O12_32  and  C21_33 
REMARK    4  A    between atoms: C21_33  and  C22_34 
REMARK    5  A    between atoms: O17_44  and  C28_45 
REMARK    6  A    between atoms: C28_45  and  C29_46 
REMARK    7  A    between atoms: C29_46  and  C30_47 
REMARK    8  A    between atoms: C34_52  and  C35_53 
REMARK    9  A    between atoms: C40_64  and  C41_65 
ROOT
HETATM    1  C1  UNL     1      -2.218   4.172   2.880  1.00  0.00     0.140 C 
HETATM    2  C2  UNL     1      -1.413   3.174   3.681  1.00  0.00     0.088 C 
HETATM    3  C3  UNL     1       0.093   3.353   3.690  1.00  0.00     0.050 C 
HETATM    4  C4  UNL     1       0.656   4.326   2.674  1.00  0.00     0.031 C 
HETATM    5  C5  UNL     1      -0.158   5.537   2.269  1.00  0.00     0.158 C 
HETATM    6  C6  UNL     1      -1.586   5.531   2.755  1.00  0.00     0.177 C 
HETATM    7  O1  UNL     1      -2.360   6.636   2.627  1.00  0.00    -0.186 OA
HETATM    8  O2  UNL     1       0.435   6.756   2.182  1.00  0.00    -0.188 OA
HETATM    9  C7  UNL     1       2.148   4.385   2.466  1.00  0.00     0.030 C 
HETATM   10  C8  UNL     1       2.784   3.548   1.414  1.00  0.00     0.035 C 
HETATM   11  C9  UNL     1       4.281   3.347   1.446  1.00  0.00     0.087 C 
HETATM   12  C10 UNL     1       5.079   4.292   2.311  1.00  0.00     0.140 C 
HETATM   13  C11 UNL     1       4.331   5.290   3.158  1.00  0.00     0.177 C 
HETATM   14  C12 UNL     1       2.854   5.162   3.313  1.00  0.00     0.158 C 
HETATM   15  O3  UNL     1       2.234   5.910   4.264  1.00  0.00    -0.188 OA
HETATM   16  O4  UNL     1       5.005   6.079   4.033  1.00  0.00    -0.186 OA
HETATM   17  O5  UNL     1       6.426   4.206   2.448  1.00  0.00    -0.192 OA
HETATM   18  C13 UNL     1       1.951   2.537   0.622  1.00  0.00     0.225 C 
HETATM   19  O6  UNL     1       2.337   2.280  -0.613  1.00  0.00    -0.164 OA
HETATM   20  O7  UNL     1       0.918   1.832   1.190  1.00  0.00    -0.306 OA
HETATM   21  C14 UNL     1       0.337   0.761   0.505  1.00  0.00     0.189 C 
HETATM   22  C15 UNL     1       0.977  -0.576   0.899  1.00  0.00     0.184 C 
HETATM   23  C16 UNL     1       0.494  -0.947   2.323  1.00  0.00     0.178 C 
HETATM   24  C17 UNL     1       1.167  -0.237   3.517  1.00  0.00     0.184 C 
HETATM   25  O8  UNL     1       0.400   0.877   3.922  1.00  0.00    -0.296 OA
HETATM   26  C18 UNL     1       0.943   2.119   4.035  1.00  0.00     0.292 C 
HETATM   27  O9  UNL     1       2.161   2.271   4.198  1.00  0.00    -0.259 OA
HETATM   28  O10 UNL     1      -0.897  -0.822   2.487  1.00  0.00    -0.326 OA
HETATM   29  C19 UNL     1      -1.604  -0.593   1.291  1.00  0.00     0.277 C 
HETATM   30  C20 UNL     1      -1.190   0.745   0.710  1.00  0.00     0.239 C 
HETATM   31  O11 UNL     1      -1.820   0.905  -0.539  1.00  0.00    -0.215 OA
HETATM   32  O28 UNL     1      -3.546   4.035   2.648  1.00  0.00    -0.192 OA
ENDROOT
BRANCH  22  33
HETATM   33  O17 UNL     1       0.649  -1.623  -0.023  1.00  0.00    -0.296 OA
BRANCH  33  34
HETATM   34  C28 UNL     1       1.463  -1.982  -1.064  1.00  0.00     0.296 C 
HETATM   35  O27 UNL     1       2.539  -1.400  -1.135  1.00  0.00    -0.259 OA
BRANCH  34  36
HETATM   36  C29 UNL     1       1.036  -2.665  -2.351  1.00  0.00     0.068 C 
HETATM   37  C40 UNL     1       2.022  -3.270  -3.053  1.00  0.00     0.075 C 
BRANCH  36  38
HETATM   38  C30 UNL     1      -0.385  -2.706  -2.975  1.00  0.00     0.023 C 
HETATM   39  C31 UNL     1      -1.039  -1.351  -3.345  1.00  0.00     0.031 C 
HETATM   40  C32 UNL     1      -2.389  -1.421  -3.941  1.00  0.00     0.053 C 
HETATM   41  C39 UNL     1      -0.498  -0.101  -3.215  1.00  0.00     0.158 C 
HETATM   42  C33 UNL     1      -2.872  -2.767  -4.392  1.00  0.00     0.229 C 
HETATM   43  C36 UNL     1      -3.202  -0.362  -4.148  1.00  0.00     0.034 C 
HETATM   44  O18 UNL     1      -2.054  -3.827  -4.466  1.00  0.00    -0.296 OA
HETATM   45  O21 UNL     1      -4.138  -2.918  -4.738  1.00  0.00    -0.163 OA
HETATM   46  C34 UNL     1      -0.678  -3.753  -4.138  1.00  0.00     0.232 C 
HETATM   47  C37 UNL     1      -2.778   0.994  -3.728  1.00  0.00     0.158 C 
HETATM   48  C38 UNL     1      -1.295   1.146  -3.506  1.00  0.00     0.181 C 
HETATM   49  O24 UNL     1      -3.629   1.823  -3.073  1.00  0.00    -0.188 OA
HETATM   50  O23 UNL     1      -0.933   2.264  -2.812  1.00  0.00    -0.186 OA
HETATM   51  O22 UNL     1       0.728   0.171  -2.712  1.00  0.00    -0.188 OA
BRANCH  46  52
HETATM   52  C35 UNL     1      -0.333  -5.277  -4.088  1.00  0.00     0.219 C 
HETATM   53  O19 UNL     1       0.941  -5.635  -4.321  1.00  0.00    -0.645 OA
HETATM   54  O20 UNL     1      -1.185  -6.139  -3.989  1.00  0.00    -0.645 OA
ENDBRANCH  46  52
ENDBRANCH  36  38
BRANCH  37  55
HETATM   55  C41 UNL     1       3.418  -3.630  -2.685  1.00  0.00     0.211 C 
HETATM   56  O25 UNL     1       4.176  -4.315  -3.569  1.00  0.00    -0.644 OA
HETATM   57  O26 UNL     1       3.892  -3.481  -1.568  1.00  0.00    -0.644 OA
ENDBRANCH  37  55
ENDBRANCH  34  36
ENDBRANCH  33  34
ENDBRANCH  22  33
BRANCH  29  58
HETATM   58  O12 UNL     1      -2.970  -0.720   1.619  1.00  0.00    -0.270 OA
BRANCH  58  59
HETATM   59  C21 UNL     1      -3.588  -1.928   1.349  1.00  0.00     0.298 C 
HETATM   60  O16 UNL     1      -4.804  -2.012   1.500  1.00  0.00    -0.259 OA
BRANCH  59  61
HETATM   61  C22 UNL     1      -2.901  -3.150   0.785  1.00  0.00     0.068 C 
HETATM   62  C23 UNL     1      -3.463  -3.841  -0.291  1.00  0.00     0.035 C 
HETATM   63  C24 UNL     1      -2.736  -4.829  -0.966  1.00  0.00     0.158 C 
HETATM   64  C25 UNL     1      -1.396  -5.039  -0.627  1.00  0.00     0.181 C 
HETATM   65  O15 UNL     1      -3.249  -5.415  -2.084  1.00  0.00    -0.188 OA
HETATM   66  C26 UNL     1      -0.846  -4.420   0.493  1.00  0.00     0.158 C 
HETATM   67  O14 UNL     1      -0.594  -5.844  -1.365  1.00  0.00    -0.186 OA
HETATM   68  C27 UNL     1      -1.635  -3.545   1.227  1.00  0.00     0.035 C 
HETATM   69  O13 UNL     1       0.475  -4.578   0.774  1.00  0.00    -0.188 OA
ENDBRANCH  59  61
ENDBRANCH  58  59
ENDBRANCH  29  58
TORSDOF 9
