REMARK  4 active torsions:
REMARK  status: ('A' for Active; 'I' for Inactive)
REMARK    1  A    between atoms: O1_1  and  C2_3 
REMARK    2  A    between atoms: C3_4  and  O2_5 
REMARK    3  A    between atoms: C18_22  and  O4_27 
REMARK    4  A    between atoms: O4_27  and  C22_28 
ROOT
HETATM    1  C2  UNL     1      -5.286   0.583   0.179  1.00  0.00     0.116 A 
HETATM    2  C3  UNL     1      -5.256  -0.845  -0.020  1.00  0.00     0.118 A 
HETATM    3  C5  UNL     1      -4.041  -1.513  -0.022  1.00  0.00     0.045 A 
HETATM    4  C6  UNL     1      -2.838  -0.787   0.141  1.00  0.00     0.083 A 
HETATM    5  C7  UNL     1      -2.864   0.595   0.317  1.00  0.00     0.017 A 
HETATM    6  C8  UNL     1      -4.100   1.284   0.332  1.00  0.00     0.027 A 
HETATM    7  C9  UNL     1      -1.512   1.016   0.477  1.00  0.00    -0.003 A 
HETATM    8  C10 UNL     1      -0.702  -0.089   0.417  1.00  0.00     0.086 A 
HETATM    9  N1  UNL     1      -1.518  -1.190   0.189  1.00  0.00    -0.248 NA
HETATM   10  C11 UNL     1       0.797  -0.002   0.547  1.00  0.00     0.259 C 
HETATM   11  N2  UNL     1       1.241   1.184   1.294  1.00  0.00     0.141 N 
HETATM   12  C12 UNL     1       0.177   2.044   1.809  1.00  0.00     0.255 C 
HETATM   13  C13 UNL     1      -0.944   2.355   0.805  1.00  0.00     0.063 C 
HETATM   14  C14 UNL     1       2.270   1.943   0.600  1.00  0.00     0.254 C 
HETATM   15  C15 UNL     1       3.425   1.024   0.160  1.00  0.00     0.067 C 
HETATM   16  C16 UNL     1       2.902   0.126  -0.971  1.00  0.00     0.054 C 
HETATM   17  C17 UNL     1       1.385  -0.106  -0.873  1.00  0.00     0.046 C 
HETATM   18  C18 UNL     1       3.723  -1.133  -1.123  1.00  0.00     0.104 C 
HETATM   19  C19 UNL     1       4.718  -1.411  -0.264  1.00  0.00     0.136 C 
HETATM   20  O3  UNL     1       5.006  -0.681   0.849  1.00  0.00    -0.330 OA
HETATM   21  C20 UNL     1       4.006   0.181   1.303  1.00  0.00     0.124 C 
HETATM   22  C21 UNL     1       4.597   1.021   2.436  1.00  0.00     0.033 C 
ENDROOT
BRANCH  18  23
HETATM   23  O4  UNL     1       3.483  -1.894  -2.232  1.00  0.00    -0.279 OA
BRANCH  23  24
HETATM   24  C22 UNL     1       4.457  -1.819  -3.181  1.00  0.00     0.277 C 
HETATM   25  O5  UNL     1       4.870  -0.783  -3.653  1.00  0.00    -0.264 OA
HETATM   26  C23 UNL     1       4.944  -3.200  -3.572  1.00  0.00     0.107 C 
ENDBRANCH  23  24
ENDBRANCH  18  23
BRANCH   1  27
HETATM   27  O1  UNL     1      -6.525   1.181   0.190  1.00  0.00    -0.326 OA
HETATM   28  C1  UNL     1      -6.608   2.581   0.321  1.00  0.00     0.181 C 
ENDBRANCH   1  27
BRANCH   2  29
HETATM   29  O2  UNL     1      -6.469  -1.485  -0.132  1.00  0.00    -0.326 OA
HETATM   30  C4  UNL     1      -6.507  -2.891  -0.042  1.00  0.00     0.181 C 
ENDBRANCH   2  29
TORSDOF 4
