REMARK  2 active torsions:
REMARK  status: ('A' for Active; 'I' for Inactive)
REMARK    1  A    between atoms: C2_3  and  C6_8 
REMARK    2  A    between atoms: C15_18  and  C23_27 
ROOT
HETATM    1  C6  UNL     1       0.842   1.239   1.966  1.00  0.00     0.029 C 
HETATM    2  C7  UNL     1      -0.697   1.042   1.751  1.00  0.00     0.029 C 
HETATM    3  C8  UNL     1      -0.904  -0.497   1.601  1.00  0.00     0.118 A 
HETATM    4  O3  UNL     1      -0.435  -1.910   2.343  1.00  0.00    -0.357 OA
HETATM    5  C9  UNL     1      -0.093  -0.684   2.822  1.00  0.00     0.140 A 
HETATM    6  C10 UNL     1       1.280  -0.124   2.537  1.00  0.00     0.036 C 
HETATM    7  C11 UNL     1      -0.710  -1.040   0.156  1.00  0.00     0.028 C 
HETATM    8  C12 UNL     1      -1.140  -0.144  -1.025  1.00  0.00     0.009 C 
HETATM    9  C13 UNL     1      -0.693   1.311  -0.823  1.00  0.00     0.001 C 
HETATM   10  C14 UNL     1      -1.201   1.835   0.519  1.00  0.00     0.003 C 
HETATM   11  C15 UNL     1      -0.697  -0.709  -2.417  1.00  0.00     0.059 C 
HETATM   12  C16 UNL     1      -0.786  -2.258  -2.483  1.00  0.00     0.009 C 
HETATM   13  C17 UNL     1      -1.821  -2.758  -1.469  1.00  0.00     0.001 C 
HETATM   14  C18 UNL     1      -1.418  -2.411  -0.028  1.00  0.00     0.002 C 
HETATM   15  C19 UNL     1       0.569  -2.972  -2.309  1.00  0.00     0.033 C 
HETATM   16  C20 UNL     1       1.597  -2.572  -3.368  1.00  0.00     0.152 C 
HETATM   17  C21 UNL     1       1.357  -1.160  -3.898  1.00  0.00     0.033 C 
HETATM   18  C22 UNL     1       0.734  -0.269  -2.815  1.00  0.00     0.010 C 
HETATM   19  O4  UNL     1       1.563  -3.485  -4.440  1.00  0.00    -0.224 OA
HETATM   20  C24 UNL     1      -1.540   1.655   2.910  1.00  0.00     0.003 C 
ENDROOT
BRANCH   1  21
HETATM   21  C2  UNL     1       1.236   2.459   2.777  1.00  0.00     0.003 A 
HETATM   22  C1  UNL     1       1.532   3.620   2.147  1.00  0.00     0.122 A 
HETATM   23  O1  UNL     1       1.910   4.774   2.768  1.00  0.00    -0.271 OA
HETATM   24  C5  UNL     1       2.025   4.743   4.124  1.00  0.00     0.300 A 
HETATM   25  C4  UNL     1       1.705   3.530   4.906  1.00  0.00     0.068 A 
HETATM   26  O2  UNL     1       2.397   5.742   4.737  1.00  0.00    -0.259 OA
HETATM   27  C3  UNL     1       1.318   2.424   4.236  1.00  0.00     0.003 A 
ENDBRANCH   1  21
BRANCH  11  28
HETATM   28  C23 UNL     1      -1.643  -0.162  -3.498  1.00  0.00     0.206 C 
HETATM   29  O5  UNL     1      -2.596   0.545  -3.270  1.00  0.00    -0.288 OA
ENDBRANCH  11  28
TORSDOF 2
