REMARK  10 active torsions:
REMARK  status: ('A' for Active; 'I' for Inactive)
REMARK    1  A    between atoms: C2_3  and  C6_8 
REMARK    2  A    between atoms: C20_23  and  O4_26 
REMARK    3  A    between atoms: O4_26  and  C23_27 
REMARK    4  A    between atoms: C23_27  and  C24_29 
REMARK    5  A    between atoms: C24_29  and  C25_30 
REMARK    6  A    between atoms: C25_30  and  C26_31 
REMARK    7  A    between atoms: C26_31  and  C27_32 
REMARK    8  A    between atoms: C27_32  and  C28_33 
REMARK    9  A    between atoms: C28_33  and  C29_34 
REMARK   10  A    between atoms: C29_34  and  C30_35 
ROOT
HETATM    1  C6  UNL     1       0.054   1.997   2.286  1.00  0.00     0.029 C 
HETATM    2  C7  UNL     1      -1.495   1.847   2.153  1.00  0.00     0.029 C 
HETATM    3  C8  UNL     1      -1.754   0.351   1.798  1.00  0.00     0.118 A 
HETATM    4  O3  UNL     1      -1.184  -1.158   2.219  1.00  0.00    -0.357 OA
HETATM    5  C9  UNL     1      -0.878  -0.037   2.923  1.00  0.00     0.140 A 
HETATM    6  C10 UNL     1       0.486   0.577   2.695  1.00  0.00     0.036 C 
HETATM    7  C11 UNL     1      -1.728   0.023   0.276  1.00  0.00     0.027 C 
HETATM    8  C12 UNL     1      -2.198   1.107  -0.721  1.00  0.00     0.002 C 
HETATM    9  C13 UNL     1      -1.688   2.505  -0.337  1.00  0.00     0.000 C 
HETATM   10  C14 UNL     1      -2.079   2.825   1.104  1.00  0.00     0.003 C 
HETATM   11  C15 UNL     1      -1.900   0.721  -2.211  1.00  0.00     0.000 C 
HETATM   12  C16 UNL     1      -2.062  -0.811  -2.445  1.00  0.00     0.002 C 
HETATM   13  C17 UNL     1      -3.077  -1.394  -1.450  1.00  0.00     0.000 C 
HETATM   14  C18 UNL     1      -2.583  -1.246  -0.003  1.00  0.00     0.002 C 
HETATM   15  C19 UNL     1      -0.797  -1.700  -2.494  1.00  0.00     0.030 C 
HETATM   16  C20 UNL     1       0.495  -0.989  -2.901  1.00  0.00     0.124 C 
HETATM   17  C21 UNL     1       0.163   0.271  -3.692  1.00  0.00     0.030 C 
HETATM   18  C22 UNL     1      -0.520   1.225  -2.703  1.00  0.00     0.003 C 
HETATM   19  C31 UNL     1      -2.961   1.437  -3.098  1.00  0.00     0.000 C 
HETATM   20  C32 UNL     1      -2.237   2.282   3.454  1.00  0.00     0.003 C 
ENDROOT
BRANCH  16  21
HETATM   21  O4  UNL     1       1.316  -1.855  -3.628  1.00  0.00    -0.304 OA
BRANCH  21  22
HETATM   22  C23 UNL     1       2.677  -1.874  -3.508  1.00  0.00     0.272 C 
HETATM   23  O5  UNL     1       3.345  -2.750  -4.018  1.00  0.00    -0.264 OA
BRANCH  22  24
HETATM   24  C24 UNL     1       3.363  -0.725  -2.776  1.00  0.00     0.096 C 
BRANCH  24  25
HETATM   25  C25 UNL     1       4.067  -1.117  -1.465  1.00  0.00     0.010 C 
BRANCH  25  26
HETATM   26  C26 UNL     1       3.148  -1.449  -0.275  1.00  0.00     0.001 C 
BRANCH  26  27
HETATM   27  C27 UNL     1       2.461  -2.819  -0.379  1.00  0.00     0.001 C 
BRANCH  27  28
HETATM   28  C28 UNL     1       1.646  -3.164   0.878  1.00  0.00     0.011 C 
BRANCH  28  29
HETATM   29  C29 UNL     1       0.720  -4.373   0.672  1.00  0.00     0.098 C 
BRANCH  29  30
HETATM   30  C30 UNL     1       1.464  -5.588   0.152  1.00  0.00     0.185 C 
HETATM   31  O6  UNL     1       1.234  -5.794  -1.159  1.00  0.00    -0.647 OA
HETATM   32  O7  UNL     1       2.208  -6.297   0.785  1.00  0.00    -0.647 OA
ENDBRANCH  29  30
ENDBRANCH  28  29
ENDBRANCH  27  28
ENDBRANCH  26  27
ENDBRANCH  25  26
ENDBRANCH  24  25
ENDBRANCH  22  24
ENDBRANCH  21  22
ENDBRANCH  16  21
BRANCH   1  33
HETATM   33  C2  UNL     1       0.532   3.127   3.178  1.00  0.00     0.003 A 
HETATM   34  C1  UNL     1       0.844   4.327   2.635  1.00  0.00     0.122 A 
HETATM   35  O1  UNL     1       1.289   5.411   3.333  1.00  0.00    -0.271 OA
HETATM   36  C5  UNL     1       1.437   5.268   4.679  1.00  0.00     0.300 A 
HETATM   37  C4  UNL     1       1.114   4.001   5.368  1.00  0.00     0.068 A 
HETATM   38  O2  UNL     1       1.845   6.206   5.361  1.00  0.00    -0.259 OA
HETATM   39  C3  UNL     1       0.673   2.964   4.623  1.00  0.00     0.003 A 
ENDBRANCH   1  33
TORSDOF 10
