REMARK  6 active torsions:
REMARK  status: ('A' for Active; 'I' for Inactive)
REMARK    1  A    between atoms: C3_3  and  C19_24 
REMARK    2  A    between atoms: C9_11  and  C14_18 
REMARK    3  A    between atoms: C14_18  and  C15_20 
REMARK    4  A    between atoms: C15_20  and  C16_21 
REMARK    5  A    between atoms: C19_24  and  C20_26 
REMARK    6  A    between atoms: C20_26  and  C21_27 
ROOT
HETATM    1  C1  UNL     1      -2.053   2.816  -2.661  1.00  0.00     0.029 A 
HETATM    2  C2  UNL     1      -2.832   2.154  -1.774  1.00  0.00     0.134 A 
HETATM    3  C3  UNL     1      -2.288   1.229  -0.946  1.00  0.00     0.083 A 
HETATM    4  C4  UNL     1      -0.954   1.051  -1.026  1.00  0.00     0.107 A 
HETATM    5  C5  UNL     1      -0.183   1.722  -1.895  1.00  0.00     0.052 A 
HETATM    6  C6  UNL     1      -0.723   2.604  -2.749  1.00  0.00     0.131 A 
HETATM    7  O1  UNL     1       0.013   3.246  -3.691  1.00  0.00    -0.190 OA
HETATM    8  C7  UNL     1       1.062   1.286  -1.633  1.00  0.00     0.052 A 
HETATM    9  C8  UNL     1       0.903   0.420  -0.621  1.00  0.00     0.107 A 
HETATM   10  O2  UNL     1      -0.286   0.297  -0.322  1.00  0.00    -0.307 OA
HETATM   11  C9  UNL     1       1.933  -0.202  -0.003  1.00  0.00     0.083 A 
HETATM   12  C10 UNL     1       3.166   0.038  -0.513  1.00  0.00     0.134 A 
HETATM   13  C11 UNL     1       3.321   0.903  -1.543  1.00  0.00     0.029 A 
HETATM   14  C12 UNL     1       2.285   1.555  -2.110  1.00  0.00     0.131 A 
HETATM   15  O3  UNL     1       2.514   2.462  -3.092  1.00  0.00    -0.190 OA
HETATM   16  C13 UNL     1       4.722   1.159  -2.080  1.00  0.00     0.035 C 
HETATM   17  O4  UNL     1       4.310  -0.507  -0.013  1.00  0.00    -0.190 OA
HETATM   18  O7  UNL     1      -4.172   2.413  -1.784  1.00  0.00    -0.190 OA
HETATM   19  C24 UNL     1      -2.702   3.829  -3.589  1.00  0.00     0.035 C 
ENDROOT
BRANCH   3  20
HETATM   20  C19 UNL     1      -3.082   0.518  -0.085  1.00  0.00     0.177 C 
HETATM   21  O6  UNL     1      -4.265   0.751   0.030  1.00  0.00    -0.291 OA
BRANCH  20  22
HETATM   22  C20 UNL     1      -2.565  -0.630   0.781  1.00  0.00     0.069 C 
BRANCH  22  23
HETATM   23  C21 UNL     1      -3.621  -1.499   1.498  1.00  0.00     0.008 C 
HETATM   24  C22 UNL     1      -4.541  -2.242   0.512  1.00  0.00     0.001 C 
HETATM   25  C23 UNL     1      -2.915  -2.530   2.402  1.00  0.00     0.001 C 
ENDBRANCH  22  23
ENDBRANCH  20  22
ENDBRANCH   3  20
BRANCH  11  26
HETATM   26  C14 UNL     1       1.658  -1.010   1.073  1.00  0.00     0.176 C 
HETATM   27  O5  UNL     1       0.520  -1.154   1.463  1.00  0.00    -0.291 OA
BRANCH  26  28
HETATM   28  C15 UNL     1       2.666  -1.784   1.933  1.00  0.00     0.062 C 
HETATM   29  C18 UNL     1       3.376  -0.832   2.915  1.00  0.00     0.008 C 
BRANCH  28  30
HETATM   30  C16 UNL     1       2.054  -2.987   2.698  1.00  0.00     0.008 C 
HETATM   31  C17 UNL     1       1.240  -2.663   3.962  1.00  0.00     0.001 C 
ENDBRANCH  28  30
ENDBRANCH  26  28
ENDBRANCH  11  26
TORSDOF 6
