REMARK  9 active torsions:
REMARK  status: ('A' for Active; 'I' for Inactive)
REMARK    1  A    between atoms: C9_9  and  C10_10 
REMARK    2  A    between atoms: C11_11  and  C12_12 
REMARK    3  A    between atoms: C13_13  and  C14_14 
REMARK    4  A    between atoms: C15_15  and  C16_16 
REMARK    5  A    between atoms: C17_17  and  C18_18 
REMARK    6  A    between atoms: C19_19  and  C20_20 
REMARK    7  A    between atoms: C21_21  and  C22_22 
REMARK    8  A    between atoms: C23_23  and  C24_24 
REMARK    9  A    between atoms: C25_25  and  C26_26 
ROOT
HETATM    1  C16 UNL     1       1.690  -0.596  -0.275  1.00  0.00    -0.004 C 
HETATM    2  C17 UNL     1       0.657   0.241  -0.059  1.00  0.00    -0.000 C 
ENDROOT
BRANCH   2   3
HETATM    3  C18 UNL     1      -0.609  -0.188   0.117  1.00  0.00    -0.000 C 
HETATM    4  C19 UNL     1      -1.650   0.644   0.314  1.00  0.00    -0.004 C 
BRANCH   4   5
HETATM    5  C20 UNL     1      -2.945   0.315   0.525  1.00  0.00    -0.022 C 
HETATM    6  C21 UNL     1      -3.843   1.317   0.680  1.00  0.00    -0.004 C 
HETATM    7  C37 UNL     1      -3.421  -1.127   0.593  1.00  0.00     0.031 C 
BRANCH   6   8
HETATM    8  C22 UNL     1      -5.157   1.161   0.937  1.00  0.00    -0.001 C 
HETATM    9  C23 UNL     1      -6.023   2.185   1.069  1.00  0.00    -0.004 C 
BRANCH   9  10
HETATM   10  C24 UNL     1      -7.341   2.116   1.371  1.00  0.00    -0.022 C 
HETATM   11  C25 UNL     1      -8.040   3.275   1.454  1.00  0.00    -0.005 C 
HETATM   12  C36 UNL     1      -8.047   0.792   1.623  1.00  0.00     0.031 C 
BRANCH  11  13
HETATM   13  C26 UNL     1      -9.332   3.401   1.814  1.00  0.00    -0.005 C 
HETATM   14  C27 UNL     1     -10.144   4.482   1.913  1.00  0.00    -0.026 C 
HETATM   15  C28 UNL     1     -11.461   4.258   2.182  1.00  0.00    -0.023 C 
HETATM   16  C33 UNL     1      -9.701   5.924   1.595  1.00  0.00     0.026 C 
HETATM   17  C29 UNL     1     -12.051   2.857   2.324  1.00  0.00     0.031 C 
HETATM   18  C30 UNL     1     -12.365   5.253   2.278  1.00  0.00     0.033 C 
HETATM   19  C31 UNL     1     -12.082   6.575   2.274  1.00  0.00     0.173 C 
HETATM   20  C32 UNL     1     -10.621   6.936   2.308  1.00  0.00     0.073 C 
HETATM   21  O1  UNL     1     -12.942   7.425   2.336  1.00  0.00    -0.291 OA
HETATM   22  C34 UNL     1      -8.278   6.355   2.027  1.00  0.00     0.005 C 
HETATM   23  C35 UNL     1      -9.845   6.114   0.069  1.00  0.00     0.005 C 
ENDBRANCH  11  13
ENDBRANCH   9  10
ENDBRANCH   6   8
ENDBRANCH   4   5
ENDBRANCH   2   3
BRANCH   1  24
HETATM   24  C15 UNL     1       2.996  -0.281  -0.442  1.00  0.00    -0.022 C 
HETATM   25  C14 UNL     1       3.868  -1.288  -0.682  1.00  0.00    -0.004 C 
HETATM   26  C38 UNL     1       3.508   1.147  -0.366  1.00  0.00     0.031 C 
BRANCH  25  27
HETATM   27  C13 UNL     1       5.197  -1.152  -0.861  1.00  0.00    -0.001 C 
HETATM   28  C12 UNL     1       6.030  -2.184  -1.102  1.00  0.00    -0.004 C 
BRANCH  28  29
HETATM   29  C11 UNL     1       7.373  -2.099  -1.258  1.00  0.00    -0.022 C 
HETATM   30  C10 UNL     1       8.067  -3.247  -1.452  1.00  0.00    -0.005 C 
HETATM   31  C39 UNL     1       8.035  -0.731  -1.187  1.00  0.00     0.031 C 
BRANCH  30  32
HETATM   32  C9  UNL     1       9.400  -3.399  -1.559  1.00  0.00    -0.005 C 
HETATM   33  C5  UNL     1      10.179  -4.495  -1.730  1.00  0.00    -0.026 C 
HETATM   34  C4  UNL     1      11.508  -4.296  -1.955  1.00  0.00    -0.023 C 
HETATM   35  C6  UNL     1       9.648  -5.941  -1.808  1.00  0.00     0.026 C 
HETATM   36  C3  UNL     1      12.384  -5.311  -2.090  1.00  0.00     0.033 C 
HETATM   37  C40 UNL     1      12.114  -2.909  -2.147  1.00  0.00     0.031 C 
HETATM   38  C2  UNL     1      12.109  -6.617  -1.877  1.00  0.00     0.173 C 
HETATM   39  C1  UNL     1      10.739  -6.920  -1.328  1.00  0.00     0.073 C 
HETATM   40  O2  UNL     1      12.934  -7.490  -2.031  1.00  0.00    -0.291 OA
HETATM   41  C7  UNL     1       8.413  -6.318  -0.955  1.00  0.00     0.005 C 
HETATM   42  C8  UNL     1       9.334  -6.231  -3.292  1.00  0.00     0.005 C 
ENDBRANCH  30  32
ENDBRANCH  28  29
ENDBRANCH  25  27
ENDBRANCH   1  24
TORSDOF 9
