REMARK  13 active torsions:
REMARK  status: ('A' for Active; 'I' for Inactive)
REMARK    1  A    between atoms: C4_4  and  C7_9 
REMARK    2  A    between atoms: C8_10  and  C9_11 
REMARK    3  A    between atoms: C8_10  and  C16_19 
REMARK    4  A    between atoms: C9_11  and  C10_13 
REMARK    5  A    between atoms: C10_13  and  C11_14 
REMARK    6  A    between atoms: C11_14  and  C12_15 
REMARK    7  A    between atoms: C12_15  and  C13_16 
REMARK    8  A    between atoms: C13_16  and  C14_17 
REMARK    9  A    between atoms: C16_19  and  C17_20 
REMARK   10  A    between atoms: C17_20  and  C18_21 
REMARK   11  A    between atoms: C18_21  and  C19_22 
REMARK   12  A    between atoms: C19_22  and  C20_23 
REMARK   13  A    between atoms: C20_23  and  C21_24 
ROOT
HETATM    1  C7  UNL     1       0.984  -0.466  -0.216  1.00  0.00     0.001 C 
HETATM    2  C8  UNL     1      -0.366  -0.444  -0.270  1.00  0.00     0.013 C 
ENDROOT
BRANCH   2   3
HETATM    3  C9  UNL     1      -1.139   0.569  -0.770  1.00  0.00     0.169 C 
HETATM    4  O3  UNL     1      -2.346   0.506  -0.680  1.00  0.00    -0.292 OA
BRANCH   3   5
HETATM    5  C10 UNL     1      -0.637   1.708  -1.659  1.00  0.00     0.069 C 
BRANCH   5   6
HETATM    6  C11 UNL     1      -1.294   3.072  -1.378  1.00  0.00     0.008 C 
BRANCH   6   7
HETATM    7  C12 UNL     1      -0.461   4.230  -1.950  1.00  0.00     0.001 C 
BRANCH   7   8
HETATM    8  C13 UNL     1      -1.141   5.593  -1.743  1.00  0.00     0.000 C 
BRANCH   8   9
HETATM    9  C14 UNL     1      -0.240   6.755  -2.189  1.00  0.00     0.000 C 
HETATM   10  C15 UNL     1      -0.944   8.110  -2.045  1.00  0.00     0.000 C 
ENDBRANCH   8   9
ENDBRANCH   7   8
ENDBRANCH   6   7
ENDBRANCH   5   6
ENDBRANCH   3   5
ENDBRANCH   2   3
BRANCH   2  11
HETATM   11  C16 UNL     1      -1.174  -1.671   0.171  1.00  0.00     0.029 C 
BRANCH  11  12
HETATM   12  C17 UNL     1      -0.426  -2.930   0.645  1.00  0.00     0.005 C 
BRANCH  12  13
HETATM   13  C18 UNL     1      -1.389  -4.058   1.059  1.00  0.00     0.000 C 
BRANCH  13  14
HETATM   14  C19 UNL     1      -0.631  -5.335   1.459  1.00  0.00     0.000 C 
BRANCH  14  15
HETATM   15  C20 UNL     1      -1.582  -6.490   1.811  1.00  0.00     0.000 C 
BRANCH  15  16
HETATM   16  C21 UNL     1      -0.817  -7.774   2.171  1.00  0.00     0.000 C 
HETATM   17  C22 UNL     1      -1.766  -8.937   2.491  1.00  0.00     0.000 C 
ENDBRANCH  15  16
ENDBRANCH  14  15
ENDBRANCH  13  14
ENDBRANCH  12  13
ENDBRANCH  11  12
ENDBRANCH   2  11
BRANCH   1  18
HETATM   18  C4  UNL     1       1.948   0.478  -0.248  1.00  0.00     0.027 A 
HETATM   19  C3  UNL     1       3.176   0.125  -0.679  1.00  0.00     0.002 A 
HETATM   20  C2  UNL     1       4.182   1.010  -0.732  1.00  0.00     0.002 A 
HETATM   21  C1  UNL     1       3.979   2.262  -0.304  1.00  0.00     0.029 A 
HETATM   22  C6  UNL     1       2.789   2.622   0.201  1.00  0.00     0.156 A 
HETATM   23  C5  UNL     1       1.783   1.726   0.244  1.00  0.00     0.156 A 
HETATM   24  O1  UNL     1       2.605   3.879   0.685  1.00  0.00    -0.188 OA
HETATM   25  O2  UNL     1       0.629   2.114   0.853  1.00  0.00    -0.188 OA
ENDBRANCH   1  18
TORSDOF 13
