REMARK  1 active torsions:
REMARK  status: ('A' for Active; 'I' for Inactive)
REMARK    1  A    between atoms: C5_6  and  O1_7 
ROOT
HETATM    1  C1  UNL     1      -1.111   0.228  -0.021  1.00  0.00     0.044 A 
HETATM    2  C2  UNL     1      -0.465   1.396   0.087  1.00  0.00     0.081 A 
HETATM    3  N1  UNL     1       0.876   1.438   0.213  1.00  0.00    -0.292 N 
HETATM    4  C3  UNL     1       1.592   0.273   0.228  1.00  0.00     0.273 A 
HETATM    5  C4  UNL     1       0.903  -0.895   0.118  1.00  0.00     0.146 A 
HETATM    6  C5  UNL     1      -0.443  -0.943   0.002  1.00  0.00     0.110 A 
HETATM    7  C7  UNL     1       1.580  -2.030   0.129  1.00  0.00     0.108 C 
HETATM    8  N2  UNL     1       2.154  -3.037   0.136  1.00  0.00    -0.191 NA
HETATM    9  O2  UNL     1       2.797   0.258   0.331  1.00  0.00    -0.266 OA
HETATM   10  C8  UNL     1       1.596   2.706   0.325  1.00  0.00     0.134 C 
ENDROOT
BRANCH   6  11
HETATM   11  O1  UNL     1      -1.046  -2.174  -0.127  1.00  0.00    -0.327 OA
HETATM   12  C6  UNL     1      -2.397  -2.244  -0.519  1.00  0.00     0.181 C 
ENDBRANCH   6  11
TORSDOF 1
