REMARK  15 active torsions:
REMARK  status: ('A' for Active; 'I' for Inactive)
REMARK    1  A    between atoms: C7_10  and  O4_14 
REMARK    2  A    between atoms: C8_11  and  C9_12 
REMARK    3  A    between atoms: O4_14  and  C11_15 
REMARK    4  A    between atoms: C12_17  and  O19_51 
REMARK    5  A    between atoms: C13_18  and  O10_29 
REMARK    6  A    between atoms: C14_19  and  O8_25 
REMARK    7  A    between atoms: C15_20  and  O6_21 
REMARK    8  A    between atoms: O6_21  and  C16_22 
REMARK    9  A    between atoms: O8_25  and  C18_26 
REMARK   10  A    between atoms: O10_29  and  C20_30 
REMARK   11  A    between atoms: C20_30  and  C21_32 
REMARK   12  A    between atoms: C23_34  and  O12_38 
REMARK   13  A    between atoms: O12_38  and  C27_39 
REMARK   14  A    between atoms: C28_41  and  C32_48 
REMARK   15  A    between atoms: O19_51  and  C33_52 
ROOT
HETATM    1  C11 UNL     1      -1.682   2.670  -0.528  1.00  0.00     0.271 C 
HETATM    2  O5  UNL     1      -2.283   1.577   0.127  1.00  0.00    -0.302 OA
HETATM    3  C12 UNL     1      -1.352   0.758   0.809  1.00  0.00     0.275 C 
HETATM    4  C13 UNL     1      -0.211   0.278  -0.082  1.00  0.00     0.211 C 
HETATM    5  C14 UNL     1       0.374   1.391  -0.965  1.00  0.00     0.190 C 
HETATM    6  C15 UNL     1      -0.740   2.205  -1.622  1.00  0.00     0.211 C 
ENDROOT
BRANCH   4   7
HETATM    7  O10 UNL     1      -0.690  -0.756  -0.902  1.00  0.00    -0.293 OA
BRANCH   7   8
HETATM    8  C20 UNL     1       0.006  -1.914  -1.177  1.00  0.00     0.298 C 
HETATM    9  O11 UNL     1      -0.147  -2.305  -2.318  1.00  0.00    -0.259 OA
BRANCH   8  10
HETATM   10  C21 UNL     1       0.765  -2.697  -0.341  1.00  0.00     0.090 A 
HETATM   11  C22 UNL     1       1.482  -3.749  -0.814  1.00  0.00     0.158 A 
HETATM   12  C23 UNL     1       2.248  -4.515   0.002  1.00  0.00     0.122 A 
HETATM   13  O18 UNL     1       1.494  -4.079  -2.142  1.00  0.00    -0.188 OA
HETATM   14  C24 UNL     1       2.308  -4.191   1.306  1.00  0.00     0.026 A 
HETATM   15  C25 UNL     1       1.570  -3.193   1.804  1.00  0.00     0.002 A 
HETATM   16  C26 UNL     1       0.794  -2.471   0.986  1.00  0.00     0.007 A 
BRANCH  12  17
HETATM   17  O12 UNL     1       2.966  -5.539  -0.570  1.00  0.00    -0.301 OA
BRANCH  17  18
HETATM   18  C27 UNL     1       4.080  -6.112   0.074  1.00  0.00     0.274 C 
HETATM   19  O13 UNL     1       3.560  -6.964   1.068  1.00  0.00    -0.326 OA
HETATM   20  C28 UNL     1       4.571  -7.616   1.785  1.00  0.00     0.184 C 
HETATM   21  C29 UNL     1       5.314  -8.563   0.850  1.00  0.00     0.215 C 
HETATM   22  C30 UNL     1       5.869  -7.831  -0.358  1.00  0.00     0.220 C 
HETATM   23  O16 UNL     1       6.395  -9.161   1.526  1.00  0.00    -0.218 OA
HETATM   24  C31 UNL     1       4.816  -6.927  -0.971  1.00  0.00     0.241 C 
HETATM   25  O15 UNL     1       6.960  -7.047   0.063  1.00  0.00    -0.218 OA
HETATM   26  O14 UNL     1       3.868  -7.715  -1.658  1.00  0.00    -0.215 OA
BRANCH  20  27
HETATM   27  C32 UNL     1       3.932  -8.348   2.957  1.00  0.00     0.214 C 
HETATM   28  O17 UNL     1       3.405  -7.404   3.869  1.00  0.00    -0.218 OA
ENDBRANCH  20  27
ENDBRANCH  17  18
ENDBRANCH  12  17
ENDBRANCH   8  10
ENDBRANCH   7   8
ENDBRANCH   4   7
BRANCH   3  29
HETATM   29  O19 UNL     1      -0.905   1.527   1.906  1.00  0.00    -0.273 OA
BRANCH  29  30
HETATM   30  C33 UNL     1      -0.783   0.922   3.118  1.00  0.00     0.274 C 
HETATM   31  C34 UNL     1      -0.425   1.944   4.177  1.00  0.00     0.106 C 
HETATM   32  O20 UNL     1      -0.949  -0.258   3.328  1.00  0.00    -0.264 OA
ENDBRANCH  29  30
ENDBRANCH   3  29
BRANCH   5  33
HETATM   33  O8  UNL     1       1.160   2.268  -0.203  1.00  0.00    -0.299 OA
BRANCH  33  34
HETATM   34  C18 UNL     1       2.406   1.865   0.165  1.00  0.00     0.273 C 
HETATM   35  C19 UNL     1       3.064   2.929   1.020  1.00  0.00     0.106 C 
HETATM   36  O9  UNL     1       2.903   0.801  -0.125  1.00  0.00    -0.264 OA
ENDBRANCH  33  34
ENDBRANCH   5  33
BRANCH   6  37
HETATM   37  O6  UNL     1      -1.411   1.415  -2.564  1.00  0.00    -0.296 OA
BRANCH  37  38
HETATM   38  C16 UNL     1      -1.914   1.997  -3.685  1.00  0.00     0.273 C 
HETATM   39  C17 UNL     1      -2.636   0.967  -4.532  1.00  0.00     0.106 C 
HETATM   40  O7  UNL     1      -1.811   3.167  -3.976  1.00  0.00    -0.264 OA
ENDBRANCH  37  38
ENDBRANCH   6  37
BRANCH   1  41
HETATM   41  O4  UNL     1      -2.745   3.410  -1.091  1.00  0.00    -0.303 OA
BRANCH  41  42
HETATM   42  C7  UNL     1      -3.174   4.496  -0.292  1.00  0.00     0.248 C 
HETATM   43  O3  UNL     1      -2.084   5.394  -0.298  1.00  0.00    -0.303 OA
HETATM   44  C6  UNL     1      -2.324   6.735  -0.232  1.00  0.00     0.122 C 
HETATM   45  C4  UNL     1      -3.545   7.295  -0.196  1.00  0.00     0.093 C 
HETATM   46  C3  UNL     1      -4.761   6.413  -0.206  1.00  0.00     0.163 C 
HETATM   47  C5  UNL     1      -3.705   8.648  -0.134  1.00  0.00     0.296 C 
HETATM   48  C2  UNL     1      -5.900   7.179  -0.866  1.00  0.00     0.068 C 
HETATM   49  C8  UNL     1      -4.413   5.109  -0.927  1.00  0.00     0.111 C 
HETATM   50  O21 UNL     1      -5.093   6.138   1.136  1.00  0.00    -0.221 OA
HETATM   51  C1  UNL     1      -6.099   8.526  -0.181  1.00  0.00     0.155 C 
HETATM   52  O1  UNL     1      -4.917   9.278  -0.107  1.00  0.00    -0.298 OA
HETATM   53  O2  UNL     1      -2.709   9.343  -0.096  1.00  0.00    -0.259 OA
BRANCH  49  54
HETATM   54  C9  UNL     1      -5.564   4.129  -0.905  1.00  0.00    -0.019 C 
HETATM   55  C10 UNL     1      -6.258   3.765  -1.993  1.00  0.00    -0.005 C 
ENDBRANCH  49  54
ENDBRANCH  41  42
ENDBRANCH   1  41
TORSDOF 15
