REMARK  1 active torsions:
REMARK  status: ('A' for Active; 'I' for Inactive)
REMARK    1  A    between atoms: C7_8  and  C10_13 
ROOT
HETATM    1  C1  UNL     1      -4.054   1.998   0.047  1.00  0.00     0.133 A 
HETATM    2  C2  UNL     1      -3.554   3.244   0.064  1.00  0.00     0.028 A 
HETATM    3  C3  UNL     1      -2.230   3.453   0.065  1.00  0.00     0.007 A 
HETATM    4  C4  UNL     1      -1.375   2.414   0.050  1.00  0.00     0.064 A 
HETATM    5  C5  UNL     1      -1.843   1.156   0.041  1.00  0.00     0.105 A 
HETATM    6  C6  UNL     1      -3.178   0.981   0.038  1.00  0.00     0.052 A 
HETATM    7  O1  UNL     1      -1.019   0.074   0.025  1.00  0.00    -0.305 OA
HETATM    8  C7  UNL     1       0.340   0.276   0.022  1.00  0.00     0.129 A 
HETATM    9  C8  UNL     1       0.814   1.545   0.003  1.00  0.00     0.192 A 
HETATM   10  C9  UNL     1      -0.032   2.616   0.036  1.00  0.00     0.225 A 
HETATM   11  O2  UNL     1       0.421   3.741   0.022  1.00  0.00    -0.284 OA
HETATM   12  O3  UNL     1       2.125   1.887  -0.144  1.00  0.00    -0.185 OA
HETATM   13  O7  UNL     1      -5.395   1.771   0.036  1.00  0.00    -0.190 OA
ENDROOT
BRANCH   8  14
HETATM   14  C10 UNL     1       1.121  -0.842   0.014  1.00  0.00     0.029 A 
HETATM   15  C11 UNL     1       0.522  -2.050  -0.086  1.00  0.00     0.032 A 
HETATM   16  C12 UNL     1       1.177  -3.223  -0.111  1.00  0.00     0.158 A 
HETATM   17  C13 UNL     1       2.515  -3.225  -0.026  1.00  0.00     0.181 A 
HETATM   18  O6  UNL     1       0.519  -4.410  -0.219  1.00  0.00    -0.188 OA
HETATM   19  C14 UNL     1       3.165  -2.058   0.096  1.00  0.00     0.158 A 
HETATM   20  O5  UNL     1       3.212  -4.391  -0.049  1.00  0.00    -0.186 OA
HETATM   21  C15 UNL     1       2.463  -0.913   0.129  1.00  0.00     0.032 A 
HETATM   22  O4  UNL     1       4.520  -2.057   0.212  1.00  0.00    -0.188 OA
ENDBRANCH   8  14
TORSDOF 1
