REMARK  4 active torsions:
REMARK  status: ('A' for Active; 'I' for Inactive)
REMARK    1  A    between atoms: C2_2  and  C23_26 
REMARK    2  A    between atoms: C6_6  and  C7_7 
REMARK    3  A    between atoms: C10_12  and  C11_13 
REMARK    4  A    between atoms: C11_13  and  C12_14 
ROOT
HETATM    1  C1  UNL     1      -3.653   1.475   0.643  1.00  0.00     0.141 A 
HETATM    2  C2  UNL     1      -3.740   0.127   0.595  1.00  0.00     0.093 A 
HETATM    3  C3  UNL     1      -2.633  -0.644   0.633  1.00  0.00     0.134 A 
HETATM    4  C4  UNL     1      -1.420  -0.065   0.739  1.00  0.00     0.026 A 
HETATM    5  C5  UNL     1      -1.303   1.280   0.749  1.00  0.00     0.097 A 
HETATM    6  C6  UNL     1      -2.425   2.040   0.706  1.00  0.00     0.090 A 
HETATM    7  O2  UNL     1      -0.068   1.880   0.731  1.00  0.00    -0.336 OA
HETATM    8  C8  UNL     1       0.976   1.200   0.103  1.00  0.00     0.099 C 
HETATM    9  C9  UNL     1       1.112  -0.104   0.885  1.00  0.00     0.032 C 
HETATM   10  C10 UNL     1      -0.174  -0.947   0.826  1.00  0.00     0.029 C 
HETATM   11  C15 UNL     1       0.629   1.005  -1.383  1.00  0.00     0.025 C 
HETATM   12  C16 UNL     1       1.814   0.723  -2.356  1.00  0.00     0.002 C 
HETATM   13  C17 UNL     1       2.043   2.257  -2.308  1.00  0.00     0.000 C 
HETATM   14  C18 UNL     1       2.769   2.734  -1.044  1.00  0.00     0.002 C 
HETATM   15  C19 UNL     1       2.241   2.081   0.254  1.00  0.00     0.028 C 
HETATM   16  C20 UNL     1       0.522   2.403  -2.062  1.00  0.00     0.002 C 
HETATM   17  C21 UNL     1       1.350   0.207  -3.733  1.00  0.00     0.000 C 
HETATM   18  C22 UNL     1       2.979  -0.163  -1.902  1.00  0.00     0.000 C 
HETATM   19  O3  UNL     1      -2.726  -2.002   0.552  1.00  0.00    -0.190 OA
HETATM   20  O5  UNL     1      -4.803   2.214   0.631  1.00  0.00    -0.190 OA
ENDROOT
BRANCH  10  21
HETATM   21  C11 UNL     1      -0.214  -1.922   2.033  1.00  0.00     0.005 C 
BRANCH  21  22
HETATM   22  C12 UNL     1       0.231  -3.366   1.718  1.00  0.00     0.000 C 
HETATM   23  C13 UNL     1      -0.075  -4.289   2.912  1.00  0.00     0.000 C 
HETATM   24  C14 UNL     1       1.722  -3.456   1.355  1.00  0.00     0.000 C 
ENDBRANCH  21  22
ENDBRANCH  10  21
BRANCH   6  25
HETATM   25  C7  UNL     1      -2.275   3.398   0.723  1.00  0.00     0.238 C 
HETATM   26  O1  UNL     1      -3.146   4.231   0.666  1.00  0.00    -0.283 OA
ENDBRANCH   6  25
BRANCH   2  27
HETATM   27  C23 UNL     1      -4.955  -0.490   0.504  1.00  0.00     0.238 C 
HETATM   28  O4  UNL     1      -6.041   0.036   0.449  1.00  0.00    -0.283 OA
ENDBRANCH   2  27
TORSDOF 4
