REMARK  9 active torsions:
REMARK  status: ('A' for Active; 'I' for Inactive)
REMARK    1  A    between atoms: C1_1  and  C3_3 
REMARK    2  A    between atoms: C3_3  and  C4_4 
REMARK    3  A    between atoms: C5_5  and  O1_6 
REMARK    4  A    between atoms: C9_10  and  C11_13 
REMARK    5  A    between atoms: C11_13  and  C12_14 
REMARK    6  A    between atoms: C14_16  and  C23_28 
REMARK    7  A    between atoms: C16_18  and  C18_21 
REMARK    8  A    between atoms: C18_21  and  C19_22 
REMARK    9  A    between atoms: C19_22  and  C20_23 
ROOT
HETATM    1  C12 UNL     1      -1.983  -1.531   0.730  1.00  0.00     0.051 A 
HETATM    2  C13 UNL     1      -2.549  -2.100   1.811  1.00  0.00     0.138 A 
HETATM    3  C14 UNL     1      -1.911  -3.120   2.423  1.00  0.00     0.093 A 
HETATM    4  C15 UNL     1      -0.702  -3.548   1.986  1.00  0.00     0.141 A 
HETATM    5  C16 UNL     1      -0.117  -2.945   0.917  1.00  0.00     0.086 A 
HETATM    6  C17 UNL     1      -0.786  -1.956   0.276  1.00  0.00     0.138 A 
HETATM    7  O3  UNL     1      -0.283  -1.319  -0.815  1.00  0.00    -0.190 OA
HETATM    8  O5  UNL     1      -0.129  -4.606   2.636  1.00  0.00    -0.190 OA
HETATM    9  O7  UNL     1      -3.768  -1.649   2.231  1.00  0.00    -0.190 OA
ENDROOT
BRANCH   1  10
HETATM   10  C11 UNL     1      -2.724  -0.398   0.017  1.00  0.00     0.008 C 
BRANCH  10  11
HETATM   11  C9  UNL     1      -2.125   0.981  -0.292  1.00  0.00     0.051 A 
HETATM   12  C8  UNL     1      -2.844   1.735  -1.144  1.00  0.00     0.131 A 
HETATM   13  C7  UNL     1      -2.406   2.954  -1.497  1.00  0.00     0.026 A 
HETATM   14  O8  UNL     1      -4.026   1.270  -1.643  1.00  0.00    -0.190 OA
HETATM   15  C5  UNL     1      -1.250   3.453  -1.005  1.00  0.00     0.097 A 
HETATM   16  C24 UNL     1      -3.265   3.741  -2.479  1.00  0.00     0.035 C 
HETATM   17  C4  UNL     1      -0.480   2.667  -0.201  1.00  0.00     0.082 A 
HETATM   18  C10 UNL     1      -0.951   1.452   0.184  1.00  0.00     0.138 A 
HETATM   19  O2  UNL     1      -0.283   0.684   1.079  1.00  0.00    -0.190 OA
BRANCH  15  20
HETATM   20  O1  UNL     1      -0.848   4.684  -1.477  1.00  0.00    -0.328 OA
HETATM   21  C6  UNL     1      -1.274   5.773  -0.685  1.00  0.00     0.181 C 
ENDBRANCH  15  20
BRANCH  17  22
HETATM   22  C3  UNL     1       0.750   3.136   0.204  1.00  0.00     0.176 C 
HETATM   23  O9  UNL     1       1.136   4.250  -0.075  1.00  0.00    -0.291 OA
BRANCH  22  24
HETATM   24  C1  UNL     1       1.839   2.376   0.983  1.00  0.00     0.062 C 
HETATM   25  C2  UNL     1       2.510   1.335   0.066  1.00  0.00     0.008 C 
HETATM   26  C25 UNL     1       2.946   3.298   1.547  1.00  0.00     0.008 C 
ENDBRANCH  22  24
ENDBRANCH  17  22
ENDBRANCH  10  11
ENDBRANCH   1  10
BRANCH   3  27
HETATM   27  C23 UNL     1      -2.498  -3.710   3.506  1.00  0.00     0.238 C 
HETATM   28  O6  UNL     1      -2.083  -4.619   4.187  1.00  0.00    -0.283 OA
ENDBRANCH   3  27
BRANCH   5  29
HETATM   29  C18 UNL     1       1.139  -3.334   0.515  1.00  0.00     0.177 C 
HETATM   30  O4  UNL     1       1.757  -4.196   1.096  1.00  0.00    -0.291 OA
BRANCH  29  31
HETATM   31  C19 UNL     1       1.950  -2.709  -0.623  1.00  0.00     0.069 C 
BRANCH  31  32
HETATM   32  C20 UNL     1       3.373  -3.268  -0.856  1.00  0.00     0.008 C 
HETATM   33  C21 UNL     1       3.345  -4.663  -1.504  1.00  0.00     0.001 C 
HETATM   34  C22 UNL     1       4.183  -2.304  -1.743  1.00  0.00     0.001 C 
ENDBRANCH  31  32
ENDBRANCH  29  31
ENDBRANCH   5  29
TORSDOF 9
