REMARK  3 active torsions:
REMARK  status: ('A' for Active; 'I' for Inactive)
REMARK    1  A    between atoms: C5_5  and  O2_12 
REMARK    2  A    between atoms: C6_6  and  C7_7 
REMARK    3  A    between atoms: C7_7  and  C8_9 
ROOT
HETATM    1  C1  UNL     1       2.355  -0.062   0.098  1.00  0.00     0.138 A 
HETATM    2  C2  UNL     1       2.784  -1.121   0.807  1.00  0.00     0.055 A 
HETATM    3  C3  UNL     1       1.958  -2.026   1.339  1.00  0.00     0.135 A 
HETATM    4  C4  UNL     1       0.653  -1.830   1.124  1.00  0.00     0.052 A 
HETATM    5  C5  UNL     1       0.155  -0.807   0.399  1.00  0.00     0.101 A 
HETATM    6  C6  UNL     1       1.022   0.102  -0.122  1.00  0.00     0.086 A 
HETATM    7  O3  UNL     1       2.414  -3.087   2.060  1.00  0.00    -0.190 OA
HETATM    8  O4  UNL     1       3.349   0.740  -0.389  1.00  0.00    -0.190 OA
ENDROOT
BRANCH   6   9
HETATM    9  C7  UNL     1       0.599   1.186  -0.853  1.00  0.00     0.192 C 
HETATM   10  O1  UNL     1       1.408   2.014  -1.213  1.00  0.00    -0.287 OA
BRANCH   9  11
HETATM   11  C8  UNL     1      -0.816   1.574  -1.332  1.00  0.00    -0.004 C 
HETATM   12  C9  UNL     1      -1.591   0.549  -2.181  1.00  0.00     0.030 C 
HETATM   13  C10 UNL     1      -1.662   2.330  -0.294  1.00  0.00     0.030 C 
ENDBRANCH   9  11
ENDBRANCH   6   9
BRANCH   5  14
HETATM   14  O2  UNL     1      -1.199  -0.660   0.262  1.00  0.00    -0.328 OA
HETATM   15  C11 UNL     1      -2.071  -1.207   1.224  1.00  0.00     0.181 C 
ENDBRANCH   5  14
TORSDOF 3
