REMARK  6 active torsions:
REMARK  status: ('A' for Active; 'I' for Inactive)
REMARK    1  A    between atoms: C3_3  and  C29_31 
REMARK    2  A    between atoms: C15_15  and  C18_18 
REMARK    3  A    between atoms: C18_18  and  C19_19 
REMARK    4  A    between atoms: C19_19  and  C20_20 
REMARK    5  A    between atoms: C20_20  and  C21_21 
REMARK    6  A    between atoms: C22_22  and  C23_23 
ROOT
HETATM    1  C1  UNL     1      -5.414   0.117  -3.066  1.00  0.00     0.001 C 
HETATM    2  C2  UNL     1      -5.992  -1.128  -2.389  1.00  0.00     0.006 C 
HETATM    3  C3  UNL     1      -4.972  -2.281  -2.269  1.00  0.00     0.045 C 
HETATM    4  C4  UNL     1      -3.616  -1.779  -1.775  1.00  0.00    -0.047 C 
HETATM    5  C5  UNL     1      -3.203  -0.315  -1.849  1.00  0.00     0.018 C 
HETATM    6  C6  UNL     1      -4.333   0.692  -2.151  1.00  0.00     0.004 C 
HETATM    7  C7  UNL     1      -2.337   0.059  -0.596  1.00  0.00     0.004 C 
HETATM    8  C8  UNL     1      -1.111  -0.903  -0.472  1.00  0.00     0.005 C 
HETATM    9  C9  UNL     1      -1.212  -2.182  -1.320  1.00  0.00     0.025 C 
HETATM   10  C10 UNL     1      -2.628  -2.647  -1.500  1.00  0.00    -0.035 C 
HETATM   11  C11 UNL     1       0.271  -0.211  -0.589  1.00  0.00     0.000 C 
HETATM   12  C12 UNL     1       0.390   0.942   0.456  1.00  0.00     0.000 C 
HETATM   13  C13 UNL     1      -0.633   2.026   0.065  1.00  0.00     0.000 C 
HETATM   14  C14 UNL     1      -1.912   1.552  -0.664  1.00  0.00     0.000 C 
HETATM   15  C15 UNL     1       1.910   1.303   0.392  1.00  0.00     0.000 C 
HETATM   16  C16 UNL     1       2.554  -0.098   0.259  1.00  0.00     0.000 C 
HETATM   17  C17 UNL     1       1.465  -1.096  -0.180  1.00  0.00     0.000 C 
HETATM   18  C26 UNL     1       0.121   0.528   1.929  1.00  0.00     0.000 C 
HETATM   19  C27 UNL     1       0.549   0.203  -2.063  1.00  0.00     0.000 C 
HETATM   20  C28 UNL     1      -3.246  -0.127   0.654  1.00  0.00     0.000 C 
HETATM   21  C30 UNL     1      -4.776  -2.921  -3.662  1.00  0.00     0.007 C 
ENDROOT
BRANCH  15  22
HETATM   22  C18 UNL     1       2.553   2.204   1.480  1.00  0.00     0.000 C 
HETATM   23  C25 UNL     1       1.943   3.621   1.445  1.00  0.00     0.000 C 
BRANCH  22  24
HETATM   24  C19 UNL     1       4.097   2.352   1.388  1.00  0.00     0.005 C 
BRANCH  24  25
HETATM   25  C20 UNL     1       4.916   1.168   1.938  1.00  0.00     0.026 C 
BRANCH  25  26
HETATM   26  C21 UNL     1       6.324   1.520   2.357  1.00  0.00    -0.024 C 
HETATM   27  C22 UNL     1       7.106   0.742   3.132  1.00  0.00     0.038 C 
HETATM   28  C24 UNL     1       6.663  -0.612   3.646  1.00  0.00     0.037 C 
BRANCH  27  29
HETATM   29  C23 UNL     1       8.353   1.164   3.484  1.00  0.00     0.206 C 
HETATM   30  O1  UNL     1       9.167   0.420   4.267  1.00  0.00    -0.644 OA
HETATM   31  O2  UNL     1       8.803   2.229   3.128  1.00  0.00    -0.644 OA
ENDBRANCH  27  29
ENDBRANCH  25  26
ENDBRANCH  24  25
ENDBRANCH  22  24
ENDBRANCH  15  22
BRANCH   3  32
HETATM   32  C29 UNL     1      -5.605  -3.304  -1.302  1.00  0.00     0.186 C 
HETATM   33  O3  UNL     1      -5.029  -4.592  -1.387  1.00  0.00    -0.220 OA
ENDBRANCH   3  32
TORSDOF 6
