REMARK  5 active torsions:
REMARK  status: ('A' for Active; 'I' for Inactive)
REMARK    1  A    between atoms: C7_7  and  C14_16 
REMARK    2  A    between atoms: C10_10  and  O1_11 
REMARK    3  A    between atoms: O1_11  and  C11_12 
REMARK    4  A    between atoms: C14_16  and  C15_17 
REMARK    5  A    between atoms: C15_17  and  C16_18 
ROOT
HETATM    1  C1  UNL     1      -1.890   1.341   2.244  1.00  0.00     0.000 C 
HETATM    2  C2  UNL     1      -2.302  -0.075   2.642  1.00  0.00     0.000 C 
HETATM    3  C3  UNL     1      -2.478  -0.979   1.400  1.00  0.00     0.002 C 
HETATM    4  C4  UNL     1      -1.476  -0.576   0.266  1.00  0.00     0.030 C 
HETATM    5  C5  UNL     1      -0.152   0.149   0.679  1.00  0.00     0.028 C 
HETATM    6  C6  UNL     1      -0.472   1.324   1.661  1.00  0.00     0.002 C 
HETATM    7  C7  UNL     1       0.578   0.719  -0.593  1.00  0.00     0.127 C 
HETATM    8  C8  UNL     1       0.763  -0.373  -1.674  1.00  0.00     0.031 C 
HETATM    9  C9  UNL     1      -0.585  -1.015  -2.054  1.00  0.00     0.033 C 
HETATM   10  C10 UNL     1      -1.298  -1.629  -0.848  1.00  0.00     0.124 C 
HETATM   11  C13 UNL     1       1.462   0.096  -2.964  1.00  0.00     0.003 C 
HETATM   12  O4  UNL     1      -0.249   1.699  -1.173  1.00  0.00    -0.226 OA
HETATM   13  C20 UNL     1       0.791  -0.823   1.438  1.00  0.00     0.003 C 
HETATM   14  C21 UNL     1      -2.385  -2.447   1.872  1.00  0.00     0.000 C 
HETATM   15  C22 UNL     1      -3.936  -0.794   0.893  1.00  0.00     0.000 C 
ENDROOT
BRANCH   7  16
HETATM   16  C14 UNL     1       1.923   1.393  -0.237  1.00  0.00     0.035 C 
BRANCH  16  17
HETATM   17  C15 UNL     1       2.283   2.681  -1.000  1.00  0.00     0.031 C 
BRANCH  17  18
HETATM   18  C16 UNL     1       3.617   3.205  -0.554  1.00  0.00     0.005 A 
HETATM   19  C17 UNL     1       3.865   4.213   0.293  1.00  0.00     0.025 A 
HETATM   20  C18 UNL     1       5.202   4.265   0.349  1.00  0.00     0.122 A 
HETATM   21  O3  UNL     1       5.726   3.410  -0.363  1.00  0.00    -0.303 OA
HETATM   22  C19 UNL     1       4.831   2.767  -0.910  1.00  0.00     0.118 A 
ENDBRANCH  17  18
ENDBRANCH  16  17
ENDBRANCH   7  16
BRANCH  10  23
HETATM   23  O1  UNL     1      -0.561  -2.728  -0.398  1.00  0.00    -0.304 OA
BRANCH  23  24
HETATM   24  C11 UNL     1      -0.774  -4.014  -0.798  1.00  0.00     0.272 C 
HETATM   25  O2  UNL     1      -0.099  -4.932  -0.379  1.00  0.00    -0.264 OA
HETATM   26  C12 UNL     1      -1.897  -4.261  -1.789  1.00  0.00     0.106 C 
ENDBRANCH  23  24
ENDBRANCH  10  23
TORSDOF 5
