REMARK  1 active torsions:
REMARK  status: ('A' for Active; 'I' for Inactive)
REMARK    1  A    between atoms: C16_17  and  C25_27 
ROOT
HETATM    1  C1  UNL     1      -5.107  -0.633  -0.822  1.00  0.00     0.182 C 
HETATM    2  C2  UNL     1      -5.265  -1.669   0.273  1.00  0.00     0.182 C 
HETATM    3  C3  UNL     1      -4.212  -2.791   0.205  1.00  0.00     0.031 C 
HETATM    4  C4  UNL     1      -2.802  -2.120   0.145  1.00  0.00     0.005 C 
HETATM    5  C5  UNL     1      -2.540  -0.973  -0.863  1.00  0.00     0.003 C 
HETATM    6  C6  UNL     1      -3.729   0.022  -0.766  1.00  0.00     0.036 C 
HETATM    7  C7  UNL     1      -1.152  -0.270  -0.566  1.00  0.00     0.007 C 
HETATM    8  C8  UNL     1      -0.054  -1.035   0.245  1.00  0.00     0.032 C 
HETATM    9  C9  UNL     1      -0.250  -2.519  -0.127  1.00  0.00     0.152 C 
HETATM   10  C10 UNL     1      -1.615  -3.093   0.260  1.00  0.00     0.033 C 
HETATM   11  O1  UNL     1       0.731  -3.354   0.441  1.00  0.00    -0.224 OA
HETATM   12  C11 UNL     1       1.377  -0.427  -0.129  1.00  0.00     0.020 C 
HETATM   13  C12 UNL     1       1.362   1.116  -0.026  1.00  0.00    -0.032 C 
HETATM   14  C13 UNL     1       0.191   1.779   0.002  1.00  0.00    -0.031 C 
HETATM   15  C14 UNL     1      -1.188   1.179  -0.068  1.00  0.00     0.026 C 
HETATM   16  C15 UNL     1       2.716   1.850  -0.060  1.00  0.00    -0.012 C 
HETATM   17  C16 UNL     1       3.766   1.256   0.911  1.00  0.00     0.095 C 
HETATM   18  C17 UNL     1       3.851  -0.271   0.706  1.00  0.00     0.014 C 
HETATM   19  C18 UNL     1       2.490  -0.966   0.814  1.00  0.00     0.005 C 
HETATM   20  C19 UNL     1       5.175   1.815   0.591  1.00  0.00     0.014 C 
HETATM   21  C20 UNL     1       5.221   3.345   0.556  1.00  0.00     0.004 C 
HETATM   22  C21 UNL     1       4.203   3.910  -0.452  1.00  0.00     0.032 C 
HETATM   23  C22 UNL     1       2.768   3.400  -0.149  1.00  0.00     0.142 C 
HETATM   24  C23 UNL     1       2.263   4.168   1.087  1.00  0.00     0.037 C 
HETATM   25  O2  UNL     1       1.963   3.790  -1.237  1.00  0.00    -0.222 OA
HETATM   26  C24 UNL     1       4.692   3.679  -1.898  1.00  0.00     0.003 C 
HETATM   27  C26 UNL     1       1.800  -0.808  -1.576  1.00  0.00     0.004 C 
HETATM   28  C27 UNL     1      -0.271  -0.866   1.775  1.00  0.00     0.003 C 
HETATM   29  C28 UNL     1      -2.513  -1.493  -2.327  1.00  0.00     0.000 C 
HETATM   30  C29 UNL     1      -4.323  -3.621   1.514  1.00  0.00     0.003 C 
HETATM   31  C30 UNL     1      -4.526  -3.776  -0.943  1.00  0.00     0.003 C 
HETATM   32  O5  UNL     1      -6.576  -2.176   0.190  1.00  0.00    -0.221 OA
HETATM   33  O6  UNL     1      -6.107   0.342  -0.632  1.00  0.00    -0.221 OA
ENDROOT
BRANCH  17  34
HETATM   34  C25 UNL     1       3.471   1.507   2.391  1.00  0.00     0.188 C 
HETATM   35  O3  UNL     1       4.290   1.606   3.275  1.00  0.00    -0.647 OA
HETATM   36  O4  UNL     1       2.162   1.582   2.678  1.00  0.00    -0.647 OA
ENDBRANCH  17  34
TORSDOF 1
