REMARK  16 active torsions:
REMARK  status: ('A' for Active; 'I' for Inactive)
REMARK    1  A    between atoms: C3_3  and  C4_4 
REMARK    2  A    between atoms: C4_4  and  C5_5 
REMARK    3  A    between atoms: C5_5  and  C6_6 
REMARK    4  A    between atoms: C8_8  and  C9_9 
REMARK    5  A    between atoms: C10_10  and  C11_11 
REMARK    6  A    between atoms: C12_12  and  C13_13 
REMARK    7  A    between atoms: C14_14  and  C15_15 
REMARK    8  A    between atoms: C16_16  and  C17_17 
REMARK    9  A    between atoms: C18_18  and  C19_19 
REMARK   10  A    between atoms: C20_20  and  C21_21 
REMARK   11  A    between atoms: C22_22  and  C23_23 
REMARK   12  A    between atoms: C24_24  and  C25_25 
REMARK   13  A    between atoms: C26_26  and  C27_27 
REMARK   14  A    between atoms: C28_28  and  C29_29 
REMARK   15  A    between atoms: C30_30  and  C31_31 
REMARK   16  A    between atoms: C32_32  and  C33_33 
ROOT
HETATM    1  C21 UNL     1       1.781  -1.838  -0.410  1.00  0.00    -0.001 C 
HETATM    2  C22 UNL     1       0.605  -2.422  -0.686  1.00  0.00    -0.004 C 
ENDROOT
BRANCH   2   3
HETATM    3  C23 UNL     1      -0.053  -2.209  -1.980  1.00  0.00    -0.022 C 
HETATM    4  C24 UNL     1      -1.385  -2.053  -2.053  1.00  0.00    -0.004 C 
HETATM    5  C46 UNL     1       0.746  -2.160  -3.254  1.00  0.00     0.031 C 
BRANCH   4   6
HETATM    6  C25 UNL     1      -2.211  -2.092  -0.840  1.00  0.00    -0.000 C 
HETATM    7  C26 UNL     1      -3.551  -2.074  -0.924  1.00  0.00    -0.000 C 
BRANCH   7   8
HETATM    8  C27 UNL     1      -4.377  -2.113   0.289  1.00  0.00    -0.004 C 
HETATM    9  C28 UNL     1      -5.697  -2.346   0.211  1.00  0.00    -0.022 C 
HETATM   10  C45 UNL     1      -6.309  -2.562  -1.147  1.00  0.00     0.031 C 
BRANCH   9  11
HETATM   11  C29 UNL     1      -6.570  -2.396   1.389  1.00  0.00    -0.004 C 
HETATM   12  C30 UNL     1      -6.127  -2.908   2.549  1.00  0.00    -0.001 C 
BRANCH  12  13
HETATM   13  C31 UNL     1      -7.002  -2.959   3.727  1.00  0.00    -0.006 C 
HETATM   14  C32 UNL     1      -6.481  -2.980   4.965  1.00  0.00    -0.013 C 
HETATM   15  C44 UNL     1      -4.984  -2.951   5.115  1.00  0.00     0.029 C 
BRANCH  14  16
HETATM   16  C33 UNL     1      -7.277  -3.033   6.242  1.00  0.00     0.155 C 
HETATM   17  C34 UNL     1      -8.168  -1.834   6.418  1.00  0.00     0.001 C 
HETATM   18  C35 UNL     1      -9.383  -2.258   6.789  1.00  0.00    -0.022 C 
HETATM   19  C36 UNL     1      -9.404  -3.756   6.902  1.00  0.00     0.111 C 
HETATM   20  C40 UNL     1     -10.621  -1.428   7.061  1.00  0.00     0.019 C 
HETATM   21  O1  UNL     1      -8.213  -4.102   6.209  1.00  0.00    -0.349 OA
HETATM   22  C37 UNL     1     -10.627  -4.371   6.203  1.00  0.00     0.064 C 
HETATM   23  C43 UNL     1      -9.258  -4.211   8.352  1.00  0.00     0.034 C 
HETATM   24  C38 UNL     1     -11.897  -3.633   6.680  1.00  0.00     0.155 C 
HETATM   25  C39 UNL     1     -11.826  -2.117   6.385  1.00  0.00     0.037 C 
HETATM   26  O2  UNL     1     -13.018  -4.178   6.014  1.00  0.00    -0.223 OA
HETATM   27  C41 UNL     1     -10.830  -1.355   8.576  1.00  0.00     0.004 C 
HETATM   28  C42 UNL     1     -10.471   0.000   6.516  1.00  0.00     0.004 C 
ENDBRANCH  14  16
ENDBRANCH  12  13
ENDBRANCH   9  11
ENDBRANCH   7   8
ENDBRANCH   4   6
ENDBRANCH   2   3
BRANCH   1  29
HETATM   29  C20 UNL     1       2.441  -2.051   0.883  1.00  0.00    -0.004 C 
HETATM   30  C19 UNL     1       3.549  -1.367   1.209  1.00  0.00    -0.022 C 
HETATM   31  C47 UNL     1       4.184  -1.625   2.549  1.00  0.00     0.031 C 
BRANCH  30  32
HETATM   32  C18 UNL     1       4.125  -0.391   0.277  1.00  0.00    -0.004 C 
HETATM   33  C17 UNL     1       5.457  -0.283   0.135  1.00  0.00    -0.001 C 
BRANCH  33  34
HETATM   34  C16 UNL     1       6.033   0.693  -0.795  1.00  0.00    -0.004 C 
HETATM   35  C15 UNL     1       7.365   0.799  -0.939  1.00  0.00    -0.022 C 
HETATM   36  C48 UNL     1       8.250  -0.105  -0.125  1.00  0.00     0.031 C 
BRANCH  35  37
HETATM   37  C14 UNL     1       7.942   1.776  -1.871  1.00  0.00    -0.004 C 
HETATM   38  C13 UNL     1       7.479   3.035  -1.916  1.00  0.00    -0.001 C 
BRANCH  38  39
HETATM   39  C12 UNL     1       8.055   4.012  -2.848  1.00  0.00    -0.004 C 
HETATM   40  C11 UNL     1       7.602   5.276  -2.883  1.00  0.00    -0.022 C 
HETATM   41  C49 UNL     1       6.488   5.666  -1.945  1.00  0.00     0.031 C 
BRANCH  40  42
HETATM   42  C10 UNL     1       8.178   6.252  -3.815  1.00  0.00    -0.004 C 
HETATM   43  C9  UNL     1       8.496   5.897  -5.068  1.00  0.00    -0.001 C 
BRANCH  43  44
HETATM   44  C8  UNL     1       9.074   6.873  -6.000  1.00  0.00    -0.009 C 
HETATM   45  C6  UNL     1       9.776   6.467  -7.070  1.00  0.00    -0.044 C 
HETATM   46  C7  UNL     1      10.346   7.510  -7.994  1.00  0.00     0.026 C 
BRANCH  45  47
HETATM   47  C5  UNL     1       9.955   4.990  -7.293  1.00  0.00     0.027 C 
BRANCH  47  48
HETATM   48  C4  UNL     1       8.777   4.365  -8.043  1.00  0.00     0.030 C 
BRANCH  48  49
HETATM   49  C3  UNL     1       8.942   2.881  -8.238  1.00  0.00    -0.034 C 
HETATM   50  C2  UNL     1       7.871   2.162  -8.611  1.00  0.00    -0.048 C 
HETATM   51  C1  UNL     1       8.024   0.670  -8.754  1.00  0.00     0.026 C 
HETATM   52  C50 UNL     1       6.574   2.883  -8.867  1.00  0.00     0.026 C 
ENDBRANCH  48  49
ENDBRANCH  47  48
ENDBRANCH  45  47
ENDBRANCH  43  44
ENDBRANCH  40  42
ENDBRANCH  38  39
ENDBRANCH  35  37
ENDBRANCH  33  34
ENDBRANCH  30  32
ENDBRANCH   1  29
TORSDOF 16
