REMARK  1 active torsions:
REMARK  status: ('A' for Active; 'I' for Inactive)
REMARK    1  A    between atoms: C1_1  and  O5_19 
ROOT
HETATM    1  C1  UNL     1      -3.272   0.172   0.045  1.00  0.00     0.096 A 
HETATM    2  C2  UNL     1      -3.027  -0.840  -0.910  1.00  0.00     0.052 A 
HETATM    3  C3  UNL     1      -1.703  -1.223  -1.231  1.00  0.00     0.135 A 
HETATM    4  C4  UNL     1      -0.602  -0.584  -0.588  1.00  0.00     0.051 A 
HETATM    5  C5  UNL     1      -0.857   0.441   0.381  1.00  0.00     0.008 A 
HETATM    6  C6  UNL     1      -2.191   0.813   0.691  1.00  0.00     0.025 A 
HETATM    7  C7  UNL     1       0.219   1.092   1.033  1.00  0.00     0.025 A 
HETATM    8  C8  UNL     1       1.551   0.734   0.732  1.00  0.00     0.105 A 
HETATM    9  C9  UNL     1       1.813  -0.281  -0.225  1.00  0.00     0.087 A 
HETATM   10  C10 UNL     1       0.744  -0.945  -0.885  1.00  0.00     0.138 A 
HETATM   11  O1  UNL     1       1.021  -1.902  -1.785  1.00  0.00    -0.190 OA
HETATM   12  C11 UNL     1       3.232  -0.633  -0.516  1.00  0.00     0.201 A 
HETATM   13  C12 UNL     1       4.242   0.139   0.240  1.00  0.00     0.062 A 
HETATM   14  C13 UNL     1       3.871   1.088   1.127  1.00  0.00     0.081 A 
HETATM   15  O2  UNL     1       2.570   1.365   1.357  1.00  0.00    -0.311 OA
HETATM   16  C14 UNL     1       4.947   1.840   1.863  1.00  0.00     0.058 C 
HETATM   17  O3  UNL     1       3.645  -1.467  -1.289  1.00  0.00    -0.286 OA
HETATM   18  O4  UNL     1      -1.523  -2.187  -2.143  1.00  0.00    -0.190 OA
ENDROOT
BRANCH   1  19
HETATM   19  O5  UNL     1      -4.531   0.525   0.338  1.00  0.00    -0.328 OA
HETATM   20  C15 UNL     1      -5.584  -0.115  -0.367  1.00  0.00     0.181 C 
ENDBRANCH   1  19
TORSDOF 1
