REMARK  6 active torsions:
REMARK  status: ('A' for Active; 'I' for Inactive)
REMARK    1  A    between atoms: C2_2  and  O7_30 
REMARK    2  A    between atoms: C9_9  and  O3_17 
REMARK    3  A    between atoms: C10_10  and  O2_15 
REMARK    4  A    between atoms: C11_11  and  O1_13 
REMARK    5  A    between atoms: C16_19  and  O6_26 
REMARK    6  A    between atoms: O7_30  and  C24_31 
ROOT
HETATM    1  C1  UNL     1       1.172   0.607  -0.314  1.00  0.00     0.009 A 
HETATM    2  C2  UNL     1       1.588  -0.445  -1.303  1.00  0.00     0.146 C 
HETATM    3  C3  UNL     1       2.414  -1.613  -0.703  1.00  0.00     0.033 C 
HETATM    4  C4  UNL     1       1.590  -2.734  -0.029  1.00  0.00     0.007 C 
HETATM    5  C5  UNL     1       0.641  -2.240   1.086  1.00  0.00     0.027 C 
HETATM    6  C6  UNL     1      -0.699  -1.846   0.566  1.00  0.00    -0.018 A 
HETATM    7  C7  UNL     1      -1.043  -0.504   0.240  1.00  0.00     0.022 A 
HETATM    8  C8  UNL     1      -0.064   0.590   0.416  1.00  0.00     0.024 A 
HETATM    9  C9  UNL     1      -0.350   1.641   1.316  1.00  0.00     0.118 A 
HETATM   10  C10 UNL     1       0.561   2.695   1.494  1.00  0.00     0.138 A 
HETATM   11  C11 UNL     1       1.770   2.709   0.783  1.00  0.00     0.118 A 
HETATM   12  C12 UNL     1       2.068   1.672  -0.111  1.00  0.00     0.024 A 
HETATM   13  C16 UNL     1      -2.352  -0.201  -0.256  1.00  0.00     0.118 A 
HETATM   14  C17 UNL     1      -3.305  -1.246  -0.395  1.00  0.00     0.141 A 
HETATM   15  C18 UNL     1      -2.973  -2.563  -0.078  1.00  0.00     0.121 A 
HETATM   16  C19 UNL     1      -1.674  -2.854   0.393  1.00  0.00     0.022 A 
HETATM   17  O4  UNL     1      -4.029  -3.348  -0.297  1.00  0.00    -0.299 OA
HETATM   18  C20 UNL     1      -5.127  -2.543  -0.773  1.00  0.00     0.304 A 
HETATM   19  O5  UNL     1      -4.572  -1.209  -0.811  1.00  0.00    -0.298 OA
HETATM   20  C22 UNL     1       2.522  -3.834   0.506  1.00  0.00     0.000 C 
HETATM   21  C23 UNL     1       3.555  -1.117   0.201  1.00  0.00     0.003 C 
ENDROOT
BRANCH   2  22
HETATM   22  O7  UNL     1       0.490  -0.947  -2.055  1.00  0.00    -0.300 OA
BRANCH  22  23
HETATM   23  C24 UNL     1      -0.055  -0.022  -2.838  1.00  0.00     0.273 C 
HETATM   24  C25 UNL     1      -1.031  -0.539  -3.859  1.00  0.00     0.106 C 
HETATM   25  O8  UNL     1       0.197   1.158  -2.760  1.00  0.00    -0.264 OA
ENDBRANCH  22  23
ENDBRANCH   2  22
BRANCH   9  26
HETATM   26  O3  UNL     1      -1.475   1.643   2.006  1.00  0.00    -0.326 OA
HETATM   27  C15 UNL     1      -1.584   0.750   3.108  1.00  0.00     0.181 C 
ENDBRANCH   9  26
BRANCH  11  28
HETATM   28  O1  UNL     1       2.629   3.695   0.953  1.00  0.00    -0.326 OA
HETATM   29  C13 UNL     1       3.920   3.562   0.379  1.00  0.00     0.181 C 
ENDBRANCH  11  28
BRANCH  13  30
HETATM   30  O6  UNL     1      -2.584   1.084  -0.564  1.00  0.00    -0.326 OA
HETATM   31  C21 UNL     1      -3.865   1.426  -1.074  1.00  0.00     0.181 C 
ENDBRANCH  13  30
BRANCH  10  32
HETATM   32  O2  UNL     1       0.279   3.674   2.330  1.00  0.00    -0.324 OA
HETATM   33  C14 UNL     1       0.494   5.008   1.895  1.00  0.00     0.182 C 
ENDBRANCH  10  32
TORSDOF 6
