REMARK  2 active torsions:
REMARK  status: ('A' for Active; 'I' for Inactive)
REMARK    1  A    between atoms: C5_5  and  C8_10 
REMARK    2  A    between atoms: C9_13  and  C12_16 
ROOT
HETATM    1  C1  UNL     1       0.240  -1.398  -0.064  1.00  0.00     0.031 C 
HETATM    2  C2  UNL     1      -0.062   0.047  -0.566  1.00  0.00     0.158 C 
HETATM    3  C3  UNL     1      -1.164   0.738   0.293  1.00  0.00     0.202 C 
HETATM    4  C4  UNL     1      -2.436  -0.047   0.555  1.00  0.00     0.010 C 
HETATM    5  C5  UNL     1      -2.805  -1.172  -0.098  1.00  0.00     0.048 C 
HETATM    6  C6  UNL     1      -1.969  -1.789  -1.207  1.00  0.00     0.177 C 
HETATM    7  C7  UNL     1      -0.662  -2.457  -0.728  1.00  0.00     0.040 C 
HETATM    8  O1  UNL     1      -1.668  -0.824  -2.207  1.00  0.00    -0.219 OA
HETATM    9  O2  UNL     1      -0.484  -0.016  -1.936  1.00  0.00    -0.223 OA
HETATM   10  O4  UNL     1      -1.523   1.996  -0.252  1.00  0.00    -0.216 OA
HETATM   11  C9  UNL     1       1.328   0.754  -0.549  1.00  0.00     0.031 C 
HETATM   12  C10 UNL     1       2.328  -0.269  -0.008  1.00  0.00     0.003 C 
HETATM   13  C11 UNL     1       1.713  -1.596  -0.432  1.00  0.00     0.003 C 
HETATM   14  C15 UNL     1       0.158  -1.508   1.467  1.00  0.00     0.003 C 
ENDROOT
BRANCH  11  15
HETATM   15  C12 UNL     1       1.441   2.027   0.285  1.00  0.00     0.003 C 
HETATM   16  C13 UNL     1       0.830   3.197  -0.484  1.00  0.00     0.000 C 
HETATM   17  C14 UNL     1       2.906   2.266   0.656  1.00  0.00     0.000 C 
ENDBRANCH  11  15
BRANCH   5  18
HETATM   18  C8  UNL     1      -4.064  -1.842   0.268  1.00  0.00     0.232 C 
HETATM   19  O3  UNL     1      -4.395  -2.863  -0.287  1.00  0.00    -0.283 OA
ENDBRANCH   5  18
TORSDOF 2
