REMARK  20 active torsions:
REMARK  status: ('A' for Active; 'I' for Inactive)
REMARK    1  A    between atoms: C18_26  and  O19_53 
REMARK    2  A    between atoms: C19_27  and  O14_41 
REMARK    3  A    between atoms: C20_28  and  O9_29 
REMARK    4  A    between atoms: O9_29  and  C21_30 
REMARK    5  A    between atoms: C21_30  and  C22_31 
REMARK    6  A    between atoms: O14_41  and  C28_42 
REMARK    7  A    between atoms: C28_42  and  C29_44 
REMARK    8  A    between atoms: O19_53  and  C35_54 
REMARK    9  A    between atoms: C35_54  and  C36_56 
REMARK   10  A    between atoms: C37_57  and  O24_65 
REMARK   11  A    between atoms: O24_65  and  C42_66 
REMARK   12  A    between atoms: C59_89  and  O31_90 
REMARK   13  A    between atoms: O31_90  and  C60_91 
REMARK   14  A    between atoms: C60_91  and  C61_92 
REMARK   15  A    between atoms: C67_102  and  O42_117 
REMARK   16  A    between atoms: C68_103  and  O37_105 
REMARK   17  A    between atoms: O37_105  and  C69_106 
REMARK   18  A    between atoms: C69_106  and  C70_107 
REMARK   19  A    between atoms: O42_117  and  C76_118 
REMARK   20  A    between atoms: C76_118  and  C77_119 
ROOT
HETATM    1  C36 UNL     1      -1.129  -0.801   2.729  1.00  0.00     0.090 A 
HETATM    2  C37 UNL     1      -1.340   0.590   2.672  1.00  0.00     0.133 A 
HETATM    3  C38 UNL     1      -0.510   1.457   3.406  1.00  0.00     0.181 A 
HETATM    4  C39 UNL     1       0.533   0.934   4.195  1.00  0.00     0.183 A 
HETATM    5  C40 UNL     1       0.742  -0.455   4.252  1.00  0.00     0.159 A 
HETATM    6  C41 UNL     1      -0.088  -1.318   3.520  1.00  0.00     0.037 A 
HETATM    7  O21 UNL     1       1.717  -0.949   4.990  1.00  0.00    -0.188 OA
HETATM    8  O22 UNL     1       1.311   1.748   4.883  1.00  0.00    -0.186 OA
HETATM    9  O23 UNL     1      -0.705   2.760   3.354  1.00  0.00    -0.186 OA
ENDROOT
BRANCH   2  10
HETATM   10  O24 UNL     1      -2.314   1.086   1.932  1.00  0.00    -0.303 OA
BRANCH  10  11
HETATM   11  C42 UNL     1      -2.039   2.117   1.158  1.00  0.00     0.128 A 
HETATM   12  C43 UNL     1      -3.002   3.115   0.945  1.00  0.00     0.179 A 
HETATM   13  C44 UNL     1      -2.705   4.225   0.135  1.00  0.00     0.158 A 
HETATM   14  O49 UNL     1      -4.190   3.012   1.510  1.00  0.00    -0.186 OA
HETATM   15  C45 UNL     1      -1.445   4.342  -0.496  1.00  0.00     0.035 A 
HETATM   16  O48 UNL     1      -3.623   5.160  -0.020  1.00  0.00    -0.188 OA
HETATM   17  C46 UNL     1      -0.471   3.299  -0.293  1.00  0.00     0.067 A 
HETATM   18  C54 UNL     1      -1.170   5.535  -1.336  1.00  0.00     0.035 A 
HETATM   19  C47 UNL     1      -0.783   2.215   0.547  1.00  0.00     0.032 A 
HETATM   20  C48 UNL     1       0.885   3.313  -0.941  1.00  0.00     0.296 C 
HETATM   21  O25 UNL     1       1.205   4.149  -1.951  1.00  0.00    -0.296 OA
HETATM   22  O47 UNL     1       1.748   2.549  -0.568  1.00  0.00    -0.259 OA
HETATM   23  C49 UNL     1       2.572   4.299  -2.359  1.00  0.00     0.184 C 
HETATM   24  C50 UNL     1       3.207   5.604  -1.807  1.00  0.00     0.178 C 
HETATM   25  C51 UNL     1       3.150   5.817  -0.256  1.00  0.00     0.184 C 
HETATM   26  O36 UNL     1       4.551   5.660  -2.289  1.00  0.00    -0.326 OA
HETATM   27  O26 UNL     1       2.094   6.719   0.096  1.00  0.00    -0.296 OA
HETATM   28  C59 UNL     1       4.455   6.404   0.305  1.00  0.00     0.187 C 
HETATM   29  C52 UNL     1       0.861   6.201   0.088  1.00  0.00     0.296 C 
HETATM   30  C53 UNL     1      -0.074   6.424  -1.057  1.00  0.00     0.067 A 
HETATM   31  O30 UNL     1       0.580   5.547   1.066  1.00  0.00    -0.259 OA
HETATM   32  C58 UNL     1       0.156   7.533  -1.885  1.00  0.00     0.035 A 
HETATM   33  C57 UNL     1      -0.686   7.799  -2.973  1.00  0.00     0.158 A 
HETATM   34  C56 UNL     1      -1.766   6.945  -3.248  1.00  0.00     0.181 A 
HETATM   35  O27 UNL     1      -0.461   8.852  -3.732  1.00  0.00    -0.188 OA
HETATM   36  C55 UNL     1      -2.000   5.817  -2.445  1.00  0.00     0.158 A 
HETATM   37  O28 UNL     1      -2.561   7.203  -4.268  1.00  0.00    -0.186 OA
HETATM   38  O29 UNL     1      -3.006   5.016  -2.746  1.00  0.00    -0.188 OA
HETATM   39  C67 UNL     1       5.668   5.563  -0.131  1.00  0.00     0.211 C 
HETATM   40  C68 UNL     1       5.496   4.922  -1.525  1.00  0.00     0.274 C 
BRANCH  28  41
HETATM   41  O31 UNL     1       4.613   7.729  -0.186  1.00  0.00    -0.296 OA
BRANCH  41  42
HETATM   42  C60 UNL     1       3.965   8.625   0.553  1.00  0.00     0.296 C 
HETATM   43  O35 UNL     1       3.393   8.358   1.584  1.00  0.00    -0.259 OA
BRANCH  42  44
HETATM   44  C61 UNL     1       3.982  10.020   0.021  1.00  0.00     0.067 A 
HETATM   45  C62 UNL     1       3.326  11.049   0.723  1.00  0.00     0.035 A 
HETATM   46  C63 UNL     1       3.342  12.364   0.227  1.00  0.00     0.158 A 
HETATM   47  C64 UNL     1       4.014  12.651  -0.977  1.00  0.00     0.181 A 
HETATM   48  O34 UNL     1       2.727  13.323   0.887  1.00  0.00    -0.188 OA
HETATM   49  C65 UNL     1       4.670  11.623  -1.680  1.00  0.00     0.158 A 
HETATM   50  O33 UNL     1       4.029  13.883  -1.445  1.00  0.00    -0.186 OA
HETATM   51  C66 UNL     1       4.652  10.309  -1.180  1.00  0.00     0.035 A 
HETATM   52  O32 UNL     1       5.301  11.887  -2.807  1.00  0.00    -0.188 OA
ENDBRANCH  42  44
ENDBRANCH  41  42
ENDBRANCH  28  41
BRANCH  39  53
HETATM   53  O42 UNL     1       5.881   4.529   0.820  1.00  0.00    -0.293 OA
BRANCH  53  54
HETATM   54  C76 UNL     1       7.096   3.996   0.729  1.00  0.00     0.296 C 
HETATM   55  O46 UNL     1       7.975   4.442   0.027  1.00  0.00    -0.259 OA
BRANCH  54  56
HETATM   56  C77 UNL     1       7.322   2.781   1.564  1.00  0.00     0.067 A 
HETATM   57  C78 UNL     1       8.572   2.135   1.545  1.00  0.00     0.035 A 
HETATM   58  C79 UNL     1       8.787   0.990   2.332  1.00  0.00     0.158 A 
HETATM   59  C80 UNL     1       7.752   0.490   3.143  1.00  0.00     0.181 A 
HETATM   60  O45 UNL     1       9.961   0.391   2.311  1.00  0.00    -0.188 OA
HETATM   61  C81 UNL     1       6.500   1.135   3.162  1.00  0.00     0.158 A 
HETATM   62  O44 UNL     1       7.951  -0.584   3.881  1.00  0.00    -0.186 OA
HETATM   63  C82 UNL     1       6.289   2.279   2.375  1.00  0.00     0.035 A 
HETATM   64  O43 UNL     1       5.527   0.670   3.920  1.00  0.00    -0.188 OA
ENDBRANCH  54  56
ENDBRANCH  53  54
ENDBRANCH  39  53
BRANCH  40  65
HETATM   65  O37 UNL     1       6.744   4.910  -2.203  1.00  0.00    -0.270 OA
BRANCH  65  66
HETATM   66  C69 UNL     1       6.715   4.168  -3.307  1.00  0.00     0.298 C 
HETATM   67  O41 UNL     1       5.744   3.549  -3.676  1.00  0.00    -0.259 OA
BRANCH  66  68
HETATM   68  C70 UNL     1       7.986   4.139  -4.088  1.00  0.00     0.068 A 
HETATM   69  C71 UNL     1       8.070   3.385  -5.272  1.00  0.00     0.035 A 
HETATM   70  C72 UNL     1       9.266   3.358  -6.010  1.00  0.00     0.158 A 
HETATM   71  C73 UNL     1      10.385   4.084  -5.561  1.00  0.00     0.181 A 
HETATM   72  O40 UNL     1       9.338   2.649  -7.119  1.00  0.00    -0.188 OA
HETATM   73  C74 UNL     1      10.305   4.840  -4.375  1.00  0.00     0.158 A 
HETATM   74  O39 UNL     1      11.508   4.059  -6.250  1.00  0.00    -0.186 OA
HETATM   75  C75 UNL     1       9.106   4.865  -3.641  1.00  0.00     0.035 A 
HETATM   76  O38 UNL     1      11.348   5.522  -3.951  1.00  0.00    -0.188 OA
ENDBRANCH  66  68
ENDBRANCH  65  66
ENDBRANCH  40  65
ENDBRANCH  10  11
ENDBRANCH   2  10
BRANCH   1  77
HETATM   77  C35 UNL     1      -2.004  -1.732   1.955  1.00  0.00     0.300 C 
HETATM   78  O20 UNL     1      -2.889  -1.311   1.248  1.00  0.00    -0.259 OA
BRANCH  77  79
HETATM   79  O19 UNL     1      -1.729  -3.025   2.105  1.00  0.00    -0.270 OA
BRANCH  79  80
HETATM   80  C18 UNL     1      -2.504  -3.846   1.246  1.00  0.00     0.274 C 
HETATM   81  O8  UNL     1      -2.107  -3.646  -0.102  1.00  0.00    -0.323 OA
HETATM   82  C17 UNL     1      -2.928  -4.295  -1.072  1.00  0.00     0.204 C 
HETATM   83  C9  UNL     1      -3.484  -5.672  -0.582  1.00  0.00     0.252 C 
HETATM   84  O2  UNL     1      -3.631  -6.580  -1.689  1.00  0.00    -0.322 OA
HETATM   85  O3  UNL     1      -4.758  -5.410   0.049  1.00  0.00    -0.272 OA
HETATM   86  C20 UNL     1      -2.467  -6.281   0.420  1.00  0.00     0.211 C 
HETATM   87  C8  UNL     1      -4.453  -6.164  -2.781  1.00  0.00     0.213 C 
HETATM   88  C7  UNL     1      -5.906  -5.949  -2.373  1.00  0.00     0.203 C 
HETATM   89  C4  UNL     1      -6.340  -4.549  -2.059  1.00  0.00     0.042 A 
HETATM   90  O50 UNL     1      -6.594  -6.941  -2.311  1.00  0.00    -0.289 OA
HETATM   91  C3  UNL     1      -7.201  -4.266  -0.945  1.00  0.00     0.033 A 
HETATM   92  C5  UNL     1      -5.879  -3.496  -2.867  1.00  0.00     0.033 A 
HETATM   93  C2  UNL     1      -7.492  -2.916  -0.643  1.00  0.00     0.158 A 
HETATM   94  C12 UNL     1      -7.803  -5.346  -0.115  1.00  0.00     0.035 A 
HETATM   95  C1  UNL     1      -7.008  -1.877  -1.455  1.00  0.00     0.181 A 
HETATM   96  O51 UNL     1      -8.227  -2.607   0.410  1.00  0.00    -0.188 OA
HETATM   97  C6  UNL     1      -6.209  -2.168  -2.572  1.00  0.00     0.158 A 
HETATM   98  O52 UNL     1      -7.303  -0.625  -1.172  1.00  0.00    -0.186 OA
HETATM   99  O1  UNL     1      -5.766  -1.195  -3.344  1.00  0.00    -0.188 OA
HETATM  100  C11 UNL     1      -7.027  -6.352   0.570  1.00  0.00     0.068 A 
HETATM  101  C13 UNL     1      -9.215  -5.387   0.006  1.00  0.00     0.158 A 
HETATM  102  C10 UNL     1      -5.529  -6.414   0.518  1.00  0.00     0.298 C 
HETATM  103  C16 UNL     1      -7.688  -7.336   1.326  1.00  0.00     0.035 A 
HETATM  104  O7  UNL     1      -4.955  -7.408   0.904  1.00  0.00    -0.259 OA
HETATM  105  C15 UNL     1      -9.082  -7.352   1.438  1.00  0.00     0.158 A 
HETATM  106  C14 UNL     1      -9.844  -6.375   0.783  1.00  0.00     0.181 A 
HETATM  107  O4  UNL     1      -9.676  -8.283   2.158  1.00  0.00    -0.188 OA
HETATM  108  O5  UNL     1     -11.158  -6.385   0.895  1.00  0.00    -0.186 OA
HETATM  109  O6  UNL     1      -9.969  -4.502  -0.617  1.00  0.00    -0.188 OA
HETATM  110  C19 UNL     1      -2.301  -5.332   1.623  1.00  0.00     0.214 C 
BRANCH  86 111
HETATM  111  O9  UNL     1      -1.205  -6.412  -0.227  1.00  0.00    -0.293 OA
BRANCH 111 112
HETATM  112  C21 UNL     1      -0.475  -7.397   0.287  1.00  0.00     0.298 C 
HETATM  113  O13 UNL     1      -0.029  -7.391   1.410  1.00  0.00    -0.259 OA
BRANCH 112 114
HETATM  114  C22 UNL     1      -0.225  -8.549  -0.633  1.00  0.00     0.091 A 
HETATM  115  C23 UNL     1      -0.090  -8.320  -2.014  1.00  0.00     0.010 A 
HETATM  116  C24 UNL     1       0.145  -9.395  -2.885  1.00  0.00     0.030 A 
HETATM  117  C25 UNL     1       0.246 -10.703  -2.383  1.00  0.00     0.158 A 
HETATM  118  C26 UNL     1       0.111 -10.936  -1.002  1.00  0.00     0.181 A 
HETATM  119  O12 UNL     1       0.467 -11.709  -3.207  1.00  0.00    -0.188 OA
HETATM  120  C27 UNL     1      -0.125  -9.859  -0.123  1.00  0.00     0.163 A 
HETATM  121  O11 UNL     1       0.205 -12.162  -0.527  1.00  0.00    -0.186 OA
HETATM  122  O10 UNL     1      -0.250 -10.084   1.170  1.00  0.00    -0.188 OA
ENDBRANCH 112 114
ENDBRANCH 111 112
ENDBRANCH  86 111
BRANCH 110 123
HETATM  123  O14 UNL     1      -3.244  -5.676   2.627  1.00  0.00    -0.293 OA
BRANCH 123 124
HETATM  124  C28 UNL     1      -2.910  -6.785   3.279  1.00  0.00     0.296 C 
HETATM  125  O15 UNL     1      -1.844  -7.342   3.158  1.00  0.00    -0.259 OA
BRANCH 124 126
HETATM  126  C29 UNL     1      -3.957  -7.324   4.199  1.00  0.00     0.067 A 
HETATM  127  C30 UNL     1      -3.709  -8.494   4.940  1.00  0.00     0.035 A 
HETATM  128  C31 UNL     1      -4.693  -9.002   5.805  1.00  0.00     0.158 A 
HETATM  129  C32 UNL     1      -5.928  -8.340   5.930  1.00  0.00     0.181 A 
HETATM  130  O18 UNL     1      -4.457 -10.100   6.496  1.00  0.00    -0.188 OA
HETATM  131  C33 UNL     1      -6.178  -7.168   5.190  1.00  0.00     0.158 A 
HETATM  132  O17 UNL     1      -6.854  -8.815   6.742  1.00  0.00    -0.186 OA
HETATM  133  C34 UNL     1      -5.191  -6.664   4.324  1.00  0.00     0.035 A 
HETATM  134  O16 UNL     1      -7.332  -6.545   5.305  1.00  0.00    -0.188 OA
ENDBRANCH 124 126
ENDBRANCH 123 124
ENDBRANCH 110 123
ENDBRANCH  79  80
ENDBRANCH  77  79
ENDBRANCH   1  77
TORSDOF 20
