REMARK  0 active torsions:
REMARK  status: ('A' for Active; 'I' for Inactive)
ROOT
HETATM    1  C1  UNL     1      -4.912   1.389  -0.916  1.00  0.00     0.067 C 
HETATM    2  C2  UNL     1      -5.455   0.385  -1.967  1.00  0.00     0.159 C 
HETATM    3  C3  UNL     1      -5.537  -1.076  -1.463  1.00  0.00     0.055 C 
HETATM    4  C4  UNL     1      -4.316  -1.418  -0.637  1.00  0.00    -0.044 C 
HETATM    5  C5  UNL     1      -3.959  -0.514   0.543  1.00  0.00     0.043 C 
HETATM    6  C6  UNL     1      -4.809   0.797   0.504  1.00  0.00     0.158 C 
HETATM    7  O1  UNL     1      -6.125   0.576   0.986  1.00  0.00    -0.223 OA
HETATM    8  C7  UNL     1      -2.441  -0.246   0.361  1.00  0.00     0.006 C 
HETATM    9  C8  UNL     1      -1.637  -1.576   0.525  1.00  0.00     0.005 C 
HETATM   10  C9  UNL     1      -2.238  -2.766  -0.264  1.00  0.00     0.025 C 
HETATM   11  C10 UNL     1      -3.539  -2.469  -0.973  1.00  0.00    -0.035 C 
HETATM   12  C11 UNL     1      -0.205  -1.215   0.100  1.00  0.00     0.003 C 
HETATM   13  C12 UNL     1       0.420  -0.186   1.084  1.00  0.00     0.003 C 
HETATM   14  C13 UNL     1      -0.338   1.131   0.908  1.00  0.00     0.000 C 
HETATM   15  C14 UNL     1      -1.836   0.897   1.217  1.00  0.00     0.000 C 
HETATM   16  C15 UNL     1       1.930  -0.285   0.762  1.00  0.00     0.032 C 
HETATM   17  C16 UNL     1       1.939  -1.172  -0.465  1.00  0.00     0.118 C 
HETATM   18  C17 UNL     1       0.922  -2.252  -0.107  1.00  0.00     0.030 C 
HETATM   19  O2  UNL     1       3.301  -1.463  -0.566  1.00  0.00    -0.337 OA
HETATM   20  C18 UNL     1       4.002  -0.234  -0.426  1.00  0.00     0.187 C 
HETATM   21  C19 UNL     1       2.973   0.731   0.273  1.00  0.00     0.054 C 
HETATM   22  C20 UNL     1       2.322   1.797  -0.615  1.00  0.00     0.005 C 
HETATM   23  C21 UNL     1       5.262  -0.486   0.424  1.00  0.00     0.056 C 
HETATM   24  C22 UNL     1       6.059   0.820   0.594  1.00  0.00     0.007 C 
HETATM   25  C23 UNL     1       5.891   1.770  -0.609  1.00  0.00     0.030 C 
HETATM   26  C24 UNL     1       5.557   0.963  -1.875  1.00  0.00     0.145 C 
HETATM   27  O3  UNL     1       4.338   0.234  -1.738  1.00  0.00    -0.335 OA
HETATM   28  C25 UNL     1       7.127   2.650  -0.812  1.00  0.00     0.003 C 
HETATM   29  C26 UNL     1       0.289  -0.662   2.539  1.00  0.00     0.000 C 
HETATM   30  C27 UNL     1      -4.201  -1.264   1.865  1.00  0.00     0.007 C 
HETATM   31  O4  UNL     1      -6.744   0.783  -2.391  1.00  0.00    -0.223 OA
ENDROOT
TORSDOF 0
