REMARK  2 active torsions:
REMARK  status: ('A' for Active; 'I' for Inactive)
REMARK    1  A    between atoms: C13_14  and  O1_15 
REMARK    2  A    between atoms: C15_18  and  C17_20 
ROOT
HETATM    1  C1  UNL     1      -5.447  -1.201  -0.840  1.00  0.00     0.000 A 
HETATM    2  C2  UNL     1      -4.856  -2.303  -0.188  1.00  0.00     0.002 A 
HETATM    3  C3  UNL     1      -3.469  -2.307   0.080  1.00  0.00     0.019 A 
HETATM    4  C4  UNL     1      -2.645  -1.209  -0.301  1.00  0.00     0.084 A 
HETATM    5  C5  UNL     1      -3.258  -0.092  -0.961  1.00  0.00     0.057 A 
HETATM    6  C6  UNL     1      -4.652  -0.100  -1.225  1.00  0.00     0.005 A 
HETATM    7  C7  UNL     1      -2.441   1.090  -1.381  1.00  0.00     0.200 A 
HETATM    8  C8  UNL     1      -0.992   0.951  -1.045  1.00  0.00     0.079 A 
HETATM    9  C9  UNL     1      -0.523  -0.219  -0.391  1.00  0.00     0.084 A 
HETATM   10  N1  UNL     1      -1.305  -1.279  -0.014  1.00  0.00    -0.246 NA
HETATM   11  C10 UNL     1       0.855  -0.385  -0.059  1.00  0.00     0.021 A 
HETATM   12  C11 UNL     1       1.775   0.627  -0.383  1.00  0.00     0.094 A 
HETATM   13  C12 UNL     1       1.299   1.793  -1.037  1.00  0.00     0.048 A 
HETATM   14  C13 UNL     1      -0.063   1.967  -1.369  1.00  0.00     0.101 A 
HETATM   15  O2  UNL     1       3.018   0.328  -0.008  1.00  0.00    -0.329 OA
HETATM   16  C15 UNL     1       3.076  -0.971   0.603  1.00  0.00     0.144 A 
HETATM   17  C16 UNL     1       1.609  -1.506   0.625  1.00  0.00     0.064 A 
HETATM   18  O3  UNL     1      -2.910   2.059  -1.936  1.00  0.00    -0.286 OA
ENDROOT
BRANCH  16  19
HETATM   19  C17 UNL     1       3.707  -0.858   1.969  1.00  0.00    -0.017 C 
HETATM   20  C18 UNL     1       4.850  -1.524   2.203  1.00  0.00    -0.007 C 
HETATM   21  C19 UNL     1       3.115  -0.033   3.080  1.00  0.00     0.029 C 
ENDBRANCH  16  19
BRANCH  14  22
HETATM   22  O1  UNL     1      -0.449   3.092  -1.986  1.00  0.00    -0.328 OA
HETATM   23  C14 UNL     1       0.521   4.105  -2.195  1.00  0.00     0.181 C 
ENDBRANCH  14  22
TORSDOF 2
