REMARK  4 active torsions:
REMARK  status: ('A' for Active; 'I' for Inactive)
REMARK    1  A    between atoms: C1_1  and  O4_19 
REMARK    2  A    between atoms: C2_2  and  O3_17 
REMARK    3  A    between atoms: C8_8  and  C10_12 
REMARK    4  A    between atoms: C10_12  and  C11_13 
ROOT
HETATM    1  C1  UNL     1       3.108   0.842   0.435  1.00  0.00     0.116 A 
HETATM    2  C2  UNL     1       3.436  -0.535   0.350  1.00  0.00     0.118 A 
HETATM    3  C3  UNL     1       2.416  -1.496   0.142  1.00  0.00     0.051 A 
HETATM    4  C4  UNL     1       1.068  -1.086   0.023  1.00  0.00     0.105 A 
HETATM    5  C5  UNL     1       0.746   0.293   0.111  1.00  0.00     0.025 A 
HETATM    6  C6  UNL     1       1.762   1.258   0.316  1.00  0.00     0.028 A 
HETATM    7  C7  UNL     1      -0.676   0.701  -0.020  1.00  0.00     0.003 A 
HETATM    8  C8  UNL     1      -1.611  -0.250  -0.213  1.00  0.00     0.044 A 
HETATM    9  C9  UNL     1      -1.209  -1.676  -0.293  1.00  0.00     0.296 A 
HETATM   10  O1  UNL     1       0.094  -2.004  -0.172  1.00  0.00    -0.273 OA
HETATM   11  O2  UNL     1      -2.064  -2.516  -0.465  1.00  0.00    -0.259 OA
ENDROOT
BRANCH   8  12
HETATM   12  C10 UNL     1      -3.061   0.143  -0.350  1.00  0.00     0.043 C 
HETATM   13  C13 UNL     1      -3.318   1.586   0.088  1.00  0.00     0.009 C 
HETATM   14  C14 UNL     1      -3.943  -0.506   0.717  1.00  0.00     0.009 C 
BRANCH  12  15
HETATM   15  C11 UNL     1      -3.553  -0.129  -1.746  1.00  0.00    -0.022 C 
HETATM   16  C12 UNL     1      -4.330  -1.205  -1.953  1.00  0.00    -0.005 C 
ENDBRANCH  12  15
ENDBRANCH   8  12
BRANCH   1  17
HETATM   17  O4  UNL     1       4.070   1.752   0.633  1.00  0.00    -0.326 OA
HETATM   18  C16 UNL     1       3.692   3.117   0.713  1.00  0.00     0.181 C 
ENDBRANCH   1  17
BRANCH   2  19
HETATM   19  O3  UNL     1       4.711  -0.932   0.463  1.00  0.00    -0.326 OA
HETATM   20  C15 UNL     1       4.983  -2.324   0.418  1.00  0.00     0.181 C 
ENDBRANCH   2  19
TORSDOF 4
