REMARK  0 active torsions:
REMARK  status: ('A' for Active; 'I' for Inactive)
ROOT
HETATM    1  C1  UNL     1      -5.297  -1.467  -0.053  1.00  0.00     0.002 A 
HETATM    2  C2  UNL     1      -4.076  -1.924   0.508  1.00  0.00     0.019 A 
HETATM    3  C3  UNL     1      -2.896  -1.193   0.232  1.00  0.00     0.081 A 
HETATM    4  C4  UNL     1      -2.918  -0.068  -0.557  1.00  0.00     0.015 A 
HETATM    5  C5  UNL     1      -4.121   0.408  -1.133  1.00  0.00     0.001 A 
HETATM    6  C6  UNL     1      -5.320  -0.305  -0.871  1.00  0.00     0.000 A 
HETATM    7  C7  UNL     1      -1.685   0.471  -0.688  1.00  0.00     0.002 A 
HETATM    8  C8  UNL     1      -0.816  -0.326   0.060  1.00  0.00     0.112 A 
HETATM    9  N1  UNL     1      -1.578  -1.385   0.627  1.00  0.00    -0.243 NA
HETATM   10  C9  UNL     1       0.637  -0.027   0.174  1.00  0.00     0.164 A 
HETATM   11  N2  UNL     1       1.102   1.215  -0.303  1.00  0.00    -0.279 N 
HETATM   12  C10 UNL     1       0.135   2.235  -0.862  1.00  0.00     0.115 C 
HETATM   13  C11 UNL     1      -1.180   1.668  -1.467  1.00  0.00     0.053 C 
HETATM   14  C12 UNL     1       2.459   1.528  -0.235  1.00  0.00     0.263 A 
HETATM   15  C13 UNL     1       3.348   0.487   0.371  1.00  0.00     0.074 A 
HETATM   16  C14 UNL     1       2.772  -0.726   0.834  1.00  0.00     0.088 A 
HETATM   17  N3  UNL     1       1.436  -0.906   0.701  1.00  0.00    -0.227 NA
HETATM   18  C15 UNL     1       3.596  -1.721   1.420  1.00  0.00     0.019 A 
HETATM   19  C16 UNL     1       4.989  -1.502   1.535  1.00  0.00     0.002 A 
HETATM   20  C17 UNL     1       5.561  -0.295   1.066  1.00  0.00     0.000 A 
HETATM   21  C18 UNL     1       4.744   0.703   0.486  1.00  0.00     0.006 A 
HETATM   22  O1  UNL     1       2.822   2.604  -0.654  1.00  0.00    -0.267 OA
ENDROOT
TORSDOF 0
