REMARK  5 active torsions:
REMARK  status: ('A' for Active; 'I' for Inactive)
REMARK    1  A    between atoms: C1_1  and  O9_38 
REMARK    2  A    between atoms: C3_3  and  O3_9 
REMARK    3  A    between atoms: O3_9  and  C7_10 
REMARK    4  A    between atoms: C10_13  and  C29_35 
REMARK    5  A    between atoms: C23_26  and  C24_27 
ROOT
HETATM    1  C7  UNL     1       2.195  -0.951  -0.300  1.00  0.00     0.118 C 
HETATM    2  C8  UNL     1       1.047  -1.428  -1.201  1.00  0.00     0.030 C 
HETATM    3  C9  UNL     1       0.252  -2.545  -0.510  1.00  0.00     0.005 C 
HETATM    4  C10 UNL     1      -0.310  -2.142   0.875  1.00  0.00     0.031 C 
HETATM    5  C11 UNL     1       0.863  -1.639   1.763  1.00  0.00     0.005 C 
HETATM    6  C12 UNL     1       1.684  -0.520   1.082  1.00  0.00     0.030 C 
HETATM    7  C13 UNL     1       0.372  -1.201   3.155  1.00  0.00     0.000 C 
HETATM    8  C14 UNL     1      -0.741  -0.151   3.077  1.00  0.00     0.002 C 
HETATM    9  C15 UNL     1      -1.914  -0.626   2.194  1.00  0.00     0.028 C 
HETATM   10  C16 UNL     1      -1.414  -1.040   0.785  1.00  0.00     0.005 C 
HETATM   11  C17 UNL     1      -2.602  -1.436  -0.112  1.00  0.00     0.000 C 
HETATM   12  C18 UNL     1      -3.647  -0.318  -0.208  1.00  0.00     0.003 C 
HETATM   13  C19 UNL     1      -4.202   0.057   1.181  1.00  0.00     0.029 C 
HETATM   14  C20 UNL     1      -3.053   0.427   2.152  1.00  0.00     0.127 C 
HETATM   15  C21 UNL     1      -2.653   1.824   1.656  1.00  0.00     0.031 C 
HETATM   16  C22 UNL     1      -3.926   2.461   1.093  1.00  0.00     0.007 C 
HETATM   17  C23 UNL     1      -5.005   1.373   1.122  1.00  0.00     0.023 C 
HETATM   18  O6  UNL     1      -3.566   0.565   3.473  1.00  0.00    -0.226 OA
HETATM   19  C28 UNL     1      -5.091  -1.070   1.718  1.00  0.00     0.003 C 
ENDROOT
BRANCH   1  20
HETATM   20  O3  UNL     1       2.855   0.136  -0.917  1.00  0.00    -0.332 OA
BRANCH  20  21
HETATM   21  C3  UNL     1       3.684  -0.255  -2.001  1.00  0.00     0.270 C 
HETATM   22  C2  UNL     1       4.264   0.968  -2.760  1.00  0.00     0.238 C 
HETATM   23  C1  UNL     1       5.308   1.725  -1.912  1.00  0.00     0.183 C 
HETATM   24  O8  UNL     1       3.221   1.835  -3.173  1.00  0.00    -0.215 OA
HETATM   25  C5  UNL     1       6.360   0.722  -1.387  1.00  0.00     0.209 C 
HETATM   26  C4  UNL     1       5.700  -0.490  -0.688  1.00  0.00     0.151 C 
HETATM   27  O2  UNL     1       7.217   1.367  -0.459  1.00  0.00    -0.218 OA
HETATM   28  O1  UNL     1       4.749  -1.096  -1.563  1.00  0.00    -0.329 OA
HETATM   29  C6  UNL     1       6.709  -1.582  -0.316  1.00  0.00     0.035 C 
BRANCH  23  30
HETATM   30  O9  UNL     1       5.946   2.716  -2.703  1.00  0.00    -0.349 OA
HETATM   31  C30 UNL     1       6.674   3.652  -1.942  1.00  0.00     0.174 C 
ENDBRANCH  23  30
ENDBRANCH  20  21
ENDBRANCH   1  20
BRANCH   4  32
HETATM   32  C29 UNL     1      -0.911  -3.408   1.507  1.00  0.00     0.182 C 
HETATM   33  O7  UNL     1       0.117  -4.363   1.641  1.00  0.00    -0.221 OA
ENDBRANCH   4  32
BRANCH  17  34
HETATM   34  C24 UNL     1      -5.999   1.475  -0.003  1.00  0.00    -0.009 A 
HETATM   35  C25 UNL     1      -7.100   0.480  -0.258  1.00  0.00     0.175 A 
HETATM   36  O4  UNL     1      -7.771   0.992  -1.423  1.00  0.00    -0.294 OA
HETATM   37  C26 UNL     1      -7.166   2.127  -1.806  1.00  0.00     0.296 A 
HETATM   38  C27 UNL     1      -6.051   2.437  -0.922  1.00  0.00     0.062 A 
HETATM   39  O5  UNL     1      -7.480   2.814  -2.747  1.00  0.00    -0.259 OA
ENDBRANCH  17  34
TORSDOF 5
