REMARK  1 active torsions:
REMARK  status: ('A' for Active; 'I' for Inactive)
REMARK    1  A    between atoms: C3_3  and  C8_9 
ROOT
HETATM    1  C1  UNL     1       0.547  -1.149  -0.053  1.00  0.00     0.028 A 
HETATM    2  C2  UNL     1       1.604  -0.418   0.750  1.00  0.00     0.003 A 
HETATM    3  C3  UNL     1       0.547   0.357  -0.006  1.00  0.00     0.002 A 
HETATM    4  C4  UNL     1      -0.717   0.804   0.721  1.00  0.00     0.003 C 
HETATM    5  C5  UNL     1      -1.639  -0.401   0.513  1.00  0.00     0.030 C 
HETATM    6  C6  UNL     1      -0.744  -1.649   0.594  1.00  0.00     0.127 C 
HETATM    7  C7  UNL     1      -0.539  -2.133   2.027  1.00  0.00     0.033 C 
HETATM    8  O1  UNL     1      -1.305  -2.707  -0.158  1.00  0.00    -0.226 OA
ENDROOT
BRANCH   3   9
HETATM    9  C8  UNL     1       0.971   1.138  -1.246  1.00  0.00     0.000 C 
HETATM   10  C9  UNL     1       1.354   2.564  -0.844  1.00  0.00     0.000 C 
HETATM   11  C10 UNL     1      -0.152   1.099  -2.281  1.00  0.00     0.000 C 
ENDBRANCH   3   9
TORSDOF 1
