REMARK  1 active torsions:
REMARK  status: ('A' for Active; 'I' for Inactive)
REMARK    1  A    between atoms: C3_3  and  C8_9 
ROOT
HETATM    1  C1  UNL     1       0.848  -0.928   0.707  1.00  0.00     0.021 A 
HETATM    2  C2  UNL     1       1.463   0.315   1.308  1.00  0.00     0.004 A 
HETATM    3  C3  UNL     1       0.463   0.434   0.174  1.00  0.00     0.007 A 
HETATM    4  C4  UNL     1      -1.008   0.737   0.508  1.00  0.00     0.037 C 
HETATM    5  C5  UNL     1      -1.607  -0.613   0.953  1.00  0.00     0.171 C 
HETATM    6  C6  UNL     1      -0.428  -1.494   1.264  1.00  0.00    -0.015 C 
HETATM    7  C7  UNL     1      -0.515  -2.637   1.967  1.00  0.00    -0.007 C 
HETATM    8  O1  UNL     1      -2.353  -1.178  -0.108  1.00  0.00    -0.219 OA
ENDROOT
BRANCH   3   9
HETATM    9  C8  UNL     1       0.981   0.864  -1.194  1.00  0.00     0.000 C 
HETATM   10  C9  UNL     1       0.828   2.379  -1.342  1.00  0.00     0.000 C 
HETATM   11  C10 UNL     1       0.244   0.086  -2.285  1.00  0.00     0.000 C 
ENDBRANCH   3   9
TORSDOF 1
