REMARK  1 active torsions:
REMARK  status: ('A' for Active; 'I' for Inactive)
REMARK    1  A    between atoms: C6_6  and  C7_7 
ROOT
HETATM    1  C1  UNL     1      -0.893   0.434  -0.137  1.00  0.00     0.026 C 
HETATM    2  C2  UNL     1      -1.578  -0.863   0.355  1.00  0.00     0.030 C 
HETATM    3  C3  UNL     1      -0.779  -2.107   0.047  1.00  0.00    -0.026 C 
HETATM    4  C4  UNL     1       0.563  -2.035   0.012  1.00  0.00    -0.009 C 
HETATM    5  C5  UNL     1       1.266  -0.754   0.221  1.00  0.00    -0.023 C 
HETATM    6  C6  UNL     1       0.600   0.424   0.178  1.00  0.00     0.016 C 
HETATM    7  C8  UNL     1       2.750  -0.791   0.484  1.00  0.00     0.031 C 
HETATM    8  C9  UNL     1      -1.045   0.553  -1.656  1.00  0.00     0.005 C 
HETATM    9  C10 UNL     1      -1.588   1.637   0.518  1.00  0.00     0.005 C 
ENDROOT
BRANCH   6  10
HETATM   10  C7  UNL     1       1.295   1.703   0.416  1.00  0.00     0.230 C 
HETATM   11  O1  UNL     1       0.990   2.691  -0.209  1.00  0.00    -0.283 OA
ENDBRANCH   6  10
TORSDOF 1
