REMARK  5 active torsions:
REMARK  status: ('A' for Active; 'I' for Inactive)
REMARK    1  A    between atoms: C7_8  and  C10_11 
REMARK    2  A    between atoms: C13_14  and  O8_29 
REMARK    3  A    between atoms: C14_15  and  O2_17 
REMARK    4  A    between atoms: O2_17  and  C16_18 
REMARK    5  A    between atoms: C20_22  and  C21_24 
ROOT
HETATM    1  C10 UNL     1      -0.868   0.410  -2.413  1.00  0.00     0.009 A 
HETATM    2  C11 UNL     1      -0.730   1.318  -3.458  1.00  0.00     0.028 A 
HETATM    3  C12 UNL     1       0.077   2.448  -3.323  1.00  0.00     0.155 A 
HETATM    4  C13 UNL     1       0.782   2.701  -2.131  1.00  0.00     0.142 A 
HETATM    5  C14 UNL     1       0.633   1.815  -1.036  1.00  0.00     0.121 A 
HETATM    6  C15 UNL     1      -0.179   0.687  -1.231  1.00  0.00     0.025 A 
HETATM    7  O9  UNL     1       0.183   3.321  -4.363  1.00  0.00    -0.188 OA
ENDROOT
BRANCH   5   8
HETATM    8  O2  UNL     1       1.317   2.064   0.126  1.00  0.00    -0.302 OA
BRANCH   8   9
HETATM    9  C16 UNL     1       1.572   1.076   1.101  1.00  0.00     0.274 C 
HETATM   10  C17 UNL     1       3.056   0.799   1.121  1.00  0.00     0.241 C 
HETATM   11  C18 UNL     1       3.371  -0.126   2.274  1.00  0.00     0.220 C 
HETATM   12  O7  UNL     1       3.414   0.194  -0.095  1.00  0.00    -0.215 OA
HETATM   13  C19 UNL     1       2.865   0.521   3.548  1.00  0.00     0.215 C 
HETATM   14  O6  UNL     1       4.759  -0.319   2.365  1.00  0.00    -0.218 OA
HETATM   15  C20 UNL     1       1.379   0.842   3.422  1.00  0.00     0.184 C 
HETATM   16  O5  UNL     1       3.101  -0.369   4.610  1.00  0.00    -0.218 OA
HETATM   17  O3  UNL     1       1.164   1.675   2.312  1.00  0.00    -0.326 OA
BRANCH  15  18
HETATM   18  C21 UNL     1       0.843   1.545   4.661  1.00  0.00     0.214 C 
HETATM   19  O4  UNL     1      -0.558   1.704   4.552  1.00  0.00    -0.218 OA
ENDBRANCH  15  18
ENDBRANCH   8   9
ENDBRANCH   5   8
BRANCH   4  20
HETATM   20  O8  UNL     1       1.536   3.855  -2.151  1.00  0.00    -0.324 OA
HETATM   21  C22 UNL     1       2.165   4.356  -0.998  1.00  0.00     0.182 C 
ENDBRANCH   4  20
BRANCH   1  22
HETATM   22  C7  UNL     1      -1.737  -0.829  -2.541  1.00  0.00     0.144 C 
HETATM   23  O1  UNL     1      -2.605  -0.912  -1.436  1.00  0.00    -0.329 OA
HETATM   24  C5  UNL     1      -3.249  -2.101  -1.231  1.00  0.00     0.092 A 
HETATM   25  C4  UNL     1      -2.917  -3.286  -1.906  1.00  0.00     0.000 A 
HETATM   26  C6  UNL     1      -4.328  -2.147  -0.338  1.00  0.00     0.051 A 
HETATM   27  C3  UNL     1      -3.630  -4.461  -1.649  1.00  0.00    -0.000 A 
HETATM   28  C9  UNL     1      -1.770  -3.300  -2.883  1.00  0.00     0.031 C 
HETATM   29  C2  UNL     1      -4.685  -4.475  -0.738  1.00  0.00     0.027 A 
HETATM   30  C1  UNL     1      -5.056  -3.308  -0.065  1.00  0.00     0.133 A 
HETATM   31  O10 UNL     1      -6.083  -3.293   0.824  1.00  0.00    -0.190 OA
HETATM   32  C8  UNL     1      -0.871  -2.083  -2.640  1.00  0.00     0.040 C 
ENDBRANCH   1  22
TORSDOF 5
