REMARK  4 active torsions:
REMARK  status: ('A' for Active; 'I' for Inactive)
REMARK    1  A    between atoms: C7_7  and  C12_13 
REMARK    2  A    between atoms: C8_8  and  C11_11 
REMARK    3  A    between atoms: C12_13  and  C13_14 
REMARK    4  A    between atoms: C13_14  and  C14_15 
ROOT
HETATM    1  C1  UNL     1       3.178   0.270  -1.055  1.00  0.00     0.000 C 
HETATM    2  C2  UNL     1       3.301  -1.219  -0.695  1.00  0.00     0.000 C 
HETATM    3  C3  UNL     1       2.004  -2.004  -0.961  1.00  0.00     0.000 C 
HETATM    4  C4  UNL     1       0.854  -1.441  -0.068  1.00  0.00     0.005 C 
HETATM    5  C5  UNL     1       0.887   0.125   0.113  1.00  0.00     0.004 C 
HETATM    6  C6  UNL     1       1.731   0.787  -1.002  1.00  0.00     0.000 C 
HETATM    7  C7  UNL     1      -0.543   0.738   0.090  1.00  0.00     0.023 C 
HETATM    8  C8  UNL     1      -1.310   0.242  -1.115  1.00  0.00    -0.016 C 
HETATM    9  C9  UNL     1      -1.295  -1.070  -1.404  1.00  0.00    -0.032 C 
HETATM   10  C10 UNL     1      -0.531  -2.000  -0.494  1.00  0.00     0.025 C 
HETATM   11  C17 UNL     1       1.553   0.479   1.455  1.00  0.00     0.000 C 
HETATM   12  C18 UNL     1       1.656  -1.920  -2.455  1.00  0.00     0.000 C 
HETATM   13  C19 UNL     1       2.240  -3.482  -0.627  1.00  0.00     0.000 C 
ENDROOT
BRANCH   7  14
HETATM   14  C12 UNL     1      -1.342   0.438   1.365  1.00  0.00     0.039 C 
BRANCH  14  15
HETATM   15  C13 UNL     1      -2.393   1.506   1.668  1.00  0.00     0.146 C 
HETATM   16  O2  UNL     1      -3.391   1.438   0.674  1.00  0.00    -0.222 OA
HETATM   17  C16 UNL     1      -1.812   2.922   1.668  1.00  0.00     0.038 C 
BRANCH  15  18
HETATM   18  C14 UNL     1      -3.174   1.205   2.920  1.00  0.00     0.003 C 
HETATM   19  C15 UNL     1      -2.801   1.801   4.067  1.00  0.00    -0.002 C 
ENDBRANCH  15  18
ENDBRANCH  14  15
ENDBRANCH   7  14
BRANCH   8  20
HETATM   20  C11 UNL     1      -2.064   1.225  -1.975  1.00  0.00     0.204 C 
HETATM   21  O1  UNL     1      -1.336   1.477  -3.154  1.00  0.00    -0.216 OA
ENDBRANCH   8  20
TORSDOF 4
