REMARK  2 active torsions:
REMARK  status: ('A' for Active; 'I' for Inactive)
REMARK    1  A    between atoms: C1_1  and  C18_27 
REMARK    2  A    between atoms: C9_10  and  C15_20 
ROOT
HETATM    1  C1  UNL     1      -1.398  -2.314  -0.445  1.00  0.00     0.083 A 
HETATM    2  C2  UNL     1      -2.709  -2.744  -0.744  1.00  0.00     0.135 A 
HETATM    3  C3  UNL     1      -3.727  -1.791  -0.926  1.00  0.00     0.024 A 
HETATM    4  C4  UNL     1      -3.441  -0.414  -0.813  1.00  0.00    -0.013 A 
HETATM    5  C5  UNL     1      -2.113   0.039  -0.512  1.00  0.00     0.083 A 
HETATM    6  C6  UNL     1      -1.082  -0.932  -0.324  1.00  0.00     0.110 A 
HETATM    7  O1  UNL     1       0.213  -0.695  -0.035  1.00  0.00    -0.305 OA
HETATM    8  C7  UNL     1       1.014   0.365   0.176  1.00  0.00     0.124 A 
HETATM    9  C8  UNL     1       0.555   1.719   0.121  1.00  0.00     0.126 A 
HETATM   10  C9  UNL     1       1.463   2.789   0.354  1.00  0.00     0.061 A 
HETATM   11  C10 UNL     1       2.828   2.557   0.648  1.00  0.00     0.136 A 
HETATM   12  C11 UNL     1       3.246   1.213   0.697  1.00  0.00     0.091 A 
HETATM   13  C12 UNL     1       2.389   0.154   0.471  1.00  0.00     0.069 A 
HETATM   14  C13 UNL     1       3.223  -1.105   0.615  1.00  0.00     0.302 A 
HETATM   15  O2  UNL     1       4.565  -0.629   0.930  1.00  0.00    -0.266 OA
HETATM   16  C14 UNL     1       4.582   0.723   0.980  1.00  0.00     0.300 A 
HETATM   17  O3  UNL     1       5.531   1.434   1.217  1.00  0.00    -0.259 OA
HETATM   18  O4  UNL     1       3.227  -1.850  -0.586  1.00  0.00    -0.184 OA
HETATM   19  O5  UNL     1       3.582   3.650   0.848  1.00  0.00    -0.190 OA
HETATM   20  O7  UNL     1      -0.699   2.127  -0.137  1.00  0.00    -0.271 OA
HETATM   21  C16 UNL     1      -1.850   1.508  -0.402  1.00  0.00     0.302 A 
HETATM   22  O8  UNL     1      -2.736   2.315  -0.561  1.00  0.00    -0.259 OA
HETATM   23  C17 UNL     1      -4.568   0.516  -1.020  1.00  0.00     0.031 C 
HETATM   24  O9  UNL     1      -2.998  -4.049  -0.855  1.00  0.00    -0.190 OA
ENDROOT
BRANCH   1  25
HETATM   25  C18 UNL     1      -0.336  -3.332  -0.256  1.00  0.00     0.177 C 
HETATM   26  C19 UNL     1      -0.566  -4.092   1.023  1.00  0.00     0.077 C 
HETATM   27  O10 UNL     1       0.607  -3.584  -0.967  1.00  0.00    -0.291 OA
ENDBRANCH   1  25
BRANCH  10  28
HETATM   28  C15 UNL     1       0.973   4.182   0.289  1.00  0.00     0.213 C 
HETATM   29  O6  UNL     1       1.463   4.797  -0.879  1.00  0.00    -0.215 OA
ENDBRANCH  10  28
TORSDOF 2
