REMARK  0 active torsions:
REMARK  status: ('A' for Active; 'I' for Inactive)
ROOT
HETATM    1  C1  UNL     1      -1.401   2.267  -1.266  1.00  0.00     0.145 A 
HETATM    2  C2  UNL     1      -2.385   1.442  -1.816  1.00  0.00     0.173 A 
HETATM    3  C3  UNL     1      -1.947  -0.002  -1.636  1.00  0.00     0.184 C 
HETATM    4  C4  UNL     1      -0.940   0.011  -0.450  1.00  0.00     0.062 C 
HETATM    5  C5  UNL     1      -0.273   1.398  -0.696  1.00  0.00     0.035 C 
HETATM    6  C6  UNL     1       0.465   2.103   0.457  1.00  0.00     0.005 C 
HETATM    7  C7  UNL     1       1.275   1.228   1.429  1.00  0.00     0.035 C 
HETATM    8  C8  UNL     1       2.019  -0.001   0.893  1.00  0.00     0.145 C 
HETATM    9  C9  UNL     1       1.138  -1.230   0.571  1.00  0.00     0.015 C 
HETATM   10  C10 UNL     1       0.069  -1.163  -0.531  1.00  0.00     0.146 C 
HETATM   11  O1  UNL     1       0.812  -0.994  -1.720  1.00  0.00    -0.222 OA
HETATM   12  C11 UNL     1      -0.620  -2.524  -0.726  1.00  0.00     0.037 C 
HETATM   13  C12 UNL     1       0.940  -1.789   1.954  1.00  0.00     0.060 C 
HETATM   14  C13 UNL     1       2.189  -1.379   2.629  1.00  0.00     0.295 C 
HETATM   15  O2  UNL     1       2.868  -0.415   1.947  1.00  0.00    -0.297 OA
HETATM   16  O3  UNL     1       2.602  -1.883   3.669  1.00  0.00    -0.259 OA
HETATM   17  C14 UNL     1      -0.036  -2.501   2.539  1.00  0.00     0.005 C 
HETATM   18  C15 UNL     1       1.377   3.210  -0.120  1.00  0.00     0.000 C 
HETATM   19  C16 UNL     1      -1.759   0.016   0.860  1.00  0.00     0.005 C 
HETATM   20  O4  UNL     1      -3.067  -0.832  -1.390  1.00  0.00    -0.221 OA
HETATM   21  O5  UNL     1      -1.439   2.153  -2.799  1.00  0.00    -0.352 OA
ENDROOT
TORSDOF 0
