REMARK  1 active torsions:
REMARK  status: ('A' for Active; 'I' for Inactive)
REMARK    1  A    between atoms: C12_12  and  C17_18 
ROOT
HETATM    1  C1  UNL     1       1.225  -0.459   0.180  1.00  0.00     0.004 A 
HETATM    2  C2  UNL     1      -0.166  -0.551   0.035  1.00  0.00     0.020 A 
HETATM    3  C3  UNL     1      -0.850  -1.742   0.070  1.00  0.00     0.004 A 
HETATM    4  C4  UNL     1      -0.098  -2.936   0.264  1.00  0.00    -0.002 A 
HETATM    5  C5  UNL     1       1.316  -2.889   0.416  1.00  0.00    -0.001 A 
HETATM    6  C6  UNL     1       1.996  -1.635   0.377  1.00  0.00    -0.004 A 
HETATM    7  C7  UNL     1       3.404  -1.508   0.525  1.00  0.00    -0.022 A 
HETATM    8  C8  UNL     1       4.002  -0.219   0.471  1.00  0.00    -0.004 A 
HETATM    9  C9  UNL     1       3.215   0.945   0.269  1.00  0.00     0.003 A 
HETATM   10  C10 UNL     1       1.811   0.830   0.123  1.00  0.00     0.039 A 
HETATM   11  C11 UNL     1       0.939   2.045  -0.090  1.00  0.00     0.194 A 
HETATM   12  C12 UNL     1      -0.537   1.814  -0.229  1.00  0.00     0.039 A 
HETATM   13  C13 UNL     1      -1.039   0.562  -0.166  1.00  0.00     0.093 A 
HETATM   14  O1  UNL     1      -2.307   0.092  -0.260  1.00  0.00    -0.332 OA
HETATM   15  C14 UNL     1      -2.315  -1.373  -0.125  1.00  0.00     0.117 A 
HETATM   16  C15 UNL     1      -2.867  -1.990  -1.404  1.00  0.00     0.035 C 
HETATM   17  C16 UNL     1      -3.141  -1.756   1.098  1.00  0.00     0.035 C 
HETATM   18  O2  UNL     1       1.320   3.193  -0.160  1.00  0.00    -0.287 OA
HETATM   19  C20 UNL     1       4.268  -2.686   0.734  1.00  0.00     0.031 C 
ENDROOT
BRANCH  12  20
HETATM   20  C17 UNL     1      -1.475   2.977  -0.441  1.00  0.00     0.027 C 
HETATM   21  C18 UNL     1      -1.234   3.686  -1.774  1.00  0.00     0.005 C 
HETATM   22  C19 UNL     1      -1.488   3.939   0.748  1.00  0.00     0.005 C 
ENDBRANCH  12  20
TORSDOF 1
