REMARK  8 active torsions:
REMARK  status: ('A' for Active; 'I' for Inactive)
REMARK    1  A    between atoms: C5_5  and  C7_7 
REMARK    2  A    between atoms: C11_12  and  C15_17 
REMARK    3  A    between atoms: C16_18  and  C17_19 
REMARK    4  A    between atoms: C17_19  and  O4_21 
REMARK    5  A    between atoms: O4_21  and  C18_22 
REMARK    6  A    between atoms: C18_22  and  C19_23 
REMARK    7  A    between atoms: C18_22  and  C26_32 
REMARK    8  A    between atoms: C19_23  and  C20_24 
ROOT
HETATM    1  C7  UNL     1       2.711   3.236   1.127  1.00  0.00     0.100 A 
HETATM    2  O1  UNL     1       1.899   4.406   1.035  1.00  0.00    -0.305 OA
HETATM    3  C8  UNL     1       0.598   3.936   1.092  1.00  0.00     0.125 A 
HETATM    4  C9  UNL     1       0.604   2.576   1.205  1.00  0.00     0.027 A 
HETATM    5  C10 UNL     1       1.873   2.102   1.233  1.00  0.00     0.027 A 
HETATM    6  C11 UNL     1      -0.613   1.857   1.279  1.00  0.00     0.002 A 
HETATM    7  C12 UNL     1      -1.830   2.588   1.234  1.00  0.00     0.002 A 
HETATM    8  C13 UNL     1      -1.803   4.008   1.115  1.00  0.00     0.029 A 
HETATM    9  C14 UNL     1      -0.574   4.725   1.039  1.00  0.00     0.154 A 
HETATM   10  O2  UNL     1      -0.682   6.055   0.930  1.00  0.00    -0.188 OA
ENDROOT
BRANCH   6  11
HETATM   11  C15 UNL     1      -0.631   0.383   1.402  1.00  0.00     0.005 C 
HETATM   12  C16 UNL     1      -1.660  -0.297   0.871  1.00  0.00     0.068 C 
BRANCH  12  13
HETATM   13  C17 UNL     1      -1.721  -1.760   0.969  1.00  0.00     0.296 C 
HETATM   14  O3  UNL     1      -0.842  -2.373   1.527  1.00  0.00    -0.259 OA
BRANCH  13  15
HETATM   15  O4  UNL     1      -2.781  -2.332   0.408  1.00  0.00    -0.290 OA
BRANCH  15  16
HETATM   16  C18 UNL     1      -2.803  -3.738   0.602  1.00  0.00     0.215 C 
BRANCH  16  17
HETATM   17  C19 UNL     1      -3.852  -4.365  -0.316  1.00  0.00     0.068 C 
BRANCH  17  18
HETATM   18  C20 UNL     1      -3.553  -4.104  -1.748  1.00  0.00    -0.017 A 
HETATM   19  C21 UNL     1      -4.227  -3.080  -2.434  1.00  0.00    -0.002 A 
HETATM   20  C22 UNL     1      -3.941  -2.834  -3.789  1.00  0.00     0.029 A 
HETATM   21  C23 UNL     1      -2.980  -3.611  -4.461  1.00  0.00     0.156 A 
HETATM   22  C24 UNL     1      -2.305  -4.637  -3.773  1.00  0.00     0.156 A 
HETATM   23  O6  UNL     1      -2.717  -3.375  -5.730  1.00  0.00    -0.188 OA
HETATM   24  C25 UNL     1      -2.592  -4.881  -2.420  1.00  0.00     0.025 A 
HETATM   25  O5  UNL     1      -1.402  -5.369  -4.396  1.00  0.00    -0.188 OA
ENDBRANCH  17  18
ENDBRANCH  16  17
BRANCH  16  26
HETATM   26  C26 UNL     1      -3.057  -4.043   2.055  1.00  0.00     0.215 C 
HETATM   27  O7  UNL     1      -2.318  -5.025   2.565  1.00  0.00    -0.646 OA
HETATM   28  O8  UNL     1      -3.879  -3.420   2.686  1.00  0.00    -0.646 OA
ENDBRANCH  16  26
ENDBRANCH  15  16
ENDBRANCH  13  15
ENDBRANCH  12  13
ENDBRANCH   6  11
BRANCH   1  29
HETATM   29  C5  UNL     1       4.192   3.303   1.104  1.00  0.00     0.025 A 
HETATM   30  C4  UNL     1       4.842   4.547   0.990  1.00  0.00     0.032 A 
HETATM   31  C3  UNL     1       6.246   4.613   0.969  1.00  0.00     0.156 A 
HETATM   32  C2  UNL     1       7.006   3.432   1.061  1.00  0.00     0.156 A 
HETATM   33  O9  UNL     1       6.846   5.781   0.863  1.00  0.00    -0.188 OA
HETATM   34  C1  UNL     1       6.356   2.189   1.174  1.00  0.00     0.030 A 
HETATM   35  O10 UNL     1       8.322   3.486   1.041  1.00  0.00    -0.188 OA
HETATM   36  C6  UNL     1       4.953   2.123   1.195  1.00  0.00     0.004 A 
ENDBRANCH   1  29
TORSDOF 8
