REMARK  4 active torsions:
REMARK  status: ('A' for Active; 'I' for Inactive)
REMARK    1  A    between atoms: C1_1  and  O6_23 
REMARK    2  A    between atoms: C2_2  and  O5_21 
REMARK    3  A    between atoms: C7_8  and  C10_12 
REMARK    4  A    between atoms: C13_15  and  O3_18 
ROOT
HETATM    1  C1  UNL     1      -3.453  -0.951   0.307  1.00  0.00     0.120 A 
HETATM    2  C2  UNL     1      -3.301  -2.260   0.824  1.00  0.00     0.142 A 
HETATM    3  C3  UNL     1      -2.010  -2.799   1.033  1.00  0.00     0.160 A 
HETATM    4  C4  UNL     1      -0.865  -2.018   0.719  1.00  0.00     0.089 A 
HETATM    5  C5  UNL     1      -1.016  -0.703   0.201  1.00  0.00     0.107 A 
HETATM    6  C6  UNL     1      -2.313  -0.174  -0.004  1.00  0.00     0.051 A 
HETATM    7  O1  UNL     1       0.072   0.043  -0.096  1.00  0.00    -0.307 OA
HETATM    8  C7  UNL     1       1.340  -0.389   0.070  1.00  0.00     0.103 A 
HETATM    9  C8  UNL     1       1.604  -1.623   0.557  1.00  0.00     0.067 A 
HETATM   10  C9  UNL     1       0.512  -2.549   0.924  1.00  0.00     0.202 A 
HETATM   11  O2  UNL     1       0.826  -3.635   1.350  1.00  0.00    -0.286 OA
HETATM   12  O4  UNL     1      -1.879  -4.039   1.523  1.00  0.00    -0.188 OA
ENDROOT
BRANCH   8  13
HETATM   13  C10 UNL     1       2.482   0.506  -0.283  1.00  0.00     0.023 A 
HETATM   14  C11 UNL     1       2.238   1.795  -0.791  1.00  0.00     0.004 A 
HETATM   15  C12 UNL     1       3.315   2.635  -1.123  1.00  0.00     0.024 A 
HETATM   16  C13 UNL     1       4.639   2.191  -0.951  1.00  0.00     0.094 A 
HETATM   17  C14 UNL     1       4.879   0.902  -0.445  1.00  0.00     0.024 A 
HETATM   18  C15 UNL     1       3.805   0.060  -0.111  1.00  0.00     0.004 A 
BRANCH  16  19
HETATM   19  O3  UNL     1       5.647   2.980  -1.264  1.00  0.00    -0.328 OA
HETATM   20  C16 UNL     1       5.350   4.266  -1.789  1.00  0.00     0.181 C 
ENDBRANCH  16  19
ENDBRANCH   8  13
BRANCH   1  21
HETATM   21  O6  UNL     1      -4.678  -0.443   0.109  1.00  0.00    -0.326 OA
HETATM   22  C18 UNL     1      -4.783   0.801  -0.568  1.00  0.00     0.181 C 
ENDBRANCH   1  21
BRANCH   2  23
HETATM   23  O5  UNL     1      -4.387  -2.992   1.119  1.00  0.00    -0.324 OA
HETATM   24  C17 UNL     1      -5.510  -2.324   1.676  1.00  0.00     0.182 C 
ENDBRANCH   2  23
TORSDOF 4
