REMARK  7 active torsions:
REMARK  status: ('A' for Active; 'I' for Inactive)
REMARK    1  A    between atoms: C10_10  and  O1_11 
REMARK    2  A    between atoms: O1_11  and  C11_12 
REMARK    3  A    between atoms: C12_14  and  C16_21 
REMARK    4  A    between atoms: C21_28  and  C24_31 
REMARK    5  A    between atoms: C26_33  and  C27_34 
REMARK    6  A    between atoms: C27_34  and  C28_35 
REMARK    7  A    between atoms: C28_35  and  C29_36 
ROOT
HETATM    1  C1  UNL     1       3.883  -0.047   2.744  1.00  0.00     0.033 C 
HETATM    2  C2  UNL     1       4.572  -0.340   1.400  1.00  0.00     0.152 C 
HETATM    3  C3  UNL     1       3.805  -1.369   0.524  1.00  0.00     0.030 C 
HETATM    4  C4  UNL     1       2.332  -0.877   0.400  1.00  0.00     0.030 C 
HETATM    5  C5  UNL     1       1.602  -0.682   1.770  1.00  0.00     0.003 C 
HETATM    6  C6  UNL     1       2.410   0.371   2.563  1.00  0.00     0.003 C 
HETATM    7  C7  UNL     1       0.092  -0.299   1.551  1.00  0.00     0.003 C 
HETATM    8  C8  UNL     1      -0.230   0.250   0.131  1.00  0.00     0.003 C 
HETATM    9  C9  UNL     1       0.191  -0.752  -0.986  1.00  0.00     0.030 C 
HETATM   10  C10 UNL     1       1.451  -1.590  -0.650  1.00  0.00     0.118 C 
HETATM   11  C17 UNL     1      -1.768   0.488   0.045  1.00  0.00     0.003 C 
HETATM   12  C18 UNL     1      -2.238   1.492   1.113  1.00  0.00     0.034 C 
HETATM   13  C19 UNL     1      -1.994   0.889   2.508  1.00  0.00     0.152 C 
HETATM   14  C20 UNL     1      -0.486   0.603   2.670  1.00  0.00     0.033 C 
HETATM   15  O7  UNL     1      -2.397   1.807   3.506  1.00  0.00    -0.224 OA
HETATM   16  C21 UNL     1      -3.691   1.775   0.709  1.00  0.00     0.020 C 
HETATM   17  C22 UNL     1      -3.625   1.803  -0.824  1.00  0.00     0.004 C 
HETATM   18  C23 UNL     1      -2.279   1.186  -1.221  1.00  0.00     0.000 C 
HETATM   19  C32 UNL     1      -2.568  -0.822   0.164  1.00  0.00     0.000 C 
HETATM   20  C33 UNL     1       0.471   1.605  -0.080  1.00  0.00     0.000 C 
HETATM   21  C34 UNL     1       1.607  -1.975   2.608  1.00  0.00     0.000 C 
HETATM   22  C35 UNL     1       3.881  -2.785   1.113  1.00  0.00     0.003 C 
HETATM   23  C36 UNL     1       4.455  -1.414  -0.867  1.00  0.00     0.003 C 
HETATM   24  O9  UNL     1       5.897  -0.777   1.647  1.00  0.00    -0.224 OA
ENDROOT
BRANCH  10  25
HETATM   25  O1  UNL     1       1.068  -2.869  -0.184  1.00  0.00    -0.332 OA
BRANCH  25  26
HETATM   26  C11 UNL     1       1.283  -3.897  -1.131  1.00  0.00     0.270 C 
HETATM   27  O2  UNL     1       0.488  -3.623  -2.275  1.00  0.00    -0.326 OA
HETATM   28  C12 UNL     1       0.637  -4.547  -3.346  1.00  0.00     0.184 C 
HETATM   29  C13 UNL     1       0.203  -5.953  -2.873  1.00  0.00     0.215 C 
HETATM   30  C14 UNL     1       0.979  -6.385  -1.609  1.00  0.00     0.220 C 
HETATM   31  O5  UNL     1       0.441  -6.877  -3.920  1.00  0.00    -0.218 OA
HETATM   32  C15 UNL     1       0.896  -5.274  -0.537  1.00  0.00     0.241 C 
HETATM   33  O4  UNL     1       0.430  -7.588  -1.098  1.00  0.00    -0.218 OA
HETATM   34  O3  UNL     1       1.773  -5.588   0.533  1.00  0.00    -0.215 OA
BRANCH  28  35
HETATM   35  C16 UNL     1      -0.215  -4.018  -4.506  1.00  0.00     0.214 C 
HETATM   36  O6  UNL     1       0.289  -2.754  -4.881  1.00  0.00    -0.218 OA
ENDBRANCH  28  35
ENDBRANCH  25  26
ENDBRANCH  10  25
BRANCH  16  37
HETATM   37  C24 UNL     1      -4.262   3.041   1.303  1.00  0.00    -0.048 C 
HETATM   38  C25 UNL     1      -5.504   3.059   2.152  1.00  0.00     0.026 C 
HETATM   39  C26 UNL     1      -3.633   4.203   1.063  1.00  0.00    -0.035 C 
BRANCH  39  40
HETATM   40  C27 UNL     1      -2.389   4.184   0.215  1.00  0.00     0.028 C 
BRANCH  40  41
HETATM   41  C28 UNL     1      -2.350   5.340  -0.785  1.00  0.00     0.035 C 
BRANCH  41  42
HETATM   42  C29 UNL     1      -1.023   6.102  -0.752  1.00  0.00     0.127 C 
HETATM   43  C30 UNL     1      -0.924   7.160  -1.852  1.00  0.00     0.033 C 
HETATM   44  O8  UNL     1      -0.102   5.076  -1.043  1.00  0.00    -0.226 OA
HETATM   45  C31 UNL     1      -0.697   6.658   0.635  1.00  0.00     0.033 C 
ENDBRANCH  41  42
ENDBRANCH  40  41
ENDBRANCH  39  40
ENDBRANCH  16  37
TORSDOF 7
