REMARK  10 active torsions:
REMARK  status: ('A' for Active; 'I' for Inactive)
REMARK    1  A    between atoms: C2_2  and  O3_33 
REMARK    2  A    between atoms: C3_3  and  C29_30 
REMARK    3  A    between atoms: O3_33  and  C31_34 
REMARK    4  A    between atoms: C32_36  and  C48_65 
REMARK    5  A    between atoms: C35_39  and  O5_40 
REMARK    6  A    between atoms: O5_40  and  C36_41 
REMARK    7  A    between atoms: C37_43  and  C47_61 
REMARK    8  A    between atoms: C40_46  and  O7_47 
REMARK    9  A    between atoms: O7_47  and  C41_48 
REMARK   10  A    between atoms: C42_50  and  C46_57 
ROOT
HETATM    1  C31 UNL     1       3.770  -1.176   1.754  1.00  0.00     0.267 C 
HETATM    2  O4  UNL     1       3.783  -1.473   3.150  1.00  0.00    -0.318 OA
HETATM    3  C32 UNL     1       4.354  -2.725   3.504  1.00  0.00     0.237 C 
HETATM    4  C33 UNL     1       5.881  -2.701   3.207  1.00  0.00     0.223 C 
HETATM    5  C34 UNL     1       6.252  -1.760   2.022  1.00  0.00     0.217 C 
HETATM    6  C35 UNL     1       5.066  -1.660   1.037  1.00  0.00     0.207 C 
HETATM    7  O16 UNL     1       7.451  -2.148   1.367  1.00  0.00    -0.218 OA
HETATM    8  O17 UNL     1       6.281  -4.043   2.975  1.00  0.00    -0.217 OA
ENDROOT
BRANCH   1   9
HETATM    9  O3  UNL     1       2.635  -1.752   1.137  1.00  0.00    -0.331 OA
BRANCH   9  10
HETATM   10  C2  UNL     1       1.488  -0.920   1.189  1.00  0.00     0.125 C 
HETATM   11  C1  UNL     1       1.051  -0.766   2.664  1.00  0.00     0.030 C 
HETATM   12  C6  UNL     1      -0.461  -0.510   2.818  1.00  0.00     0.003 C 
HETATM   13  C5  UNL     1      -1.061   0.295   1.645  1.00  0.00     0.001 C 
HETATM   14  C4  UNL     1      -0.844  -0.455   0.281  1.00  0.00     0.009 C 
HETATM   15  C7  UNL     1      -2.567   0.645   1.887  1.00  0.00     0.005 C 
HETATM   16  C28 UNL     1      -0.279   1.625   1.606  1.00  0.00     0.000 C 
HETATM   17  C3  UNL     1       0.352  -1.465   0.287  1.00  0.00     0.083 C 
HETATM   18  C10 UNL     1      -2.137  -1.088  -0.285  1.00  0.00     0.001 C 
HETATM   19  C30 UNL     1      -0.086  -2.854   0.787  1.00  0.00     0.010 C 
HETATM   20  C9  UNL     1      -3.318  -0.109  -0.420  1.00  0.00     0.000 C 
HETATM   21  C8  UNL     1      -3.293   1.076   0.582  1.00  0.00     0.004 C 
HETATM   22  C11 UNL     1      -4.729   1.578   0.939  1.00  0.00     0.015 C 
HETATM   23  C27 UNL     1      -2.529   2.240  -0.080  1.00  0.00     0.000 C 
HETATM   24  C12 UNL     1      -5.500   0.512   1.705  1.00  0.00    -0.049 C 
HETATM   25  C18 UNL     1      -5.533   1.969  -0.324  1.00  0.00     0.004 C 
HETATM   26  C26 UNL     1      -4.619   2.814   1.850  1.00  0.00     0.004 C 
HETATM   27  C13 UNL     1      -4.873  -0.375   2.508  1.00  0.00    -0.035 C 
HETATM   28  C15 UNL     1      -7.012   0.443   1.537  1.00  0.00     0.025 C 
HETATM   29  C14 UNL     1      -3.369  -0.451   2.639  1.00  0.00     0.025 C 
HETATM   30  C16 UNL     1      -7.637   1.826   1.205  1.00  0.00     0.055 C 
HETATM   31  C22 UNL     1      -7.381  -0.682   0.535  1.00  0.00     0.005 C 
HETATM   32  C17 UNL     1      -6.949   2.490  -0.018  1.00  0.00     0.007 C 
HETATM   33  C19 UNL     1      -9.131   1.701   0.959  1.00  0.00     0.150 C 
HETATM   34  C25 UNL     1      -7.488   2.732   2.440  1.00  0.00     0.008 C 
HETATM   35  C20 UNL     1      -9.701   0.316   0.768  1.00  0.00     0.065 C 
HETATM   36  O1  UNL     1      -9.844   2.678   0.912  1.00  0.00    -0.296 OA
HETATM   37  C21 UNL     1      -8.787  -0.561  -0.103  1.00  0.00     0.007 C 
HETATM   38  C23 UNL     1      -8.676   0.053  -1.508  1.00  0.00     0.000 C 
HETATM   39  C24 UNL     1      -9.408  -1.953  -0.262  1.00  0.00     0.000 C 
BRANCH  17  40
HETATM   40  C29 UNL     1       0.838  -1.650  -1.135  1.00  0.00     0.209 C 
HETATM   41  O2  UNL     1       0.342  -1.033  -2.047  1.00  0.00    -0.288 OA
ENDBRANCH  17  40
ENDBRANCH   9  10
ENDBRANCH   1   9
BRANCH   6  42
HETATM   42  O5  UNL     1       5.365  -0.764  -0.021  1.00  0.00    -0.324 OA
BRANCH  42  43
HETATM   43  C36 UNL     1       5.316  -1.371  -1.297  1.00  0.00     0.267 C 
HETATM   44  O6  UNL     1       6.277  -2.432  -1.299  1.00  0.00    -0.326 OA
HETATM   45  C37 UNL     1       6.660  -2.926  -2.576  1.00  0.00     0.184 C 
HETATM   46  C38 UNL     1       7.412  -1.816  -3.373  1.00  0.00     0.215 C 
HETATM   47  C39 UNL     1       7.027  -0.363  -2.963  1.00  0.00     0.217 C 
HETATM   48  O14 UNL     1       8.816  -2.037  -3.311  1.00  0.00    -0.218 OA
HETATM   49  C40 UNL     1       5.568  -0.357  -2.465  1.00  0.00     0.207 C 
HETATM   50  O13 UNL     1       7.871   0.146  -1.936  1.00  0.00    -0.218 OA
BRANCH  45  51
HETATM   51  C47 UNL     1       5.414  -3.447  -3.305  1.00  0.00     0.214 C 
HETATM   52  O15 UNL     1       4.893  -4.529  -2.568  1.00  0.00    -0.218 OA
ENDBRANCH  45  51
BRANCH  49  53
HETATM   53  O7  UNL     1       5.135   0.965  -2.172  1.00  0.00    -0.324 OA
BRANCH  53  54
HETATM   54  C41 UNL     1       3.750   1.156  -2.385  1.00  0.00     0.270 C 
HETATM   55  O8  UNL     1       3.445   1.576  -3.719  1.00  0.00    -0.326 OA
HETATM   56  C42 UNL     1       3.863   2.891  -4.106  1.00  0.00     0.184 C 
HETATM   57  C43 UNL     1       3.311   3.967  -3.137  1.00  0.00     0.215 C 
HETATM   58  C44 UNL     1       3.607   3.600  -1.664  1.00  0.00     0.220 C 
HETATM   59  O11 UNL     1       1.918   4.121  -3.365  1.00  0.00    -0.218 OA
HETATM   60  C45 UNL     1       3.193   2.147  -1.332  1.00  0.00     0.241 C 
HETATM   61  O10 UNL     1       3.037   4.533  -0.760  1.00  0.00    -0.218 OA
HETATM   62  O9  UNL     1       1.781   2.012  -1.283  1.00  0.00    -0.215 OA
BRANCH  56  63
HETATM   63  C46 UNL     1       5.391   2.943  -4.236  1.00  0.00     0.214 C 
HETATM   64  O12 UNL     1       5.791   1.924  -5.125  1.00  0.00    -0.218 OA
ENDBRANCH  56  63
ENDBRANCH  53  54
ENDBRANCH  49  53
ENDBRANCH  42  43
ENDBRANCH   6  42
BRANCH   3  65
HETATM   65  C48 UNL     1       4.051  -2.996   4.957  1.00  0.00     0.217 C 
HETATM   66  O18 UNL     1       4.857  -3.549   5.668  1.00  0.00    -0.646 OA
HETATM   67  O19 UNL     1       2.855  -2.584   5.371  1.00  0.00    -0.646 OA
ENDBRANCH   3  65
TORSDOF 10
