REMARK  1 active torsions:
REMARK  status: ('A' for Active; 'I' for Inactive)
REMARK    1  A    between atoms: C8_8  and  C12_12 
ROOT
HETATM    1  C1  UNL     1      -2.423   0.163  -0.455  1.00  0.00     0.004 C 
HETATM    2  C2  UNL     1      -2.906  -1.099   0.295  1.00  0.00     0.004 C 
HETATM    3  C3  UNL     1      -1.746  -2.097   0.178  1.00  0.00     0.022 C 
HETATM    4  C4  UNL     1      -0.529  -1.217   0.026  1.00  0.00    -0.049 C 
HETATM    5  C5  UNL     1      -0.936   0.235  -0.022  1.00  0.00     0.018 C 
HETATM    6  C6  UNL     1      -0.022   1.084  -0.902  1.00  0.00     0.004 C 
HETATM    7  C7  UNL     1       1.310   1.480  -0.242  1.00  0.00     0.005 C 
HETATM    8  C8  UNL     1       2.162   0.373   0.433  1.00  0.00     0.023 C 
HETATM    9  C9  UNL     1       2.003  -0.973  -0.302  1.00  0.00     0.029 C 
HETATM   10  C10 UNL     1       0.707  -1.722  -0.107  1.00  0.00    -0.034 C 
HETATM   11  C11 UNL     1       1.821   0.227   1.934  1.00  0.00     0.005 C 
HETATM   12  C14 UNL     1      -3.224   1.399  -0.005  1.00  0.00     0.000 C 
HETATM   13  C15 UNL     1      -2.594  -0.025  -1.975  1.00  0.00     0.000 C 
ENDROOT
BRANCH   8  14
HETATM   14  C12 UNL     1       3.627   0.814   0.384  1.00  0.00    -0.026 C 
HETATM   15  C13 UNL     1       4.668   0.115   0.863  1.00  0.00    -0.005 C 
ENDBRANCH   8  14
TORSDOF 1
