REMARK  3 active torsions:
REMARK  status: ('A' for Active; 'I' for Inactive)
REMARK    1  A    between atoms: C3_3  and  C4_4 
REMARK    2  A    between atoms: C4_4  and  C5_5 
REMARK    3  A    between atoms: C5_5  and  C6_6 
ROOT
HETATM    1  C6  UNL     1      -2.133  -0.685  -0.283  1.00  0.00     0.000 C 
HETATM    2  C7  UNL     1      -3.294  -1.445   0.394  1.00  0.00     0.000 C 
HETATM    3  C8  UNL     1      -1.308  -1.633  -1.199  1.00  0.00     0.000 C 
HETATM    4  C9  UNL     1      -0.075  -0.776  -1.618  1.00  0.00     0.000 C 
HETATM    5  C10 UNL     1       0.310  -0.413  -0.165  1.00  0.00     0.000 A 
HETATM    6  C11 UNL     1      -0.083  -1.657   0.702  1.00  0.00     0.000 A 
HETATM    7  C12 UNL     1      -0.753  -2.703  -0.195  1.00  0.00     0.000 C 
HETATM    8  C13 UNL     1      -0.948  -0.421   0.662  1.00  0.00     0.000 A 
HETATM    9  C14 UNL     1      -0.969   0.390   1.979  1.00  0.00     0.000 C 
ENDROOT
BRANCH   1  10
HETATM   10  C5  UNL     1      -2.684   0.561  -1.047  1.00  0.00     0.004 C 
BRANCH  10  11
HETATM   11  C4  UNL     1      -3.482   1.492  -0.111  1.00  0.00     0.025 C 
BRANCH  11  12
HETATM   12  C3  UNL     1      -3.996   2.683  -0.866  1.00  0.00    -0.034 C 
HETATM   13  C2  UNL     1      -5.054   3.346  -0.422  1.00  0.00    -0.048 C 
HETATM   14  C1  UNL     1      -5.561   4.545  -1.173  1.00  0.00     0.026 C 
HETATM   15  C15 UNL     1      -5.771   2.896   0.827  1.00  0.00     0.026 C 
ENDBRANCH  11  12
ENDBRANCH  10  11
ENDBRANCH   1  10
TORSDOF 3
