REMARK  12 active torsions:
REMARK  status: ('A' for Active; 'I' for Inactive)
REMARK    1  A    between atoms: C3_3  and  O3_9 
REMARK    2  A    between atoms: O3_9  and  C7_10 
REMARK    3  A    between atoms: C9_12  and  O15_60 
REMARK    4  A    between atoms: C10_13  and  O6_18 
REMARK    5  A    between atoms: C11_15  and  C12_16 
REMARK    6  A    between atoms: O6_18  and  C13_19 
REMARK    7  A    between atoms: C35_42  and  C36_44 
REMARK    8  A    between atoms: C36_44  and  O9_45 
REMARK    9  A    between atoms: O9_45  and  C37_46 
REMARK   10  A    between atoms: C38_48  and  C42_55 
REMARK   11  A    between atoms: O15_60  and  C46_61 
REMARK   12  A    between atoms: C50_65  and  C51_67 
ROOT
HETATM    1  C13 UNL     1      -2.293  -2.105  -3.890  1.00  0.00     0.122 C 
HETATM    2  C14 UNL     1      -1.409  -3.308  -3.571  1.00  0.00     0.051 C 
HETATM    3  C15 UNL     1      -0.131  -2.973  -2.829  1.00  0.00    -0.047 C 
HETATM    4  C16 UNL     1       0.533  -1.622  -3.095  1.00  0.00     0.015 C 
HETATM    5  C17 UNL     1       0.079  -1.193  -4.506  1.00  0.00     0.006 C 
HETATM    6  C18 UNL     1      -1.459  -1.031  -4.620  1.00  0.00     0.030 C 
HETATM    7  C19 UNL     1       2.078  -1.790  -2.932  1.00  0.00     0.004 C 
HETATM    8  C20 UNL     1       2.338  -2.376  -1.520  1.00  0.00     0.005 C 
HETATM    9  C21 UNL     1       1.814  -3.814  -1.453  1.00  0.00     0.025 C 
HETATM   10  C22 UNL     1       0.453  -3.928  -2.084  1.00  0.00    -0.035 C 
HETATM   11  C23 UNL     1       3.794  -2.241  -1.088  1.00  0.00     0.003 C 
HETATM   12  C24 UNL     1       4.264  -0.769  -1.130  1.00  0.00     0.003 C 
HETATM   13  C25 UNL     1       4.332  -0.451  -2.640  1.00  0.00     0.000 C 
HETATM   14  C26 UNL     1       2.941  -0.556  -3.312  1.00  0.00     0.000 C 
HETATM   15  C27 UNL     1       5.617  -0.869  -0.374  1.00  0.00     0.032 C 
HETATM   16  C28 UNL     1       5.513  -2.083   0.556  1.00  0.00     0.118 C 
HETATM   17  C29 UNL     1       4.137  -2.709   0.328  1.00  0.00     0.030 C 
HETATM   18  O7  UNL     1       5.673  -1.702   1.891  1.00  0.00    -0.337 OA
HETATM   19  C30 UNL     1       5.784  -0.304   1.992  1.00  0.00     0.187 C 
HETATM   20  C31 UNL     1       6.095   0.230   0.590  1.00  0.00     0.054 C 
HETATM   21  C32 UNL     1       7.591   0.519   0.351  1.00  0.00     0.005 C 
HETATM   22  C33 UNL     1       4.532   0.254   2.658  1.00  0.00     0.059 C 
HETATM   23  C34 UNL     1       4.882   0.185   4.138  1.00  0.00     0.035 C 
HETATM   24  C35 UNL     1       6.385   0.442   4.098  1.00  0.00     0.123 C 
HETATM   25  O8  UNL     1       6.852  -0.082   2.890  1.00  0.00    -0.337 OA
HETATM   26  C43 UNL     1       6.697   1.946   4.106  1.00  0.00     0.032 C 
HETATM   27  C44 UNL     1       3.306   0.246  -0.474  1.00  0.00     0.000 C 
HETATM   28  C45 UNL     1       0.027  -0.549  -2.110  1.00  0.00     0.004 C 
ENDROOT
BRANCH   1  29
HETATM   29  O6  UNL     1      -2.918  -1.705  -2.689  1.00  0.00    -0.331 OA
BRANCH  29  30
HETATM   30  C10 UNL     1      -3.902  -0.695  -2.816  1.00  0.00     0.267 C 
HETATM   31  C9  UNL     1      -5.277  -1.155  -2.333  1.00  0.00     0.207 C 
HETATM   32  C8  UNL     1      -5.489  -0.953  -0.833  1.00  0.00     0.214 C 
HETATM   33  C7  UNL     1      -5.040   0.448  -0.422  1.00  0.00     0.180 C 
HETATM   34  O21 UNL     1      -4.803  -1.947  -0.113  1.00  0.00    -0.218 OA
HETATM   35  C11 UNL     1      -3.574   0.605  -0.813  1.00  0.00     0.181 C 
HETATM   36  O4  UNL     1      -3.407   0.479  -2.200  1.00  0.00    -0.326 OA
BRANCH  31  37
HETATM   37  O15 UNL     1      -6.346  -0.485  -2.955  1.00  0.00    -0.324 OA
BRANCH  37  38
HETATM   38  C46 UNL     1      -6.490  -0.659  -4.345  1.00  0.00     0.270 C 
HETATM   39  C47 UNL     1      -7.966  -0.680  -4.666  1.00  0.00     0.241 C 
HETATM   40  C48 UNL     1      -8.138  -0.715  -6.168  1.00  0.00     0.220 C 
HETATM   41  O20 UNL     1      -8.558  -1.823  -4.103  1.00  0.00    -0.215 OA
HETATM   42  C49 UNL     1      -7.415   0.477  -6.766  1.00  0.00     0.215 C 
HETATM   43  O19 UNL     1      -9.504  -0.648  -6.489  1.00  0.00    -0.218 OA
HETATM   44  C50 UNL     1      -5.962   0.494  -6.305  1.00  0.00     0.184 C 
HETATM   45  O18 UNL     1      -7.500   0.373  -8.165  1.00  0.00    -0.218 OA
HETATM   46  O16 UNL     1      -5.920   0.505  -4.905  1.00  0.00    -0.326 OA
BRANCH  44  47
HETATM   47  C51 UNL     1      -5.202   1.715  -6.799  1.00  0.00     0.214 C 
HETATM   48  O17 UNL     1      -3.846   1.607  -6.409  1.00  0.00    -0.218 OA
ENDBRANCH  44  47
ENDBRANCH  37  38
ENDBRANCH  31  37
BRANCH  33  49
HETATM   49  O3  UNL     1      -5.873   1.348  -1.103  1.00  0.00    -0.326 OA
BRANCH  49  50
HETATM   50  C3  UNL     1      -5.676   2.724  -0.881  1.00  0.00     0.270 C 
HETATM   51  C2  UNL     1      -5.953   3.420  -2.193  1.00  0.00     0.241 C 
HETATM   52  C1  UNL     1      -5.808   4.915  -2.016  1.00  0.00     0.220 C 
HETATM   53  O22 UNL     1      -5.016   2.984  -3.151  1.00  0.00    -0.215 OA
HETATM   54  C5  UNL     1      -6.611   5.381  -0.812  1.00  0.00     0.212 C 
HETATM   55  O23 UNL     1      -4.442   5.203  -1.842  1.00  0.00    -0.218 OA
HETATM   56  C4  UNL     1      -6.509   4.477   0.417  1.00  0.00     0.151 C 
HETATM   57  O2  UNL     1      -7.963   5.458  -1.205  1.00  0.00    -0.218 OA
HETATM   58  O1  UNL     1      -6.613   3.115   0.090  1.00  0.00    -0.329 OA
HETATM   59  C6  UNL     1      -5.287   4.760   1.299  1.00  0.00     0.035 C 
ENDBRANCH  49  50
ENDBRANCH  33  49
BRANCH  35  60
HETATM   60  C12 UNL     1      -2.609  -0.201   0.055  1.00  0.00     0.214 C 
HETATM   61  O5  UNL     1      -1.432   0.543   0.311  1.00  0.00    -0.218 OA
ENDBRANCH  35  60
ENDBRANCH  29  30
ENDBRANCH   1  29
BRANCH  24  62
HETATM   62  C36 UNL     1       7.072  -0.260   5.269  1.00  0.00     0.172 C 
BRANCH  62  63
HETATM   63  O9  UNL     1       6.696   0.379   6.464  1.00  0.00    -0.327 OA
BRANCH  63  64
HETATM   64  C37 UNL     1       6.890  -0.405   7.621  1.00  0.00     0.270 C 
HETATM   65  O10 UNL     1       5.666  -1.087   7.806  1.00  0.00    -0.326 OA
HETATM   66  C38 UNL     1       5.656  -1.893   8.957  1.00  0.00     0.184 C 
HETATM   67  C39 UNL     1       5.919  -1.045  10.198  1.00  0.00     0.215 C 
HETATM   68  C40 UNL     1       7.217  -0.280  10.052  1.00  0.00     0.220 C 
HETATM   69  O13 UNL     1       6.024  -1.848  11.348  1.00  0.00    -0.218 OA
HETATM   70  C41 UNL     1       7.137   0.532   8.780  1.00  0.00     0.241 C 
HETATM   71  O12 UNL     1       7.387   0.575  11.153  1.00  0.00    -0.218 OA
HETATM   72  O11 UNL     1       8.354   1.208   8.589  1.00  0.00    -0.215 OA
BRANCH  66  73
HETATM   73  C42 UNL     1       4.301  -2.581   9.053  1.00  0.00     0.214 C 
HETATM   74  O14 UNL     1       4.112  -3.441   7.947  1.00  0.00    -0.218 OA
ENDBRANCH  66  73
ENDBRANCH  63  64
ENDBRANCH  62  63
ENDBRANCH  24  62
TORSDOF 12
