REMARK  2 active torsions:
REMARK  status: ('A' for Active; 'I' for Inactive)
REMARK    1  A    between atoms: C15_15  and  C18_18 
REMARK    2  A    between atoms: C21_21  and  C23_24 
ROOT
HETATM    1  C1  UNL     1      -5.152  -1.929   1.076  1.00  0.00     0.033 C 
HETATM    2  C2  UNL     1      -4.959  -3.270   1.762  1.00  0.00     0.152 C 
HETATM    3  C3  UNL     1      -3.894  -4.124   1.046  1.00  0.00     0.029 C 
HETATM    4  C4  UNL     1      -2.742  -3.218   0.491  1.00  0.00     0.007 C 
HETATM    5  C5  UNL     1      -2.542  -1.820   1.148  1.00  0.00     0.004 C 
HETATM    6  C6  UNL     1      -3.896  -1.059   1.217  1.00  0.00     0.003 C 
HETATM    7  C7  UNL     1      -1.553  -1.002   0.255  1.00  0.00     0.018 C 
HETATM    8  C8  UNL     1      -0.272  -1.756  -0.052  1.00  0.00    -0.049 C 
HETATM    9  C9  UNL     1      -0.238  -3.096  -0.030  1.00  0.00    -0.035 C 
HETATM   10  C10 UNL     1      -1.405  -3.966   0.338  1.00  0.00     0.025 C 
HETATM   11  C11 UNL     1       0.984  -0.939  -0.305  1.00  0.00     0.015 C 
HETATM   12  C12 UNL     1       0.641   0.368  -1.075  1.00  0.00     0.003 C 
HETATM   13  C13 UNL     1      -0.289   1.228  -0.189  1.00  0.00     0.001 C 
HETATM   14  C14 UNL     1      -1.255   0.437   0.724  1.00  0.00     0.004 C 
HETATM   15  C15 UNL     1       2.059   0.938  -1.365  1.00  0.00     0.003 C 
HETATM   16  C16 UNL     1       2.878  -0.338  -1.696  1.00  0.00     0.000 C 
HETATM   17  C17 UNL     1       2.061  -1.557  -1.219  1.00  0.00     0.004 C 
HETATM   18  C26 UNL     1      -0.046   0.109  -2.444  1.00  0.00     0.000 C 
HETATM   19  C27 UNL     1       1.680  -0.763   1.072  1.00  0.00     0.004 C 
HETATM   20  C28 UNL     1      -1.948  -1.963   2.569  1.00  0.00     0.000 C 
HETATM   21  C29 UNL     1      -4.526  -4.888  -0.149  1.00  0.00     0.003 C 
HETATM   22  C30 UNL     1      -3.424  -5.214   2.039  1.00  0.00     0.003 C 
HETATM   23  O4  UNL     1      -6.199  -3.938   1.828  1.00  0.00    -0.224 OA
ENDROOT
BRANCH  15  24
HETATM   24  C18 UNL     1       2.260   2.050  -2.423  1.00  0.00     0.032 C 
HETATM   25  C19 UNL     1       3.736   2.466  -2.582  1.00  0.00     0.038 C 
HETATM   26  C20 UNL     1       4.216   3.265  -1.371  1.00  0.00     0.182 C 
HETATM   27  C21 UNL     1       3.261   4.409  -1.041  1.00  0.00     0.173 C 
HETATM   28  O3  UNL     1       5.496   3.780  -1.663  1.00  0.00    -0.221 OA
HETATM   29  O1  UNL     1       1.940   3.945  -0.958  1.00  0.00    -0.352 OA
HETATM   30  C22 UNL     1       1.491   3.341  -2.143  1.00  0.00     0.142 C 
BRANCH  27  31
HETATM   31  C23 UNL     1       3.590   5.158   0.260  1.00  0.00     0.154 C 
HETATM   32  C24 UNL     1       2.748   6.434   0.381  1.00  0.00     0.036 C 
HETATM   33  O2  UNL     1       4.936   5.555   0.215  1.00  0.00    -0.223 OA
HETATM   34  C25 UNL     1       3.404   4.301   1.516  1.00  0.00     0.036 C 
ENDBRANCH  27  31
ENDBRANCH  15  24
TORSDOF 2
