REMARK  6 active torsions:
REMARK  status: ('A' for Active; 'I' for Inactive)
REMARK    1  A    between atoms: C1_1  and  O10_31 
REMARK    2  A    between atoms: C2_2  and  C16_20 
REMARK    3  A    between atoms: C7_8  and  C10_12 
REMARK    4  A    between atoms: C17_22  and  C21_29 
REMARK    5  A    between atoms: O10_31  and  C22_32 
REMARK    6  A    between atoms: C23_34  and  C27_41 
ROOT
HETATM    1  C1  UNL     1      -0.170   0.035   0.836  1.00  0.00     0.099 A 
HETATM    2  C2  UNL     1      -0.021  -1.275   1.353  1.00  0.00     0.055 A 
HETATM    3  C3  UNL     1       1.274  -1.814   1.560  1.00  0.00     0.136 A 
HETATM    4  C4  UNL     1       2.416  -1.033   1.248  1.00  0.00     0.087 A 
HETATM    5  C5  UNL     1       2.268   0.281   0.730  1.00  0.00     0.107 A 
HETATM    6  C6  UNL     1       0.973   0.811   0.523  1.00  0.00     0.049 A 
HETATM    7  O1  UNL     1       3.356   1.027   0.432  1.00  0.00    -0.307 OA
HETATM    8  C7  UNL     1       4.623   0.594   0.600  1.00  0.00     0.103 A 
HETATM    9  C8  UNL     1       4.887  -0.641   1.086  1.00  0.00     0.067 A 
HETATM   10  C9  UNL     1       3.793  -1.564   1.451  1.00  0.00     0.202 A 
HETATM   11  O2  UNL     1       4.110  -2.652   1.879  1.00  0.00    -0.286 OA
HETATM   12  O4  UNL     1       1.410  -3.055   2.053  1.00  0.00    -0.190 OA
ENDROOT
BRANCH   1  13
HETATM   13  O10 UNL     1      -1.392   0.551   0.635  1.00  0.00    -0.304 OA
BRANCH  13  14
HETATM   14  C22 UNL     1      -1.689   1.086  -0.647  1.00  0.00     0.274 C 
HETATM   15  O11 UNL     1      -2.092   0.033  -1.524  1.00  0.00    -0.326 OA
HETATM   16  C23 UNL     1      -2.385   0.424  -2.861  1.00  0.00     0.184 C 
HETATM   17  C24 UNL     1      -3.529   1.467  -2.861  1.00  0.00     0.215 C 
HETATM   18  C25 UNL     1      -3.197   2.666  -1.945  1.00  0.00     0.220 C 
HETATM   19  O14 UNL     1      -3.758   1.904  -4.190  1.00  0.00    -0.218 OA
HETATM   20  C26 UNL     1      -2.791   2.166  -0.539  1.00  0.00     0.241 C 
HETATM   21  O13 UNL     1      -4.285   3.572  -1.867  1.00  0.00    -0.218 OA
HETATM   22  O12 UNL     1      -3.910   1.623   0.150  1.00  0.00    -0.215 OA
BRANCH  16  23
HETATM   23  C27 UNL     1      -1.088   0.910  -3.529  1.00  0.00     0.214 C 
HETATM   24  O15 UNL     1      -0.146  -0.139  -3.479  1.00  0.00    -0.218 OA
ENDBRANCH  16  23
ENDBRANCH  13  14
ENDBRANCH   1  13
BRANCH   2  25
HETATM   25  C16 UNL     1      -1.215  -2.080   1.678  1.00  0.00     0.174 C 
HETATM   26  O5  UNL     1      -2.043  -2.117   0.519  1.00  0.00    -0.347 OA
HETATM   27  C17 UNL     1      -3.211  -2.924   0.629  1.00  0.00     0.181 C 
HETATM   28  C18 UNL     1      -4.123  -2.412   1.775  1.00  0.00     0.214 C 
HETATM   29  C19 UNL     1      -3.347  -2.285   3.103  1.00  0.00     0.218 C 
HETATM   30  O8  UNL     1      -4.666  -1.145   1.441  1.00  0.00    -0.218 OA
HETATM   31  C20 UNL     1      -2.027  -1.510   2.873  1.00  0.00     0.216 C 
HETATM   32  O7  UNL     1      -3.086  -3.596   3.580  1.00  0.00    -0.218 OA
HETATM   33  O6  UNL     1      -1.244  -1.506   4.057  1.00  0.00    -0.218 OA
BRANCH  27  34
HETATM   34  C21 UNL     1      -3.898  -2.934  -0.740  1.00  0.00     0.214 C 
HETATM   35  O9  UNL     1      -3.086  -3.656  -1.637  1.00  0.00    -0.218 OA
ENDBRANCH  27  34
ENDBRANCH   2  25
BRANCH   8  36
HETATM   36  C10 UNL     1       5.768   1.486   0.246  1.00  0.00     0.023 A 
HETATM   37  C11 UNL     1       5.621   2.451  -0.766  1.00  0.00     0.004 A 
HETATM   38  C12 UNL     1       6.700   3.291  -1.098  1.00  0.00     0.028 A 
HETATM   39  C13 UNL     1       7.926   3.168  -0.420  1.00  0.00     0.131 A 
HETATM   40  C14 UNL     1       8.069   2.203   0.592  1.00  0.00     0.028 A 
HETATM   41  O3  UNL     1       8.936   3.955  -0.731  1.00  0.00    -0.190 OA
HETATM   42  C15 UNL     1       6.993   1.361   0.926  1.00  0.00     0.004 A 
ENDBRANCH   8  36
TORSDOF 6
