REMARK  26 active torsions:
REMARK  status: ('A' for Active; 'I' for Inactive)
REMARK    1  A    between atoms: C4_4  and  O2_7 
REMARK    2  A    between atoms: O2_7  and  C6_8 
REMARK    3  A    between atoms: C8_10  and  O40_121 
REMARK    4  A    between atoms: C9_11  and  O4_14 
REMARK    5  A    between atoms: O4_14  and  C11_15 
REMARK    6  A    between atoms: C12_16  and  O35_110 
REMARK    7  A    between atoms: C13_17  and  C75_107 
REMARK    8  A    between atoms: C14_19  and  O7_22 
REMARK    9  A    between atoms: O7_22  and  C16_23 
REMARK   10  A    between atoms: C21_28  and  C22_29 
REMARK   11  A    between atoms: C34_42  and  C42_50 
REMARK   12  A    between atoms: C42_50  and  O10_52 
REMARK   13  A    between atoms: O10_52  and  C43_53 
REMARK   14  A    between atoms: C45_56  and  O28_93 
REMARK   15  A    between atoms: C46_57  and  O13_60 
REMARK   16  A    between atoms: O13_60  and  C48_61 
REMARK   17  A    between atoms: C50_64  and  O22_80 
REMARK   18  A    between atoms: C52_66  and  O15_67 
REMARK   19  A    between atoms: O15_67  and  C53_68 
REMARK   20  A    between atoms: C54_70  and  C58_77 
REMARK   21  A    between atoms: O22_80  and  C59_81 
REMARK   22  A    between atoms: C63_85  and  C64_87 
REMARK   23  A    between atoms: O28_93  and  C66_94 
REMARK   24  A    between atoms: O35_110  and  C76_111 
REMARK   25  A    between atoms: O40_121  and  C82_122 
REMARK   26  A    between atoms: C86_126  and  C87_128 
ROOT
HETATM    1  C16 UNL     1       4.768  -2.244   3.186  1.00  0.00     0.125 C 
HETATM    2  C17 UNL     1       4.240  -3.066   1.996  1.00  0.00     0.030 C 
HETATM    3  C18 UNL     1       2.721  -2.924   1.816  1.00  0.00     0.003 C 
HETATM    4  C19 UNL     1       1.924  -3.279   3.094  1.00  0.00     0.001 C 
HETATM    5  C20 UNL     1       2.473  -2.451   4.291  1.00  0.00     0.009 C 
HETATM    6  C21 UNL     1       4.012  -2.565   4.504  1.00  0.00     0.083 C 
HETATM    7  C23 UNL     1       4.475  -1.619   5.623  1.00  0.00     0.010 C 
HETATM    8  C24 UNL     1       1.658  -2.742   5.565  1.00  0.00     0.001 C 
HETATM    9  C25 UNL     1       0.180  -2.395   5.367  1.00  0.00     0.000 C 
HETATM   10  C26 UNL     1      -0.473  -3.109   4.156  1.00  0.00     0.004 C 
HETATM   11  C27 UNL     1       0.416  -2.938   2.887  1.00  0.00     0.005 C 
HETATM   12  C28 UNL     1      -0.207  -3.680   1.680  1.00  0.00     0.025 C 
HETATM   13  C29 UNL     1      -1.715  -3.643   1.615  1.00  0.00    -0.035 C 
HETATM   14  C30 UNL     1      -2.490  -3.148   2.604  1.00  0.00    -0.049 C 
HETATM   15  C31 UNL     1      -1.889  -2.514   3.856  1.00  0.00     0.015 C 
HETATM   16  C32 UNL     1      -2.869  -2.734   5.031  1.00  0.00     0.004 C 
HETATM   17  C33 UNL     1      -4.299  -2.205   4.793  1.00  0.00     0.010 C 
HETATM   18  C34 UNL     1      -4.762  -2.180   3.309  1.00  0.00     0.082 C 
HETATM   19  C35 UNL     1      -4.004  -3.240   2.467  1.00  0.00     0.027 C 
HETATM   20  C36 UNL     1      -4.479  -4.678   2.781  1.00  0.00     0.004 C 
HETATM   21  C37 UNL     1      -5.998  -4.863   2.611  1.00  0.00     0.000 C 
HETATM   22  C38 UNL     1      -6.734  -3.838   3.488  1.00  0.00     0.001 C 
HETATM   23  C39 UNL     1      -6.291  -2.397   3.195  1.00  0.00     0.010 C 
HETATM   24  C40 UNL     1      -6.397  -6.281   3.037  1.00  0.00     0.000 C 
HETATM   25  C41 UNL     1      -6.391  -4.682   1.139  1.00  0.00     0.000 C 
HETATM   26  C72 UNL     1      -1.764  -1.002   3.596  1.00  0.00     0.004 C 
HETATM   27  C73 UNL     1      -0.602  -4.608   4.500  1.00  0.00     0.000 C 
HETATM   28  C74 UNL     1       2.090  -4.785   3.355  1.00  0.00     0.000 C 
ENDROOT
BRANCH  18  29
HETATM   29  C42 UNL     1      -4.498  -0.807   2.727  1.00  0.00     0.273 C 
HETATM   30  O9  UNL     1      -4.326   0.152   3.443  1.00  0.00    -0.264 OA
BRANCH  29  31
HETATM   31  O10 UNL     1      -4.475  -0.752   1.398  1.00  0.00    -0.273 OA
BRANCH  31  32
HETATM   32  C43 UNL     1      -3.924   0.467   0.916  1.00  0.00     0.276 C 
HETATM   33  O11 UNL     1      -4.902   1.488   1.088  1.00  0.00    -0.329 OA
HETATM   34  C44 UNL     1      -4.678   2.666   0.328  1.00  0.00     0.148 C 
HETATM   35  C45 UNL     1      -4.904   2.348  -1.178  1.00  0.00     0.175 C 
HETATM   36  C71 UNL     1      -5.633   3.742   0.848  1.00  0.00     0.035 C 
HETATM   37  C46 UNL     1      -4.514   0.895  -1.570  1.00  0.00     0.183 C 
HETATM   38  C47 UNL     1      -3.500   0.293  -0.572  1.00  0.00     0.238 C 
HETATM   39  O12 UNL     1      -2.252   0.928  -0.775  1.00  0.00    -0.215 OA
BRANCH  35  40
HETATM   40  O28 UNL     1      -4.131   3.258  -1.938  1.00  0.00    -0.326 OA
BRANCH  40  41
HETATM   41  C66 UNL     1      -4.684   4.559  -1.979  1.00  0.00     0.270 C 
HETATM   42  O29 UNL     1      -3.877   5.473  -1.242  1.00  0.00    -0.326 OA
HETATM   43  C67 UNL     1      -2.570   5.703  -1.768  1.00  0.00     0.181 C 
HETATM   44  C68 UNL     1      -2.639   6.268  -3.205  1.00  0.00     0.215 C 
HETATM   45  C69 UNL     1      -3.508   5.369  -4.115  1.00  0.00     0.220 C 
HETATM   46  O32 UNL     1      -3.156   7.590  -3.139  1.00  0.00    -0.218 OA
HETATM   47  C70 UNL     1      -4.863   5.061  -3.438  1.00  0.00     0.241 C 
HETATM   48  O31 UNL     1      -3.703   5.971  -5.387  1.00  0.00    -0.218 OA
HETATM   49  O30 UNL     1      -5.588   4.111  -4.201  1.00  0.00    -0.215 OA
ENDBRANCH  40  41
ENDBRANCH  35  40
BRANCH  37  50
HETATM   50  O13 UNL     1      -5.676   0.086  -1.547  1.00  0.00    -0.326 OA
BRANCH  50  51
HETATM   51  C48 UNL     1      -6.410   0.131  -2.754  1.00  0.00     0.267 C 
HETATM   52  O14 UNL     1      -7.301   1.244  -2.779  1.00  0.00    -0.329 OA
HETATM   53  C49 UNL     1      -8.293   1.293  -1.750  1.00  0.00     0.148 C 
HETATM   54  C50 UNL     1      -8.822  -0.131  -1.398  1.00  0.00     0.178 C 
HETATM   55  C65 UNL     1      -9.361   2.268  -2.260  1.00  0.00     0.035 C 
HETATM   56  C51 UNL     1      -8.693  -1.127  -2.568  1.00  0.00     0.214 C 
HETATM   57  C52 UNL     1      -7.191  -1.205  -2.973  1.00  0.00     0.207 C 
HETATM   58  O21 UNL     1      -9.516  -0.688  -3.643  1.00  0.00    -0.218 OA
BRANCH  54  59
HETATM   59  O22 UNL     1     -10.145  -0.088  -0.893  1.00  0.00    -0.326 OA
BRANCH  59  60
HETATM   60  C59 UNL     1     -10.234   0.516   0.383  1.00  0.00     0.270 C 
HETATM   61  C60 UNL     1     -11.684   0.953   0.730  1.00  0.00     0.241 C 
HETATM   62  C61 UNL     1     -12.613  -0.230   1.086  1.00  0.00     0.220 C 
HETATM   63  O27 UNL     1     -12.242   1.766  -0.291  1.00  0.00    -0.215 OA
HETATM   64  C62 UNL     1     -11.928  -1.139   2.127  1.00  0.00     0.215 C 
HETATM   65  O26 UNL     1     -12.920  -1.006  -0.063  1.00  0.00    -0.218 OA
HETATM   66  C63 UNL     1     -10.463  -1.490   1.756  1.00  0.00     0.184 C 
HETATM   67  O25 UNL     1     -11.938  -0.477   3.381  1.00  0.00    -0.218 OA
HETATM   68  O23 UNL     1      -9.711  -0.318   1.420  1.00  0.00    -0.326 OA
BRANCH  66  69
HETATM   69  C64 UNL     1     -10.358  -2.525   0.629  1.00  0.00     0.214 C 
HETATM   70  O24 UNL     1      -8.992  -2.770   0.379  1.00  0.00    -0.218 OA
ENDBRANCH  66  69
ENDBRANCH  59  60
ENDBRANCH  54  59
BRANCH  57  71
HETATM   71  O15 UNL     1      -7.027  -1.648  -4.311  1.00  0.00    -0.324 OA
BRANCH  71  72
HETATM   72  C53 UNL     1      -5.742  -2.184  -4.566  1.00  0.00     0.270 C 
HETATM   73  O16 UNL     1      -5.621  -3.477  -3.990  1.00  0.00    -0.326 OA
HETATM   74  C54 UNL     1      -4.293  -4.002  -3.932  1.00  0.00     0.184 C 
HETATM   75  C55 UNL     1      -3.441  -3.607  -5.180  1.00  0.00     0.215 C 
HETATM   76  C56 UNL     1      -4.344  -3.346  -6.406  1.00  0.00     0.220 C 
HETATM   77  O19 UNL     1      -2.662  -2.451  -4.906  1.00  0.00    -0.218 OA
HETATM   78  C57 UNL     1      -5.402  -2.250  -6.092  1.00  0.00     0.241 C 
HETATM   79  O18 UNL     1      -3.582  -2.992  -7.551  1.00  0.00    -0.218 OA
HETATM   80  O17 UNL     1      -6.551  -2.510  -6.887  1.00  0.00    -0.215 OA
BRANCH  74  81
HETATM   81  C58 UNL     1      -3.684  -3.611  -2.576  1.00  0.00     0.214 C 
HETATM   82  O20 UNL     1      -4.416  -4.258  -1.561  1.00  0.00    -0.218 OA
ENDBRANCH  74  81
ENDBRANCH  71  72
ENDBRANCH  57  71
ENDBRANCH  50  51
ENDBRANCH  37  50
ENDBRANCH  31  32
ENDBRANCH  29  31
ENDBRANCH  18  29
BRANCH   6  83
HETATM   83  C22 UNL     1       4.401  -3.951   4.967  1.00  0.00     0.209 C 
HETATM   84  O8  UNL     1       4.535  -4.197   6.143  1.00  0.00    -0.288 OA
ENDBRANCH   6  83
BRANCH   1  85
HETATM   85  O7  UNL     1       4.639  -0.869   2.867  1.00  0.00    -0.331 OA
BRANCH  85  86
HETATM   86  C14 UNL     1       5.508  -0.453   1.832  1.00  0.00     0.270 C 
HETATM   87  O5  UNL     1       4.777  -0.193   0.633  1.00  0.00    -0.318 OA
HETATM   88  C13 UNL     1       4.322   1.143   0.467  1.00  0.00     0.234 C 
HETATM   89  C12 UNL     1       5.549   2.076   0.258  1.00  0.00     0.185 C 
HETATM   90  C11 UNL     1       6.815   1.635   1.047  1.00  0.00     0.183 C 
HETATM   91  C15 UNL     1       6.438   0.740   2.248  1.00  0.00     0.238 C 
HETATM   92  O6  UNL     1       5.828   1.580   3.219  1.00  0.00    -0.215 OA
BRANCH  88  93
HETATM   93  C75 UNL     1       3.373   1.178  -0.705  1.00  0.00     0.216 C 
HETATM   94  O33 UNL     1       2.274   0.443  -0.564  1.00  0.00    -0.646 OA
HETATM   95  O34 UNL     1       3.621   1.836  -1.688  1.00  0.00    -0.646 OA
ENDBRANCH  88  93
BRANCH  89  96
HETATM   96  O35 UNL     1       5.182   3.379   0.678  1.00  0.00    -0.326 OA
BRANCH  96  97
HETATM   97  C76 UNL     1       6.024   4.389   0.156  1.00  0.00     0.270 C 
HETATM   98  C77 UNL     1       5.428   4.955  -1.162  1.00  0.00     0.241 C 
HETATM   99  C78 UNL     1       4.258   5.934  -0.922  1.00  0.00     0.220 C 
HETATM  100  O39 UNL     1       6.451   5.647  -1.859  1.00  0.00    -0.215 OA
HETATM  101  C79 UNL     1       4.645   6.953   0.174  1.00  0.00     0.212 C 
HETATM  102  O38 UNL     1       3.108   5.190  -0.553  1.00  0.00    -0.218 OA
HETATM  103  C80 UNL     1       5.221   6.295   1.449  1.00  0.00     0.151 C 
HETATM  104  O37 UNL     1       3.551   7.795   0.502  1.00  0.00    -0.218 OA
HETATM  105  O36 UNL     1       6.301   5.426   1.105  1.00  0.00    -0.329 OA
HETATM  106  C81 UNL     1       4.192   5.549   2.313  1.00  0.00     0.035 C 
ENDBRANCH  96  97
ENDBRANCH  89  96
BRANCH  90 107
HETATM  107  O4  UNL     1       7.654   0.887   0.187  1.00  0.00    -0.326 OA
BRANCH 107 108
HETATM  108  C9  UNL     1       8.477   1.697  -0.631  1.00  0.00     0.267 C 
HETATM  109  C8  UNL     1       9.844   1.023  -0.922  1.00  0.00     0.207 C 
HETATM  110  C7  UNL     1       9.696  -0.203  -1.848  1.00  0.00     0.214 C 
HETATM  111  C6  UNL     1       8.889   0.203  -3.102  1.00  0.00     0.180 C 
HETATM  112  O46 UNL     1      10.977  -0.678  -2.234  1.00  0.00    -0.218 OA
HETATM  113  C10 UNL     1       7.569   0.900  -2.719  1.00  0.00     0.177 C 
HETATM  114  O3  UNL     1       7.828   2.010  -1.861  1.00  0.00    -0.326 OA
BRANCH 109 115
HETATM  115  O40 UNL     1      10.487   0.666   0.291  1.00  0.00    -0.324 OA
BRANCH 115 116
HETATM  116  C82 UNL     1      11.365   1.662   0.773  1.00  0.00     0.270 C 
HETATM  117  C83 UNL     1      12.178   1.129   1.982  1.00  0.00     0.241 C 
HETATM  118  C84 UNL     1      13.028   2.260   2.605  1.00  0.00     0.220 C 
HETATM  119  O45 UNL     1      13.031   0.082   1.551  1.00  0.00    -0.215 OA
HETATM  120  C85 UNL     1      12.151   3.498   2.902  1.00  0.00     0.215 C 
HETATM  121  O44 UNL     1      13.696   1.816   3.777  1.00  0.00    -0.218 OA
HETATM  122  C86 UNL     1      11.348   3.902   1.641  1.00  0.00     0.184 C 
HETATM  123  O43 UNL     1      11.254   3.236   3.975  1.00  0.00    -0.218 OA
HETATM  124  O41 UNL     1      10.594   2.795   1.156  1.00  0.00    -0.326 OA
BRANCH 122 125
HETATM  125  C87 UNL     1      10.369   5.059   1.883  1.00  0.00     0.214 C 
HETATM  126  O42 UNL     1       9.936   5.537   0.629  1.00  0.00    -0.218 OA
ENDBRANCH 122 125
ENDBRANCH 115 116
ENDBRANCH 109 115
BRANCH 111 127
HETATM  127  O2  UNL     1       8.580  -0.941  -3.877  1.00  0.00    -0.326 OA
BRANCH 127 128
HETATM  128  C4  UNL     1       8.010  -0.625  -5.133  1.00  0.00     0.270 C 
HETATM  129  C3  UNL     1       8.539  -1.574  -6.242  1.00  0.00     0.241 C 
HETATM  130  C2  UNL     1       7.830  -1.258  -7.584  1.00  0.00     0.220 C 
HETATM  131  O47 UNL     1       8.348  -2.936  -5.877  1.00  0.00    -0.215 OA
HETATM  132  C1  UNL     1       6.291  -1.191  -7.428  1.00  0.00     0.215 C 
HETATM  133  O48 UNL     1       8.219  -2.148  -8.617  1.00  0.00    -0.218 OA
HETATM  134  C5  UNL     1       5.910  -0.281  -6.240  1.00  0.00     0.181 C 
HETATM  135  O49 UNL     1       5.727  -2.479  -7.225  1.00  0.00    -0.218 OA
HETATM  136  O1  UNL     1       6.588  -0.674  -5.051  1.00  0.00    -0.326 OA
ENDBRANCH 127 128
ENDBRANCH 111 127
ENDBRANCH 107 108
ENDBRANCH  90 107
ENDBRANCH  85  86
ENDBRANCH   1  85
TORSDOF 26
