REMARK  2 active torsions:
REMARK  status: ('A' for Active; 'I' for Inactive)
REMARK    1  A    between atoms: N1_2  and  C2_3 
REMARK    2  A    between atoms: C2_3  and  C3_4 
ROOT
HETATM    1  C2  UNL     1       0.123   0.176   0.592  1.00  0.00     0.386 C 
ENDROOT
BRANCH   1   2
HETATM    2  N1  UNL     1      -0.387  -0.545  -0.563  1.00  0.00     0.353 N 
HETATM    3  C1  UNL     1      -1.840  -0.545  -0.563  1.00  0.00     0.329 C 
ENDBRANCH   1   2
BRANCH   1   4
HETATM    4  C3  UNL     1       1.627   0.137   0.607  1.00  0.00     0.223 C 
HETATM    5  O1  UNL     1       2.227   1.070  -0.125  1.00  0.00    -0.646 OA
HETATM    6  O2  UNL     1       2.221  -0.699   1.250  1.00  0.00    -0.646 OA
ENDBRANCH   1   4
TORSDOF 2
