REMARK  2 active torsions:
REMARK  status: ('A' for Active; 'I' for Inactive)
REMARK    1  A    between atoms: C8_9  and  C9_11 
REMARK    2  A    between atoms: C10_12  and  C11_13 
ROOT
HETATM    1  C1  UNL     1       5.704   0.538  -0.628  1.00  0.00     0.131 A 
HETATM    2  C2  UNL     1       5.144   1.791  -0.331  1.00  0.00     0.029 A 
HETATM    3  C3  UNL     1       3.773   1.956  -0.145  1.00  0.00     0.021 A 
HETATM    4  C4  UNL     1       2.916   0.852  -0.255  1.00  0.00     0.089 A 
HETATM    5  C5  UNL     1       3.464  -0.399  -0.556  1.00  0.00     0.083 A 
HETATM    6  C6  UNL     1       4.846  -0.557  -0.741  1.00  0.00     0.034 A 
HETATM    7  C7  UNL     1       2.505  -1.514  -0.657  1.00  0.00     0.303 A 
HETATM    8  O1  UNL     1       1.171  -1.314  -0.456  1.00  0.00    -0.255 OA
HETATM    9  C8  UNL     1       0.747  -0.044  -0.162  1.00  0.00     0.186 A 
HETATM   10  N1  UNL     1       1.530   0.983  -0.065  1.00  0.00    -0.222 NA
HETATM   11  O3  UNL     1       2.922  -2.640  -0.927  1.00  0.00    -0.259 OA
HETATM   12  O4  UNL     1       7.045   0.391  -0.799  1.00  0.00    -0.190 OA
ENDROOT
BRANCH   9  13
HETATM   13  C9  UNL     1      -0.672   0.248   0.079  1.00  0.00     0.045 C 
HETATM   14  C10 UNL     1      -1.637  -0.705   0.030  1.00  0.00     0.004 C 
BRANCH  14  15
HETATM   15  C11 UNL     1      -3.069  -0.485   0.276  1.00  0.00     0.000 A 
HETATM   16  C12 UNL     1      -3.931  -1.597   0.306  1.00  0.00     0.002 A 
HETATM   17  C13 UNL     1      -5.297  -1.446   0.540  1.00  0.00     0.027 A 
HETATM   18  C14 UNL     1      -5.865  -0.184   0.747  1.00  0.00     0.131 A 
HETATM   19  C15 UNL     1      -5.013   0.922   0.702  1.00  0.00     0.027 A 
HETATM   20  O2  UNL     1      -7.196  -0.032   0.976  1.00  0.00    -0.190 OA
HETATM   21  C16 UNL     1      -3.644   0.780   0.469  1.00  0.00     0.002 A 
ENDBRANCH  14  15
ENDBRANCH   9  13
TORSDOF 2
