REMARK  4 active torsions:
REMARK  status: ('A' for Active; 'I' for Inactive)
REMARK    1  A    between atoms: C2_2  and  N2_26 
REMARK    2  A    between atoms: C15_15  and  C18_18 
REMARK    3  A    between atoms: C18_18  and  N1_20 
REMARK       I    between atoms: N2_26  and  C24_27 
REMARK    4  A    between atoms: C24_27  and  C25_28 
ROOT
HETATM    1  C1  UNL     1       3.303   0.867   0.592  1.00  0.00    -0.004 C 
HETATM    2  C2  UNL     1       4.025  -0.184   0.144  1.00  0.00     0.115 C 
HETATM    3  C3  UNL     1       3.361  -1.369  -0.453  1.00  0.00     0.190 C 
HETATM    4  C4  UNL     1       1.854  -1.383  -0.596  1.00  0.00     0.064 C 
HETATM    5  C5  UNL     1       1.166  -0.524   0.502  1.00  0.00     0.011 C 
HETATM    6  C6  UNL     1       1.795   0.891   0.496  1.00  0.00     0.028 C 
HETATM    7  C7  UNL     1      -0.369  -0.488   0.262  1.00  0.00     0.001 C 
HETATM    8  C8  UNL     1      -0.730  -0.029  -1.172  1.00  0.00     0.000 C 
HETATM    9  C9  UNL     1      -0.066  -0.936  -2.217  1.00  0.00     0.000 C 
HETATM   10  C10 UNL     1       1.455  -0.963  -2.025  1.00  0.00     0.008 C 
HETATM   11  C11 UNL     1      -2.250   0.074  -1.377  1.00  0.00     0.000 C 
HETATM   12  C12 UNL     1      -2.932   1.019  -0.354  1.00  0.00     0.002 C 
HETATM   13  C13 UNL     1      -1.992   1.453   0.787  1.00  0.00     0.000 C 
HETATM   14  C14 UNL     1      -1.160   0.287   1.346  1.00  0.00     0.000 C 
HETATM   15  C15 UNL     1      -4.129   0.205   0.184  1.00  0.00     0.031 C 
HETATM   16  C16 UNL     1      -4.428  -0.774  -0.945  1.00  0.00     0.002 C 
HETATM   17  C17 UNL     1      -3.020  -1.246  -1.281  1.00  0.00     0.000 C 
HETATM   18  C22 UNL     1      -3.441   2.246  -1.119  1.00  0.00     0.000 C 
HETATM   19  C23 UNL     1       1.428  -1.176   1.871  1.00  0.00     0.001 C 
HETATM   20  O1  UNL     1       4.006  -2.324  -0.826  1.00  0.00    -0.290 OA
ENDROOT
BRANCH   2  21
HETATM   21  N2  UNL     1       5.393  -0.147   0.252  1.00  0.00    -0.206 NA
HETATM   22  C24 UNL     1       6.172  -0.629  -0.762  1.00  0.00     0.275 C 
HETATM   23  O2  UNL     1       5.662  -1.088  -1.758  1.00  0.00    -0.266 OA
BRANCH  22  24
HETATM   24  C25 UNL     1       7.633  -0.580  -0.631  1.00  0.00     0.032 C 
HETATM   25  C26 UNL     1       8.467  -1.029  -1.580  1.00  0.00    -0.025 C 
HETATM   26  C27 UNL     1       9.949  -0.932  -1.340  1.00  0.00     0.030 C 
HETATM   27  C28 UNL     1       8.221   0.000   0.629  1.00  0.00     0.036 C 
ENDBRANCH  22  24
ENDBRANCH   2  21
BRANCH  15  28
HETATM   28  C18 UNL     1      -5.365   1.019   0.561  1.00  0.00     0.219 C 
HETATM   29  C19 UNL     1      -5.080   1.818   1.832  1.00  0.00     0.035 C 
BRANCH  28  30
HETATM   30  N1  UNL     1      -6.510   0.148   0.752  1.00  0.00     0.139 N 
HETATM   31  C20 UNL     1      -6.400  -0.566   2.014  1.00  0.00     0.285 C 
HETATM   32  C21 UNL     1      -7.744   0.912   0.705  1.00  0.00     0.285 C 
ENDBRANCH  28  30
ENDBRANCH  15  28
TORSDOF 4
