REMARK  9 active torsions:
REMARK  status: ('A' for Active; 'I' for Inactive)
REMARK    1  A    between atoms: C1_1  and  C3_3 
REMARK    2  A    between atoms: C3_3  and  C4_4 
REMARK    3  A    between atoms: C8_9  and  C10_12 
REMARK    4  A    between atoms: C10_12  and  C11_13 
REMARK    5  A    between atoms: C13_16  and  C22_27 
REMARK    6  A    between atoms: C14_17  and  O5_21 
REMARK    7  A    between atoms: O5_21  and  C17_22 
REMARK    8  A    between atoms: C17_22  and  C18_23 
REMARK    9  A    between atoms: C22_27  and  C23_29 
ROOT
HETATM    1  C11 UNL     1      -0.621  -1.279   0.971  1.00  0.00     0.033 A 
HETATM    2  C12 UNL     1       0.645  -1.268   1.588  1.00  0.00     0.134 A 
HETATM    3  O3  UNL     1       0.814  -0.629   2.731  1.00  0.00    -0.190 OA
HETATM    4  C13 UNL     1       1.727  -1.936   0.981  1.00  0.00     0.086 A 
HETATM    5  C14 UNL     1       1.541  -2.617  -0.240  1.00  0.00     0.102 A 
HETATM    6  C15 UNL     1       0.273  -2.625  -0.848  1.00  0.00     0.051 A 
HETATM    7  C16 UNL     1      -0.809  -1.959  -0.248  1.00  0.00     0.131 A 
HETATM    8  O4  UNL     1      -1.992  -1.977  -0.830  1.00  0.00    -0.190 OA
ENDROOT
BRANCH   1   9
HETATM    9  C10 UNL     1      -1.766  -0.574   1.610  1.00  0.00     0.062 C 
BRANCH   9  10
HETATM   10  C8  UNL     1      -2.086   0.730   0.922  1.00  0.00     0.043 A 
HETATM   11  C7  UNL     1      -1.145   1.693   0.848  1.00  0.00     0.113 A 
HETATM   12  C6  UNL     1      -1.422   3.023   0.162  1.00  0.00     0.085 A 
HETATM   13  O7  UNL     1       0.057   1.480   1.387  1.00  0.00    -0.195 OA
HETATM   14  C5  UNL     1      -2.826   3.180  -0.412  1.00  0.00     0.119 A 
HETATM   15  C29 UNL     1      -0.422   3.182  -0.986  1.00  0.00     0.013 C 
HETATM   16  C30 UNL     1      -1.201   4.141   1.186  1.00  0.00     0.013 C 
HETATM   17  C4  UNL     1      -3.748   2.195  -0.322  1.00  0.00     0.095 A 
HETATM   18  O1  UNL     1      -3.145   4.324  -1.017  1.00  0.00    -0.194 OA
HETATM   19  C9  UNL     1      -3.422   0.924   0.342  1.00  0.00     0.198 A 
HETATM   20  O2  UNL     1      -4.246   0.041   0.414  1.00  0.00    -0.287 OA
BRANCH  17  21
HETATM   21  C3  UNL     1      -5.094   2.391  -0.894  1.00  0.00     0.177 C 
HETATM   22  O8  UNL     1      -5.356   1.977  -2.000  1.00  0.00    -0.291 OA
BRANCH  21  23
HETATM   23  C1  UNL     1      -6.129   3.111  -0.072  1.00  0.00     0.062 C 
HETATM   24  C2  UNL     1      -6.545   4.443  -0.697  1.00  0.00     0.008 C 
HETATM   25  C31 UNL     1      -5.717   3.250   1.395  1.00  0.00     0.008 C 
ENDBRANCH  21  23
ENDBRANCH  17  21
ENDBRANCH   9  10
ENDBRANCH   1   9
BRANCH   4  26
HETATM   26  C22 UNL     1       3.072  -1.924   1.631  1.00  0.00     0.199 C 
HETATM   27  O6  UNL     1       3.506  -0.918   2.143  1.00  0.00    -0.286 OA
BRANCH  26  28
HETATM   28  C23 UNL     1       3.865  -3.190   1.631  1.00  0.00     0.039 A 
HETATM   29  C24 UNL     1       3.207  -4.434   1.631  1.00  0.00     0.003 A 
HETATM   30  C25 UNL     1       3.955  -5.625   1.631  1.00  0.00     0.000 A 
HETATM   31  C26 UNL     1       5.359  -5.572   1.631  1.00  0.00     0.000 A 
HETATM   32  C27 UNL     1       6.018  -4.332   1.631  1.00  0.00     0.000 A 
HETATM   33  C28 UNL     1       5.272  -3.141   1.631  1.00  0.00     0.003 A 
ENDBRANCH  26  28
ENDBRANCH   4  26
BRANCH   5  34
HETATM   34  O5  UNL     1       2.545  -3.246  -0.818  1.00  0.00    -0.326 OA
BRANCH  34  35
HETATM   35  C17 UNL     1       2.553  -3.328  -2.234  1.00  0.00     0.174 C 
BRANCH  35  36
HETATM   36  C18 UNL     1       2.414  -1.947  -2.818  1.00  0.00    -0.002 C 
HETATM   37  C19 UNL     1       3.381  -1.049  -2.574  1.00  0.00    -0.045 C 
HETATM   38  C20 UNL     1       4.617  -1.303  -1.754  1.00  0.00     0.026 C 
HETATM   39  C21 UNL     1       3.242   0.334  -3.156  1.00  0.00     0.026 C 
ENDBRANCH  35  36
ENDBRANCH  34  35
ENDBRANCH   5  34
TORSDOF 9
