REMARK  2 active torsions:
REMARK  status: ('A' for Active; 'I' for Inactive)
REMARK    1  A    between atoms: C2_2  and  C10_13 
REMARK    2  A    between atoms: C10_13  and  O4_14 
ROOT
HETATM    1  C1  UNL     1      -1.869  -0.109   1.312  1.00  0.00     0.120 C 
HETATM    2  C2  UNL     1      -1.508   0.162   0.037  1.00  0.00     0.065 C 
HETATM    3  C3  UNL     1      -0.062  -0.012  -0.381  1.00  0.00     0.042 C 
HETATM    4  C4  UNL     1       0.611  -1.084   0.504  1.00  0.00     0.089 C 
HETATM    5  C5  UNL     1       0.379  -0.607   1.959  1.00  0.00     0.244 C 
HETATM    6  O1  UNL     1      -1.021  -0.549   2.264  1.00  0.00    -0.304 OA
HETATM    7  O2  UNL     1       1.000   0.676   2.131  1.00  0.00    -0.306 OA
HETATM    8  C6  UNL     1       1.733   1.139   0.992  1.00  0.00     0.237 C 
HETATM    9  O3  UNL     1       2.697   0.151   0.617  1.00  0.00    -0.333 OA
HETATM   10  C7  UNL     1       2.135  -1.103   0.213  1.00  0.00     0.123 C 
HETATM   11  C8  UNL     1       2.879  -2.211   0.959  1.00  0.00     0.032 C 
HETATM   12  C9  UNL     1       0.736   1.303  -0.184  1.00  0.00     0.066 C 
ENDROOT
BRANCH   2  13
HETATM   13  C10 UNL     1      -2.490   0.621  -0.957  1.00  0.00     0.294 C 
HETATM   14  O5  UNL     1      -3.676   0.526  -0.736  1.00  0.00    -0.259 OA
BRANCH  13  15
HETATM   15  O4  UNL     1      -1.984   1.129  -2.076  1.00  0.00    -0.296 OA
HETATM   16  C11 UNL     1      -2.992   1.543  -2.986  1.00  0.00     0.185 C 
ENDBRANCH  13  15
ENDBRANCH   2  13
TORSDOF 2
