REMARK  3 active torsions:
REMARK  status: ('A' for Active; 'I' for Inactive)
REMARK    1  A    between atoms: C8_9  and  C10_11 
REMARK    2  A    between atoms: C11_12  and  O3_19 
REMARK    3  A    between atoms: C13_14  and  O2_17 
ROOT
HETATM    1  C1  UNL     1       4.428   1.568   0.358  1.00  0.00     0.051 A 
HETATM    2  C2  UNL     1       5.471   0.615   0.293  1.00  0.00     0.133 A 
HETATM    3  C3  UNL     1       5.162  -0.762   0.186  1.00  0.00     0.027 A 
HETATM    4  C4  UNL     1       3.815  -1.184   0.141  1.00  0.00    -0.000 A 
HETATM    5  C5  UNL     1       2.766  -0.232   0.205  1.00  0.00     0.001 A 
HETATM    6  C6  UNL     1       3.076   1.154   0.318  1.00  0.00     0.092 A 
HETATM    7  O1  UNL     1       2.107   2.092   0.379  1.00  0.00    -0.331 OA
HETATM    8  C7  UNL     1       0.738   1.725   0.590  1.00  0.00     0.153 C 
HETATM    9  C8  UNL     1       0.391   0.469  -0.228  1.00  0.00     0.059 C 
HETATM   10  C9  UNL     1       1.352  -0.678   0.154  1.00  0.00     0.035 C 
HETATM   11  O4  UNL     1       6.748   1.014   0.334  1.00  0.00    -0.190 OA
ENDROOT
BRANCH   9  12
HETATM   12  C10 UNL     1      -1.033   0.074  -0.049  1.00  0.00     0.003 A 
HETATM   13  C11 UNL     1      -1.897   0.006  -1.160  1.00  0.00     0.092 A 
HETATM   14  C12 UNL     1      -3.238  -0.367  -0.975  1.00  0.00     0.048 A 
HETATM   15  C13 UNL     1      -3.723  -0.674   0.311  1.00  0.00     0.096 A 
HETATM   16  C14 UNL     1      -2.856  -0.604   1.416  1.00  0.00     0.024 A 
HETATM   17  C15 UNL     1      -1.514  -0.230   1.236  1.00  0.00    -0.000 A 
BRANCH  13  18
HETATM   18  O3  UNL     1      -1.457   0.291  -2.369  1.00  0.00    -0.328 OA
HETATM   19  C17 UNL     1      -2.381   0.232  -3.445  1.00  0.00     0.181 C 
ENDBRANCH  13  18
BRANCH  15  20
HETATM   20  O2  UNL     1      -4.982  -1.023   0.479  1.00  0.00    -0.328 OA
HETATM   21  C16 UNL     1      -5.404  -1.387   1.785  1.00  0.00     0.181 C 
ENDBRANCH  15  20
ENDBRANCH   9  12
TORSDOF 3
