REMARK  1 active torsions:
REMARK  status: ('A' for Active; 'I' for Inactive)
REMARK    1  A    between atoms: C13_16  and  O4_19 
ROOT
HETATM    1  C1  UNL     1       3.909  -0.967  -0.007  1.00  0.00     0.004 A 
HETATM    2  C2  UNL     1       4.587  -2.216  -0.007  1.00  0.00     0.028 A 
HETATM    3  C3  UNL     1       3.855  -3.439  -0.007  1.00  0.00     0.133 A 
HETATM    4  C4  UNL     1       2.435  -3.428  -0.007  1.00  0.00     0.052 A 
HETATM    5  C5  UNL     1       1.792  -2.172  -0.006  1.00  0.00     0.102 A 
HETATM    6  C6  UNL     1       2.494  -0.978  -0.006  1.00  0.00     0.030 A 
HETATM    7  C7  UNL     1       1.636   0.073  -0.004  1.00  0.00     0.088 A 
HETATM    8  C8  UNL     1       0.395  -0.549  -0.004  1.00  0.00     0.107 A 
HETATM    9  O1  UNL     1       0.411  -1.959  -0.005  1.00  0.00    -0.307 OA
HETATM   10  C9  UNL     1      -0.819   0.310   0.001  1.00  0.00     0.048 A 
HETATM   11  C10 UNL     1      -0.621   1.729   0.005  1.00  0.00     0.132 A 
HETATM   12  O2  UNL     1       0.629   2.272   0.002  1.00  0.00    -0.271 OA
HETATM   13  C11 UNL     1       1.778   1.548  -0.003  1.00  0.00     0.302 A 
HETATM   14  O3  UNL     1       2.876   2.053  -0.006  1.00  0.00    -0.259 OA
HETATM   15  C12 UNL     1      -1.754   2.578   0.013  1.00  0.00     0.176 A 
HETATM   16  C13 UNL     1      -3.059   2.026   0.015  1.00  0.00     0.121 A 
HETATM   17  C14 UNL     1      -3.240   0.622   0.010  1.00  0.00     0.026 A 
HETATM   18  C15 UNL     1      -2.122  -0.241   0.003  1.00  0.00     0.006 A 
HETATM   19  O5  UNL     1      -1.591   3.909   0.017  1.00  0.00    -0.186 OA
HETATM   20  O6  UNL     1       4.511  -4.608  -0.007  1.00  0.00    -0.190 OA
ENDROOT
BRANCH  16  21
HETATM   21  O4  UNL     1      -4.129   2.834   0.023  1.00  0.00    -0.326 OA
HETATM   22  C16 UNL     1      -5.416   2.236  -0.021  1.00  0.00     0.181 C 
ENDBRANCH  16  21
TORSDOF 1
