REMARK  4 active torsions:
REMARK  status: ('A' for Active; 'I' for Inactive)
REMARK    1  A    between atoms: C5_5  and  O1_9 
REMARK    2  A    between atoms: O1_9  and  C9_10 
REMARK    3  A    between atoms: C9_10  and  C10_11 
REMARK    4  A    between atoms: C10_11  and  C11_12 
ROOT
HETATM    1  C1  UNL     1       1.520   1.260  -1.754  1.00  0.00     0.027 C 
HETATM    2  C2  UNL     1       0.641   2.348  -1.094  1.00  0.00     0.053 C 
HETATM    3  C3  UNL     1      -0.853   2.035  -0.873  1.00  0.00     0.135 C 
HETATM    4  C4  UNL     1      -1.268   0.867   0.051  1.00  0.00     0.084 C 
HETATM    5  C5  UNL     1      -0.223  -0.242   0.225  1.00  0.00     0.135 C 
HETATM    6  C6  UNL     1       0.223  -0.926  -1.086  1.00  0.00     0.053 C 
HETATM    7  C7  UNL     1       0.791  -0.010  -2.152  1.00  0.00    -0.042 C 
HETATM    8  C8  UNL     1       0.643  -0.326  -3.451  1.00  0.00    -0.009 C 
HETATM    9  C13 UNL     1      -2.508   0.412  -0.660  1.00  0.00     0.045 C 
HETATM   10  C14 UNL     1      -2.525   1.004  -1.986  1.00  0.00     0.292 C 
HETATM   11  O4  UNL     1      -1.496   1.834  -2.143  1.00  0.00    -0.300 OA
HETATM   12  O5  UNL     1      -3.365   0.756  -2.822  1.00  0.00    -0.260 OA
HETATM   13  C15 UNL     1      -3.441  -0.402  -0.137  1.00  0.00     0.001 C 
HETATM   14  C16 UNL     1       1.399   2.748   0.145  1.00  0.00    -0.012 C 
HETATM   15  C17 UNL     1       2.781   2.168   0.162  1.00  0.00     0.171 C 
HETATM   16  C18 UNL     1       2.715   0.990  -0.813  1.00  0.00     0.042 C 
HETATM   17  O6  UNL     1       3.707   3.129  -0.305  1.00  0.00    -0.219 OA
HETATM   18  C19 UNL     1       0.900   3.523   1.125  1.00  0.00    -0.007 C 
ENDROOT
BRANCH   5  19
HETATM   19  O1  UNL     1      -0.748  -1.238   1.094  1.00  0.00    -0.300 OA
BRANCH  19  20
HETATM   20  C9  UNL     1       0.203  -2.010   1.611  1.00  0.00     0.294 C 
HETATM   21  O3  UNL     1       1.387  -1.811   1.467  1.00  0.00    -0.259 OA
BRANCH  20  22
HETATM   22  C10 UNL     1      -0.268  -3.160   2.395  1.00  0.00     0.074 C 
HETATM   23  C12 UNL     1       0.607  -4.022   2.936  1.00  0.00     0.004 C 
BRANCH  22  24
HETATM   24  C11 UNL     1      -1.738  -3.399   2.609  1.00  0.00     0.214 C 
HETATM   25  O2  UNL     1      -2.256  -4.137   1.525  1.00  0.00    -0.215 OA
ENDBRANCH  22  24
ENDBRANCH  20  22
ENDBRANCH  19  20
ENDBRANCH   5  19
TORSDOF 4
