REMARK  3 active torsions:
REMARK  status: ('A' for Active; 'I' for Inactive)
REMARK    1  A    between atoms: C13_14  and  C14_15 
REMARK    2  A    between atoms: C14_15  and  N1_16 
REMARK    3  A    between atoms: C15_17  and  C19_21 
ROOT
HETATM    1  C1  UNL     1       4.174  -0.521   0.549  1.00  0.00    -0.034 C 
HETATM    2  C2  UNL     1       3.258  -0.888  -0.371  1.00  0.00    -0.048 C 
HETATM    3  C3  UNL     1       2.109  -1.804  -0.006  1.00  0.00     0.022 C 
HETATM    4  C4  UNL     1       0.986  -1.111   0.803  1.00  0.00     0.008 C 
HETATM    5  C5  UNL     1       0.338   0.104   0.101  1.00  0.00     0.044 C 
HETATM    6  C6  UNL     1       0.779   1.496   0.613  1.00  0.00     0.146 C 
HETATM    7  C7  UNL     1       2.150   1.867   0.107  1.00  0.00    -0.005 C 
HETATM    8  C8  UNL     1       3.219   2.028   0.914  1.00  0.00    -0.045 C 
HETATM    9  C9  UNL     1       4.611   2.006   0.318  1.00  0.00     0.026 C 
HETATM   10  C10 UNL     1       5.203   0.571   0.297  1.00  0.00     0.030 C 
HETATM   11  C11 UNL     1       3.092   2.170   2.410  1.00  0.00     0.026 C 
HETATM   12  O1  UNL     1      -0.209   2.418   0.166  1.00  0.00    -0.300 OA
HETATM   13  C12 UNL     1      -1.350   1.742   0.101  1.00  0.00     0.274 C 
HETATM   14  C13 UNL     1      -1.168   0.268   0.332  1.00  0.00     0.122 C 
HETATM   15  O4  UNL     1      -2.430   2.235  -0.127  1.00  0.00    -0.264 OA
HETATM   16  C20 UNL     1       3.328  -0.387  -1.793  1.00  0.00     0.026 C 
ENDROOT
BRANCH  14  17
HETATM   17  C14 UNL     1      -1.977  -0.607  -0.619  1.00  0.00     0.261 C 
BRANCH  17  18
HETATM   18  N1  UNL     1      -3.406  -0.451  -0.367  1.00  0.00     0.146 N 
HETATM   19  C15 UNL     1      -4.262  -1.092  -1.369  1.00  0.00     0.305 C 
HETATM   20  C16 UNL     1      -5.053  -2.183  -0.645  1.00  0.00     0.047 C 
HETATM   21  C17 UNL     1      -5.197  -1.588   0.752  1.00  0.00     0.038 C 
HETATM   22  C18 UNL     1      -3.815  -0.971   0.939  1.00  0.00     0.251 C 
BRANCH  19  23
HETATM   23  C19 UNL     1      -5.160  -0.051  -1.986  1.00  0.00     0.218 C 
HETATM   24  O2  UNL     1      -6.293   0.102  -1.596  1.00  0.00    -0.646 OA
HETATM   25  O3  UNL     1      -4.611   0.662  -2.965  1.00  0.00    -0.646 OA
ENDBRANCH  19  23
ENDBRANCH  17  18
ENDBRANCH  14  17
TORSDOF 3
