REMARK  6 active torsions:
REMARK  status: ('A' for Active; 'I' for Inactive)
REMARK    1  A    between atoms: C9_9  and  C11_13 
REMARK    2  A    between atoms: C11_13  and  N1_14 
REMARK    3  A    between atoms: N1_14  and  C12_15 
REMARK    4  A    between atoms: C12_15  and  C13_16 
REMARK    5  A    between atoms: C12_15  and  C14_19 
REMARK    6  A    between atoms: C14_19  and  C15_20 
ROOT
HETATM    1  C1  UNL     1       0.051  -1.960  -3.326  1.00  0.00     0.025 C 
HETATM    2  C2  UNL     1      -0.993  -1.585  -2.254  1.00  0.00     0.050 C 
HETATM    3  C3  UNL     1      -0.839  -0.195  -1.603  1.00  0.00     0.129 C 
HETATM    4  C4  UNL     1       0.442  -0.062  -0.754  1.00  0.00     0.040 C 
HETATM    5  C5  UNL     1       1.696   0.444  -1.486  1.00  0.00     0.007 C 
HETATM    6  C6  UNL     1       1.833  -0.094  -2.917  1.00  0.00     0.022 C 
HETATM    7  C7  UNL     1       1.490  -1.562  -3.042  1.00  0.00    -0.044 C 
HETATM    8  C8  UNL     1       2.454  -2.495  -2.905  1.00  0.00    -0.009 C 
HETATM    9  C9  UNL     1      -0.016   0.903   0.344  1.00  0.00     0.125 C 
HETATM   10  C10 UNL     1      -1.499   0.701   0.337  1.00  0.00     0.274 C 
HETATM   11  O1  UNL     1      -1.936   0.029  -0.718  1.00  0.00    -0.304 OA
HETATM   12  O2  UNL     1      -2.209   1.116   1.223  1.00  0.00    -0.264 OA
HETATM   13  C16 UNL     1      -2.281  -1.703  -3.029  1.00  0.00    -0.042 C 
HETATM   14  C17 UNL     1      -2.031  -1.711  -4.508  1.00  0.00     0.022 C 
HETATM   15  C18 UNL     1      -0.543  -1.390  -4.627  1.00  0.00     0.009 C 
HETATM   16  C19 UNL     1      -3.504  -1.801  -2.475  1.00  0.00    -0.009 C 
ENDROOT
BRANCH   9  17
HETATM   17  C11 UNL     1       0.639   0.576   1.682  1.00  0.00     0.301 C 
BRANCH  17  18
HETATM   18  N1  UNL     1       0.276   1.568   2.681  1.00  0.00     0.349 N 
BRANCH  18  19
HETATM   19  C12 UNL     1       0.806   1.196   3.982  1.00  0.00     0.351 C 
BRANCH  19  20
HETATM   20  C13 UNL     1       2.307   1.305   3.982  1.00  0.00     0.221 C 
HETATM   21  O3  UNL     1       2.853   2.383   3.982  1.00  0.00    -0.646 OA
HETATM   22  O4  UNL     1       2.958   0.145   3.982  1.00  0.00    -0.646 OA
ENDBRANCH  19  20
BRANCH  19  23
HETATM   23  C14 UNL     1       0.160   2.038   5.083  1.00  0.00     0.139 C 
BRANCH  23  24
HETATM   24  C15 UNL     1      -1.325   1.811   5.184  1.00  0.00     0.276 C 
HETATM   25  N2  UNL     1      -2.054   2.605   6.023  1.00  0.00    -0.107 N 
HETATM   26  O5  UNL     1      -1.867   0.945   4.538  1.00  0.00    -0.269 OA
ENDBRANCH  23  24
ENDBRANCH  19  23
ENDBRANCH  18  19
ENDBRANCH  17  18
ENDBRANCH   9  17
TORSDOF 6
