REMARK  1 active torsions:
REMARK  status: ('A' for Active; 'I' for Inactive)
REMARK    1  A    between atoms: C13_17  and  C16_22 
ROOT
HETATM    1  C1  UNL     1      -3.010   1.436   1.260  1.00  0.00     0.068 C 
HETATM    2  C2  UNL     1      -4.395   1.227   0.656  1.00  0.00     0.254 C 
HETATM    3  N1  UNL     1      -4.234   0.395  -0.547  1.00  0.00     0.146 N 
HETATM    4  C3  UNL     1      -4.697  -0.998  -0.389  1.00  0.00     0.276 C 
HETATM    5  C4  UNL     1      -3.447  -1.803  -0.221  1.00  0.00     0.005 C 
HETATM    6  C5  UNL     1      -2.383  -1.043  -0.484  1.00  0.00     0.017 C 
HETATM    7  C6  UNL     1      -2.785   0.373  -0.836  1.00  0.00     0.268 C 
HETATM    8  C7  UNL     1      -2.207   1.551  -0.027  1.00  0.00     0.162 C 
HETATM    9  O1  UNL     1      -0.799   1.490   0.226  1.00  0.00    -0.300 OA
HETATM   10  C8  UNL     1       0.027   1.855  -0.772  1.00  0.00     0.300 C 
HETATM   11  O2  UNL     1      -0.367   2.076  -1.897  1.00  0.00    -0.262 OA
HETATM   12  C9  UNL     1       1.518   2.004  -0.484  1.00  0.00     0.203 C 
HETATM   13  C10 UNL     1       2.162   2.994  -1.467  1.00  0.00     0.043 C 
HETATM   14  O3  UNL     1       1.682   2.615   0.779  1.00  0.00    -0.216 OA
HETATM   15  C11 UNL     1       2.266   0.635  -0.508  1.00  0.00     0.040 C 
HETATM   16  C12 UNL     1       1.828  -0.324   0.656  1.00  0.00     0.043 C 
HETATM   17  C13 UNL     1       1.820  -1.891   0.480  1.00  0.00     0.234 C 
HETATM   18  C14 UNL     1       0.588  -2.457   1.185  1.00  0.00     0.302 C 
HETATM   19  O4  UNL     1      -0.674  -2.100   0.855  1.00  0.00    -0.295 OA
HETATM   20  C15 UNL     1      -0.967  -1.559  -0.440  1.00  0.00     0.176 C 
HETATM   21  O5  UNL     1       0.766  -3.240   2.092  1.00  0.00    -0.261 OA
HETATM   22  O7  UNL     1       1.777  -2.342  -0.856  1.00  0.00    -0.213 OA
HETATM   23  C17 UNL     1       2.568   0.053   1.951  1.00  0.00     0.003 C 
HETATM   24  C18 UNL     1       2.160   0.076  -1.934  1.00  0.00     0.003 C 
ENDROOT
BRANCH  17  25
HETATM   25  C16 UNL     1       3.121  -2.522   1.004  1.00  0.00     0.222 C 
HETATM   26  O6  UNL     1       4.205  -1.910   0.342  1.00  0.00    -0.217 OA
ENDBRANCH  17  25
TORSDOF 1
