REMARK  8 active torsions:
REMARK  status: ('A' for Active; 'I' for Inactive)
REMARK    1  A    between atoms: C2_2  and  C3_3 
REMARK    2  A    between atoms: C3_3  and  C4_4 
REMARK    3  A    between atoms: C4_4  and  C5_5 
REMARK    4  A    between atoms: C5_5  and  C6_6 
REMARK    5  A    between atoms: C7_7  and  C8_8 
REMARK    6  A    between atoms: C8_8  and  O1_9 
REMARK    7  A    between atoms: O1_9  and  C9_10 
REMARK    8  A    between atoms: C10_11  and  O4_21 
ROOT
HETATM    1  C9  UNL     1      -0.057  -2.682  -1.539  1.00  0.00     0.119 A 
HETATM    2  C10 UNL     1      -1.238  -1.922  -1.344  1.00  0.00     0.139 A 
HETATM    3  C11 UNL     1      -2.500  -2.488  -1.645  1.00  0.00     0.127 A 
HETATM    4  C12 UNL     1      -2.572  -3.818  -2.141  1.00  0.00     0.025 A 
HETATM    5  C13 UNL     1      -1.395  -4.578  -2.336  1.00  0.00     0.004 A 
HETATM    6  C14 UNL     1      -0.137  -4.006  -2.033  1.00  0.00     0.026 A 
HETATM    7  C15 UNL     1      -3.908  -4.389  -2.445  1.00  0.00     0.007 A 
HETATM    8  C16 UNL     1      -5.002  -3.629  -2.242  1.00  0.00     0.069 A 
HETATM    9  C17 UNL     1      -4.862  -2.248  -1.725  1.00  0.00     0.300 A 
HETATM   10  O2  UNL     1      -3.629  -1.768  -1.459  1.00  0.00    -0.271 OA
HETATM   11  O3  UNL     1      -5.862  -1.592  -1.555  1.00  0.00    -0.259 OA
ENDROOT
BRANCH   1  12
HETATM   12  O1  UNL     1       1.139  -2.148  -1.254  1.00  0.00    -0.324 OA
BRANCH  12  13
HETATM   13  C8  UNL     1       1.418  -0.840  -1.734  1.00  0.00     0.174 C 
BRANCH  13  14
HETATM   14  C7  UNL     1       1.457   0.121  -0.578  1.00  0.00    -0.002 C 
HETATM   15  C6  UNL     1       1.924   1.363  -0.791  1.00  0.00    -0.046 C 
HETATM   16  C19 UNL     1       2.381   1.729  -2.178  1.00  0.00     0.026 C 
BRANCH  15  17
HETATM   17  C5  UNL     1       2.031   2.443   0.252  1.00  0.00     0.025 C 
BRANCH  17  18
HETATM   18  C4  UNL     1       1.810   1.910   1.668  1.00  0.00     0.042 C 
BRANCH  18  19
HETATM   19  C3  UNL     1       2.053   2.971   2.740  1.00  0.00     0.171 C 
HETATM   20  O5  UNL     1       3.441   3.188   2.842  1.00  0.00    -0.219 OA
BRANCH  19  21
HETATM   21  C2  UNL     1       1.510   2.563   4.084  1.00  0.00    -0.014 C 
HETATM   22  C1  UNL     1       1.355   1.252   4.342  1.00  0.00    -0.007 C 
HETATM   23  C20 UNL     1       1.133   3.553   5.152  1.00  0.00     0.029 C 
ENDBRANCH  19  21
ENDBRANCH  18  19
ENDBRANCH  17  18
ENDBRANCH  15  17
ENDBRANCH  13  14
ENDBRANCH  12  13
ENDBRANCH   1  12
BRANCH   2  24
HETATM   24  O4  UNL     1      -1.160  -0.670  -0.875  1.00  0.00    -0.324 OA
HETATM   25  C18 UNL     1      -2.028   0.307  -1.434  1.00  0.00     0.182 C 
ENDBRANCH   2  24
TORSDOF 8
