REMARK  7 active torsions:
REMARK  status: ('A' for Active; 'I' for Inactive)
REMARK    1  A    between atoms: C1_1  and  O7_31 
REMARK    2  A    between atoms: C2_2  and  O5_27 
REMARK    3  A    between atoms: C6_6  and  O1_7 
REMARK    4  A    between atoms: C14_15  and  O4_23 
REMARK    5  A    between atoms: C15_16  and  O3_21 
REMARK    6  A    between atoms: C16_17  and  O2_19 
REMARK    7  A    between atoms: O5_27  and  C23_28 
ROOT
HETATM    1  C1  UNL     1       2.880  -0.513   1.259  1.00  0.00     0.139 A 
HETATM    2  C2  UNL     1       1.750   0.264   0.950  1.00  0.00     0.127 A 
HETATM    3  C3  UNL     1       0.749  -0.242   0.094  1.00  0.00     0.023 A 
HETATM    4  C4  UNL     1       0.896  -1.556  -0.456  1.00  0.00    -0.018 A 
HETATM    5  C5  UNL     1       2.033  -2.315  -0.134  1.00  0.00     0.022 A 
HETATM    6  C6  UNL     1       3.021  -1.801   0.718  1.00  0.00     0.118 A 
HETATM    7  C8  UNL     1      -0.108  -2.169  -1.376  1.00  0.00     0.026 C 
HETATM    8  C9  UNL     1      -1.150  -3.075  -0.675  1.00  0.00     0.005 C 
HETATM    9  C10 UNL     1      -2.370  -2.322  -0.101  1.00  0.00     0.005 C 
HETATM   10  C11 UNL     1      -2.013  -1.139   0.832  1.00  0.00     0.026 C 
HETATM   11  C12 UNL     1      -1.747   0.148   0.123  1.00  0.00    -0.018 A 
HETATM   12  C13 UNL     1      -0.431   0.584  -0.235  1.00  0.00     0.022 A 
HETATM   13  C14 UNL     1      -0.268   1.818  -0.899  1.00  0.00     0.118 A 
HETATM   14  C15 UNL     1      -1.387   2.614  -1.203  1.00  0.00     0.138 A 
HETATM   15  C16 UNL     1      -2.676   2.184  -0.851  1.00  0.00     0.118 A 
HETATM   16  C17 UNL     1      -2.850   0.958  -0.193  1.00  0.00     0.022 A 
HETATM   17  C21 UNL     1      -3.364  -1.943  -1.210  1.00  0.00     0.000 C 
HETATM   18  C22 UNL     1      -0.531  -4.014   0.372  1.00  0.00     0.000 C 
ENDROOT
BRANCH   2  19
HETATM   19  O5  UNL     1       1.635   1.470   1.475  1.00  0.00    -0.274 OA
BRANCH  19  20
HETATM   20  C23 UNL     1       1.747   1.613   2.792  1.00  0.00     0.277 C 
HETATM   21  O6  UNL     1       1.754   0.690   3.572  1.00  0.00    -0.264 OA
HETATM   22  C24 UNL     1       1.870   3.035   3.273  1.00  0.00     0.107 C 
ENDBRANCH  19  20
ENDBRANCH   2  19
BRANCH   1  23
HETATM   23  O7  UNL     1       3.811  -0.033   2.060  1.00  0.00    -0.324 OA
HETATM   24  C25 UNL     1       5.169  -0.245   1.707  1.00  0.00     0.182 C 
ENDBRANCH   1  23
BRANCH   6  25
HETATM   25  O1  UNL     1       4.081  -2.530   1.007  1.00  0.00    -0.326 OA
HETATM   26  C7  UNL     1       4.178  -3.823   0.429  1.00  0.00     0.181 C 
ENDBRANCH   6  25
BRANCH  13  27
HETATM   27  O4  UNL     1       0.934   2.238  -1.245  1.00  0.00    -0.326 OA
HETATM   28  C20 UNL     1       1.104   2.769  -2.551  1.00  0.00     0.181 C 
ENDBRANCH  13  27
BRANCH  14  29
HETATM   29  O3  UNL     1      -1.226   3.766  -1.823  1.00  0.00    -0.324 OA
HETATM   30  C19 UNL     1      -1.980   4.880  -1.366  1.00  0.00     0.182 C 
ENDBRANCH  14  29
BRANCH  15  31
HETATM   31  O2  UNL     1      -3.725   2.930  -1.137  1.00  0.00    -0.326 OA
HETATM   32  C18 UNL     1      -5.015   2.374  -0.926  1.00  0.00     0.181 C 
ENDBRANCH  15  31
TORSDOF 7
