REMARK  6 active torsions:
REMARK  status: ('A' for Active; 'I' for Inactive)
REMARK    1  A    between atoms: C7_7  and  C10_10 
REMARK    2  A    between atoms: C10_10  and  C11_11 
REMARK    3  A    between atoms: C22_24  and  C28_32 
REMARK    4  A    between atoms: C23_25  and  C24_26 
REMARK    5  A    between atoms: C24_26  and  C25_27 
REMARK    6  A    between atoms: C25_27  and  C26_28 
ROOT
HETATM    1  C1  UNL     1      -1.893   1.264  -0.910  1.00  0.00     0.000 C 
HETATM    2  C2  UNL     1      -1.982   0.119   0.141  1.00  0.00     0.000 A 
HETATM    3  C3  UNL     1      -1.334  -1.137  -0.469  1.00  0.00     0.000 C 
HETATM    4  C4  UNL     1       0.187  -0.986  -0.682  1.00  0.00     0.000 C 
HETATM    5  C5  UNL     1       0.566   0.527  -0.615  1.00  0.00     0.000 C 
HETATM    6  C6  UNL     1      -0.439   1.312  -1.494  1.00  0.00     0.000 C 
HETATM    7  C7  UNL     1       2.061   0.439  -0.965  1.00  0.00     0.002 C 
HETATM    8  C8  UNL     1       2.502  -0.764  -0.102  1.00  0.00     0.000 C 
HETATM    9  C9  UNL     1       1.230  -1.555   0.279  1.00  0.00     0.000 C 
HETATM   10  C18 UNL     1       0.572   1.145   0.797  1.00  0.00     0.000 C 
HETATM   11  C19 UNL     1       0.539  -1.654  -2.027  1.00  0.00     0.000 C 
HETATM   12  C20 UNL     1      -2.068  -2.469  -0.230  1.00  0.00     0.000 C 
HETATM   13  C21 UNL     1      -3.623  -2.266  -0.322  1.00  0.00     0.004 C 
HETATM   14  C22 UNL     1      -4.168  -0.879   0.178  1.00  0.00     0.018 C 
HETATM   15  C23 UNL     1      -3.068  -0.420   1.131  1.00  0.00     0.004 A 
HETATM   16  C27 UNL     1      -2.277   0.795   1.467  1.00  0.00     0.000 A 
ENDROOT
BRANCH   7  17
HETATM   17  C10 UNL     1       2.887   1.697  -0.701  1.00  0.00     0.028 C 
HETATM   18  C17 UNL     1       2.049   2.936  -1.023  1.00  0.00     0.003 C 
BRANCH  17  19
HETATM   19  C11 UNL     1       4.184   1.637  -1.510  1.00  0.00     0.129 C 
HETATM   20  O1  UNL     1       4.832   0.383  -1.248  1.00  0.00    -0.301 OA
HETATM   21  C12 UNL     1       6.082   0.219  -1.721  1.00  0.00     0.291 C 
HETATM   22  C13 UNL     1       6.881   1.389  -2.152  1.00  0.00     0.037 C 
HETATM   23  O2  UNL     1       6.588  -0.877  -1.793  1.00  0.00    -0.260 OA
HETATM   24  C14 UNL     1       6.438   2.637  -1.908  1.00  0.00    -0.023 C 
HETATM   25  C16 UNL     1       8.195   1.193  -2.861  1.00  0.00     0.036 C 
HETATM   26  C15 UNL     1       5.123   2.813  -1.189  1.00  0.00     0.056 C 
ENDBRANCH  17  19
ENDBRANCH   7  17
BRANCH  15  27
HETATM   27  C24 UNL     1      -2.859  -1.371   2.316  1.00  0.00     0.012 C 
BRANCH  27  28
HETATM   28  C25 UNL     1      -3.492  -0.768   3.570  1.00  0.00     0.098 C 
BRANCH  28  29
HETATM   29  C26 UNL     1      -3.227  -1.592   4.803  1.00  0.00     0.185 C 
HETATM   30  O3  UNL     1      -3.578  -1.023   5.951  1.00  0.00    -0.647 OA
HETATM   31  O4  UNL     1      -2.727  -2.690   4.721  1.00  0.00    -0.647 OA
ENDBRANCH  28  29
ENDBRANCH  27  28
ENDBRANCH  15  27
BRANCH  14  32
HETATM   32  C28 UNL     1      -5.531  -0.982   0.818  1.00  0.00    -0.044 C 
HETATM   33  C29 UNL     1      -6.402  -2.203   0.697  1.00  0.00     0.026 C 
HETATM   34  C30 UNL     1      -5.986   0.062   1.527  1.00  0.00    -0.009 C 
ENDBRANCH  14  32
TORSDOF 6
