REMARK  0 active torsions:
REMARK  status: ('A' for Active; 'I' for Inactive)
ROOT
HETATM    1  C1  UNL     1       1.076  -1.227  -0.349  1.00  0.00     0.119 A 
HETATM    2  C2  UNL     1       0.077  -1.684   0.505  1.00  0.00     0.121 A 
HETATM    3  C3  UNL     1      -0.927  -0.837   0.963  1.00  0.00     0.051 A 
HETATM    4  C4  UNL     1      -0.938   0.509   0.559  1.00  0.00     0.105 A 
HETATM    5  C5  UNL     1       0.087   0.952  -0.309  1.00  0.00     0.025 A 
HETATM    6  C6  UNL     1       1.104   0.095  -0.772  1.00  0.00     0.028 A 
HETATM    7  C7  UNL     1       0.085   2.350  -0.738  1.00  0.00     0.007 A 
HETATM    8  C8  UNL     1      -0.883   3.175  -0.284  1.00  0.00     0.069 A 
HETATM    9  C9  UNL     1      -1.913   2.633   0.629  1.00  0.00     0.300 A 
HETATM   10  O1  UNL     1      -1.935   1.327   1.018  1.00  0.00    -0.273 OA
HETATM   11  O2  UNL     1      -2.775   3.410   1.038  1.00  0.00    -0.259 OA
HETATM   12  O3  UNL     1       0.284  -3.024   0.762  1.00  0.00    -0.299 OA
HETATM   13  C10 UNL     1       1.444  -3.435   0.029  1.00  0.00     0.304 A 
HETATM   14  O4  UNL     1       1.931  -2.269  -0.647  1.00  0.00    -0.300 OA
ENDROOT
TORSDOF 0
