REMARK  5 active torsions:
REMARK  status: ('A' for Active; 'I' for Inactive)
REMARK    1  A    between atoms: C6_6  and  O1_7 
REMARK    2  A    between atoms: C9_12  and  O8_30 
REMARK    3  A    between atoms: C15_18  and  O6_25 
REMARK    4  A    between atoms: O8_30  and  C23_31 
REMARK    5  A    between atoms: C23_31  and  C24_32 
ROOT
HETATM    1  C1  UNL     1      -0.887   0.313   0.895  1.00  0.00     0.024 A 
HETATM    2  C2  UNL     1      -0.068  -0.797   0.523  1.00  0.00     0.012 A 
HETATM    3  C3  UNL     1      -0.598  -2.098   0.693  1.00  0.00     0.025 A 
HETATM    4  C4  UNL     1      -1.902  -2.322   1.187  1.00  0.00     0.121 A 
HETATM    5  C5  UNL     1      -2.695  -1.230   1.531  1.00  0.00     0.141 A 
HETATM    6  C6  UNL     1      -2.205   0.096   1.406  1.00  0.00     0.118 A 
HETATM    7  O2  UNL     1      -3.879  -1.676   1.959  1.00  0.00    -0.298 OA
HETATM    8  C8  UNL     1      -3.895  -3.119   1.908  1.00  0.00     0.304 A 
HETATM    9  O3  UNL     1      -2.582  -3.447   1.404  1.00  0.00    -0.299 OA
HETATM   10  C9  UNL     1       1.311  -0.643  -0.045  1.00  0.00     0.175 C 
HETATM   11  C10 UNL     1       2.459  -0.762   1.012  1.00  0.00     0.156 C 
HETATM   12  C11 UNL     1       2.746   0.559   1.789  1.00  0.00     0.035 C 
HETATM   13  C12 UNL     1       1.500   1.217   2.432  1.00  0.00     0.029 C 
HETATM   14  C13 UNL     1       0.760   2.115   1.496  1.00  0.00    -0.018 A 
HETATM   15  C14 UNL     1      -0.383   1.695   0.758  1.00  0.00     0.022 A 
HETATM   16  C15 UNL     1      -1.049   2.609  -0.115  1.00  0.00     0.118 A 
HETATM   17  C16 UNL     1      -0.572   3.943  -0.223  1.00  0.00     0.141 A 
HETATM   18  C17 UNL     1       0.549   4.363   0.494  1.00  0.00     0.121 A 
HETATM   19  C18 UNL     1       1.211   3.445   1.342  1.00  0.00     0.022 A 
HETATM   20  O4  UNL     1       0.793   5.645   0.217  1.00  0.00    -0.299 OA
HETATM   21  C19 UNL     1      -0.197   6.125  -0.715  1.00  0.00     0.304 A 
HETATM   22  O5  UNL     1      -1.031   4.969  -0.943  1.00  0.00    -0.298 OA
HETATM   23  C21 UNL     1       3.828   0.350   2.861  1.00  0.00     0.003 C 
HETATM   24  O7  UNL     1       3.656  -1.062   0.312  1.00  0.00    -0.223 OA
HETATM   25  C22 UNL     1       2.260  -1.949   1.967  1.00  0.00     0.036 C 
ENDROOT
BRANCH  10  26
HETATM   26  O8  UNL     1       1.486  -1.615  -1.074  1.00  0.00    -0.294 OA
BRANCH  26  27
HETATM   27  C23 UNL     1       0.719  -1.373  -2.135  1.00  0.00     0.296 C 
HETATM   28  O9  UNL     1      -0.025  -0.426  -2.225  1.00  0.00    -0.259 OA
BRANCH  27  29
HETATM   29  C24 UNL     1       0.834  -2.367  -3.242  1.00  0.00     0.063 A 
HETATM   30  C25 UNL     1       1.707  -3.463  -3.119  1.00  0.00     0.005 A 
HETATM   31  C26 UNL     1       1.814  -4.398  -4.162  1.00  0.00     0.000 A 
HETATM   32  C27 UNL     1       1.051  -4.240  -5.330  1.00  0.00     0.000 A 
HETATM   33  C28 UNL     1       0.178  -3.145  -5.457  1.00  0.00     0.000 A 
HETATM   34  C29 UNL     1       0.070  -2.209  -4.414  1.00  0.00     0.005 A 
ENDBRANCH  27  29
ENDBRANCH  26  27
ENDBRANCH  10  26
BRANCH   6  35
HETATM   35  O1  UNL     1      -2.895   1.197   1.744  1.00  0.00    -0.326 OA
HETATM   36  C7  UNL     1      -4.207   1.029   2.260  1.00  0.00     0.181 C 
ENDBRANCH   6  35
BRANCH  16  37
HETATM   37  O6  UNL     1      -2.102   2.121  -0.791  1.00  0.00    -0.326 OA
HETATM   38  C20 UNL     1      -2.797   2.998  -1.664  1.00  0.00     0.181 C 
ENDBRANCH  16  37
TORSDOF 5
