REMARK  8 active torsions:
REMARK  status: ('A' for Active; 'I' for Inactive)
REMARK    1  A    between atoms: C4_4  and  O3_11 
REMARK    2  A    between atoms: C5_5  and  O2_9 
REMARK    3  A    between atoms: C6_6  and  O1_7 
REMARK    4  A    between atoms: C10_13  and  O8_31 
REMARK    5  A    between atoms: C16_19  and  O6_26 
REMARK    6  A    between atoms: C17_20  and  O5_24 
REMARK    7  A    between atoms: O8_31  and  C24_32 
REMARK    8  A    between atoms: C24_32  and  C25_33 
ROOT
HETATM    1  C1  UNL     1       0.149   0.721   0.883  1.00  0.00     0.024 A 
HETATM    2  C2  UNL     1       0.474  -0.467   0.150  1.00  0.00     0.012 A 
HETATM    3  C3  UNL     1       0.600  -1.683   0.846  1.00  0.00     0.025 A 
HETATM    4  C4  UNL     1       0.386  -1.748   2.231  1.00  0.00     0.118 A 
HETATM    5  C5  UNL     1       0.041  -0.589   2.942  1.00  0.00     0.138 A 
HETATM    6  C6  UNL     1      -0.073   0.642   2.274  1.00  0.00     0.118 A 
HETATM    7  C10 UNL     1       0.679  -0.474  -1.337  1.00  0.00     0.175 C 
HETATM    8  C11 UNL     1       2.176  -0.388  -1.782  1.00  0.00     0.156 C 
HETATM    9  C12 UNL     1       2.753   1.060  -1.807  1.00  0.00     0.035 C 
HETATM   10  C13 UNL     1       2.510   1.872  -0.512  1.00  0.00     0.029 C 
HETATM   11  C14 UNL     1       1.185   2.559  -0.488  1.00  0.00    -0.018 A 
HETATM   12  C15 UNL     1       0.046   2.019   0.188  1.00  0.00     0.022 A 
HETATM   13  C16 UNL     1      -1.166   2.741   0.187  1.00  0.00     0.118 A 
HETATM   14  C17 UNL     1      -1.257   3.973  -0.484  1.00  0.00     0.141 A 
HETATM   15  C18 UNL     1      -0.141   4.493  -1.160  1.00  0.00     0.155 A 
HETATM   16  C19 UNL     1       1.071   3.786  -1.160  1.00  0.00     0.025 A 
HETATM   17  O4  UNL     1      -0.229   5.643  -1.797  1.00  0.00    -0.188 OA
HETATM   18  C22 UNL     1       4.254   1.056  -2.142  1.00  0.00     0.003 C 
HETATM   19  O7  UNL     1       2.255  -0.854  -3.120  1.00  0.00    -0.223 OA
HETATM   20  C23 UNL     1       3.081  -1.343  -0.986  1.00  0.00     0.036 C 
ENDROOT
BRANCH   7  21
HETATM   21  O8  UNL     1       0.073  -1.652  -1.871  1.00  0.00    -0.294 OA
BRANCH  21  22
HETATM   22  C24 UNL     1      -1.255  -1.589  -1.856  1.00  0.00     0.296 C 
HETATM   23  O9  UNL     1      -1.880  -0.555  -1.843  1.00  0.00    -0.259 OA
BRANCH  22  24
HETATM   24  C25 UNL     1      -1.955  -2.909  -1.856  1.00  0.00     0.063 A 
HETATM   25  C26 UNL     1      -3.361  -2.961  -1.856  1.00  0.00     0.005 A 
HETATM   26  C27 UNL     1      -4.018  -4.204  -1.856  1.00  0.00     0.000 A 
HETATM   27  C28 UNL     1      -3.272  -5.394  -1.856  1.00  0.00     0.000 A 
HETATM   28  C29 UNL     1      -1.867  -5.343  -1.856  1.00  0.00     0.000 A 
HETATM   29  C30 UNL     1      -1.209  -4.102  -1.856  1.00  0.00     0.005 A 
ENDBRANCH  22  24
ENDBRANCH  21  22
ENDBRANCH   7  21
BRANCH   6  30
HETATM   30  O1  UNL     1      -0.383   1.723   2.965  1.00  0.00    -0.326 OA
HETATM   31  C7  UNL     1       0.537   2.173   3.948  1.00  0.00     0.181 C 
ENDBRANCH   6  30
BRANCH   4  32
HETATM   32  O3  UNL     1       0.508  -2.900   2.859  1.00  0.00    -0.326 OA
HETATM   33  C9  UNL     1       0.656  -4.075   2.075  1.00  0.00     0.181 C 
ENDBRANCH   4  32
BRANCH   5  34
HETATM   34  O2  UNL     1      -0.173  -0.655   4.241  1.00  0.00    -0.324 OA
HETATM   35  C8  UNL     1      -0.926  -1.752   4.738  1.00  0.00     0.182 C 
ENDBRANCH   5  34
BRANCH  13  36
HETATM   36  O6  UNL     1      -2.228   2.264   0.810  1.00  0.00    -0.326 OA
HETATM   37  C21 UNL     1      -2.898   1.154   0.231  1.00  0.00     0.181 C 
ENDBRANCH  13  36
BRANCH  14  38
HETATM   38  O5  UNL     1      -2.393   4.643  -0.480  1.00  0.00    -0.324 OA
HETATM   39  C20 UNL     1      -2.337   6.048  -0.287  1.00  0.00     0.182 C 
ENDBRANCH  14  38
TORSDOF 8
