REMARK  5 active torsions:
REMARK  status: ('A' for Active; 'I' for Inactive)
REMARK    1  A    between atoms: C1_1  and  O11_32 
REMARK    2  A    between atoms: C7_8  and  C10_12 
REMARK    3  A    between atoms: C11_13  and  O4_19 
REMARK    4  A    between atoms: O4_19  and  C16_20 
REMARK    5  A    between atoms: C17_22  and  C21_29 
ROOT
HETATM    1  C10 UNL     1       0.553  -0.205   1.828  1.00  0.00     0.053 A 
HETATM    2  C11 UNL     1       1.578  -0.988   1.264  1.00  0.00     0.097 A 
HETATM    3  C12 UNL     1       2.561  -1.555   2.094  1.00  0.00     0.024 A 
HETATM    4  C13 UNL     1       2.523  -1.340   3.480  1.00  0.00     0.004 A 
HETATM    5  C14 UNL     1       1.500  -0.559   4.043  1.00  0.00     0.027 A 
HETATM    6  C15 UNL     1       0.512   0.012   3.221  1.00  0.00     0.131 A 
HETATM    7  O3  UNL     1      -0.443   0.744   3.758  1.00  0.00    -0.190 OA
ENDROOT
BRANCH   1   8
HETATM    8  C7  UNL     1      -0.490   0.396   0.953  1.00  0.00     0.155 C 
HETATM    9  O1  UNL     1      -1.783   0.109   1.500  1.00  0.00    -0.328 OA
HETATM   10  C5  UNL     1      -2.885   0.709   1.000  1.00  0.00     0.101 A 
HETATM   11  C4  UNL     1      -2.791   1.897   0.223  1.00  0.00     0.083 A 
HETATM   12  C6  UNL     1      -4.154   0.141   1.260  1.00  0.00     0.049 A 
HETATM   13  C3  UNL     1      -3.961   2.471  -0.340  1.00  0.00     0.138 A 
HETATM   14  C9  UNL     1      -1.457   2.533   0.016  1.00  0.00     0.180 C 
HETATM   15  C2  UNL     1      -5.223   1.883  -0.088  1.00  0.00     0.052 A 
HETATM   16  O10 UNL     1      -3.893   3.574  -1.102  1.00  0.00    -0.190 OA
HETATM   17  C1  UNL     1      -5.320   0.727   0.719  1.00  0.00     0.098 A 
HETATM   18  C8  UNL     1      -0.303   1.914   0.775  1.00  0.00     0.104 C 
HETATM   19  O2  UNL     1      -1.209   3.486  -0.688  1.00  0.00    -0.291 OA
BRANCH  17  20
HETATM   20  O11 UNL     1      -6.520   0.182   0.965  1.00  0.00    -0.328 OA
HETATM   21  C22 UNL     1      -7.670   0.850   0.469  1.00  0.00     0.181 C 
ENDBRANCH  17  20
ENDBRANCH   1   8
BRANCH   2  22
HETATM   22  O4  UNL     1       1.623  -1.197  -0.037  1.00  0.00    -0.304 OA
BRANCH  22  23
HETATM   23  C16 UNL     1       2.502  -2.203  -0.522  1.00  0.00     0.274 C 
HETATM   24  O5  UNL     1       3.852  -1.734  -0.557  1.00  0.00    -0.326 OA
HETATM   25  C17 UNL     1       4.135  -0.674  -1.471  1.00  0.00     0.184 C 
HETATM   26  C18 UNL     1       3.754  -1.068  -2.922  1.00  0.00     0.215 C 
HETATM   27  C19 UNL     1       2.330  -1.664  -3.039  1.00  0.00     0.220 C 
HETATM   28  O8  UNL     1       4.691  -2.014  -3.404  1.00  0.00    -0.218 OA
HETATM   29  C20 UNL     1       2.033  -2.686  -1.916  1.00  0.00     0.241 C 
HETATM   30  O7  UNL     1       1.393  -0.607  -2.945  1.00  0.00    -0.218 OA
HETATM   31  O6  UNL     1       2.668  -3.912  -2.221  1.00  0.00    -0.215 OA
BRANCH  25  32
HETATM   32  C21 UNL     1       3.453   0.617  -0.996  1.00  0.00     0.214 C 
HETATM   33  O9  UNL     1       4.053   1.703  -1.668  1.00  0.00    -0.218 OA
ENDBRANCH  25  32
ENDBRANCH  22  23
ENDBRANCH   2  22
TORSDOF 5
