REMARK  1 active torsions:
REMARK  status: ('A' for Active; 'I' for Inactive)
REMARK    1  A    between atoms: C9_10  and  C10_12 
ROOT
HETATM    1  C1  UNL     1      -3.881   1.545   0.959  1.00  0.00     0.182 A 
HETATM    2  C2  UNL     1      -3.988   0.254   0.391  1.00  0.00     0.160 A 
HETATM    3  C3  UNL     1      -2.824  -0.450   0.002  1.00  0.00     0.054 A 
HETATM    4  C4  UNL     1      -1.547   0.133   0.180  1.00  0.00     0.101 A 
HETATM    5  C5  UNL     1      -1.442   1.447   0.715  1.00  0.00     0.085 A 
HETATM    6  C6  UNL     1      -2.610   2.144   1.123  1.00  0.00     0.163 A 
HETATM    7  O1  UNL     1      -2.524   3.373   1.654  1.00  0.00    -0.188 OA
HETATM    8  C7  UNL     1      -0.098   2.082   0.832  1.00  0.00     0.180 C 
HETATM    9  C8  UNL     1       1.058   1.302   0.240  1.00  0.00     0.104 C 
HETATM   10  C9  UNL     1       0.836  -0.217   0.353  1.00  0.00     0.151 C 
HETATM   11  O2  UNL     1      -0.451  -0.575  -0.166  1.00  0.00    -0.328 OA
HETATM   12  O4  UNL     1       0.160   3.148   1.344  1.00  0.00    -0.291 OA
HETATM   13  O5  UNL     1      -5.194  -0.309   0.223  1.00  0.00    -0.188 OA
HETATM   14  O6  UNL     1      -4.987   2.203   1.338  1.00  0.00    -0.186 OA
ENDROOT
BRANCH  10  15
HETATM   15  C10 UNL     1       1.883  -0.998  -0.358  1.00  0.00     0.006 A 
HETATM   16  C11 UNL     1       1.918  -1.016  -1.762  1.00  0.00     0.000 A 
HETATM   17  C12 UNL     1       2.908  -1.754  -2.432  1.00  0.00     0.027 A 
HETATM   18  C13 UNL     1       3.867  -2.479  -1.701  1.00  0.00     0.131 A 
HETATM   19  C14 UNL     1       3.830  -2.459  -0.295  1.00  0.00     0.027 A 
HETATM   20  O3  UNL     1       4.795  -3.170  -2.330  1.00  0.00    -0.190 OA
HETATM   21  C15 UNL     1       2.842  -1.721   0.377  1.00  0.00     0.000 A 
ENDBRANCH  10  15
TORSDOF 1
