REMARK  4 active torsions:
REMARK  status: ('A' for Active; 'I' for Inactive)
REMARK    1  A    between atoms: C1_1  and  O6_21 
REMARK    2  A    between atoms: C7_8  and  C10_12 
REMARK    3  A    between atoms: O6_21  and  C16_22 
REMARK    4  A    between atoms: C17_24  and  C21_31 
ROOT
HETATM    1  C1  UNL     1      -1.647  -1.777  -0.033  1.00  0.00     0.126 A 
HETATM    2  C2  UNL     1      -1.496  -3.086   0.484  1.00  0.00     0.179 A 
HETATM    3  C3  UNL     1      -0.203  -3.625   0.693  1.00  0.00     0.163 A 
HETATM    4  C4  UNL     1       0.939  -2.844   0.379  1.00  0.00     0.089 A 
HETATM    5  C5  UNL     1       0.789  -1.529  -0.139  1.00  0.00     0.107 A 
HETATM    6  C6  UNL     1      -0.506  -1.000  -0.344  1.00  0.00     0.051 A 
HETATM    7  O1  UNL     1       1.877  -0.783  -0.436  1.00  0.00    -0.307 OA
HETATM    8  C7  UNL     1       3.147  -1.215  -0.269  1.00  0.00     0.103 A 
HETATM    9  C8  UNL     1       3.410  -2.449   0.217  1.00  0.00     0.067 A 
HETATM   10  C9  UNL     1       2.316  -3.375   0.584  1.00  0.00     0.202 A 
HETATM   11  O2  UNL     1       2.633  -4.461   1.010  1.00  0.00    -0.286 OA
HETATM   12  O4  UNL     1      -0.072  -4.865   1.184  1.00  0.00    -0.188 OA
HETATM   13  O5  UNL     1      -2.580  -3.818   0.779  1.00  0.00    -0.186 OA
ENDROOT
BRANCH   1  14
HETATM   14  O6  UNL     1      -2.871  -1.270  -0.230  1.00  0.00    -0.301 OA
BRANCH  14  15
HETATM   15  C16 UNL     1      -3.033   0.141  -0.129  1.00  0.00     0.275 C 
HETATM   16  O7  UNL     1      -4.397   0.480  -0.334  1.00  0.00    -0.318 OA
HETATM   17  C17 UNL     1      -4.670   1.875  -0.480  1.00  0.00     0.237 C 
HETATM   18  C18 UNL     1      -3.795   2.756   0.473  1.00  0.00     0.223 C 
HETATM   19  C19 UNL     1      -3.297   1.973   1.705  1.00  0.00     0.221 C 
HETATM   20  O10 UNL     1      -2.656   3.264  -0.203  1.00  0.00    -0.217 OA
HETATM   21  C20 UNL     1      -2.551   0.678   1.252  1.00  0.00     0.241 C 
HETATM   22  O9  UNL     1      -4.436   1.688   2.508  1.00  0.00    -0.218 OA
HETATM   23  O8  UNL     1      -2.592  -0.332   2.250  1.00  0.00    -0.215 OA
BRANCH  17  24
HETATM   24  C21 UNL     1      -4.623   2.244  -1.945  1.00  0.00     0.217 C 
HETATM   25  O11 UNL     1      -3.705   1.891  -2.648  1.00  0.00    -0.646 OA
HETATM   26  O12 UNL     1      -5.650   2.971  -2.379  1.00  0.00    -0.646 OA
ENDBRANCH  17  24
ENDBRANCH  14  15
ENDBRANCH   1  14
BRANCH   8  27
HETATM   27  C10 UNL     1       4.289  -0.320  -0.623  1.00  0.00     0.023 A 
HETATM   28  C11 UNL     1       4.141   0.645  -1.635  1.00  0.00     0.004 A 
HETATM   29  C12 UNL     1       5.217   1.486  -1.967  1.00  0.00     0.028 A 
HETATM   30  C13 UNL     1       6.443   1.365  -1.291  1.00  0.00     0.131 A 
HETATM   31  C14 UNL     1       6.590   0.398  -0.281  1.00  0.00     0.028 A 
HETATM   32  O3  UNL     1       7.453   2.154  -1.604  1.00  0.00    -0.190 OA
HETATM   33  C15 UNL     1       5.516  -0.443   0.055  1.00  0.00     0.004 A 
ENDBRANCH   8  27
TORSDOF 4
