REMARK  1 active torsions:
REMARK  status: ('A' for Active; 'I' for Inactive)
REMARK    1  A    between atoms: C10_11  and  O1_13 
ROOT
HETATM    1  C1  UNL     1       2.563   0.951  -0.885  1.00  0.00    -0.004 C 
HETATM    2  C2  UNL     1       2.375  -0.166   0.053  1.00  0.00     0.010 C 
HETATM    3  C3  UNL     1       1.363  -0.047   1.158  1.00  0.00     0.152 C 
HETATM    4  C4  UNL     1      -0.111   0.010   0.744  1.00  0.00     0.251 C 
HETATM    5  N1  UNL     1      -0.246   1.320   0.129  1.00  0.00     0.140 N 
HETATM    6  C5  UNL     1       0.902   2.119   0.543  1.00  0.00     0.244 C 
HETATM    7  C6  UNL     1       1.871   2.088  -0.639  1.00  0.00     0.006 C 
HETATM    8  C7  UNL     1       1.473   1.359   1.768  1.00  0.00     0.072 C 
HETATM    9  C8  UNL     1      -1.609   1.853   0.139  1.00  0.00     0.253 C 
HETATM   10  C9  UNL     1      -2.625   0.703  -0.090  1.00  0.00     0.065 C 
HETATM   11  C10 UNL     1      -2.002  -0.492  -0.857  1.00  0.00     0.119 C 
HETATM   12  C11 UNL     1      -0.711  -1.051  -0.188  1.00  0.00     0.066 C 
HETATM   13  O2  UNL     1       1.645  -1.150   2.031  1.00  0.00    -0.297 OA
HETATM   14  C13 UNL     1       2.512  -1.957   1.391  1.00  0.00     0.296 C 
HETATM   15  C14 UNL     1       3.000  -1.338   0.158  1.00  0.00     0.066 C 
HETATM   16  O3  UNL     1       2.869  -3.049   1.766  1.00  0.00    -0.259 OA
ENDROOT
BRANCH  11  17
HETATM   17  O1  UNL     1      -2.959  -1.524  -0.988  1.00  0.00    -0.354 OA
HETATM   18  C12 UNL     1      -2.562  -2.541  -1.881  1.00  0.00     0.174 C 
ENDBRANCH  11  17
TORSDOF 1
