REMARK  3 active torsions:
REMARK  status: ('A' for Active; 'I' for Inactive)
REMARK    1  A    between atoms: SE1_2  and  C2_3 
REMARK    2  A    between atoms: C2_3  and  C3_4 
REMARK    3  A    between atoms: C3_4  and  C4_5 
ROOT
HETATM    1  C3  UNL     1       0.305   0.275   0.756  1.00  0.00     0.387 C 
HETATM    2  N1  UNL     1       0.723   1.020   1.932  1.00  0.00     0.628 N 
ENDROOT
BRANCH   1   3
HETATM    3  C2  UNL     1       0.725   1.010  -0.519  1.00  0.00     0.053 C 
BRANCH   3   4
HETATM    4 SE1  UNL     1       0.090   0.055  -2.041  1.00  0.00     0.000 Se
HETATM    5  C1  UNL     1      -1.815   0.055  -2.041  1.00  0.00     0.000 C 
ENDBRANCH   3   4
ENDBRANCH   1   3
BRANCH   1   6
HETATM    6  C4  UNL     1       0.844  -1.129   0.813  1.00  0.00     0.224 C 
HETATM    7  O1  UNL     1      -0.051  -2.066   1.119  1.00  0.00    -0.646 OA
HETATM    8  O2  UNL     1       2.008  -1.359   0.588  1.00  0.00    -0.646 OA
ENDBRANCH   1   6
TORSDOF 3
