REMARK  18 active torsions:
REMARK  status: ('A' for Active; 'I' for Inactive)
REMARK    1  A    between atoms: C4_4  and  C8_8 
REMARK    2  A    between atoms: C9_9  and  C10_10 
REMARK    3  A    between atoms: C11_11  and  C12_12 
REMARK    4  A    between atoms: C13_13  and  C14_14 
REMARK    5  A    between atoms: C15_15  and  C16_16 
REMARK    6  A    between atoms: C17_17  and  C18_18 
REMARK    7  A    between atoms: C19_19  and  C20_20 
REMARK    8  A    between atoms: C21_21  and  C22_22 
REMARK    9  A    between atoms: C23_23  and  C24_24 
REMARK   10  A    between atoms: C25_25  and  C26_26 
REMARK   11  A    between atoms: C27_27  and  C28_28 
REMARK   12  A    between atoms: C28_28  and  C29_29 
REMARK   13  A    between atoms: C29_29  and  C30_30 
REMARK   14  A    between atoms: C30_30  and  C31_31 
REMARK   15  A    between atoms: C31_31  and  C32_32 
REMARK   16  A    between atoms: C32_32  and  C33_33 
REMARK   17  A    between atoms: C33_33  and  C34_34 
REMARK   18  A    between atoms: C34_34  and  C35_35 
ROOT
HETATM    1  C18 UNL     1       0.154  -2.647   0.227  1.00  0.00    -0.000 C 
HETATM    2  C19 UNL     1      -0.756  -3.242   1.014  1.00  0.00    -0.000 C 
ENDROOT
BRANCH   2   3
HETATM    3  C20 UNL     1      -0.588  -3.256   2.473  1.00  0.00    -0.004 C 
HETATM    4  C21 UNL     1      -1.496  -3.856   3.260  1.00  0.00    -0.022 C 
HETATM    5  C40 UNL     1      -2.688  -4.510   2.613  1.00  0.00     0.031 C 
BRANCH   4   6
HETATM    6  C22 UNL     1      -1.326  -3.871   4.719  1.00  0.00    -0.004 C 
HETATM    7  C23 UNL     1      -1.596  -2.775   5.449  1.00  0.00    -0.001 C 
BRANCH   7   8
HETATM    8  C24 UNL     1      -1.426  -2.791   6.908  1.00  0.00    -0.004 C 
HETATM    9  C25 UNL     1      -1.797  -1.734   7.651  1.00  0.00    -0.022 C 
HETATM   10  C39 UNL     1      -2.387  -0.539   6.953  1.00  0.00     0.031 C 
BRANCH   9  11
HETATM   11  C26 UNL     1      -1.629  -1.750   9.110  1.00  0.00    -0.001 C 
HETATM   12  C27 UNL     1      -1.289  -0.631   9.770  1.00  0.00     0.037 C 
BRANCH  12  13
HETATM   13  C28 UNL     1      -1.121  -0.647  11.229  1.00  0.00     0.172 C 
HETATM   14  O2  UNL     1      -0.057  -0.357  11.725  1.00  0.00    -0.291 OA
BRANCH  13  15
HETATM   15  C29 UNL     1      -2.297  -1.029  12.086  1.00  0.00     0.056 C 
HETATM   16  C37 UNL     1      -2.010  -2.250  12.959  1.00  0.00     0.008 C 
HETATM   17  C38 UNL     1      -3.588  -1.172  11.278  1.00  0.00     0.008 C 
BRANCH  15  18
HETATM   18  C30 UNL     1      -2.234   0.285  12.867  1.00  0.00     0.007 C 
BRANCH  18  19
HETATM   19  C31 UNL     1      -2.947   1.432  12.151  1.00  0.00     0.000 C 
BRANCH  19  20
HETATM   20  C32 UNL     1      -2.080   2.084  11.074  1.00  0.00     0.001 C 
BRANCH  20  21
HETATM   21  C33 UNL     1      -2.166   3.611  11.092  1.00  0.00     0.008 C 
BRANCH  21  22
HETATM   22  C34 UNL     1      -1.367   4.260   9.961  1.00  0.00     0.065 C 
BRANCH  22  23
HETATM   23  C35 UNL     1      -1.477   5.762   9.969  1.00  0.00     0.151 C 
HETATM   24  C36 UNL     1      -0.789   6.527   8.871  1.00  0.00     0.072 C 
HETATM   25  O1  UNL     1      -2.096   6.334  10.834  1.00  0.00    -0.296 OA
ENDBRANCH  22  23
ENDBRANCH  21  22
ENDBRANCH  20  21
ENDBRANCH  19  20
ENDBRANCH  18  19
ENDBRANCH  15  18
ENDBRANCH  13  15
ENDBRANCH  12  13
ENDBRANCH   9  11
ENDBRANCH   7   8
ENDBRANCH   4   6
ENDBRANCH   2   3
BRANCH   1  26
HETATM   26  C17 UNL     1      -0.016  -2.631  -1.232  1.00  0.00    -0.004 C 
HETATM   27  C16 UNL     1       0.426  -1.594  -1.961  1.00  0.00    -0.022 C 
HETATM   28  C41 UNL     1       1.094  -0.447  -1.250  1.00  0.00     0.031 C 
BRANCH  27  29
HETATM   29  C15 UNL     1       0.283  -1.524  -3.420  1.00  0.00    -0.004 C 
HETATM   30  C14 UNL     1       1.191  -0.873  -4.166  1.00  0.00    -0.000 C 
BRANCH  30  31
HETATM   31  C13 UNL     1       1.051  -0.805  -5.627  1.00  0.00    -0.000 C 
HETATM   32  C12 UNL     1       1.920  -0.098  -6.365  1.00  0.00    -0.000 C 
BRANCH  32  33
HETATM   33  C11 UNL     1       1.779  -0.029  -7.824  1.00  0.00    -0.004 C 
HETATM   34  C10 UNL     1       2.342   0.971  -8.522  1.00  0.00    -0.022 C 
HETATM   35  C42 UNL     1       3.119   2.020  -7.770  1.00  0.00     0.031 C 
BRANCH  34  36
HETATM   36  C9  UNL     1       2.234   1.090  -9.981  1.00  0.00    -0.012 C 
HETATM   37  C8  UNL     1       3.010   0.350 -10.787  1.00  0.00    -0.041 C 
HETATM   38  C43 UNL     1       3.992  -0.604 -10.162  1.00  0.00     0.027 C 
BRANCH  37  39
HETATM   39  C4  UNL     1       2.986   0.389 -12.297  1.00  0.00     0.036 C 
HETATM   40  C3  UNL     1       2.346   1.678 -12.869  1.00  0.00     0.007 C 
HETATM   41  C2  UNL     1       0.807   1.717 -12.639  1.00  0.00     0.005 C 
HETATM   42  C44 UNL     1       2.623   1.721 -14.379  1.00  0.00     0.001 C 
HETATM   43  C45 UNL     1       2.998   2.924 -12.250  1.00  0.00     0.001 C 
HETATM   44  C1  UNL     1       0.160   0.363 -12.279  1.00  0.00     0.025 C 
HETATM   45  C6  UNL     1       0.904  -0.830 -12.830  1.00  0.00    -0.034 C 
HETATM   46  C5  UNL     1       2.250  -0.826 -12.821  1.00  0.00    -0.045 C 
HETATM   47  C7  UNL     1       3.037  -2.004 -13.336  1.00  0.00     0.026 C 
ENDBRANCH  37  39
ENDBRANCH  34  36
ENDBRANCH  32  33
ENDBRANCH  30  31
ENDBRANCH  27  29
ENDBRANCH   1  26
TORSDOF 18
