REMARK  0 active torsions:
REMARK  status: ('A' for Active; 'I' for Inactive)
ROOT
HETATM    1  C1  UNL     1      -5.946   0.733   0.273  1.00  0.00     0.000 A 
HETATM    2  C2  UNL     1      -5.711   1.492  -0.990  1.00  0.00     0.002 A 
HETATM    3  C3  UNL     1      -4.477   1.617  -1.533  1.00  0.00     0.019 A 
HETATM    4  C4  UNL     1      -3.340   0.977  -0.852  1.00  0.00     0.081 A 
HETATM    5  C5  UNL     1      -3.580   0.238   0.383  1.00  0.00     0.019 A 
HETATM    6  C6  UNL     1      -4.936   0.127   0.939  1.00  0.00     0.002 A 
HETATM    7  C7  UNL     1      -2.404  -0.232   0.793  1.00  0.00     0.022 A 
HETATM    8  C8  UNL     1      -1.414   0.195  -0.176  1.00  0.00     0.097 A 
HETATM    9  N1  UNL     1      -2.088   0.949  -1.172  1.00  0.00    -0.244 NA
HETATM   10  C9  UNL     1      -0.111  -0.142  -0.025  1.00  0.00     0.081 A 
HETATM   11  N2  UNL     1       0.269  -0.914   1.088  1.00  0.00    -0.303 N 
HETATM   12  C10 UNL     1      -0.666  -1.336   2.035  1.00  0.00     0.080 A 
HETATM   13  C11 UNL     1      -1.983  -1.035   1.943  1.00  0.00     0.021 A 
HETATM   14  C12 UNL     1       1.601  -1.262   1.250  1.00  0.00     0.076 A 
HETATM   15  C13 UNL     1       2.555  -0.883   0.367  1.00  0.00    -0.009 A 
HETATM   16  C14 UNL     1       2.203  -0.088  -0.824  1.00  0.00    -0.023 A 
HETATM   17  C15 UNL     1       0.920   0.277  -1.008  1.00  0.00     0.015 A 
HETATM   18  C16 UNL     1       3.305   0.277  -1.793  1.00  0.00     0.026 C 
HETATM   19  C17 UNL     1       4.631   0.668  -1.104  1.00  0.00     0.005 C 
HETATM   20  C18 UNL     1       4.894  -0.008   0.264  1.00  0.00     0.005 C 
HETATM   21  C19 UNL     1       4.014  -1.234   0.553  1.00  0.00     0.028 C 
ENDROOT
TORSDOF 0
