REMARK  0 active torsions:
REMARK  status: ('A' for Active; 'I' for Inactive)
ROOT
HETATM    1  C1  UNL     1      -2.932   1.361   0.144  1.00  0.00     0.068 C 
HETATM    2  C2  UNL     1      -4.248   1.139  -0.586  1.00  0.00     0.254 C 
HETATM    3  N1  UNL     1      -3.979   0.162  -1.643  1.00  0.00     0.146 N 
HETATM    4  C3  UNL     1      -2.533   0.264  -1.940  1.00  0.00     0.268 A 
HETATM    5  C4  UNL     1      -1.990   1.402  -1.059  1.00  0.00     0.162 C 
HETATM    6  O1  UNL     1      -0.621   1.234  -0.672  1.00  0.00    -0.299 OA
HETATM    7  C5  UNL     1      -0.061   2.262   0.000  1.00  0.00     0.292 C 
HETATM    8  C6  UNL     1       1.332   2.131   0.486  1.00  0.00     0.041 C 
HETATM    9  C7  UNL     1       2.119   0.869   0.174  1.00  0.00     0.030 C 
HETATM   10  C8  UNL     1       1.834  -0.240   1.223  1.00  0.00     0.042 C 
HETATM   11  C9  UNL     1       2.121  -1.682   0.713  1.00  0.00     0.204 C 
HETATM   12  C10 UNL     1       1.346  -1.965  -0.561  1.00  0.00     0.300 C 
HETATM   13  O2  UNL     1       0.072  -1.547  -0.598  1.00  0.00    -0.295 OA
HETATM   14  C11 UNL     1      -0.570  -1.535  -1.871  1.00  0.00     0.176 C 
HETATM   15  C12 UNL     1      -2.010  -1.127  -1.692  1.00  0.00     0.017 A 
HETATM   16  C13 UNL     1      -2.981  -1.957  -1.305  1.00  0.00     0.005 A 
HETATM   17  C14 UNL     1      -4.291  -1.234  -1.270  1.00  0.00     0.276 A 
HETATM   18  O3  UNL     1       1.883  -2.533  -1.486  1.00  0.00    -0.262 OA
HETATM   19  O4  UNL     1       3.514  -1.826   0.496  1.00  0.00    -0.216 OA
HETATM   20  C15 UNL     1       1.746  -2.734   1.762  1.00  0.00     0.043 C 
HETATM   21  C16 UNL     1       2.531   0.057   2.561  1.00  0.00     0.003 C 
HETATM   22  C17 UNL     1       3.621   1.146   0.002  1.00  0.00     0.005 C 
HETATM   23  C18 UNL     1       1.914   3.113   1.201  1.00  0.00     0.001 C 
HETATM   24  O5  UNL     1      -0.643   3.299   0.230  1.00  0.00    -0.260 OA
ENDROOT
TORSDOF 0
