REMARK  0 active torsions:
REMARK  status: ('A' for Active; 'I' for Inactive)
ROOT
HETATM    1  C1  UNL     1       2.340   1.336  -0.908  1.00  0.00     0.062 C 
HETATM    2  C2  UNL     1       3.869   1.119  -1.002  1.00  0.00     0.100 C 
HETATM    3  N1  UNL     1       4.270  -0.262  -1.322  1.00  0.00    -0.363 N 
HETATM    4  C3  UNL     1       4.248  -1.262  -0.246  1.00  0.00     0.124 C 
HETATM    5  C4  UNL     1       2.873  -1.855   0.000  1.00  0.00    -0.001 C 
HETATM    6  C5  UNL     1       1.934  -1.221   0.731  1.00  0.00     0.043 C 
HETATM    7  C6  UNL     1       2.186   0.108   1.309  1.00  0.00     0.199 C 
HETATM    8  C7  UNL     1       1.766   1.328   0.522  1.00  0.00     0.187 C 
HETATM    9  O1  UNL     1       0.340   1.391   0.408  1.00  0.00    -0.293 OA
HETATM   10  C8  UNL     1      -0.393   1.445   1.533  1.00  0.00     0.292 C 
HETATM   11  C9  UNL     1      -1.861   1.289   1.395  1.00  0.00     0.037 C 
HETATM   12  C10 UNL     1      -2.498   1.588   0.047  1.00  0.00     0.034 C 
HETATM   13  C11 UNL     1      -2.272   0.555  -1.084  1.00  0.00     0.042 C 
HETATM   14  C12 UNL     1      -2.645  -0.912  -0.707  1.00  0.00     0.204 C 
HETATM   15  C13 UNL     1      -1.656  -1.533   0.260  1.00  0.00     0.300 C 
HETATM   16  O2  UNL     1      -0.355  -1.264   0.070  1.00  0.00    -0.295 OA
HETATM   17  C14 UNL     1       0.582  -1.851   0.971  1.00  0.00     0.181 C 
HETATM   18  O3  UNL     1      -2.064  -2.238   1.156  1.00  0.00    -0.262 OA
HETATM   19  O4  UNL     1      -2.588  -1.709  -1.873  1.00  0.00    -0.216 OA
HETATM   20  C15 UNL     1      -4.092  -1.012  -0.205  1.00  0.00     0.043 C 
HETATM   21  C16 UNL     1      -3.027   1.039  -2.334  1.00  0.00     0.003 C 
HETATM   22  C17 UNL     1      -2.664   0.899   2.410  1.00  0.00    -0.025 C 
HETATM   23  C18 UNL     1      -2.152   0.559   3.787  1.00  0.00     0.030 C 
HETATM   24  O5  UNL     1       0.090   1.610   2.631  1.00  0.00    -0.260 OA
HETATM   25  O6  UNL     1       2.721   0.209   2.389  1.00  0.00    -0.289 OA
HETATM   26  C19 UNL     1       3.795  -0.750  -2.615  1.00  0.00     0.121 C 
ENDROOT
TORSDOF 0
