REMARK  3 active torsions:
REMARK  status: ('A' for Active; 'I' for Inactive)
REMARK    1  A    between atoms: C7_7  and  C9_11 
REMARK    2  A    between atoms: C9_11  and  C10_12 
REMARK    3  A    between atoms: C10_12  and  C11_13 
ROOT
HETATM    1  C1  UNL     1      -3.827   0.011   0.622  1.00  0.00     0.030 C 
HETATM    2  C2  UNL     1      -4.025  -1.449   0.240  1.00  0.00    -0.026 C 
HETATM    3  C3  UNL     1      -2.971  -2.288   0.158  1.00  0.00     0.000 C 
HETATM    4  C4  UNL     1      -1.614  -1.769   0.382  1.00  0.00     0.057 A 
HETATM    5  C5  UNL     1      -1.354  -0.471   0.459  1.00  0.00    -0.011 A 
HETATM    6  C6  UNL     1      -2.424   0.582   0.301  1.00  0.00     0.029 C 
HETATM    7  C7  UNL     1       0.115  -0.264   0.715  1.00  0.00     0.143 A 
HETATM    8  O1  UNL     1       0.638  -1.609   0.744  1.00  0.00    -0.297 OA
HETATM    9  C8  UNL     1      -0.363  -2.486   0.553  1.00  0.00     0.295 A 
HETATM   10  O2  UNL     1      -0.263  -3.690   0.522  1.00  0.00    -0.259 OA
ENDROOT
BRANCH   7  11
HETATM   11  C9  UNL     1       0.808   0.535  -0.381  1.00  0.00     0.035 C 
BRANCH  11  12
HETATM   12  C10 UNL     1       2.292   0.685  -0.042  1.00  0.00     0.003 C 
BRANCH  12  13
HETATM   13  C11 UNL     1       3.058   1.493  -1.090  1.00  0.00     0.000 C 
HETATM   14  C12 UNL     1       4.541   1.641  -0.752  1.00  0.00     0.000 C 
ENDBRANCH  12  13
ENDBRANCH  11  12
ENDBRANCH   7  11
TORSDOF 3
