REMARK  1 active torsions:
REMARK  status: ('A' for Active; 'I' for Inactive)
REMARK    1  A    between atoms: C14_17  and  C15_18 
ROOT
HETATM    1  C1  UNL     1      -1.121   0.180  -0.516  1.00  0.00     0.162 C 
HETATM    2  C2  UNL     1      -2.470   0.872  -0.695  1.00  0.00     0.068 C 
HETATM    3  C3  UNL     1      -2.913   0.216  -1.994  1.00  0.00     0.254 C 
HETATM    4  N1  UNL     1      -2.559  -1.200  -1.885  1.00  0.00     0.146 N 
HETATM    5  C4  UNL     1      -1.441  -1.269  -0.923  1.00  0.00     0.268 A 
HETATM    6  C5  UNL     1      -1.934  -2.203   0.160  1.00  0.00     0.017 A 
HETATM    7  C6  UNL     1      -3.167  -2.637  -0.106  1.00  0.00     0.005 A 
HETATM    8  C7  UNL     1      -3.655  -2.065  -1.400  1.00  0.00     0.276 A 
HETATM    9  C8  UNL     1      -1.161  -2.621   1.397  1.00  0.00     0.176 C 
HETATM   10  O1  UNL     1       0.137  -2.029   1.501  1.00  0.00    -0.295 OA
HETATM   11  C9  UNL     1       1.104  -2.461   0.678  1.00  0.00     0.304 C 
HETATM   12  O2  UNL     1       0.955  -3.401  -0.072  1.00  0.00    -0.261 OA
HETATM   13  C10 UNL     1       2.446  -1.746   0.692  1.00  0.00     0.219 C 
HETATM   14  C11 UNL     1       2.517  -0.692  -0.415  1.00  0.00    -0.008 C 
HETATM   15  C12 UNL     1       2.887   0.763  -0.140  1.00  0.00     0.026 C 
HETATM   16  C13 UNL     1       1.871   1.818  -0.631  1.00  0.00     0.019 C 
HETATM   17  C14 UNL     1       0.826   2.278   0.411  1.00  0.00     0.108 C 
HETATM   18  C18 UNL     1       0.181   1.200   1.271  1.00  0.00     0.276 C 
HETATM   19  O3  UNL     1      -0.667   0.249   0.835  1.00  0.00    -0.302 OA
HETATM   20  O4  UNL     1       0.474   1.215   2.444  1.00  0.00    -0.264 OA
HETATM   21  C19 UNL     1       2.274  -1.057  -1.693  1.00  0.00    -0.006 C 
HETATM   22  C20 UNL     1       3.595  -2.746   0.517  1.00  0.00     0.048 C 
HETATM   23  O5  UNL     1       2.647  -1.189   1.977  1.00  0.00    -0.212 OA
ENDROOT
BRANCH  17  24
HETATM   24  C15 UNL     1      -0.216   3.181  -0.195  1.00  0.00    -0.021 C 
HETATM   25  C16 UNL     1      -0.698   4.193   0.546  1.00  0.00    -0.030 C 
HETATM   26  C17 UNL     1      -0.171   4.372   1.944  1.00  0.00     0.030 C 
ENDBRANCH  17  24
TORSDOF 1
