REMARK  9 active torsions:
REMARK  status: ('A' for Active; 'I' for Inactive)
REMARK    1  A    between atoms: C3_3  and  O1_7 
REMARK    2  A    between atoms: O1_7  and  C7_8 
REMARK    3  A    between atoms: C8_10  and  C12_17 
REMARK    4  A    between atoms: C16_22  and  C17_23 
REMARK    5  A    between atoms: C24_30  and  C27_34 
REMARK    6  A    between atoms: C28_38  and  O11_42 
REMARK    7  A    between atoms: O11_42  and  C32_43 
REMARK    8  A    between atoms: C33_45  and  C37_52 
REMARK    9  A    between atoms: C39_55  and  C42_59 
ROOT
HETATM    1  C1  UNL     1      -1.496  -1.031   0.686  1.00  0.00    -0.013 A 
HETATM    2  C2  UNL     1      -1.453  -2.324   1.283  1.00  0.00     0.058 A 
HETATM    3  C3  UNL     1      -2.654  -2.898   1.795  1.00  0.00     0.100 A 
HETATM    4  C4  UNL     1      -3.871  -2.182   1.738  1.00  0.00     0.024 A 
HETATM    5  C5  UNL     1      -3.906  -0.891   1.170  1.00  0.00     0.002 A 
HETATM    6  C6  UNL     1      -2.727  -0.322   0.646  1.00  0.00    -0.004 A 
HETATM    7  C13 UNL     1      -0.166  -3.090   1.387  1.00  0.00     0.199 C 
HETATM    8  C14 UNL     1       1.074  -2.361   0.953  1.00  0.00     0.061 A 
HETATM    9  C15 UNL     1       0.998  -1.066   0.357  1.00  0.00    -0.013 A 
HETATM   10  C16 UNL     1      -0.297  -0.387   0.084  1.00  0.00     0.053 C 
HETATM   11  C38 UNL     1       2.197  -0.393  -0.004  1.00  0.00     0.002 A 
HETATM   12  C39 UNL     1       3.453  -1.002   0.205  1.00  0.00     0.066 A 
HETATM   13  C40 UNL     1       3.531  -2.291   0.773  1.00  0.00     0.034 A 
HETATM   14  C41 UNL     1       2.350  -2.969   1.145  1.00  0.00     0.134 A 
HETATM   15  O17 UNL     1       2.461  -4.191   1.687  1.00  0.00    -0.190 OA
HETATM   16  O20 UNL     1      -0.127  -4.225   1.807  1.00  0.00    -0.286 OA
ENDROOT
BRANCH  10  17
HETATM   17  C17 UNL     1      -0.492  -0.226  -1.432  1.00  0.00     0.053 C 
HETATM   18  C18 UNL     1       0.707   0.416  -2.035  1.00  0.00    -0.013 A 
HETATM   19  C19 UNL     1       0.666   1.709  -2.637  1.00  0.00     0.058 A 
HETATM   20  C31 UNL     1       1.938  -0.293  -1.994  1.00  0.00    -0.004 A 
HETATM   21  C20 UNL     1      -0.621   2.477  -2.738  1.00  0.00     0.199 C 
HETATM   22  C28 UNL     1       1.867   2.279  -3.154  1.00  0.00     0.100 A 
HETATM   23  C21 UNL     1      -1.861   1.750  -2.303  1.00  0.00     0.061 A 
HETATM   24  O10 UNL     1      -0.658   3.611  -3.158  1.00  0.00    -0.286 OA
HETATM   25  C22 UNL     1      -1.787   0.457  -1.705  1.00  0.00    -0.013 A 
HETATM   26  C26 UNL     1      -3.137   2.361  -2.494  1.00  0.00     0.134 A 
HETATM   27  C23 UNL     1      -2.986  -0.215  -1.346  1.00  0.00     0.002 A 
HETATM   28  C24 UNL     1      -4.242   0.395  -1.553  1.00  0.00     0.066 A 
HETATM   29  C25 UNL     1      -4.318   1.684  -2.121  1.00  0.00     0.034 A 
HETATM   30  O7  UNL     1      -3.246   3.584  -3.035  1.00  0.00    -0.190 OA
HETATM   31  C29 UNL     1       3.082   1.561  -3.096  1.00  0.00     0.024 A 
HETATM   32  C30 UNL     1       3.117   0.274  -2.522  1.00  0.00     0.002 A 
BRANCH  28  33
HETATM   33  C27 UNL     1      -5.481  -0.318  -1.172  1.00  0.00     0.211 C 
HETATM   34  O8  UNL     1      -5.201  -1.619  -1.160  1.00  0.00    -0.644 OA
HETATM   35  O9  UNL     1      -6.568   0.141  -0.910  1.00  0.00    -0.644 OA
ENDBRANCH  28  33
BRANCH  22  36
HETATM   36  O11 UNL     1       1.873   3.498  -3.711  1.00  0.00    -0.304 OA
BRANCH  36  37
HETATM   37  C32 UNL     1       2.963   4.361  -3.416  1.00  0.00     0.274 C 
HETATM   38  O12 UNL     1       2.799   5.594  -4.104  1.00  0.00    -0.326 OA
HETATM   39  C33 UNL     1       3.932   6.463  -4.078  1.00  0.00     0.184 C 
HETATM   40  C34 UNL     1       4.635   6.481  -2.682  1.00  0.00     0.215 C 
HETATM   41  C35 UNL     1       3.705   6.014  -1.541  1.00  0.00     0.220 C 
HETATM   42  O15 UNL     1       5.775   5.637  -2.680  1.00  0.00    -0.218 OA
HETATM   43  C36 UNL     1       3.104   4.615  -1.885  1.00  0.00     0.241 C 
HETATM   44  O14 UNL     1       2.701   7.006  -1.387  1.00  0.00    -0.218 OA
HETATM   45  O13 UNL     1       1.881   4.385  -1.201  1.00  0.00    -0.215 OA
BRANCH  39  46
HETATM   46  C37 UNL     1       4.834   6.110  -5.270  1.00  0.00     0.214 C 
HETATM   47  O16 UNL     1       4.150   6.444  -6.455  1.00  0.00    -0.218 OA
ENDBRANCH  39  46
ENDBRANCH  36  37
ENDBRANCH  22  36
ENDBRANCH  10  17
BRANCH   3  48
HETATM   48  O1  UNL     1      -2.660  -4.121   2.348  1.00  0.00    -0.304 OA
BRANCH  48  49
HETATM   49  C7  UNL     1      -3.711  -4.439   3.250  1.00  0.00     0.274 C 
HETATM   50  O2  UNL     1      -3.795  -3.445   4.273  1.00  0.00    -0.326 OA
HETATM   51  C8  UNL     1      -2.982  -3.656   5.424  1.00  0.00     0.184 C 
HETATM   52  C9  UNL     1      -3.486  -4.924   6.182  1.00  0.00     0.215 C 
HETATM   53  C10 UNL     1      -4.063  -6.027   5.252  1.00  0.00     0.220 C 
HETATM   54  O5  UNL     1      -2.430  -5.467   6.953  1.00  0.00    -0.218 OA
HETATM   55  C11 UNL     1      -3.479  -5.859   3.834  1.00  0.00     0.241 C 
HETATM   56  O4  UNL     1      -5.475  -5.896   5.209  1.00  0.00    -0.218 OA
HETATM   57  O3  UNL     1      -3.984  -6.840   2.945  1.00  0.00    -0.215 OA
BRANCH  51  58
HETATM   58  C12 UNL     1      -1.506  -3.672   4.988  1.00  0.00     0.214 C 
HETATM   59  O6  UNL     1      -1.188  -2.402   4.463  1.00  0.00    -0.218 OA
ENDBRANCH  51  58
ENDBRANCH  48  49
ENDBRANCH   3  48
BRANCH  12  60
HETATM   60  C42 UNL     1       4.690  -0.287  -0.178  1.00  0.00     0.211 C 
HETATM   61  O18 UNL     1       5.631  -1.205  -0.379  1.00  0.00    -0.644 OA
HETATM   62  O19 UNL     1       4.871   0.900  -0.299  1.00  0.00    -0.644 OA
ENDBRANCH  12  60
TORSDOF 9
