REMARK  2 active torsions:
REMARK  status: ('A' for Active; 'I' for Inactive)
REMARK    1  A    between atoms: C7_8  and  C9_11 
REMARK    2  A    between atoms: C9_11  and  C10_12 
ROOT
HETATM    1  C1  UNL     1      -0.143   1.940  -0.463  1.00  0.00     0.081 A 
HETATM    2  C2  UNL     1      -0.119   0.570  -0.379  1.00  0.00     0.017 A 
HETATM    3  C3  UNL     1      -1.318  -0.184  -0.340  1.00  0.00     0.029 A 
HETATM    4  C4  UNL     1      -2.557   0.512  -0.387  1.00  0.00     0.131 A 
HETATM    5  C5  UNL     1      -2.576   1.930  -0.475  1.00  0.00     0.029 A 
HETATM    6  C6  UNL     1      -1.359   2.658  -0.514  1.00  0.00     0.021 A 
HETATM    7  O1  UNL     1      -3.707  -0.174  -0.350  1.00  0.00    -0.190 OA
HETATM    8  C7  UNL     1       1.141   0.078  -0.344  1.00  0.00     0.001 A 
HETATM    9  C8  UNL     1       1.986   1.201  -0.408  1.00  0.00     0.095 A 
HETATM   10  N1  UNL     1       1.178   2.361  -0.483  1.00  0.00    -0.244 NA
ENDROOT
BRANCH   8  11
HETATM   11  C9  UNL     1       1.570  -1.373  -0.252  1.00  0.00     0.069 C 
BRANCH  11  12
HETATM   12  C10 UNL     1       1.400  -1.912   1.168  1.00  0.00     0.343 C 
HETATM   13  N2  UNL     1       1.822  -3.301   1.240  1.00  0.00     0.618 N 
ENDBRANCH  11  12
ENDBRANCH   8  11
TORSDOF 2
