REMARK  0 active torsions:
REMARK  status: ('A' for Active; 'I' for Inactive)
ROOT
HETATM    1  C1  UNL     1       5.373  -0.848  -0.164  1.00  0.00     0.000 C 
HETATM    2  C2  UNL     1       5.889   0.582   0.057  1.00  0.00     0.000 C 
HETATM    3  C3  UNL     1       4.971   1.416   0.977  1.00  0.00     0.000 C 
HETATM    4  C4  UNL     1       3.494   1.346   0.478  1.00  0.00     0.000 C 
HETATM    5  C5  UNL     1       2.963  -0.111   0.324  1.00  0.00     0.000 C 
HETATM    6  C6  UNL     1       3.910  -0.875  -0.639  1.00  0.00     0.000 C 
HETATM    7  C7  UNL     1       1.451  -0.119  -0.111  1.00  0.00     0.000 C 
HETATM    8  C8  UNL     1       0.992   1.098  -0.990  1.00  0.00     0.004 C 
HETATM    9  C9  UNL     1       2.190   1.693  -1.744  1.00  0.00     0.000 C 
HETATM   10  C10 UNL     1       3.313   2.176  -0.818  1.00  0.00     0.000 C 
HETATM   11  C11 UNL     1      -0.084   0.738  -2.049  1.00  0.00     0.022 C 
HETATM   12  C12 UNL     1      -1.437   0.334  -1.502  1.00  0.00    -0.049 C 
HETATM   13  C13 UNL     1      -1.504  -0.693  -0.383  1.00  0.00     0.018 C 
HETATM   14  C14 UNL     1      -0.480  -1.852  -0.549  1.00  0.00     0.004 C 
HETATM   15  C15 UNL     1       1.020  -1.496  -0.670  1.00  0.00     0.000 C 
HETATM   16  C16 UNL     1      -2.932  -1.250  -0.074  1.00  0.00     0.004 C 
HETATM   17  C17 UNL     1      -3.982  -0.111  -0.158  1.00  0.00     0.004 C 
HETATM   18  C18 UNL     1      -3.936   0.588  -1.531  1.00  0.00     0.025 C 
HETATM   19  C19 UNL     1      -2.547   0.916  -2.008  1.00  0.00    -0.034 C 
HETATM   20  C20 UNL     1      -5.438  -0.547   0.232  1.00  0.00     0.000 C 
HETATM   21  C21 UNL     1      -5.436  -1.682   1.283  1.00  0.00     0.000 C 
HETATM   22  C22 UNL     1      -4.199  -1.631   2.174  1.00  0.00     0.000 C 
HETATM   23  C23 UNL     1      -2.926  -1.881   1.354  1.00  0.00     0.000 C 
HETATM   24  C24 UNL     1      -6.244  -1.041  -0.977  1.00  0.00     0.000 C 
HETATM   25  C25 UNL     1      -6.172   0.672   0.805  1.00  0.00     0.000 C 
HETATM   26  C26 UNL     1      -3.318  -2.326  -1.106  1.00  0.00     0.000 C 
HETATM   27  C27 UNL     1       0.420   2.203  -0.086  1.00  0.00     0.000 C 
HETATM   28  C28 UNL     1       3.016  -0.842   1.680  1.00  0.00     0.000 C 
HETATM   29  C29 UNL     1       5.096   0.912   2.420  1.00  0.00     0.000 C 
HETATM   30  C30 UNL     1       5.461   2.871   0.988  1.00  0.00     0.000 C 
ENDROOT
TORSDOF 0
