REMARK  6 active torsions:
REMARK  status: ('A' for Active; 'I' for Inactive)
REMARK    1  A    between atoms: C2_2  and  C16_22 
REMARK    2  A    between atoms: C6_8  and  C8_11 
REMARK    3  A    between atoms: C8_11  and  C10_13 
REMARK    4  A    between atoms: C10_13  and  C11_14 
REMARK    5  A    between atoms: C11_14  and  C12_15 
REMARK    6  A    between atoms: C13_16  and  C15_18 
ROOT
HETATM    1  C1  UNL     1       3.873  -1.383   0.395  1.00  0.00     0.241 C 
HETATM    2  C2  UNL     1       3.980   0.154   0.510  1.00  0.00     0.188 C 
HETATM    3  O1  UNL     1       2.773   0.623   1.090  1.00  0.00    -0.326 OA
HETATM    4  C3  UNL     1       1.627   0.535   0.248  1.00  0.00     0.272 C 
HETATM    5  C4  UNL     1       1.549  -0.787  -0.572  1.00  0.00     0.237 C 
HETATM    6  C5  UNL     1       2.539  -1.855  -0.141  1.00  0.00     0.216 C 
HETATM    7  O2  UNL     1       2.277  -3.033  -0.209  1.00  0.00    -0.290 OA
HETATM    8  C6  UNL     1       0.066  -1.211  -0.385  1.00  0.00     0.088 C 
HETATM    9  C7  UNL     1      -0.137  -0.730   1.051  1.00  0.00     0.152 C 
HETATM   10  O3  UNL     1       0.463   0.545   1.045  1.00  0.00    -0.328 OA
HETATM   11  O6  UNL     1       1.816  -0.518  -1.938  1.00  0.00    -0.213 OA
HETATM   12  O8  UNL     1       4.912  -1.853  -0.443  1.00  0.00    -0.213 OA
ENDROOT
BRANCH   8  13
HETATM   13  C8  UNL     1      -0.934  -0.566  -1.324  1.00  0.00    -0.039 C 
HETATM   14  C9  UNL     1      -0.637   0.635  -1.850  1.00  0.00    -0.009 C 
BRANCH  13  15
HETATM   15  C10 UNL     1      -2.244  -1.207  -1.693  1.00  0.00     0.027 C 
BRANCH  15  16
HETATM   16  C11 UNL     1      -3.397  -0.738  -0.805  1.00  0.00     0.030 C 
BRANCH  16  17
HETATM   17  C12 UNL     1      -3.637   0.744  -0.910  1.00  0.00    -0.024 C 
HETATM   18  C13 UNL     1      -4.096   1.397   0.170  1.00  0.00     0.038 C 
HETATM   19  C14 UNL     1      -4.346   0.613   1.432  1.00  0.00     0.037 C 
BRANCH  18  20
HETATM   20  C15 UNL     1      -4.346   2.842   0.119  1.00  0.00     0.206 C 
HETATM   21  O4  UNL     1      -5.496   3.248   0.648  1.00  0.00    -0.644 OA
HETATM   22  O5  UNL     1      -3.535   3.586  -0.379  1.00  0.00    -0.644 OA
ENDBRANCH  18  20
ENDBRANCH  16  17
ENDBRANCH  15  16
ENDBRANCH  13  15
ENDBRANCH   8  13
BRANCH   2  23
HETATM   23  C16 UNL     1       5.131   0.592   1.422  1.00  0.00     0.215 C 
HETATM   24  O7  UNL     1       5.180   2.000   1.424  1.00  0.00    -0.218 OA
ENDBRANCH   2  23
TORSDOF 6
