REMARK WARNING: 32 MAX_TORS EXCEEDED!!!
REMARK  68 active torsions:
REMARK  status: ('A' for Active; 'I' for Inactive)
REMARK    1  A    between atoms: C1_1  and  C2_2 
REMARK    2  A    between atoms: C1_1  and  C33_37 
REMARK    3  A    between atoms: C2_2  and  C3_3 
REMARK       I    between atoms: C3_3  and  N1_4 
REMARK    4  A    between atoms: N1_4  and  C4_5 
REMARK    5  A    between atoms: C4_5  and  C5_6 
REMARK    6  A    between atoms: C4_5  and  C32_34 
REMARK    7  A    between atoms: C5_6  and  C6_7 
REMARK    8  A    between atoms: C7_8  and  C8_9 
REMARK    9  A    between atoms: C8_9  and  C9_10 
REMARK   10  A    between atoms: C9_10  and  C10_11 
REMARK   11  A    between atoms: C10_11  and  C11_12 
REMARK   12  A    between atoms: C11_12  and  C12_13 
REMARK   13  A    between atoms: C12_13  and  C13_14 
REMARK   14  A    between atoms: C13_14  and  C14_15 
REMARK   15  A    between atoms: C14_15  and  C15_16 
REMARK   16  A    between atoms: C15_16  and  C16_17 
REMARK   17  A    between atoms: C16_17  and  C17_18 
REMARK   18  A    between atoms: C17_18  and  C18_19 
REMARK   19  A    between atoms: C18_19  and  C19_20 
REMARK   20  A    between atoms: C19_20  and  C20_21 
REMARK   21  A    between atoms: C20_21  and  C21_22 
REMARK   22  A    between atoms: C21_22  and  C22_23 
REMARK   23  A    between atoms: C22_23  and  C23_24 
REMARK   24  A    between atoms: C23_24  and  C24_25 
REMARK   25  A    between atoms: C24_25  and  C25_26 
REMARK   26  A    between atoms: C25_26  and  C26_27 
REMARK   27  A    between atoms: C26_27  and  C27_28 
REMARK   28  A    between atoms: C27_28  and  C28_29 
REMARK   29  A    between atoms: C28_29  and  C29_30 
REMARK   30  A    between atoms: C29_30  and  C30_31 
REMARK   31  A    between atoms: C33_37  and  C34_38 
REMARK   32  A    between atoms: C34_38  and  C35_39 
REMARK   33  A    between atoms: C35_39  and  C36_40 
REMARK   34  A    between atoms: C36_40  and  C37_41 
REMARK   35  A    between atoms: C37_41  and  C38_42 
REMARK   36  A    between atoms: C38_42  and  C39_43 
REMARK   37  A    between atoms: C39_43  and  C40_44 
REMARK   38  A    between atoms: C40_44  and  C41_45 
REMARK   39  A    between atoms: C41_45  and  C42_46 
REMARK   40  A    between atoms: C42_46  and  C43_47 
REMARK   41  A    between atoms: C43_47  and  C44_48 
REMARK   42  A    between atoms: C44_48  and  C45_49 
REMARK   43  A    between atoms: C45_49  and  C46_50 
REMARK   44  A    between atoms: C46_50  and  C47_51 
REMARK   45  A    between atoms: C47_51  and  C48_52 
REMARK   46  A    between atoms: C48_52  and  C49_53 
REMARK   47  A    between atoms: C49_53  and  C50_54 
REMARK   48  A    between atoms: C50_54  and  C51_55 
REMARK   49  A    between atoms: C51_55  and  C52_56 
REMARK   50  A    between atoms: C52_56  and  C53_57 
REMARK   51  A    between atoms: C53_57  and  C54_58 
REMARK   52  A    between atoms: C54_58  and  C55_59 
REMARK   53  A    between atoms: C55_59  and  C56_60 
REMARK   54  A    between atoms: C56_60  and  C57_61 
REMARK   55  A    between atoms: C57_61  and  C58_62 
REMARK   56  A    between atoms: C58_62  and  C59_63 
REMARK   57  A    between atoms: C59_63  and  C60_64 
REMARK   58  A    between atoms: C60_64  and  C61_65 
REMARK   59  A    between atoms: C61_65  and  C62_66 
REMARK   60  A    between atoms: C62_66  and  C63_67 
REMARK   61  A    between atoms: C63_67  and  C64_68 
REMARK   62  A    between atoms: C64_68  and  C65_69 
REMARK   63  A    between atoms: C65_69  and  C66_70 
REMARK   64  A    between atoms: C66_70  and  C67_71 
REMARK   65  A    between atoms: C67_71  and  C68_72 
REMARK   66  A    between atoms: C68_72  and  C69_73 
REMARK   67  A    between atoms: C69_73  and  C70_74 
REMARK   68  A    between atoms: C70_74  and  C71_75 
ROOT
HETATM    1  C34 UNL     1      -8.420   5.176   7.385  1.00  0.00     0.000 C 
ENDROOT
BRANCH   1   2
HETATM    2  C33 UNL     1      -8.604   5.697   8.811  1.00  0.00     0.001 C 
BRANCH   2   3
HETATM    3  C1  UNL     1      -9.168   7.117   8.852  1.00  0.00     0.010 C 
BRANCH   3   4
HETATM    4  C2  UNL     1      -9.356   7.637  10.277  1.00  0.00     0.090 C 
BRANCH   4   5
HETATM    5  C3  UNL     1      -9.908   9.037  10.311  1.00  0.00     0.252 C 
HETATM    6  N1  UNL     1     -10.094   9.641  11.522  1.00  0.00    -0.234 NA
HETATM    7  O3  UNL     1     -10.186   9.621   9.289  1.00  0.00    -0.271 OA
BRANCH   6   8
HETATM    8  C4  UNL     1     -10.633  11.006  11.572  1.00  0.00     0.174 C 
BRANCH   8   9
HETATM    9  C5  UNL     1     -10.049  11.783  12.754  1.00  0.00     0.199 C 
HETATM   10  O1  UNL     1     -10.520  11.192  13.944  1.00  0.00    -0.216 OA
BRANCH   9  11
HETATM   11  C6  UNL     1      -8.545  11.783  12.754  1.00  0.00     0.004 C 
HETATM   12  C7  UNL     1      -7.902  12.963  12.754  1.00  0.00    -0.028 C 
BRANCH  12  13
HETATM   13  C8  UNL     1      -6.399  12.963  12.754  1.00  0.00     0.026 C 
BRANCH  13  14
HETATM   14  C9  UNL     1      -5.815  13.844  11.649  1.00  0.00     0.005 C 
BRANCH  14  15
HETATM   15  C10 UNL     1      -4.285  13.846  11.641  1.00  0.00     0.000 C 
BRANCH  15  16
HETATM   16  C11 UNL     1      -3.703  14.723  10.533  1.00  0.00     0.000 C 
BRANCH  16  17
HETATM   17  C12 UNL     1      -2.174  14.727  10.526  1.00  0.00     0.000 C 
BRANCH  17  18
HETATM   18  C13 UNL     1      -1.590  15.604   9.418  1.00  0.00     0.000 C 
BRANCH  18  19
HETATM   19  C14 UNL     1      -0.061  15.608   9.412  1.00  0.00     0.000 C 
BRANCH  19  20
HETATM   20  C15 UNL     1       0.522  16.485   8.303  1.00  0.00     0.000 C 
BRANCH  20  21
HETATM   21  C16 UNL     1       2.051  16.489   8.297  1.00  0.00     0.000 C 
BRANCH  21  22
HETATM   22  C17 UNL     1       2.635  17.366   7.188  1.00  0.00     0.000 C 
BRANCH  22  23
HETATM   23  C18 UNL     1       4.162  17.369   7.182  1.00  0.00     0.000 C 
BRANCH  23  24
HETATM   24  C19 UNL     1       4.746  18.246   6.074  1.00  0.00     0.000 C 
BRANCH  24  25
HETATM   25  C20 UNL     1       6.275  18.250   6.066  1.00  0.00     0.000 C 
BRANCH  25  26
HETATM   26  C21 UNL     1       6.859  19.127   4.959  1.00  0.00     0.000 C 
BRANCH  26  27
HETATM   27  C22 UNL     1       8.387  19.131   4.953  1.00  0.00     0.000 C 
BRANCH  27  28
HETATM   28  C23 UNL     1       8.971  20.008   3.844  1.00  0.00     0.000 C 
BRANCH  28  29
HETATM   29  C24 UNL     1      10.500  20.012   3.838  1.00  0.00     0.000 C 
BRANCH  29  30
HETATM   30  C25 UNL     1      11.082  20.889   2.729  1.00  0.00     0.000 C 
BRANCH  30  31
HETATM   31  C26 UNL     1      12.612  20.893   2.723  1.00  0.00     0.000 C 
BRANCH  31  32
HETATM   32  C27 UNL     1      13.196  21.770   1.615  1.00  0.00     0.000 C 
BRANCH  32  33
HETATM   33  C28 UNL     1      14.725  21.774   1.607  1.00  0.00     0.000 C 
BRANCH  33  34
HETATM   34  C29 UNL     1      15.307  22.651   0.500  1.00  0.00     0.000 C 
BRANCH  34  35
HETATM   35  C30 UNL     1      16.836  22.655   0.494  1.00  0.00     0.000 C 
HETATM   36  C31 UNL     1      17.420  23.532  -0.615  1.00  0.00     0.000 C 
ENDBRANCH  34  35
ENDBRANCH  33  34
ENDBRANCH  32  33
ENDBRANCH  31  32
ENDBRANCH  30  31
ENDBRANCH  29  30
ENDBRANCH  28  29
ENDBRANCH  27  28
ENDBRANCH  26  27
ENDBRANCH  25  26
ENDBRANCH  24  25
ENDBRANCH  23  24
ENDBRANCH  22  23
ENDBRANCH  21  22
ENDBRANCH  20  21
ENDBRANCH  19  20
ENDBRANCH  18  19
ENDBRANCH  17  18
ENDBRANCH  16  17
ENDBRANCH  15  16
ENDBRANCH  14  15
ENDBRANCH  13  14
ENDBRANCH  12  13
ENDBRANCH   9  11
ENDBRANCH   8   9
BRANCH   8  37
HETATM   37  C32 UNL     1     -12.162  10.992  11.572  1.00  0.00     0.209 C 
HETATM   38  O2  UNL     1     -12.600  10.670  10.272  1.00  0.00    -0.218 OA
ENDBRANCH   8  37
ENDBRANCH   6   8
ENDBRANCH   4   5
ENDBRANCH   3   4
ENDBRANCH   2   3
ENDBRANCH   1   2
BRANCH   1  39
HETATM   39  C35 UNL     1      -7.856   3.756   7.344  1.00  0.00     0.000 C 
BRANCH  39  40
HETATM   40  C36 UNL     1      -7.672   3.234   5.918  1.00  0.00     0.000 C 
BRANCH  40  41
HETATM   41  C37 UNL     1      -7.106   1.814   5.877  1.00  0.00     0.000 C 
BRANCH  41  42
HETATM   42  C38 UNL     1      -6.922   1.293   4.451  1.00  0.00     0.000 C 
BRANCH  42  43
HETATM   43  C39 UNL     1      -6.358  -0.127   4.410  1.00  0.00     0.000 C 
BRANCH  43  44
HETATM   44  C40 UNL     1      -6.174  -0.646   2.984  1.00  0.00     0.000 C 
BRANCH  44  45
HETATM   45  C41 UNL     1      -5.609  -2.068   2.943  1.00  0.00     0.000 C 
BRANCH  45  46
HETATM   46  C42 UNL     1      -5.426  -2.588   1.518  1.00  0.00     0.000 C 
BRANCH  46  47
HETATM   47  C43 UNL     1      -4.859  -4.008   1.477  1.00  0.00     0.000 C 
BRANCH  47  48
HETATM   48  C44 UNL     1      -4.676  -4.529   0.051  1.00  0.00     0.000 C 
BRANCH  48  49
HETATM   49  C45 UNL     1      -4.111  -5.949   0.010  1.00  0.00     0.000 C 
BRANCH  49  50
HETATM   50  C46 UNL     1      -3.928  -6.471  -1.416  1.00  0.00     0.000 C 
BRANCH  50  51
HETATM   51  C47 UNL     1      -3.361  -7.891  -1.457  1.00  0.00     0.000 C 
BRANCH  51  52
HETATM   52  C48 UNL     1      -3.178  -8.412  -2.883  1.00  0.00     0.000 C 
BRANCH  52  53
HETATM   53  C49 UNL     1      -2.613  -9.832  -2.924  1.00  0.00     0.000 C 
BRANCH  53  54
HETATM   54  C50 UNL     1      -2.430 -10.354  -4.350  1.00  0.00     0.000 C 
BRANCH  54  55
HETATM   55  C51 UNL     1      -1.865 -11.774  -4.391  1.00  0.00     0.000 C 
BRANCH  55  56
HETATM   56  C52 UNL     1      -1.682 -12.295  -5.817  1.00  0.00     0.000 C 
BRANCH  56  57
HETATM   57  C53 UNL     1      -1.115 -13.715  -5.858  1.00  0.00     0.000 C 
BRANCH  57  58
HETATM   58  C54 UNL     1      -0.932 -14.237  -7.281  1.00  0.00     0.000 C 
BRANCH  58  59
HETATM   59  C55 UNL     1      -0.367 -15.656  -7.322  1.00  0.00     0.000 C 
BRANCH  59  60
HETATM   60  C56 UNL     1      -0.184 -16.176  -8.748  1.00  0.00     0.000 C 
BRANCH  60  61
HETATM   61  C57 UNL     1       0.383 -17.596  -8.789  1.00  0.00     0.000 C 
BRANCH  61  62
HETATM   62  C58 UNL     1       0.566 -18.117 -10.215  1.00  0.00     0.000 C 
BRANCH  62  63
HETATM   63  C59 UNL     1       1.131 -19.537 -10.256  1.00  0.00     0.000 C 
BRANCH  63  64
HETATM   64  C60 UNL     1       1.314 -20.059 -11.682  1.00  0.00     0.000 C 
BRANCH  64  65
HETATM   65  C61 UNL     1       1.879 -21.479 -11.723  1.00  0.00     0.000 C 
BRANCH  65  66
HETATM   66  C62 UNL     1       2.063 -22.000 -13.149  1.00  0.00     0.000 C 
BRANCH  66  67
HETATM   67  C63 UNL     1       2.629 -23.420 -13.190  1.00  0.00     0.000 C 
BRANCH  67  68
HETATM   68  C64 UNL     1       2.813 -23.942 -14.615  1.00  0.00     0.000 C 
BRANCH  68  69
HETATM   69  C65 UNL     1       3.377 -25.362 -14.656  1.00  0.00     0.000 C 
BRANCH  69  70
HETATM   70  C66 UNL     1       3.561 -25.883 -16.082  1.00  0.00     0.000 C 
BRANCH  70  71
HETATM   71  C67 UNL     1       4.127 -27.303 -16.123  1.00  0.00     0.000 C 
BRANCH  71  72
HETATM   72  C68 UNL     1       4.311 -27.825 -17.549  1.00  0.00     0.000 C 
BRANCH  72  73
HETATM   73  C69 UNL     1       4.875 -29.245 -17.590  1.00  0.00     0.000 C 
BRANCH  73  74
HETATM   74  C70 UNL     1       5.059 -29.764 -19.016  1.00  0.00     0.000 C 
BRANCH  74  75
HETATM   75  C71 UNL     1       5.623 -31.186 -19.057  1.00  0.00     0.000 C 
HETATM   76  C72 UNL     1       5.807 -31.706 -20.483  1.00  0.00     0.000 C 
ENDBRANCH  74  75
ENDBRANCH  73  74
ENDBRANCH  72  73
ENDBRANCH  71  72
ENDBRANCH  70  71
ENDBRANCH  69  70
ENDBRANCH  68  69
ENDBRANCH  67  68
ENDBRANCH  66  67
ENDBRANCH  65  66
ENDBRANCH  64  65
ENDBRANCH  63  64
ENDBRANCH  62  63
ENDBRANCH  61  62
ENDBRANCH  60  61
ENDBRANCH  59  60
ENDBRANCH  58  59
ENDBRANCH  57  58
ENDBRANCH  56  57
ENDBRANCH  55  56
ENDBRANCH  54  55
ENDBRANCH  53  54
ENDBRANCH  52  53
ENDBRANCH  51  52
ENDBRANCH  50  51
ENDBRANCH  49  50
ENDBRANCH  48  49
ENDBRANCH  47  48
ENDBRANCH  46  47
ENDBRANCH  45  46
ENDBRANCH  44  45
ENDBRANCH  43  44
ENDBRANCH  42  43
ENDBRANCH  41  42
ENDBRANCH  40  41
ENDBRANCH  39  40
ENDBRANCH   1  39
TORSDOF 68
