REMARK  2 active torsions:
REMARK  status: ('A' for Active; 'I' for Inactive)
REMARK    1  A    between atoms: C1_1  and  C8_10 
REMARK    2  A    between atoms: C12_15  and  C14_18 
ROOT
HETATM    1  C8  UNL     1       1.092   0.845  -0.682  1.00  0.00     0.140 C 
HETATM    2  C9  UNL     1      -0.225   1.197   0.031  1.00  0.00     0.066 C 
HETATM    3  C10 UNL     1      -0.594  -0.092   0.809  1.00  0.00     0.066 C 
HETATM    4  C11 UNL     1       0.553  -1.057   0.471  1.00  0.00     0.145 C 
HETATM    5  O3  UNL     1       1.602  -0.194   0.111  1.00  0.00    -0.352 OA
HETATM    6  C12 UNL     1      -2.000  -0.426   0.285  1.00  0.00     0.140 C 
HETATM    7  O4  UNL     1      -2.014   0.164  -0.990  1.00  0.00    -0.352 OA
HETATM    8  C13 UNL     1      -1.396   1.428  -0.926  1.00  0.00     0.145 C 
ENDROOT
BRANCH   1   9
HETATM    9  C1  UNL     1       2.055   1.955  -0.768  1.00  0.00     0.007 A 
HETATM   10  C2  UNL     1       2.514   2.404  -2.023  1.00  0.00     0.000 A 
HETATM   11  C3  UNL     1       3.438   3.469  -2.080  1.00  0.00     0.026 A 
HETATM   12  C4  UNL     1       3.910   4.099  -0.898  1.00  0.00     0.119 A 
HETATM   13  C5  UNL     1       3.455   3.654   0.346  1.00  0.00     0.119 A 
HETATM   14  O2  UNL     1       4.766   5.105  -0.715  1.00  0.00    -0.300 OA
HETATM   15  C6  UNL     1       2.527   2.582   0.406  1.00  0.00     0.024 A 
HETATM   16  O1  UNL     1       4.027   4.383   1.305  1.00  0.00    -0.300 OA
HETATM   17  C7  UNL     1       4.901   5.363   0.699  1.00  0.00     0.304 A 
ENDBRANCH   1   9
BRANCH   6  18
HETATM   18  C14 UNL     1      -2.330  -1.860   0.211  1.00  0.00     0.007 A 
HETATM   19  C15 UNL     1      -1.980  -2.612  -0.930  1.00  0.00     0.000 A 
HETATM   20  C16 UNL     1      -2.307  -3.983  -0.978  1.00  0.00     0.026 A 
HETATM   21  C17 UNL     1      -2.980  -4.619   0.096  1.00  0.00     0.119 A 
HETATM   22  C18 UNL     1      -3.328  -3.873   1.229  1.00  0.00     0.119 A 
HETATM   23  O6  UNL     1      -3.385  -5.879   0.266  1.00  0.00    -0.300 OA
HETATM   24  C19 UNL     1      -3.000  -2.494   1.281  1.00  0.00     0.024 A 
HETATM   25  O5  UNL     1      -3.947  -4.670   2.100  1.00  0.00    -0.300 OA
HETATM   26  C20 UNL     1      -4.031  -6.002   1.551  1.00  0.00     0.304 A 
ENDBRANCH   6  18
TORSDOF 2
