REMARK  5 active torsions:
REMARK  status: ('A' for Active; 'I' for Inactive)
REMARK    1  A    between atoms: C1_1  and  O7_18 
REMARK    2  A    between atoms: C3_4  and  C10_14 
REMARK    3  A    between atoms: C10_14  and  O6_16 
REMARK    4  A    between atoms: O7_18  and  C12_19 
REMARK    5  A    between atoms: C13_21  and  C17_28 
ROOT
HETATM    1  C1  UNL     1       0.078   0.049   0.752  1.00  0.00     0.247 C 
HETATM    2  O1  UNL     1      -0.824   1.170   0.842  1.00  0.00    -0.303 OA
HETATM    3  C2  UNL     1      -0.371   2.439   0.688  1.00  0.00     0.122 C 
HETATM    4  C3  UNL     1       0.912   2.795   0.430  1.00  0.00     0.095 C 
HETATM    5  C4  UNL     1       1.938   1.703   0.233  1.00  0.00     0.190 C 
HETATM    6  C5  UNL     1       1.510   0.484   1.088  1.00  0.00     0.119 C 
HETATM    7  C6  UNL     1       2.707  -0.465   1.198  1.00  0.00     0.128 A 
HETATM    8  C7  UNL     1       3.936   0.480   1.055  1.00  0.00     0.173 A 
HETATM    9  C8  UNL     1       3.402   1.895   0.744  1.00  0.00     0.213 C 
HETATM   10  O2  UNL     1       4.252   2.563  -0.170  1.00  0.00    -0.218 OA
HETATM   11  O3  UNL     1       3.582  -0.490   0.112  1.00  0.00    -0.354 OA
HETATM   12  C9  UNL     1       2.748  -1.779   1.963  1.00  0.00     0.033 C 
HETATM   13  O4  UNL     1       1.934   1.396  -1.160  1.00  0.00    -0.218 OA
ENDROOT
BRANCH   1  14
HETATM   14  O7  UNL     1      -0.004  -0.574  -0.512  1.00  0.00    -0.304 OA
BRANCH  14  15
HETATM   15  C12 UNL     1      -1.307  -1.025  -0.826  1.00  0.00     0.272 C 
HETATM   16  O8  UNL     1      -1.619  -2.127   0.016  1.00  0.00    -0.326 OA
HETATM   17  C13 UNL     1      -2.926  -2.662  -0.150  1.00  0.00     0.184 C 
HETATM   18  C14 UNL     1      -3.082  -3.191  -1.594  1.00  0.00     0.215 C 
HETATM   19  C15 UNL     1      -2.758  -2.096  -2.633  1.00  0.00     0.220 C 
HETATM   20  O11 UNL     1      -4.414  -3.643  -1.771  1.00  0.00    -0.218 OA
HETATM   21  C16 UNL     1      -1.387  -1.461  -2.312  1.00  0.00     0.241 C 
HETATM   22  O10 UNL     1      -2.738  -2.656  -3.935  1.00  0.00    -0.218 OA
HETATM   23  O9  UNL     1      -1.184  -0.330  -3.148  1.00  0.00    -0.215 OA
BRANCH  17  24
HETATM   24  C17 UNL     1      -3.096  -3.760   0.905  1.00  0.00     0.214 C 
HETATM   25  O12 UNL     1      -3.092  -3.152   2.178  1.00  0.00    -0.218 OA
ENDBRANCH  17  24
ENDBRANCH  14  15
ENDBRANCH   1  14
BRANCH   4  26
HETATM   26  C10 UNL     1       1.318   4.205   0.336  1.00  0.00     0.296 C 
HETATM   27  O5  UNL     1       2.164   4.547  -0.459  1.00  0.00    -0.259 OA
BRANCH  26  28
HETATM   28  O6  UNL     1       0.701   5.041   1.166  1.00  0.00    -0.296 OA
HETATM   29  C11 UNL     1       1.149   6.381   1.014  1.00  0.00     0.185 C 
ENDBRANCH  26  28
ENDBRANCH   4  26
TORSDOF 5
