REMARK  0 active torsions:
REMARK  status: ('A' for Active; 'I' for Inactive)
ROOT
HETATM    1  C1  UNL     1      -0.477   2.093  -0.426  1.00  0.00     0.024 A 
HETATM    2  C2  UNL     1       0.319   0.924  -0.376  1.00  0.00     0.096 A 
HETATM    3  C3  UNL     1      -0.294  -0.337  -0.159  1.00  0.00     0.045 A 
HETATM    4  C4  UNL     1      -1.697  -0.435   0.014  1.00  0.00     0.105 A 
HETATM    5  C5  UNL     1      -2.484   0.749  -0.035  1.00  0.00     0.023 A 
HETATM    6  C6  UNL     1      -1.879   2.010  -0.253  1.00  0.00     0.004 A 
HETATM    7  C7  UNL     1      -3.954   0.633   0.147  1.00  0.00     0.007 A 
HETATM    8  C8  UNL     1      -4.489  -0.586   0.351  1.00  0.00     0.069 A 
HETATM    9  C9  UNL     1      -3.617  -1.782   0.392  1.00  0.00     0.300 A 
HETATM   10  O1  UNL     1      -2.287  -1.635   0.222  1.00  0.00    -0.273 OA
HETATM   11  O2  UNL     1      -4.128  -2.862   0.579  1.00  0.00    -0.259 OA
HETATM   12  C10 UNL     1       0.563  -1.546  -0.133  1.00  0.00     0.002 C 
HETATM   13  C11 UNL     1       1.903  -1.413  -0.170  1.00  0.00     0.001 C 
HETATM   14  C12 UNL     1       2.548  -0.038  -0.149  1.00  0.00     0.117 C 
HETATM   15  O3  UNL     1       1.655   1.018  -0.550  1.00  0.00    -0.332 OA
HETATM   16  C13 UNL     1       3.006   0.260   1.282  1.00  0.00     0.035 C 
HETATM   17  C14 UNL     1       3.749  -0.008  -1.096  1.00  0.00     0.035 C 
ENDROOT
TORSDOF 0
