REMARK  0 active torsions:
REMARK  status: ('A' for Active; 'I' for Inactive)
ROOT
HETATM    1  C1  UNL     1      -1.856  -0.644   0.219  1.00  0.00     0.057 A 
HETATM    2  C2  UNL     1      -0.703   0.139   0.262  1.00  0.00     0.032 A 
HETATM    3  C3  UNL     1      -0.848   1.547   0.377  1.00  0.00    -0.000 A 
HETATM    4  C4  UNL     1      -2.129   2.141   0.443  1.00  0.00    -0.000 A 
HETATM    5  C5  UNL     1      -3.285   1.328   0.396  1.00  0.00     0.000 A 
HETATM    6  C6  UNL     1      -3.151  -0.074   0.287  1.00  0.00     0.005 A 
HETATM    7  C7  UNL     1       0.518  -0.787   0.162  1.00  0.00     0.296 A 
HETATM    8  N1  UNL     1      -0.121  -2.139   0.060  1.00  0.00    -0.203 NA
HETATM    9  C8  UNL     1      -1.535  -2.055   0.098  1.00  0.00     0.277 A 
HETATM   10  O1  UNL     1      -2.303  -2.988   0.037  1.00  0.00    -0.266 OA
HETATM   11  C9  UNL     1       1.437  -0.662   1.391  1.00  0.00     0.061 C 
HETATM   12  C10 UNL     1       2.461   0.369   0.924  1.00  0.00     0.040 C 
HETATM   13  C11 UNL     1       2.660  -0.047  -0.527  1.00  0.00     0.253 C 
HETATM   14  N2  UNL     1       1.381  -0.562  -1.010  1.00  0.00     0.160 N 
HETATM   15  C12 UNL     1       0.818   0.174  -2.145  1.00  0.00     0.288 C 
ENDROOT
TORSDOF 0
