REMARK  0 active torsions:
REMARK  status: ('A' for Active; 'I' for Inactive)
ROOT
HETATM    1  C1  UNL     1      -1.740  -0.643  -0.406  1.00  0.00     0.063 A 
HETATM    2  C2  UNL     1      -0.908   0.322   0.133  1.00  0.00     0.038 A 
HETATM    3  C3  UNL     1      -1.447   1.598   0.439  1.00  0.00     0.000 A 
HETATM    4  C4  UNL     1      -2.814   1.877   0.201  1.00  0.00    -0.000 A 
HETATM    5  C5  UNL     1      -3.652   0.875  -0.342  1.00  0.00     0.000 A 
HETATM    6  C6  UNL     1      -3.115  -0.397  -0.649  1.00  0.00     0.005 A 
HETATM    7  C7  UNL     1       0.469  -0.311   0.254  1.00  0.00     0.311 A 
HETATM    8  O1  UNL     1       0.289  -1.662  -0.283  1.00  0.00    -0.270 OA
HETATM    9  C8  UNL     1      -0.998  -1.861  -0.656  1.00  0.00     0.297 A 
HETATM   10  O2  UNL     1      -1.478  -2.867  -1.123  1.00  0.00    -0.259 OA
HETATM   11  C9  UNL     1       0.965  -0.408   1.697  1.00  0.00     0.067 C 
HETATM   12  C10 UNL     1       2.453  -0.643   1.465  1.00  0.00     0.040 C 
HETATM   13  C11 UNL     1       2.738   0.297   0.297  1.00  0.00     0.254 C 
HETATM   14  N1  UNL     1       1.508   0.406  -0.486  1.00  0.00     0.164 N 
HETATM   15  C12 UNL     1       1.647   0.031  -1.891  1.00  0.00     0.289 C 
ENDROOT
TORSDOF 0
