REMARK  1 active torsions:
REMARK  status: ('A' for Active; 'I' for Inactive)
REMARK    1  A    between atoms: C3_3  and  C7_9 
ROOT
HETATM    1  C1  UNL     1      -1.557  -0.236  -0.082  1.00  0.00     0.190 C 
HETATM    2  C2  UNL     1      -0.826   1.060   0.342  1.00  0.00     0.068 C 
HETATM    3  C3  UNL     1       0.627   1.057  -0.088  1.00  0.00     0.043 C 
HETATM    4  C4  UNL     1       1.348  -0.059   0.131  1.00  0.00     0.011 C 
HETATM    5  C5  UNL     1       0.668  -1.242   0.785  1.00  0.00     0.207 C 
HETATM    6  C6  UNL     1      -0.711  -1.533   0.133  1.00  0.00     0.217 C 
HETATM    7  O1  UNL     1      -0.535  -2.154  -1.131  1.00  0.00    -0.218 OA
HETATM    8  O2  UNL     1       1.510  -2.383   0.777  1.00  0.00    -0.216 OA
HETATM    9  O5  UNL     1      -2.766  -0.326   0.650  1.00  0.00    -0.220 OA
ENDROOT
BRANCH   3  10
HETATM   10  C7  UNL     1       1.211   2.248  -0.725  1.00  0.00     0.206 C 
HETATM   11  O3  UNL     1       0.621   3.301  -0.711  1.00  0.00    -0.644 OA
HETATM   12  O4  UNL     1       2.400   2.072  -1.295  1.00  0.00    -0.644 OA
ENDBRANCH   3  10
TORSDOF 1
