REMARK  3 active torsions:
REMARK  status: ('A' for Active; 'I' for Inactive)
REMARK    1  A    between atoms: C8_10  and  C11_14 
REMARK    2  A    between atoms: C11_14  and  C12_15 
REMARK    3  A    between atoms: C12_15  and  C13_16 
ROOT
HETATM    1  C1  UNL     1      -2.649  -1.775  -0.301  1.00  0.00     0.069 A 
HETATM    2  C2  UNL     1      -2.729  -0.375  -0.559  1.00  0.00     0.069 A 
HETATM    3  C3  UNL     1      -3.994   0.270  -0.559  1.00  0.00     0.134 A 
HETATM    4  C4  UNL     1      -5.168  -0.474  -0.303  1.00  0.00     0.030 A 
HETATM    5  C5  UNL     1      -5.090  -1.861  -0.047  1.00  0.00     0.030 A 
HETATM    6  C6  UNL     1      -3.836  -2.514  -0.047  1.00  0.00     0.134 A 
HETATM    7  O1  UNL     1      -3.787  -3.832   0.197  1.00  0.00    -0.190 OA
HETATM    8  O2  UNL     1      -4.098   1.586  -0.797  1.00  0.00    -0.190 OA
HETATM    9  C7  UNL     1      -1.486   0.412  -0.830  1.00  0.00     0.196 A 
HETATM   10  C8  UNL     1      -0.193  -0.312  -0.809  1.00  0.00     0.050 A 
HETATM   11  C9  UNL     1      -0.127  -1.637  -0.562  1.00  0.00     0.043 A 
HETATM   12  C10 UNL     1      -1.322  -2.463  -0.297  1.00  0.00     0.198 A 
HETATM   13  O3  UNL     1      -1.115  -3.637  -0.100  1.00  0.00    -0.286 OA
HETATM   14  O5  UNL     1      -1.426   1.598  -1.068  1.00  0.00    -0.287 OA
ENDROOT
BRANCH  10  15
HETATM   15  C11 UNL     1       1.088   0.440  -1.066  1.00  0.00     0.182 C 
HETATM   16  O4  UNL     1       1.742  -0.115  -2.186  1.00  0.00    -0.218 OA
BRANCH  15  17
HETATM   17  C12 UNL     1       2.047   0.387   0.123  1.00  0.00     0.063 C 
BRANCH  17  18
HETATM   18  C13 UNL     1       3.217   1.319  -0.041  1.00  0.00    -0.032 C 
HETATM   19  C14 UNL     1       3.922   1.660   1.051  1.00  0.00    -0.048 C 
HETATM   20  C15 UNL     1       5.049   2.647   0.899  1.00  0.00     0.026 C 
HETATM   21  C16 UNL     1       3.551   1.037   2.369  1.00  0.00     0.026 C 
ENDBRANCH  17  18
ENDBRANCH  15  17
ENDBRANCH  10  15
TORSDOF 3
