REMARK  3 active torsions:
REMARK  status: ('A' for Active; 'I' for Inactive)
REMARK    1  A    between atoms: C16_16  and  C19_19 
REMARK    2  A    between atoms: C19_19  and  C20_20 
REMARK    3  A    between atoms: C20_20  and  C21_21 
ROOT
HETATM    1  C1  UNL     1       5.965   0.584   0.887  1.00  0.00     0.065 C 
HETATM    2  C2  UNL     1       6.389   0.111  -0.482  1.00  0.00     0.150 C 
HETATM    3  C3  UNL     1       5.328  -0.600  -1.297  1.00  0.00     0.058 C 
HETATM    4  C4  UNL     1       4.020   0.230  -1.367  1.00  0.00     0.006 C 
HETATM    5  C5  UNL     1       3.541   0.572   0.078  1.00  0.00     0.001 C 
HETATM    6  C6  UNL     1       4.639   1.350   0.840  1.00  0.00     0.008 C 
HETATM    7  C7  UNL     1       2.137   1.254   0.133  1.00  0.00     0.000 C 
HETATM    8  C8  UNL     1       1.102   0.344  -0.606  1.00  0.00     0.000 C 
HETATM    9  C9  UNL     1       1.551   0.080  -2.057  1.00  0.00     0.000 C 
HETATM   10  C10 UNL     1       2.932  -0.584  -2.098  1.00  0.00     0.000 C 
HETATM   11  C11 UNL     1      -0.377   0.838  -0.473  1.00  0.00     0.000 C 
HETATM   12  C12 UNL     1      -0.748   0.941   1.037  1.00  0.00     0.000 C 
HETATM   13  C13 UNL     1       0.225   1.914   1.734  1.00  0.00     0.000 C 
HETATM   14  C14 UNL     1       1.688   1.459   1.600  1.00  0.00     0.000 C 
HETATM   15  C15 UNL     1      -2.209   1.428   1.205  1.00  0.00     0.000 C 
HETATM   16  C16 UNL     1      -3.254   0.543   0.482  1.00  0.00     0.000 C 
HETATM   17  C17 UNL     1      -2.844   0.338  -0.988  1.00  0.00     0.000 C 
HETATM   18  C18 UNL     1      -1.383  -0.121  -1.156  1.00  0.00     0.000 C 
HETATM   19  C25 UNL     1      -4.623   1.231   0.537  1.00  0.00     0.000 C 
HETATM   20  C26 UNL     1      -0.605  -0.424   1.736  1.00  0.00     0.000 C 
HETATM   21  C27 UNL     1      -0.521   2.205  -1.162  1.00  0.00     0.000 C 
HETATM   22  C28 UNL     1       2.217   2.643  -0.523  1.00  0.00     0.000 C 
HETATM   23  C29 UNL     1       4.295   1.512  -2.174  1.00  0.00     0.000 C 
HETATM   24  C30 UNL     1       5.858  -0.986  -2.686  1.00  0.00     0.008 C 
HETATM   25  O1  UNL     1       7.510   0.301  -0.895  1.00  0.00    -0.296 OA
ENDROOT
BRANCH  16  26
HETATM   26  C19 UNL     1      -3.396  -0.818   1.174  1.00  0.00     0.005 C 
BRANCH  26  27
HETATM   27  C20 UNL     1      -4.719  -1.512   0.846  1.00  0.00     0.025 C 
BRANCH  27  28
HETATM   28  C21 UNL     1      -4.736  -2.951   1.283  1.00  0.00    -0.035 C 
HETATM   29  C22 UNL     1      -5.922  -3.574   1.393  1.00  0.00    -0.048 C 
HETATM   30  C23 UNL     1      -7.258  -2.957   1.076  1.00  0.00     0.026 C 
HETATM   31  C24 UNL     1      -5.943  -5.002   1.865  1.00  0.00     0.026 C 
ENDBRANCH  27  28
ENDBRANCH  26  27
ENDBRANCH  16  26
TORSDOF 3
