REMARK  5 active torsions:
REMARK  status: ('A' for Active; 'I' for Inactive)
REMARK    1  A    between atoms: C4_5  and  O4_20 
REMARK    2  A    between atoms: C5_6  and  C14_17 
REMARK    3  A    between atoms: C6_7  and  O2_13 
REMARK    4  A    between atoms: O2_13  and  C12_14 
REMARK    5  A    between atoms: O4_20  and  C17_21 
ROOT
HETATM    1  C1  UNL     1       2.971   1.059  -0.150  1.00  0.00     0.034 C 
HETATM    2  C2  UNL     1       2.475   0.299  -1.393  1.00  0.00     0.120 A 
HETATM    3  C3  UNL     1       1.193  -0.627  -1.371  1.00  0.00     0.168 A 
HETATM    4  O1  UNL     1       2.502  -1.072  -1.160  1.00  0.00    -0.354 OA
HETATM    5  C4  UNL     1       0.328  -0.897  -0.123  1.00  0.00     0.156 C 
HETATM    6  C5  UNL     1      -1.191  -0.674  -0.410  1.00  0.00     0.059 C 
HETATM    7  C6  UNL     1      -1.787   0.639   0.170  1.00  0.00     0.131 C 
HETATM    8  C7  UNL     1      -1.494   1.937  -0.611  1.00  0.00     0.052 C 
HETATM    9  C8  UNL     1      -0.035   2.209  -0.881  1.00  0.00    -0.046 C 
HETATM   10  C9  UNL     1       0.840   2.354   0.135  1.00  0.00    -0.034 C 
HETATM   11  C10 UNL     1       2.330   2.455  -0.080  1.00  0.00     0.028 C 
HETATM   12  C11 UNL     1       0.398   2.299  -2.324  1.00  0.00     0.026 C 
HETATM   13  C19 UNL     1       3.148   0.566  -2.732  1.00  0.00     0.032 C 
ENDROOT
BRANCH   5  14
HETATM   14  O4  UNL     1       0.547  -2.240   0.297  1.00  0.00    -0.302 OA
BRANCH  14  15
HETATM   15  C17 UNL     1       1.396  -2.320   1.316  1.00  0.00     0.272 C 
HETATM   16  C18 UNL     1       1.373  -3.625   2.068  1.00  0.00     0.106 C 
HETATM   17  O5  UNL     1       2.145  -1.430   1.641  1.00  0.00    -0.264 OA
ENDBRANCH  14  15
ENDBRANCH   5  14
BRANCH   6  18
HETATM   18  C14 UNL     1      -2.039  -1.856   0.086  1.00  0.00     0.005 C 
HETATM   19  C15 UNL     1      -3.541  -1.592  -0.023  1.00  0.00     0.000 C 
HETATM   20  C16 UNL     1      -1.627  -3.184  -0.545  1.00  0.00     0.000 C 
ENDBRANCH   6  18
BRANCH   7  21
HETATM   21  O2  UNL     1      -1.395   0.787   1.527  1.00  0.00    -0.304 OA
BRANCH  21  22
HETATM   22  C12 UNL     1      -2.188   1.621   2.197  1.00  0.00     0.272 C 
HETATM   23  C13 UNL     1      -1.723   1.971   3.584  1.00  0.00     0.106 C 
HETATM   24  O3  UNL     1      -3.211   2.078   1.750  1.00  0.00    -0.264 OA
ENDBRANCH  21  22
ENDBRANCH   7  21
TORSDOF 5
