REMARK  5 active torsions:
REMARK  status: ('A' for Active; 'I' for Inactive)
REMARK    1  A    between atoms: C3_3  and  C19_21 
REMARK    2  A    between atoms: C12_12  and  C16_16 
REMARK    3  A    between atoms: C16_16  and  C17_18 
REMARK    4  A    between atoms: C19_21  and  O3_22 
REMARK    5  A    between atoms: O3_22  and  C20_23 
ROOT
HETATM    1  C1  UNL     1      -2.873   1.154   1.354  1.00  0.00     0.000 C 
HETATM    2  C2  UNL     1      -3.160   0.740  -0.088  1.00  0.00     0.002 C 
HETATM    3  C3  UNL     1      -2.449  -0.580  -0.465  1.00  0.00     0.028 C 
HETATM    4  C4  UNL     1      -1.119  -0.767   0.336  1.00  0.00     0.003 C 
HETATM    5  C5  UNL     1      -0.416   0.576   0.701  1.00  0.00     0.004 C 
HETATM    6  C6  UNL     1      -1.377   1.443   1.567  1.00  0.00     0.000 C 
HETATM    7  C7  UNL     1       0.896   0.301   1.500  1.00  0.00     0.018 C 
HETATM    8  C8  UNL     1       1.772  -0.703   0.774  1.00  0.00    -0.049 C 
HETATM    9  C9  UNL     1       1.109  -2.025   0.473  1.00  0.00     0.022 C 
HETATM   10  C10 UNL     1      -0.164  -1.779  -0.344  1.00  0.00     0.004 C 
HETATM   11  C11 UNL     1       3.047  -0.457   0.399  1.00  0.00    -0.033 C 
HETATM   12  C12 UNL     1       3.752   0.856   0.674  1.00  0.00     0.049 C 
HETATM   13  C13 UNL     1       2.742   1.988   0.922  1.00  0.00     0.007 C 
HETATM   14  C14 UNL     1       1.670   1.568   1.934  1.00  0.00     0.004 C 
HETATM   15  C15 UNL     1       4.643   0.658   1.905  1.00  0.00     0.007 C 
HETATM   16  C18 UNL     1      -0.082   1.328  -0.599  1.00  0.00     0.000 C 
HETATM   17  C22 UNL     1      -2.207  -0.568  -1.982  1.00  0.00     0.003 C 
ENDROOT
BRANCH   3  18
HETATM   18  C19 UNL     1      -3.379  -1.762  -0.158  1.00  0.00     0.152 C 
BRANCH  18  19
HETATM   19  O3  UNL     1      -4.561  -1.648  -0.935  1.00  0.00    -0.302 OA
BRANCH  19  20
HETATM   20  C20 UNL     1      -5.410  -2.646  -0.713  1.00  0.00     0.272 C 
HETATM   21  O4  UNL     1      -5.201  -3.549   0.065  1.00  0.00    -0.264 OA
HETATM   22  C21 UNL     1      -6.690  -2.590  -1.506  1.00  0.00     0.106 C 
ENDBRANCH  19  20
ENDBRANCH  18  19
ENDBRANCH   3  18
BRANCH  12  23
HETATM   23  C16 UNL     1       4.637   1.205  -0.527  1.00  0.00     0.189 C 
HETATM   24  O1  UNL     1       5.695   0.277  -0.580  1.00  0.00    -0.220 OA
BRANCH  23  25
HETATM   25  C17 UNL     1       3.881   1.147  -1.853  1.00  0.00     0.215 C 
HETATM   26  O2  UNL     1       4.727   1.647  -2.865  1.00  0.00    -0.218 OA
ENDBRANCH  23  25
ENDBRANCH  12  23
TORSDOF 5
