REMARK  10 active torsions:
REMARK  status: ('A' for Active; 'I' for Inactive)
REMARK    1  A    between atoms: C4_4  and  C8_9 
REMARK    2  A    between atoms: C6_6  and  O1_7 
REMARK    3  A    between atoms: C9_10  and  C10_11 
REMARK    4  A    between atoms: C10_11  and  C11_12 
REMARK    5  A    between atoms: C11_12  and  C12_13 
REMARK    6  A    between atoms: C14_15  and  C23_32 
REMARK    7  A    between atoms: C15_17  and  O3_18 
REMARK    8  A    between atoms: C15_17  and  C22_30 
REMARK    9  A    between atoms: O3_18  and  C16_19 
REMARK   10  A    between atoms: C17_21  and  C21_28 
ROOT
HETATM    1  C12 UNL     1       0.805   0.918   0.670  1.00  0.00     0.095 C 
HETATM    2  C13 UNL     1       1.852   0.592   1.744  1.00  0.00     0.187 C 
HETATM    3  C14 UNL     1       2.348   1.977   2.191  1.00  0.00     0.181 C 
HETATM    4  O2  UNL     1       1.967   2.854   1.148  1.00  0.00    -0.330 OA
HETATM    5  C15 UNL     1       1.492   2.131   0.033  1.00  0.00     0.223 C 
HETATM    6  O11 UNL     1       1.273  -0.121   2.820  1.00  0.00    -0.221 OA
ENDROOT
BRANCH   1   7
HETATM    7  C11 UNL     1       0.566  -0.242  -0.293  1.00  0.00     0.077 C 
BRANCH   7   8
HETATM    8  C10 UNL     1      -0.268  -1.336   0.320  1.00  0.00     0.173 C 
HETATM    9  O12 UNL     1      -1.018  -1.103   1.238  1.00  0.00    -0.291 OA
BRANCH   8  10
HETATM   10  C9  UNL     1      -0.150  -2.695  -0.217  1.00  0.00     0.037 C 
HETATM   11  C8  UNL     1      -0.871  -3.703   0.303  1.00  0.00     0.003 C 
BRANCH  11  12
HETATM   12  C4  UNL     1      -0.719  -5.068  -0.279  1.00  0.00     0.002 A 
HETATM   13  C3  UNL     1      -1.459  -6.145   0.240  1.00  0.00     0.002 A 
HETATM   14  C2  UNL     1      -1.312  -7.430  -0.309  1.00  0.00     0.029 A 
HETATM   15  C1  UNL     1      -0.426  -7.645  -1.379  1.00  0.00     0.153 A 
HETATM   16  C6  UNL     1       0.316  -6.568  -1.902  1.00  0.00     0.119 A 
HETATM   17  O13 UNL     1      -0.295  -8.854  -1.889  1.00  0.00    -0.188 OA
HETATM   18  C5  UNL     1       0.168  -5.283  -1.352  1.00  0.00     0.026 A 
BRANCH  16  19
HETATM   19  O1  UNL     1       1.148  -6.762  -2.904  1.00  0.00    -0.326 OA
HETATM   20  C7  UNL     1       1.811  -5.631  -3.449  1.00  0.00     0.181 C 
ENDBRANCH  16  19
ENDBRANCH  11  12
ENDBRANCH   8  10
ENDBRANCH   7   8
ENDBRANCH   1   7
BRANCH   5  21
HETATM   21  O3  UNL     1       0.576   2.899  -0.717  1.00  0.00    -0.306 OA
BRANCH  21  22
HETATM   22  C16 UNL     1      -0.521   3.359   0.047  1.00  0.00     0.272 C 
HETATM   23  O4  UNL     1      -1.648   2.545  -0.250  1.00  0.00    -0.326 OA
HETATM   24  C17 UNL     1      -2.824   2.852   0.486  1.00  0.00     0.184 C 
HETATM   25  C18 UNL     1      -3.268   4.297   0.164  1.00  0.00     0.215 C 
HETATM   26  C19 UNL     1      -2.127   5.307   0.418  1.00  0.00     0.220 C 
HETATM   27  O7  UNL     1      -4.383   4.619   0.977  1.00  0.00    -0.218 OA
HETATM   28  C20 UNL     1      -0.838   4.838  -0.295  1.00  0.00     0.241 C 
HETATM   29  O6  UNL     1      -2.504   6.588  -0.063  1.00  0.00    -0.218 OA
HETATM   30  O5  UNL     1       0.248   5.656   0.107  1.00  0.00    -0.215 OA
BRANCH  24  31
HETATM   31  C21 UNL     1      -3.875   1.807   0.100  1.00  0.00     0.214 C 
HETATM   32  O8  UNL     1      -3.461   0.557   0.605  1.00  0.00    -0.218 OA
ENDBRANCH  24  31
ENDBRANCH  21  22
ENDBRANCH   5  21
BRANCH   5  33
HETATM   33  C22 UNL     1       2.678   1.777  -0.865  1.00  0.00     0.238 C 
HETATM   34  O9  UNL     1       3.328   2.975  -1.229  1.00  0.00    -0.215 OA
ENDBRANCH   5  33
BRANCH   3  35
HETATM   35  C23 UNL     1       3.865   2.029   2.348  1.00  0.00     0.214 C 
HETATM   36  O10 UNL     1       4.205   3.252   2.961  1.00  0.00    -0.218 OA
ENDBRANCH   3  35
TORSDOF 10
