REMARK  11 active torsions:
REMARK  status: ('A' for Active; 'I' for Inactive)
REMARK    1  A    between atoms: O1_1  and  C1_2 
REMARK    2  A    between atoms: O1_1  and  C13_24 
REMARK    3  A    between atoms: C3_4  and  C12_21 
REMARK    4  A    between atoms: C4_6  and  O3_7 
REMARK    5  A    between atoms: C4_6  and  C11_19 
REMARK    6  A    between atoms: O3_7  and  C5_8 
REMARK    7  A    between atoms: C6_10  and  C10_17 
REMARK    8  A    between atoms: C13_24  and  C14_25 
REMARK    9  A    between atoms: C15_26  and  C16_27 
REMARK   10  A    between atoms: C18_29  and  O14_36 
REMARK   11  A    between atoms: C20_31  and  O12_33 
ROOT
HETATM    1  C1  UNL     1       1.107   1.211   0.861  1.00  0.00     0.211 C 
HETATM    2  C2  UNL     1       2.148   0.932   1.947  1.00  0.00     0.214 C 
HETATM    3  C3  UNL     1       2.633   2.338   2.342  1.00  0.00     0.184 C 
HETATM    4  O2  UNL     1       2.217   3.180   1.283  1.00  0.00    -0.328 OA
HETATM    5  C4  UNL     1       1.756   2.422   0.187  1.00  0.00     0.249 C 
HETATM    6  O11 UNL     1       1.570   0.254   3.047  1.00  0.00    -0.218 OA
ENDROOT
BRANCH   1   7
HETATM    7  O1  UNL     1       0.982   0.111  -0.033  1.00  0.00    -0.293 OA
BRANCH   7   8
HETATM    8  C13 UNL     1       0.207  -0.852   0.455  1.00  0.00     0.296 C 
HETATM    9  O15 UNL     1      -0.461  -0.736   1.457  1.00  0.00    -0.259 OA
BRANCH   8  10
HETATM   10  C14 UNL     1       0.193  -2.107  -0.305  1.00  0.00     0.068 C 
HETATM   11  C15 UNL     1      -0.557  -3.147   0.100  1.00  0.00     0.006 C 
BRANCH  11  12
HETATM   12  C16 UNL     1      -0.535  -4.402  -0.707  1.00  0.00     0.004 A 
HETATM   13  C17 UNL     1       0.258  -4.484  -1.865  1.00  0.00     0.026 A 
HETATM   14  C18 UNL     1       0.277  -5.666  -2.625  1.00  0.00     0.121 A 
HETATM   15  C19 UNL     1      -0.498  -6.772  -2.227  1.00  0.00     0.175 A 
HETATM   16  C20 UNL     1      -1.293  -6.692  -1.066  1.00  0.00     0.121 A 
HETATM   17  O13 UNL     1      -0.481  -7.881  -2.938  1.00  0.00    -0.186 OA
HETATM   18  C21 UNL     1      -1.311  -5.508  -0.311  1.00  0.00     0.026 A 
BRANCH  14  19
HETATM   19  O14 UNL     1       1.023  -5.736  -3.709  1.00  0.00    -0.326 OA
HETATM   20  C23 UNL     1       1.723  -4.568  -4.115  1.00  0.00     0.181 C 
ENDBRANCH  14  19
BRANCH  16  21
HETATM   21  O12 UNL     1      -2.022  -7.723  -0.689  1.00  0.00    -0.326 OA
HETATM   22  C22 UNL     1      -2.805  -7.592   0.486  1.00  0.00     0.181 C 
ENDBRANCH  16  21
ENDBRANCH  11  12
ENDBRANCH   8  10
ENDBRANCH   7   8
ENDBRANCH   1   7
BRANCH   5  23
HETATM   23  O3  UNL     1       0.810   3.139  -0.576  1.00  0.00    -0.304 OA
BRANCH  23  24
HETATM   24  C5  UNL     1      -0.289   3.600   0.187  1.00  0.00     0.272 C 
HETATM   25  O4  UNL     1      -1.414   2.783  -0.109  1.00  0.00    -0.326 OA
HETATM   26  C6  UNL     1      -2.590   3.092   0.627  1.00  0.00     0.184 C 
HETATM   27  C7  UNL     1      -3.033   4.537   0.305  1.00  0.00     0.215 C 
HETATM   28  C8  UNL     1      -1.893   5.547   0.559  1.00  0.00     0.220 C 
HETATM   29  O7  UNL     1      -4.149   4.859   1.117  1.00  0.00    -0.218 OA
HETATM   30  C9  UNL     1      -0.604   5.076  -0.154  1.00  0.00     0.241 C 
HETATM   31  O6  UNL     1      -2.270   6.828   0.080  1.00  0.00    -0.218 OA
HETATM   32  O5  UNL     1       0.480   5.897   0.248  1.00  0.00    -0.215 OA
BRANCH  26  33
HETATM   33  C10 UNL     1      -3.641   2.045   0.240  1.00  0.00     0.214 C 
HETATM   34  O8  UNL     1      -3.227   0.797   0.746  1.00  0.00    -0.218 OA
ENDBRANCH  26  33
ENDBRANCH  23  24
ENDBRANCH   5  23
BRANCH   5  35
HETATM   35  C11 UNL     1       2.941   2.076  -0.711  1.00  0.00     0.241 C 
HETATM   36  O9  UNL     1       3.572   3.277  -1.092  1.00  0.00    -0.215 OA
ENDBRANCH   5  35
BRANCH   3  37
HETATM   37  C12 UNL     1       4.152   2.410   2.459  1.00  0.00     0.214 C 
HETATM   38  O10 UNL     1       4.494   3.660   3.014  1.00  0.00    -0.218 OA
ENDBRANCH   3  37
TORSDOF 11
