REMARK  8 active torsions:
REMARK  status: ('A' for Active; 'I' for Inactive)
REMARK    1  A    between atoms: C3_3  and  C21_23 
REMARK    2  A    between atoms: C3_3  and  C26_30 
REMARK    3  A    between atoms: C15_15  and  C17_17 
REMARK    4  A    between atoms: C17_17  and  O1_18 
REMARK    5  A    between atoms: O1_18  and  C18_19 
REMARK    6  A    between atoms: C21_23  and  O3_24 
REMARK    7  A    between atoms: O3_24  and  C22_25 
REMARK    8  A    between atoms: C22_25  and  C23_26 
ROOT
HETATM    1  C1  UNL     1      -2.531   2.459  -0.779  1.00  0.00     0.001 C 
HETATM    2  C2  UNL     1      -2.928   1.277   0.113  1.00  0.00     0.013 C 
HETATM    3  C3  UNL     1      -2.324  -0.057  -0.369  1.00  0.00     0.106 C 
HETATM    4  C4  UNL     1      -0.781   0.082  -0.531  1.00  0.00     0.012 C 
HETATM    5  C5  UNL     1      -0.324   1.291  -1.402  1.00  0.00     0.001 C 
HETATM    6  C6  UNL     1      -1.006   2.580  -0.885  1.00  0.00     0.000 C 
HETATM    7  C7  UNL     1       1.244   1.434  -1.420  1.00  0.00     0.000 C 
HETATM    8  C8  UNL     1       2.004   0.137  -1.018  1.00  0.00     0.000 C 
HETATM    9  C9  UNL     1       1.291  -1.092  -1.586  1.00  0.00     0.000 C 
HETATM   10  C10 UNL     1      -0.104  -1.250  -0.953  1.00  0.00     0.001 C 
HETATM   11  C11 UNL     1       3.438   0.258  -1.549  1.00  0.00     0.000 C 
HETATM   12  C12 UNL     1       4.031   1.277  -0.578  1.00  0.00     0.002 C 
HETATM   13  C13 UNL     1       3.391   2.660  -0.793  1.00  0.00     0.000 C 
HETATM   14  C14 UNL     1       1.859   2.613  -0.637  1.00  0.00     0.000 C 
HETATM   15  C15 UNL     1       3.643   0.674   0.772  1.00  0.00     0.030 C 
HETATM   16  C16 UNL     1       2.309  -0.033   0.490  1.00  0.00     0.003 C 
HETATM   17  C20 UNL     1      -0.793   1.059  -2.850  1.00  0.00     0.000 C 
ENDROOT
BRANCH   3  18
HETATM   18  C21 UNL     1      -2.645  -1.145   0.660  1.00  0.00     0.162 C 
BRANCH  18  19
HETATM   19  O3  UNL     1      -4.051  -1.229   0.838  1.00  0.00    -0.301 OA
BRANCH  19  20
HETATM   20  C22 UNL     1      -4.395  -2.158   1.725  1.00  0.00     0.271 C 
HETATM   21  O4  UNL     1      -3.600  -2.856   2.313  1.00  0.00    -0.264 OA
BRANCH  20  22
HETATM   22  C23 UNL     1      -5.875  -2.301   1.963  1.00  0.00     0.086 C 
HETATM   23  C24 UNL     1      -6.192  -2.879   3.342  1.00  0.00     0.010 C 
HETATM   24  C25 UNL     1      -6.576  -3.055   0.832  1.00  0.00     0.010 C 
ENDBRANCH  20  22
ENDBRANCH  19  20
ENDBRANCH  18  19
ENDBRANCH   3  18
BRANCH   3  25
HETATM   25  C26 UNL     1      -3.000  -0.473  -1.654  1.00  0.00     0.187 C 
HETATM   26  O5  UNL     1      -2.711  -1.508  -2.205  1.00  0.00    -0.647 OA
HETATM   27  O6  UNL     1      -3.916   0.379  -2.113  1.00  0.00    -0.647 OA
ENDBRANCH   3  25
BRANCH  15  28
HETATM   28  C17 UNL     1       4.701  -0.328   1.232  1.00  0.00     0.152 C 
BRANCH  28  29
HETATM   29  O1  UNL     1       5.920   0.355   1.482  1.00  0.00    -0.302 OA
BRANCH  29  30
HETATM   30  C18 UNL     1       6.885  -0.465   1.889  1.00  0.00     0.272 C 
HETATM   31  C19 UNL     1       8.209   0.193   2.174  1.00  0.00     0.106 C 
HETATM   32  O2  UNL     1       6.742  -1.658   2.027  1.00  0.00    -0.264 OA
ENDBRANCH  29  30
ENDBRANCH  28  29
ENDBRANCH  15  28
TORSDOF 8
