REMARK  0 active torsions:
REMARK  status: ('A' for Active; 'I' for Inactive)
ROOT
HETATM    1  C1  UNL     1       0.414   1.234   0.461  1.00  0.00     0.131 C 
HETATM    2  C2  UNL     1       1.619   0.373   0.898  1.00  0.00     0.038 C 
HETATM    3  C3  UNL     1       1.383  -1.148   0.973  1.00  0.00     0.005 C 
HETATM    4  C4  UNL     1       0.881  -1.859  -0.295  1.00  0.00     0.030 C 
HETATM    5  C5  UNL     1      -0.639  -1.789  -0.502  1.00  0.00     0.116 A 
HETATM    6  C6  UNL     1      -1.506  -0.566  -0.016  1.00  0.00     0.125 A 
HETATM    7  C7  UNL     1      -0.973   0.639   0.775  1.00  0.00     0.073 C 
HETATM    8  C8  UNL     1      -2.127   1.600   0.644  1.00  0.00    -0.044 C 
HETATM    9  C9  UNL     1      -3.229   1.029   0.127  1.00  0.00    -0.032 C 
HETATM   10  C10 UNL     1      -3.021  -0.424  -0.209  1.00  0.00     0.055 C 
HETATM   11  C11 UNL     1      -2.043   3.047   1.055  1.00  0.00     0.026 C 
HETATM   12  O1  UNL     1      -0.924  -0.674  -1.279  1.00  0.00    -0.358 OA
HETATM   13  C12 UNL     1      -1.346  -2.984  -1.129  1.00  0.00     0.032 C 
HETATM   14  C13 UNL     1       2.674   0.857  -0.109  1.00  0.00     0.089 C 
HETATM   15  C14 UNL     1       1.836   1.369  -1.242  1.00  0.00     0.271 C 
HETATM   16  O2  UNL     1       0.557   1.522  -0.928  1.00  0.00    -0.304 OA
HETATM   17  O3  UNL     1       2.303   1.607  -2.332  1.00  0.00    -0.264 OA
HETATM   18  C15 UNL     1       3.699  -0.191  -0.527  1.00  0.00     0.011 C 
ENDROOT
TORSDOF 0
