REMARK  4 active torsions:
REMARK  status: ('A' for Active; 'I' for Inactive)
REMARK    1  A    between atoms: C1_1  and  C17_22 
REMARK    2  A    between atoms: C7_8  and  C16_20 
REMARK    3  A    between atoms: C8_9  and  C9_11 
REMARK    4  A    between atoms: C13_15  and  O3_17 
ROOT
HETATM    1  C1  UNL     1      -0.127  -0.133  -2.416  1.00  0.00     0.010 A 
HETATM    2  C2  UNL     1      -0.156  -0.154  -1.002  1.00  0.00     0.024 A 
HETATM    3  C3  UNL     1       0.813  -0.895  -0.285  1.00  0.00     0.116 A 
HETATM    4  C4  UNL     1       1.834  -1.592  -0.984  1.00  0.00     0.116 A 
HETATM    5  C5  UNL     1       1.854  -1.580  -2.398  1.00  0.00     0.026 A 
HETATM    6  C6  UNL     1       0.873  -0.852  -3.115  1.00  0.00     0.000 A 
HETATM    7  O1  UNL     1       2.781  -2.262  -0.301  1.00  0.00    -0.326 OA
HETATM    8  C7  UNL     1       2.942  -2.035   1.107  1.00  0.00     0.186 C 
HETATM    9  C8  UNL     1       1.549  -1.914   1.766  1.00  0.00     0.174 C 
HETATM   10  O2  UNL     1       0.768  -0.940   1.061  1.00  0.00    -0.324 OA
ENDROOT
BRANCH   1  11
HETATM   11  C17 UNL     1      -1.139   0.633  -3.162  1.00  0.00     0.181 C 
HETATM   12  O6  UNL     1      -2.432   0.211  -2.719  1.00  0.00    -0.326 OA
HETATM   13  C18 UNL     1      -3.541   0.875  -3.106  1.00  0.00     0.101 A 
HETATM   14  C19 UNL     1      -3.473   2.209  -3.592  1.00  0.00     0.085 A 
HETATM   15  C25 UNL     1      -4.793   0.221  -3.020  1.00  0.00     0.052 A 
HETATM   16  C20 UNL     1      -2.162   2.922  -3.609  1.00  0.00     0.210 C 
HETATM   17  C22 UNL     1      -4.654   2.857  -4.045  1.00  0.00     0.138 A 
HETATM   18  C21 UNL     1      -0.984   2.168  -3.008  1.00  0.00     0.245 C 
HETATM   19  O8  UNL     1      -1.963   4.035  -4.045  1.00  0.00    -0.288 OA
HETATM   20  O7  UNL     1       0.233   2.574  -3.615  1.00  0.00    -0.212 OA
HETATM   21  C23 UNL     1      -5.898   2.189  -3.969  1.00  0.00     0.055 A 
HETATM   22  O10 UNL     1      -4.611   4.105  -4.537  1.00  0.00    -0.190 OA
HETATM   23  C24 UNL     1      -5.969   0.877  -3.449  1.00  0.00     0.135 A 
HETATM   24  O9  UNL     1      -7.152   0.252  -3.365  1.00  0.00    -0.190 OA
ENDBRANCH   1  11
BRANCH   9  25
HETATM   25  C9  UNL     1       1.617  -1.531   3.201  1.00  0.00     0.010 A 
HETATM   26  C10 UNL     1       1.303  -2.471   4.197  1.00  0.00     0.000 A 
HETATM   27  C11 UNL     1       1.369  -2.107   5.553  1.00  0.00     0.029 A 
HETATM   28  C12 UNL     1       1.752  -0.803   5.916  1.00  0.00     0.153 A 
HETATM   29  C13 UNL     1       2.067   0.139   4.920  1.00  0.00     0.119 A 
HETATM   30  O4  UNL     1       1.813  -0.469   7.190  1.00  0.00    -0.188 OA
HETATM   31  C14 UNL     1       2.000  -0.227   3.565  1.00  0.00     0.025 A 
BRANCH  29  32
HETATM   32  O3  UNL     1       2.426   1.363   5.252  1.00  0.00    -0.326 OA
HETATM   33  C15 UNL     1       2.862   2.234   4.221  1.00  0.00     0.181 C 
ENDBRANCH  29  32
ENDBRANCH   9  25
BRANCH   8  34
HETATM   34  C16 UNL     1       3.789  -3.170   1.689  1.00  0.00     0.215 C 
HETATM   35  O5  UNL     1       5.047  -3.156   1.051  1.00  0.00    -0.218 OA
ENDBRANCH   8  34
TORSDOF 4
