REMARK  4 active torsions:
REMARK  status: ('A' for Active; 'I' for Inactive)
REMARK    1  A    between atoms: C2_2  and  C9_12 
REMARK    2  A    between atoms: C4_4  and  O3_10 
REMARK    3  A    between atoms: C6_6  and  O1_7 
REMARK    4  A    between atoms: C10_13  and  C11_14 
ROOT
HETATM    1  C1  UNL     1      -0.869  -0.520  -0.019  1.00  0.00     0.026 A 
HETATM    2  C2  UNL     1       0.537  -0.471  -0.019  1.00  0.00     0.004 A 
HETATM    3  C3  UNL     1       1.194   0.771  -0.019  1.00  0.00     0.026 A 
HETATM    4  C4  UNL     1       0.449   1.965  -0.019  1.00  0.00     0.121 A 
HETATM    5  C5  UNL     1      -0.957   1.914  -0.019  1.00  0.00     0.175 A 
HETATM    6  C6  UNL     1      -1.617   0.670  -0.019  1.00  0.00     0.121 A 
HETATM    7  O2  UNL     1      -1.658   3.031  -0.019  1.00  0.00    -0.186 OA
ENDROOT
BRANCH   2   8
HETATM    8  C9  UNL     1       1.330  -1.736  -0.019  1.00  0.00     0.004 C 
HETATM    9  C10 UNL     1       0.674  -2.908  -0.019  1.00  0.00     0.045 C 
BRANCH   9  10
HETATM   10  C11 UNL     1       1.410  -4.178  -0.019  1.00  0.00     0.234 C 
HETATM   11  O4  UNL     1       0.817  -5.231  -0.019  1.00  0.00    -0.283 OA
ENDBRANCH   9  10
ENDBRANCH   2   8
BRANCH   6  12
HETATM   12  O1  UNL     1      -2.933   0.617  -0.019  1.00  0.00    -0.326 OA
HETATM   13  C7  UNL     1      -3.551  -0.662  -0.019  1.00  0.00     0.181 C 
ENDBRANCH   6  12
BRANCH   4  14
HETATM   14  O3  UNL     1       1.071   3.127  -0.019  1.00  0.00    -0.326 OA
HETATM   15  C8  UNL     1       2.485   3.127   0.112  1.00  0.00     0.181 C 
ENDBRANCH   4  14
TORSDOF 4
