REMARK  4 active torsions:
REMARK  status: ('A' for Active; 'I' for Inactive)
REMARK    1  A    between atoms: C2_2  and  O5_15 
REMARK    2  A    between atoms: C4_4  and  O3_12 
REMARK    3  A    between atoms: C6_6  and  C7_7 
REMARK    4  A    between atoms: C8_8  and  C9_9 
ROOT
HETATM    1  C1  UNL     1      -1.274  -0.975   0.354  1.00  0.00     0.026 A 
HETATM    2  C2  UNL     1      -2.024   0.214   0.354  1.00  0.00     0.121 A 
HETATM    3  C3  UNL     1      -1.363   1.459   0.354  1.00  0.00     0.175 A 
HETATM    4  C4  UNL     1       0.043   1.509   0.354  1.00  0.00     0.121 A 
HETATM    5  C5  UNL     1       0.787   0.316   0.354  1.00  0.00     0.026 A 
HETATM    6  C6  UNL     1       0.131  -0.926   0.354  1.00  0.00     0.004 A 
HETATM    7  O4  UNL     1      -2.065   2.576   0.354  1.00  0.00    -0.186 OA
ENDROOT
BRANCH   6   8
HETATM    8  C7  UNL     1       0.924  -2.192   0.354  1.00  0.00     0.006 C 
HETATM    9  C8  UNL     1       1.906  -2.336  -0.551  1.00  0.00     0.070 C 
BRANCH   9  10
HETATM   10  C9  UNL     1       2.195  -1.272  -1.519  1.00  0.00     0.211 C 
HETATM   11  O1  UNL     1       1.310  -0.807  -2.197  1.00  0.00    -0.644 OA
HETATM   12  O2  UNL     1       3.465  -0.879  -1.584  1.00  0.00    -0.644 OA
ENDBRANCH   9  10
ENDBRANCH   6   8
BRANCH   2  13
HETATM   13  O5  UNL     1      -3.340   0.162   0.354  1.00  0.00    -0.326 OA
HETATM   14  C11 UNL     1      -3.955  -1.118   0.354  1.00  0.00     0.181 C 
ENDBRANCH   2  13
BRANCH   4  15
HETATM   15  O3  UNL     1       0.664   2.672   0.354  1.00  0.00    -0.326 OA
HETATM   16  C10 UNL     1       2.082   2.670   0.424  1.00  0.00     0.181 C 
ENDBRANCH   4  15
TORSDOF 4
