REMARK  2 active torsions:
REMARK  status: ('A' for Active; 'I' for Inactive)
REMARK    1  A    between atoms: C10_12  and  O4_23 
REMARK    2  A    between atoms: O4_23  and  C19_24 
ROOT
HETATM    1  C1  UNL     1       2.355  -2.471   0.258  1.00  0.00     0.068 C 
HETATM    2  C2  UNL     1       1.373  -1.344  -0.039  1.00  0.00     0.162 C 
HETATM    3  C3  UNL     1       2.287  -0.213  -0.529  1.00  0.00     0.268 A 
HETATM    4  C4  UNL     1       2.875   0.701   0.521  1.00  0.00     0.017 A 
HETATM    5  C5  UNL     1       4.207   0.641   0.518  1.00  0.00     0.005 A 
HETATM    6  C6  UNL     1       4.684  -0.313  -0.535  1.00  0.00     0.276 A 
HETATM    7  N1  UNL     1       3.459  -0.867  -1.147  1.00  0.00     0.146 N 
HETATM    8  C7  UNL     1       3.275  -2.307  -0.945  1.00  0.00     0.254 C 
HETATM    9  C8  UNL     1       2.086   1.588   1.465  1.00  0.00     0.176 C 
HETATM   10  O1  UNL     1       0.676   1.584   1.227  1.00  0.00    -0.295 OA
HETATM   11  C9  UNL     1       0.217   2.172   0.111  1.00  0.00     0.301 C 
HETATM   12  C10 UNL     1      -1.264   2.090  -0.191  1.00  0.00     0.194 C 
HETATM   13  C11 UNL     1      -1.889   0.867   0.469  1.00  0.00    -0.006 C 
HETATM   14  C12 UNL     1      -1.857  -0.461  -0.266  1.00  0.00     0.056 C 
HETATM   15  C13 UNL     1      -1.658  -1.658   0.656  1.00  0.00     0.041 C 
HETATM   16  C14 UNL     1      -0.398  -1.756   1.443  1.00  0.00     0.292 C 
HETATM   17  O2  UNL     1       0.633  -0.969   1.123  1.00  0.00    -0.299 OA
HETATM   18  O3  UNL     1      -0.322  -2.529   2.369  1.00  0.00    -0.260 OA
HETATM   19  C15 UNL     1      -2.647  -2.580   0.721  1.00  0.00    -0.025 C 
HETATM   20  C16 UNL     1      -2.574  -3.818   1.580  1.00  0.00     0.030 C 
HETATM   21  C17 UNL     1      -2.467   0.961   1.682  1.00  0.00    -0.006 C 
HETATM   22  C18 UNL     1      -1.945   3.397   0.230  1.00  0.00     0.045 C 
HETATM   23  O6  UNL     1       0.932   2.766  -0.668  1.00  0.00    -0.261 OA
ENDROOT
BRANCH  12  24
HETATM   24  O4  UNL     1      -1.424   1.967  -1.598  1.00  0.00    -0.293 OA
BRANCH  24  25
HETATM   25  C19 UNL     1      -2.701   1.998  -1.967  1.00  0.00     0.273 C 
HETATM   26  C20 UNL     1      -2.943   2.338  -3.414  1.00  0.00     0.106 C 
HETATM   27  O5  UNL     1      -3.625   1.772  -1.219  1.00  0.00    -0.264 OA
ENDBRANCH  24  25
ENDBRANCH  12  24
TORSDOF 2
