REMARK  7 active torsions:
REMARK  status: ('A' for Active; 'I' for Inactive)
REMARK    1  A    between atoms: C1_2  and  C2_3 
REMARK    2  A    between atoms: C3_4  and  C4_5 
REMARK    3  A    between atoms: C4_5  and  C5_6 
REMARK    4  A    between atoms: C5_6  and  C6_7 
REMARK    5  A    between atoms: C7_8  and  C8_9 
REMARK    6  A    between atoms: C8_9  and  C9_10 
REMARK    7  A    between atoms: C10_11  and  C11_12 
ROOT
HETATM    1  C6  UNL     1      -0.984  -0.795  -0.154  1.00  0.00    -0.048 C 
HETATM    2  C7  UNL     1       0.176  -1.195   0.393  1.00  0.00    -0.030 C 
HETATM    3  C14 UNL     1      -0.955  -0.184  -1.529  1.00  0.00     0.026 C 
ENDROOT
BRANCH   1   4
HETATM    4  C5  UNL     1      -2.252  -0.980   0.635  1.00  0.00     0.026 C 
BRANCH   4   5
HETATM    5  C4  UNL     1      -2.883   0.350   1.045  1.00  0.00     0.030 C 
BRANCH   5   6
HETATM    6  C3  UNL     1      -3.494   1.080  -0.121  1.00  0.00    -0.027 C 
HETATM    7  C2  UNL     1      -3.586   2.420  -0.063  1.00  0.00     0.016 C 
HETATM    8  C15 UNL     1      -3.074   3.121   1.168  1.00  0.00     0.034 C 
BRANCH   7   9
HETATM    9  C1  UNL     1      -4.162   3.229  -1.141  1.00  0.00     0.230 C 
HETATM   10  O1  UNL     1      -4.150   4.436  -1.074  1.00  0.00    -0.283 OA
ENDBRANCH   7   9
ENDBRANCH   5   6
ENDBRANCH   4   5
ENDBRANCH   1   4
BRANCH   2  11
HETATM   11  C8  UNL     1       1.443  -1.010  -0.396  1.00  0.00     0.051 C 
BRANCH  11  12
HETATM   12  C9  UNL     1       2.647  -1.248   0.477  1.00  0.00    -0.026 C 
HETATM   13  C10 UNL     1       3.861  -1.266  -0.098  1.00  0.00    -0.026 C 
HETATM   14  C13 UNL     1       3.957  -1.047  -1.584  1.00  0.00     0.031 C 
BRANCH  13  15
HETATM   15  C11 UNL     1       5.100  -1.490   0.658  1.00  0.00    -0.005 C 
HETATM   16  C12 UNL     1       5.149  -2.408   1.637  1.00  0.00    -0.000 C 
ENDBRANCH  13  15
ENDBRANCH  11  12
ENDBRANCH   2  11
TORSDOF 7
