REMARK  3 active torsions:
REMARK  status: ('A' for Active; 'I' for Inactive)
REMARK    1  A    between atoms: N1_15  and  C14_17 
REMARK    2  A    between atoms: C17_20  and  O4_26 
REMARK    3  A    between atoms: C20_23  and  O3_24 
ROOT
HETATM    1  C1  UNL     1       2.971   0.789  -1.852  1.00  0.00     0.069 C 
HETATM    2  C2  UNL     1       3.817  -0.387  -1.326  1.00  0.00     0.184 C 
HETATM    3  C3  UNL     1       3.033  -1.401  -0.420  1.00  0.00     0.175 C 
HETATM    4  C4  UNL     1       1.526  -1.344  -0.773  1.00  0.00     0.039 C 
HETATM    5  C5  UNL     1       0.983   0.086  -0.432  1.00  0.00     0.054 C 
HETATM    6  C6  UNL     1       1.902   1.269  -0.865  1.00  0.00     0.157 C 
HETATM    7  O1  UNL     1       2.522   1.916   0.227  1.00  0.00    -0.223 OA
HETATM    8  C7  UNL     1      -0.473   0.471  -0.891  1.00  0.00     0.037 C 
HETATM    9  C8  UNL     1      -1.482  -0.688  -1.098  1.00  0.00     0.179 C 
HETATM   10  C9  UNL     1      -1.594  -1.178   0.375  1.00  0.00     0.184 C 
HETATM   11  C10 UNL     1      -0.154  -1.467   1.000  1.00  0.00     0.173 C 
HETATM   12  C11 UNL     1       0.721  -2.359   0.100  1.00  0.00     0.038 C 
HETATM   13  O2  UNL     1      -0.295  -2.049   2.289  1.00  0.00    -0.221 OA
HETATM   14  C12 UNL     1       0.822  -0.250   1.090  1.00  0.00     0.110 C 
HETATM   15  N1  UNL     1       2.104  -0.522   1.795  1.00  0.00    -0.366 N 
HETATM   16  C13 UNL     1       3.194  -1.254   1.133  1.00  0.00     0.130 C 
HETATM   17  C16 UNL     1      -2.412  -0.068   1.154  1.00  0.00     0.065 C 
HETATM   18  C17 UNL     1      -3.049   1.117   0.315  1.00  0.00     0.120 C 
HETATM   19  C18 UNL     1      -2.668   1.289  -1.197  1.00  0.00     0.057 C 
HETATM   20  C19 UNL     1      -1.191   1.605  -1.617  1.00  0.00     0.008 C 
HETATM   21  C20 UNL     1      -2.721  -0.096  -1.803  1.00  0.00     0.148 C 
HETATM   22  O5  UNL     1      -2.357  -2.377   0.393  1.00  0.00    -0.221 OA
HETATM   23  O6  UNL     1      -1.016  -1.656  -2.023  1.00  0.00    -0.221 OA
HETATM   24  O7  UNL     1       3.520  -2.692  -0.764  1.00  0.00    -0.221 OA
HETATM   25  O8  UNL     1       4.971   0.119  -0.684  1.00  0.00    -0.221 OA
ENDROOT
BRANCH  15  26
HETATM   26  C14 UNL     1       2.502   0.418   2.838  1.00  0.00     0.097 C 
HETATM   27  C15 UNL     1       2.225  -0.170   4.223  1.00  0.00     0.026 C 
ENDBRANCH  15  26
BRANCH  21  28
HETATM   28  O3  UNL     1      -3.928  -0.793  -1.545  1.00  0.00    -0.351 OA
HETATM   29  C21 UNL     1      -5.041  -0.240  -2.211  1.00  0.00     0.174 C 
ENDBRANCH  21  28
BRANCH  18  30
HETATM   30  O4  UNL     1      -2.812   2.348   0.971  1.00  0.00    -0.354 OA
HETATM   31  C22 UNL     1      -3.523   3.424   0.404  1.00  0.00     0.174 C 
ENDBRANCH  18  30
TORSDOF 3
