REMARK  3 active torsions:
REMARK  status: ('A' for Active; 'I' for Inactive)
REMARK    1  A    between atoms: N1_14  and  C14_16 
REMARK    2  A    between atoms: C17_19  and  O3_25 
REMARK    3  A    between atoms: C20_22  and  O2_23 
ROOT
HETATM    1  C1  UNL     1       2.953   0.699  -1.885  1.00  0.00     0.069 C 
HETATM    2  C2  UNL     1       3.801  -0.469  -1.344  1.00  0.00     0.184 C 
HETATM    3  C3  UNL     1       3.029  -1.455  -0.397  1.00  0.00     0.175 C 
HETATM    4  C4  UNL     1       1.520  -1.408  -0.742  1.00  0.00     0.037 C 
HETATM    5  C5  UNL     1       0.979   0.027  -0.434  1.00  0.00     0.052 C 
HETATM    6  C6  UNL     1       1.895   1.201  -0.899  1.00  0.00     0.157 C 
HETATM    7  O1  UNL     1       2.529   1.865   0.174  1.00  0.00    -0.223 OA
HETATM    8  C7  UNL     1      -0.482   0.391  -0.895  1.00  0.00     0.037 C 
HETATM    9  C8  UNL     1      -1.494  -0.773  -1.049  1.00  0.00     0.177 C 
HETATM   10  C9  UNL     1      -1.574  -1.213   0.441  1.00  0.00     0.159 C 
HETATM   11  C10 UNL     1      -0.137  -1.486   1.055  1.00  0.00     0.051 C 
HETATM   12  C11 UNL     1       0.725  -2.394   0.164  1.00  0.00     0.007 C 
HETATM   13  C12 UNL     1       0.828  -0.267   1.096  1.00  0.00     0.082 C 
HETATM   14  N1  UNL     1       2.102  -0.539   1.812  1.00  0.00    -0.368 N 
HETATM   15  C13 UNL     1       3.203  -1.258   1.150  1.00  0.00     0.130 C 
HETATM   16  C16 UNL     1      -2.387  -0.090   1.203  1.00  0.00     0.063 C 
HETATM   17  C17 UNL     1      -3.027   1.076   0.344  1.00  0.00     0.120 C 
HETATM   18  C18 UNL     1      -2.682   1.195  -1.182  1.00  0.00     0.057 C 
HETATM   19  C19 UNL     1      -1.215   1.500  -1.647  1.00  0.00     0.008 C 
HETATM   20  C20 UNL     1      -2.750  -0.207  -1.740  1.00  0.00     0.148 C 
HETATM   21  O4  UNL     1      -2.311  -2.424   0.539  1.00  0.00    -0.223 OA
HETATM   22  O5  UNL     1      -1.043  -1.771  -1.951  1.00  0.00    -0.221 OA
HETATM   23  O6  UNL     1       3.514  -2.754  -0.705  1.00  0.00    -0.221 OA
HETATM   24  O7  UNL     1       4.973   0.045  -0.736  1.00  0.00    -0.221 OA
ENDROOT
BRANCH  14  25
HETATM   25  C14 UNL     1       2.500   0.432   2.828  1.00  0.00     0.097 C 
HETATM   26  C15 UNL     1       1.891   0.074   4.182  1.00  0.00     0.026 C 
ENDBRANCH  14  25
BRANCH  20  27
HETATM   27  O2  UNL     1      -3.947  -0.896  -1.424  1.00  0.00    -0.351 OA
HETATM   28  C21 UNL     1      -5.084  -0.357  -2.059  1.00  0.00     0.174 C 
ENDBRANCH  20  27
BRANCH  17  29
HETATM   29  O3  UNL     1      -2.760   2.324   0.953  1.00  0.00    -0.354 OA
HETATM   30  C22 UNL     1      -3.508   3.385   0.402  1.00  0.00     0.174 C 
ENDBRANCH  17  29
TORSDOF 3
