REMARK  5 active torsions:
REMARK  status: ('A' for Active; 'I' for Inactive)
REMARK    1  A    between atoms: C15_16  and  C18_19 
REMARK    2  A    between atoms: C18_19  and  C20_21 
REMARK    3  A    between atoms: C20_21  and  C21_22 
REMARK    4  A    between atoms: C21_22  and  C22_23 
REMARK    5  A    between atoms: C23_24  and  C24_25 
ROOT
HETATM    1  C1  UNL     1      -3.609  -0.992  -3.010  1.00  0.00     0.033 C 
HETATM    2  C2  UNL     1      -3.247  -2.224  -3.840  1.00  0.00     0.154 C 
HETATM    3  C3  UNL     1      -2.383  -3.264  -3.121  1.00  0.00     0.056 C 
HETATM    4  C4  UNL     1      -1.000  -2.659  -2.864  1.00  0.00     0.096 C 
HETATM    5  C5  UNL     1      -1.097  -0.983  -2.532  1.00  0.00     0.034 C 
HETATM    6  C6  UNL     1      -2.495  -0.532  -2.059  1.00  0.00     0.005 C 
HETATM    7  C7  UNL     1      -0.006  -0.751  -1.224  1.00  0.00     0.081 C 
HETATM    8  C8  UNL     1       0.512  -1.970  -0.115  1.00  0.00     0.009 C 
HETATM    9  C9  UNL     1       0.842  -3.562  -0.832  1.00  0.00     0.003 C 
HETATM   10  C10 UNL     1       0.201  -3.816  -2.482  1.00  0.00     0.027 C 
HETATM   11  C11 UNL     1       1.551  -1.365   0.863  1.00  0.00     0.001 C 
HETATM   12  C12 UNL     1       1.054   0.048   1.326  1.00  0.00     0.007 C 
HETATM   13  C13 UNL     1       1.221   1.057   0.172  1.00  0.00     0.065 C 
HETATM   14  C14 UNL     1       0.739   0.560  -1.180  1.00  0.00     0.152 C 
HETATM   15  O1  UNL     1       0.922   1.212  -2.183  1.00  0.00    -0.296 OA
HETATM   16  C15 UNL     1       1.936   0.328   2.577  1.00  0.00     0.000 C 
HETATM   17  C16 UNL     1       1.984  -1.057   3.264  1.00  0.00     0.000 C 
HETATM   18  C17 UNL     1       1.664  -2.127   2.201  1.00  0.00     0.000 C 
HETATM   19  C26 UNL     1      -0.441   0.044   1.744  1.00  0.00     0.000 C 
HETATM   20  C27 UNL     1       2.971  -1.344   0.242  1.00  0.00     0.000 C 
HETATM   21  C28 UNL     1       0.602  -1.727  -2.098  1.00  0.00     0.149 C 
HETATM   22  O4  UNL     1      -0.743  -2.499  -1.601  1.00  0.00    -0.358 OA
HETATM   23  C29 UNL     1      -3.074  -3.891  -1.898  1.00  0.00     0.005 C 
HETATM   24  O5  UNL     1      -4.433  -2.825  -4.309  1.00  0.00    -0.223 OA
ENDROOT
BRANCH  16  25
HETATM   25  C18 UNL     1       1.597   1.500   3.537  1.00  0.00     0.000 C 
HETATM   26  C19 UNL     1       2.510   1.466   4.782  1.00  0.00     0.000 C 
BRANCH  25  27
HETATM   27  C20 UNL     1       1.721   2.896   2.872  1.00  0.00     0.005 C 
BRANCH  27  28
HETATM   28  C21 UNL     1       0.398   3.676   2.763  1.00  0.00     0.026 C 
BRANCH  28  29
HETATM   29  C22 UNL     1       0.510   4.809   1.770  1.00  0.00    -0.024 C 
HETATM   30  C23 UNL     1      -0.188   4.969   0.621  1.00  0.00     0.038 C 
HETATM   31  C25 UNL     1      -1.260   4.035   0.105  1.00  0.00     0.037 C 
BRANCH  30  32
HETATM   32  C24 UNL     1       0.104   6.150  -0.235  1.00  0.00     0.206 C 
HETATM   33  O2  UNL     1      -0.542   6.361  -1.402  1.00  0.00    -0.644 OA
HETATM   34  O3  UNL     1       0.946   6.984   0.076  1.00  0.00    -0.644 OA
ENDBRANCH  30  32
ENDBRANCH  28  29
ENDBRANCH  27  28
ENDBRANCH  25  27
ENDBRANCH  16  25
TORSDOF 5
