REMARK  0 active torsions:
REMARK  status: ('A' for Active; 'I' for Inactive)
ROOT
HETATM    1  C1  UNL     1      -5.045   1.445   1.594  1.00  0.00     0.033 C 
HETATM    2  C2  UNL     1      -6.148   0.859   0.703  1.00  0.00     0.152 C 
HETATM    3  C3  UNL     1      -5.613   0.436  -0.684  1.00  0.00     0.033 C 
HETATM    4  C4  UNL     1      -4.074   0.279  -0.744  1.00  0.00     0.003 C 
HETATM    5  C5  UNL     1      -3.494  -0.375   0.537  1.00  0.00     0.001 C 
HETATM    6  C6  UNL     1      -3.836   0.504   1.775  1.00  0.00     0.003 C 
HETATM    7  C7  UNL     1      -1.947  -0.541   0.424  1.00  0.00     0.007 C 
HETATM    8  C8  UNL     1      -1.521  -1.246  -0.881  1.00  0.00     0.001 C 
HETATM    9  C9  UNL     1      -2.135  -0.580  -2.127  1.00  0.00     0.000 C 
HETATM   10  C10 UNL     1      -3.656  -0.473  -2.020  1.00  0.00     0.000 C 
HETATM   11  C11 UNL     1       0.012  -1.305  -1.020  1.00  0.00     0.009 C 
HETATM   12  C12 UNL     1       0.781  -1.793   0.234  1.00  0.00     0.054 C 
HETATM   13  C13 UNL     1       0.111  -1.584   1.580  1.00  0.00     0.150 C 
HETATM   14  C14 UNL     1      -1.365  -1.281   1.645  1.00  0.00     0.065 C 
HETATM   15  O1  UNL     1       0.752  -1.662   2.604  1.00  0.00    -0.296 OA
HETATM   16  C15 UNL     1       2.170  -1.111   0.123  1.00  0.00     0.039 C 
HETATM   17  C16 UNL     1       2.158  -0.363  -1.209  1.00  0.00     0.118 C 
HETATM   18  C17 UNL     1       0.694   0.012  -1.395  1.00  0.00     0.030 C 
HETATM   19  O2  UNL     1       2.959   0.787  -1.039  1.00  0.00    -0.337 OA
HETATM   20  C18 UNL     1       3.664   0.723   0.188  1.00  0.00     0.187 C 
HETATM   21  C19 UNL     1       2.647   0.000   1.094  1.00  0.00     0.054 C 
HETATM   22  C20 UNL     1       1.531   0.943   1.566  1.00  0.00     0.005 C 
HETATM   23  C21 UNL     1       4.971  -0.107   0.018  1.00  0.00     0.056 C 
HETATM   24  C22 UNL     1       6.225   0.756  -0.211  1.00  0.00     0.007 C 
HETATM   25  C23 UNL     1       5.862   2.064  -0.922  1.00  0.00     0.030 C 
HETATM   26  C24 UNL     1       4.768   2.848  -0.156  1.00  0.00     0.145 C 
HETATM   27  O3  UNL     1       3.992   2.012   0.703  1.00  0.00    -0.335 OA
HETATM   28  C25 UNL     1       7.096   2.932  -1.189  1.00  0.00     0.003 C 
HETATM   29  C26 UNL     1       0.959  -3.305   0.061  1.00  0.00     0.007 C 
HETATM   30  C27 UNL     1      -4.146  -1.762   0.703  1.00  0.00     0.000 C 
HETATM   31  O4  UNL     1      -6.727  -0.252   1.363  1.00  0.00    -0.224 OA
ENDROOT
TORSDOF 0
