REMARK WARNING: 32 MAX_TORS EXCEEDED!!!
REMARK  38 active torsions:
REMARK  status: ('A' for Active; 'I' for Inactive)
REMARK    1  A    between atoms: C2_2  and  O1_30 
REMARK    2  A    between atoms: C16_16  and  C19_19 
REMARK    3  A    between atoms: C19_19  and  C20_20 
REMARK    4  A    between atoms: C20_20  and  C21_21 
REMARK    5  A    between atoms: C21_21  and  C22_22 
REMARK    6  A    between atoms: C22_22  and  C23_23 
REMARK    7  A    between atoms: C22_22  and  C26_26 
REMARK    8  A    between atoms: O1_30  and  C30_31 
REMARK    9  A    between atoms: C32_33  and  C36_40 
REMARK   10  A    between atoms: C36_40  and  O5_41 
REMARK   11  A    between atoms: O5_41  and  C37_42 
REMARK   12  A    between atoms: C37_42  and  C38_43 
REMARK   13  A    between atoms: C38_43  and  C39_44 
REMARK   14  A    between atoms: C39_44  and  C40_45 
REMARK   15  A    between atoms: C40_45  and  C41_46 
REMARK   16  A    between atoms: C41_46  and  C42_47 
REMARK   17  A    between atoms: C42_47  and  C43_48 
REMARK   18  A    between atoms: C43_48  and  C44_49 
REMARK   19  A    between atoms: C44_49  and  C45_50 
REMARK   20  A    between atoms: C45_50  and  C46_51 
REMARK   21  A    between atoms: C46_51  and  C47_52 
REMARK   22  A    between atoms: C47_52  and  C48_53 
REMARK   23  A    between atoms: C48_53  and  C49_54 
REMARK   24  A    between atoms: C49_54  and  C50_55 
REMARK   25  A    between atoms: C50_55  and  C51_56 
REMARK   26  A    between atoms: C51_56  and  C52_57 
REMARK   27  A    between atoms: C52_57  and  C53_58 
REMARK   28  A    between atoms: C53_58  and  C54_59 
REMARK   29  A    between atoms: C54_59  and  C55_60 
REMARK   30  A    between atoms: C55_60  and  C56_61 
REMARK   31  A    between atoms: C56_61  and  C57_62 
REMARK   32  A    between atoms: C57_62  and  C58_63 
REMARK   33  A    between atoms: C58_63  and  C59_64 
REMARK   34  A    between atoms: C59_64  and  C60_65 
REMARK   35  A    between atoms: C60_65  and  C61_66 
REMARK   36  A    between atoms: C61_66  and  C62_67 
REMARK   37  A    between atoms: C62_67  and  C63_68 
REMARK   38  A    between atoms: C63_68  and  C64_69 
ROOT
HETATM    1  C30 UNL     1      -6.851  -3.954  -9.343  1.00  0.00     0.148 C 
HETATM    2  C31 UNL     1      -5.351  -4.031  -9.011  1.00  0.00     0.037 C 
HETATM    3  C32 UNL     1      -4.820  -5.470  -9.098  1.00  0.00     0.066 C 
HETATM    4  C33 UNL     1      -5.107  -6.077 -10.490  1.00  0.00     0.188 C 
HETATM    5  C34 UNL     1      -6.609  -5.995 -10.865  1.00  0.00     0.215 C 
HETATM    6  C35 UNL     1      -7.157  -4.551 -10.737  1.00  0.00     0.212 C 
HETATM    7  O2  UNL     1      -8.561  -4.558 -10.946  1.00  0.00    -0.218 OA
HETATM    8  O3  UNL     1      -6.786  -6.447 -12.199  1.00  0.00    -0.218 OA
HETATM    9  O4  UNL     1      -4.689  -7.432 -10.490  1.00  0.00    -0.221 OA
ENDROOT
BRANCH   3  10
HETATM   10  C36 UNL     1      -3.327  -5.510  -8.748  1.00  0.00     0.154 C 
BRANCH  10  11
HETATM   11  O5  UNL     1      -3.109  -4.822  -7.525  1.00  0.00    -0.302 OA
BRANCH  11  12
HETATM   12  C37 UNL     1      -1.829  -4.822  -7.166  1.00  0.00     0.272 C 
HETATM   13  O6  UNL     1      -0.949  -5.348  -7.807  1.00  0.00    -0.264 OA
BRANCH  12  14
HETATM   14  C38 UNL     1      -1.526  -4.107  -5.876  1.00  0.00     0.096 C 
BRANCH  14  15
HETATM   15  C39 UNL     1      -0.039  -4.143  -5.524  1.00  0.00     0.010 C 
BRANCH  15  16
HETATM   16  C40 UNL     1       0.277  -3.415  -4.217  1.00  0.00     0.001 C 
BRANCH  16  17
HETATM   17  C41 UNL     1       1.764  -3.452  -3.865  1.00  0.00     0.000 C 
BRANCH  17  18
HETATM   18  C42 UNL     1       2.079  -2.723  -2.558  1.00  0.00     0.000 C 
BRANCH  18  19
HETATM   19  C43 UNL     1       3.567  -2.760  -2.206  1.00  0.00     0.000 C 
BRANCH  19  20
HETATM   20  C44 UNL     1       3.882  -2.031  -0.899  1.00  0.00     0.000 C 
BRANCH  20  21
HETATM   21  C45 UNL     1       5.369  -2.068  -0.547  1.00  0.00     0.000 C 
BRANCH  21  22
HETATM   22  C46 UNL     1       5.685  -1.339   0.760  1.00  0.00     0.000 C 
BRANCH  22  23
HETATM   23  C47 UNL     1       7.172  -1.376   1.112  1.00  0.00     0.000 C 
BRANCH  23  24
HETATM   24  C48 UNL     1       7.487  -0.648   2.418  1.00  0.00     0.000 C 
BRANCH  24  25
HETATM   25  C49 UNL     1       8.975  -0.685   2.771  1.00  0.00     0.000 C 
BRANCH  25  26
HETATM   26  C50 UNL     1       9.290   0.044   4.077  1.00  0.00     0.000 C 
BRANCH  26  27
HETATM   27  C51 UNL     1      10.777   0.007   4.430  1.00  0.00     0.000 C 
BRANCH  27  28
HETATM   28  C52 UNL     1      11.093   0.736   5.736  1.00  0.00     0.000 C 
BRANCH  28  29
HETATM   29  C53 UNL     1      12.580   0.699   6.089  1.00  0.00     0.000 C 
BRANCH  29  30
HETATM   30  C54 UNL     1      12.895   1.427   7.395  1.00  0.00     0.000 C 
BRANCH  30  31
HETATM   31  C55 UNL     1      14.383   1.390   7.747  1.00  0.00     0.000 C 
BRANCH  31  32
HETATM   32  C56 UNL     1      14.698   2.119   9.054  1.00  0.00     0.000 C 
BRANCH  32  33
HETATM   33  C57 UNL     1      16.185   2.082   9.406  1.00  0.00     0.000 C 
BRANCH  33  34
HETATM   34  C58 UNL     1      16.501   2.811  10.713  1.00  0.00     0.000 C 
BRANCH  34  35
HETATM   35  C59 UNL     1      17.988   2.774  11.065  1.00  0.00     0.000 C 
BRANCH  35  36
HETATM   36  C60 UNL     1      18.303   3.502  12.372  1.00  0.00     0.000 C 
BRANCH  36  37
HETATM   37  C61 UNL     1      19.791   3.465  12.724  1.00  0.00     0.000 C 
BRANCH  37  38
HETATM   38  C62 UNL     1      20.106   4.194  14.031  1.00  0.00     0.000 C 
BRANCH  38  39
HETATM   39  C63 UNL     1      21.593   4.157  14.383  1.00  0.00     0.000 C 
BRANCH  39  40
HETATM   40  C64 UNL     1      21.909   4.886  15.690  1.00  0.00     0.000 C 
HETATM   41  C65 UNL     1      23.396   4.849  16.042  1.00  0.00     0.000 C 
ENDBRANCH  39  40
ENDBRANCH  38  39
ENDBRANCH  37  38
ENDBRANCH  36  37
ENDBRANCH  35  36
ENDBRANCH  34  35
ENDBRANCH  33  34
ENDBRANCH  32  33
ENDBRANCH  31  32
ENDBRANCH  30  31
ENDBRANCH  29  30
ENDBRANCH  28  29
ENDBRANCH  27  28
ENDBRANCH  26  27
ENDBRANCH  25  26
ENDBRANCH  24  25
ENDBRANCH  23  24
ENDBRANCH  22  23
ENDBRANCH  21  22
ENDBRANCH  20  21
ENDBRANCH  19  20
ENDBRANCH  18  19
ENDBRANCH  17  18
ENDBRANCH  16  17
ENDBRANCH  15  16
ENDBRANCH  14  15
ENDBRANCH  12  14
ENDBRANCH  11  12
ENDBRANCH  10  11
ENDBRANCH   3  10
BRANCH   1  42
HETATM   42  O1  UNL     1      -7.245  -2.594  -9.293  1.00  0.00    -0.356 OA
BRANCH  42  43
HETATM   43  C2  UNL     1      -8.116  -2.306  -8.217  1.00  0.00     0.119 C 
HETATM   44  C1  UNL     1      -7.376  -2.529  -6.892  1.00  0.00     0.030 C 
HETATM   45  C6  UNL     1      -8.283  -2.174  -5.705  1.00  0.00     0.006 C 
HETATM   46  C5  UNL     1      -8.820  -0.720  -5.747  1.00  0.00     0.015 C 
HETATM   47  C4  UNL     1      -9.417  -0.428  -7.125  1.00  0.00    -0.047 C 
HETATM   48  C7  UNL     1      -9.846  -0.510  -4.591  1.00  0.00     0.004 C 
HETATM   49  C29 UNL     1      -7.647   0.259  -5.593  1.00  0.00     0.004 C 
HETATM   50  C3  UNL     1      -8.618  -0.860  -8.341  1.00  0.00     0.051 C 
HETATM   51  C10 UNL     1     -10.601   0.199  -7.294  1.00  0.00    -0.035 C 
HETATM   52  C9  UNL     1     -11.457   0.659  -6.139  1.00  0.00     0.025 C 
HETATM   53  C8  UNL     1     -10.677   0.768  -4.819  1.00  0.00     0.005 C 
HETATM   54  C11 UNL     1     -11.639   1.095  -3.659  1.00  0.00     0.000 C 
HETATM   55  C12 UNL     1     -10.956   1.058  -2.284  1.00  0.00     0.000 C 
HETATM   56  C18 UNL     1     -12.829   0.148  -3.470  1.00  0.00     0.000 C 
HETATM   57  C13 UNL     1     -10.210  -0.272  -2.070  1.00  0.00     0.000 C 
HETATM   58  C15 UNL     1     -10.014   2.252  -2.116  1.00  0.00     0.000 C 
HETATM   59  C16 UNL     1     -12.165   1.155  -1.339  1.00  0.00     0.000 C 
HETATM   60  C14 UNL     1      -9.191  -0.505  -3.192  1.00  0.00     0.000 C 
HETATM   61  C17 UNL     1     -13.229   0.272  -1.999  1.00  0.00     0.000 C 
BRANCH  59  62
HETATM   62  C19 UNL     1     -12.710   2.581  -1.225  1.00  0.00     0.000 C 
HETATM   63  C28 UNL     1     -13.023   3.120  -2.621  1.00  0.00     0.000 C 
BRANCH  62  64
HETATM   64  C20 UNL     1     -11.706   3.452  -0.468  1.00  0.00     0.000 C 
BRANCH  64  65
HETATM   65  C21 UNL     1     -11.088   2.732   0.731  1.00  0.00     0.000 C 
BRANCH  65  66
HETATM   66  C22 UNL     1     -10.190   3.644   1.568  1.00  0.00     0.000 C 
BRANCH  66  67
HETATM   67  C23 UNL     1     -10.173   3.260   3.048  1.00  0.00     0.000 C 
HETATM   68  C24 UNL     1     -11.504   3.541   3.746  1.00  0.00     0.000 C 
HETATM   69  C25 UNL     1      -9.674   1.833   3.281  1.00  0.00     0.000 C 
ENDBRANCH  66  67
BRANCH  66  70
HETATM   70  C26 UNL     1      -8.786   3.791   0.980  1.00  0.00     0.000 C 
HETATM   71  C27 UNL     1      -8.691   4.918  -0.048  1.00  0.00     0.000 C 
ENDBRANCH  66  70
ENDBRANCH  65  66
ENDBRANCH  64  65
ENDBRANCH  62  64
ENDBRANCH  59  62
ENDBRANCH  42  43
ENDBRANCH   1  42
TORSDOF 38
