REMARK  5 active torsions:
REMARK  status: ('A' for Active; 'I' for Inactive)
REMARK    1  A    between atoms: C1_1  and  O8_26 
REMARK    2  A    between atoms: C2_2  and  O7_24 
REMARK    3  A    between atoms: C6_6  and  O1_7 
REMARK    4  A    between atoms: C8_10  and  C11_14 
REMARK    5  A    between atoms: C12_15  and  O5_21 
ROOT
HETATM    1  C1  UNL     1      -3.154  -0.316   0.041  1.00  0.00     0.142 A 
HETATM    2  C2  UNL     1      -3.000  -1.625   0.561  1.00  0.00     0.144 A 
HETATM    3  C3  UNL     1      -1.707  -2.160   0.766  1.00  0.00     0.160 A 
HETATM    4  C4  UNL     1      -0.566  -1.377   0.453  1.00  0.00     0.091 A 
HETATM    5  C5  UNL     1      -0.719  -0.064  -0.066  1.00  0.00     0.129 A 
HETATM    6  C6  UNL     1      -2.016   0.463  -0.271  1.00  0.00     0.141 A 
HETATM    7  O2  UNL     1       0.367   0.684  -0.363  1.00  0.00    -0.305 OA
HETATM    8  C8  UNL     1       1.637   0.256  -0.199  1.00  0.00     0.107 A 
HETATM    9  C9  UNL     1       1.904  -0.978   0.287  1.00  0.00     0.067 A 
HETATM   10  C10 UNL     1       0.813  -1.906   0.654  1.00  0.00     0.202 A 
HETATM   11  O3  UNL     1       1.131  -2.992   1.080  1.00  0.00    -0.286 OA
HETATM   12  O6  UNL     1      -1.574  -3.402   1.258  1.00  0.00    -0.188 OA
ENDROOT
BRANCH   8  13
HETATM   13  C11 UNL     1       2.777   1.154  -0.555  1.00  0.00     0.070 A 
HETATM   14  C12 UNL     1       3.910   1.219   0.281  1.00  0.00     0.098 A 
HETATM   15  C13 UNL     1       4.981   2.066  -0.058  1.00  0.00     0.024 A 
HETATM   16  C14 UNL     1       4.922   2.846  -1.224  1.00  0.00     0.004 A 
HETATM   17  C15 UNL     1       3.793   2.781  -2.057  1.00  0.00     0.028 A 
HETATM   18  C16 UNL     1       2.719   1.938  -1.726  1.00  0.00     0.135 A 
HETATM   19  O4  UNL     1       1.664   1.887  -2.517  1.00  0.00    -0.190 OA
BRANCH  14  20
HETATM   20  O5  UNL     1       3.979   0.492   1.381  1.00  0.00    -0.328 OA
HETATM   21  C17 UNL     1       5.209   0.467   2.088  1.00  0.00     0.181 C 
ENDBRANCH  14  20
ENDBRANCH   8  13
BRANCH   6  22
HETATM   22  O1  UNL     1      -2.164   1.701  -0.762  1.00  0.00    -0.324 OA
HETATM   23  C7  UNL     1      -3.199   1.924  -1.707  1.00  0.00     0.182 C 
ENDBRANCH   6  22
BRANCH   1  24
HETATM   24  O8  UNL     1      -4.383   0.186  -0.152  1.00  0.00    -0.324 OA
HETATM   25  C19 UNL     1      -5.383  -0.680  -0.674  1.00  0.00     0.182 C 
ENDBRANCH   1  24
BRANCH   2  26
HETATM   26  O7  UNL     1      -4.084  -2.359   0.856  1.00  0.00    -0.324 OA
HETATM   27  C18 UNL     1      -4.059  -3.135   2.043  1.00  0.00     0.182 C 
ENDBRANCH   2  26
TORSDOF 5
