REMARK  25 active torsions:
REMARK  status: ('A' for Active; 'I' for Inactive)
REMARK    1  A    between atoms: C1_1  and  O19_56 
REMARK    2  A    between atoms: C3_3  and  C27_40 
REMARK    3  A    between atoms: C4_5  and  C5_6 
REMARK    4  A    between atoms: C4_5  and  O5_19 
REMARK    5  A    between atoms: C5_6  and  O2_7 
REMARK    6  A    between atoms: O2_7  and  C6_8 
REMARK    7  A    between atoms: C6_8  and  C7_9 
REMARK    8  A    between atoms: C8_10  and  C9_11 
REMARK    9  A    between atoms: O5_19  and  C15_20 
REMARK   10  A    between atoms: C16_22  and  C24_35 
REMARK   11  A    between atoms: C17_23  and  O10_31 
REMARK   12  A    between atoms: C19_25  and  O7_26 
REMARK   13  A    between atoms: O7_26  and  C20_27 
REMARK   14  A    between atoms: O10_31  and  C22_32 
REMARK   15  A    between atoms: C24_35  and  O12_36 
REMARK   16  A    between atoms: O12_36  and  C25_37 
REMARK   17  A    between atoms: C27_40  and  O14_41 
REMARK   18  A    between atoms: O14_41  and  C28_42 
REMARK   19  A    between atoms: C28_42  and  C29_43 
REMARK   20  A    between atoms: C30_44  and  C31_45 
REMARK   21  A    between atoms: C35_49  and  O15_51 
REMARK   22  A    between atoms: O19_56  and  C38_57 
REMARK   23  A    between atoms: C38_57  and  C39_58 
REMARK   24  A    between atoms: C40_59  and  C41_60 
REMARK   25  A    between atoms: C43_62  and  O21_67 
ROOT
HETATM    1  C1  UNL     1       2.746  -1.059   0.141  1.00  0.00     0.211 C 
HETATM    2  C2  UNL     1       2.023  -2.403   0.291  1.00  0.00     0.214 C 
HETATM    3  C3  UNL     1       0.602  -2.031  -0.147  1.00  0.00     0.181 C 
HETATM    4  O1  UNL     1       0.768  -1.051  -1.152  1.00  0.00    -0.328 OA
HETATM    5  C4  UNL     1       2.035  -0.428  -1.072  1.00  0.00     0.247 C 
HETATM    6  O18 UNL     1       2.576  -3.363  -0.592  1.00  0.00    -0.218 OA
ENDROOT
BRANCH   5   7
HETATM    7  C5  UNL     1       2.779  -0.725  -2.371  1.00  0.00     0.211 C 
BRANCH   7   8
HETATM    8  O2  UNL     1       1.850  -0.809  -3.442  1.00  0.00    -0.293 OA
BRANCH   8   9
HETATM    9  C6  UNL     1       2.436  -1.090  -4.600  1.00  0.00     0.296 C 
HETATM   10  O4  UNL     1       3.629  -1.236  -4.733  1.00  0.00    -0.259 OA
BRANCH   9  11
HETATM   11  C7  UNL     1       1.539  -1.215  -5.756  1.00  0.00     0.068 C 
HETATM   12  C8  UNL     1       2.033  -1.352  -6.996  1.00  0.00     0.005 C 
BRANCH  12  13
HETATM   13  C9  UNL     1       1.082  -1.477  -8.139  1.00  0.00     0.000 A 
HETATM   14  C10 UNL     1      -0.172  -2.084  -7.947  1.00  0.00     0.002 A 
HETATM   15  C11 UNL     1      -1.068  -2.201  -9.024  1.00  0.00     0.027 A 
HETATM   16  C12 UNL     1      -0.717  -1.713 -10.295  1.00  0.00     0.131 A 
HETATM   17  C13 UNL     1       0.539  -1.106 -10.483  1.00  0.00     0.027 A 
HETATM   18  O3  UNL     1      -1.557  -1.822 -11.303  1.00  0.00    -0.190 OA
HETATM   19  C14 UNL     1       1.436  -0.988  -9.408  1.00  0.00     0.002 A 
ENDBRANCH  12  13
ENDBRANCH   9  11
ENDBRANCH   8   9
ENDBRANCH   7   8
ENDBRANCH   5   7
BRANCH   5  20
HETATM   20  O5  UNL     1       1.916   0.974  -0.953  1.00  0.00    -0.304 OA
BRANCH  20  21
HETATM   21  C15 UNL     1       1.371   1.588  -2.106  1.00  0.00     0.269 C 
HETATM   22  O6  UNL     1       0.078   1.060  -2.401  1.00  0.00    -0.326 OA
HETATM   23  C16 UNL     1      -1.012   1.746  -1.805  1.00  0.00     0.178 C 
HETATM   24  C17 UNL     1      -1.129   3.168  -2.412  1.00  0.00     0.187 C 
HETATM   25  C18 UNL     1       0.240   3.797  -2.777  1.00  0.00     0.215 C 
HETATM   26  C19 UNL     1       1.369   3.141  -1.965  1.00  0.00     0.213 C 
HETATM   27  O9  UNL     1       0.502   3.605  -4.154  1.00  0.00    -0.218 OA
BRANCH  23  28
HETATM   28  C24 UNL     1      -2.272   0.908  -2.039  1.00  0.00     0.184 C 
BRANCH  28  29
HETATM   29  O12 UNL     1      -1.967  -0.467  -1.860  1.00  0.00    -0.299 OA
BRANCH  29  30
HETATM   30  C25 UNL     1      -3.025  -1.248  -2.043  1.00  0.00     0.273 C 
HETATM   31  C26 UNL     1      -3.674  -1.139  -3.397  1.00  0.00     0.106 C 
HETATM   32  O13 UNL     1      -3.459  -2.004  -1.205  1.00  0.00    -0.264 OA
ENDBRANCH  29  30
ENDBRANCH  28  29
ENDBRANCH  23  28
BRANCH  24  33
HETATM   33  O10 UNL     1      -1.773   4.002  -1.459  1.00  0.00    -0.299 OA
BRANCH  33  34
HETATM   34  C22 UNL     1      -3.088   3.812  -1.428  1.00  0.00     0.273 C 
HETATM   35  C23 UNL     1      -3.773   4.285  -0.174  1.00  0.00     0.106 C 
HETATM   36  O11 UNL     1      -3.717   3.301  -2.326  1.00  0.00    -0.264 OA
ENDBRANCH  33  34
ENDBRANCH  24  33
BRANCH  26  37
HETATM   37  O7  UNL     1       1.188   3.517  -0.602  1.00  0.00    -0.296 OA
BRANCH  37  38
HETATM   38  C20 UNL     1       2.342   3.662   0.041  1.00  0.00     0.273 C 
HETATM   39  C21 UNL     1       2.240   4.287   1.406  1.00  0.00     0.106 C 
HETATM   40  O8  UNL     1       3.412   3.324  -0.412  1.00  0.00    -0.264 OA
ENDBRANCH  37  38
ENDBRANCH  26  37
ENDBRANCH  20  21
ENDBRANCH   5  20
BRANCH   1  41
HETATM   41  O19 UNL     1       2.537  -0.291   1.322  1.00  0.00    -0.293 OA
BRANCH  41  42
HETATM   42  C38 UNL     1       3.461   0.650   1.484  1.00  0.00     0.296 C 
HETATM   43  O22 UNL     1       4.305   0.916   0.660  1.00  0.00    -0.259 OA
BRANCH  42  44
HETATM   44  C39 UNL     1       3.410   1.383   2.756  1.00  0.00     0.068 C 
HETATM   45  C40 UNL     1       2.418   1.164   3.633  1.00  0.00     0.005 C 
BRANCH  45  46
HETATM   46  C41 UNL     1       2.408   1.933   4.912  1.00  0.00     0.002 A 
HETATM   47  C42 UNL     1       3.617   2.367   5.482  1.00  0.00     0.026 A 
HETATM   48  C43 UNL     1       3.613   3.092   6.688  1.00  0.00     0.119 A 
HETATM   49  C44 UNL     1       2.393   3.385   7.324  1.00  0.00     0.153 A 
HETATM   50  C45 UNL     1       1.184   2.951   6.754  1.00  0.00     0.029 A 
HETATM   51  O20 UNL     1       2.379   4.062   8.455  1.00  0.00    -0.188 OA
HETATM   52  C46 UNL     1       1.189   2.226   5.549  1.00  0.00     0.002 A 
BRANCH  48  53
HETATM   53  O21 UNL     1       4.752   3.494   7.217  1.00  0.00    -0.326 OA
HETATM   54  C47 UNL     1       4.799   4.793   7.787  1.00  0.00     0.181 C 
ENDBRANCH  48  53
ENDBRANCH  45  46
ENDBRANCH  42  44
ENDBRANCH  41  42
ENDBRANCH   1  41
BRANCH   3  55
HETATM   55  C27 UNL     1      -0.172  -1.391   1.004  1.00  0.00     0.184 C 
BRANCH  55  56
HETATM   56  O14 UNL     1      -1.549  -1.313   0.662  1.00  0.00    -0.296 OA
BRANCH  56  57
HETATM   57  C28 UNL     1      -2.272  -0.721   1.609  1.00  0.00     0.296 C 
HETATM   58  O17 UNL     1      -2.656   0.424   1.545  1.00  0.00    -0.259 OA
BRANCH  57  59
HETATM   59  C29 UNL     1      -2.592  -1.549   2.777  1.00  0.00     0.068 C 
HETATM   60  C30 UNL     1      -2.682  -2.883   2.668  1.00  0.00     0.005 C 
BRANCH  60  61
HETATM   61  C31 UNL     1      -3.012  -3.684   3.885  1.00  0.00     0.002 A 
HETATM   62  C32 UNL     1      -2.795  -3.141   5.164  1.00  0.00     0.002 A 
HETATM   63  C33 UNL     1      -3.106  -3.897   6.309  1.00  0.00     0.029 A 
HETATM   64  C34 UNL     1      -3.633  -5.194   6.178  1.00  0.00     0.153 A 
HETATM   65  C35 UNL     1      -3.850  -5.737   4.898  1.00  0.00     0.119 A 
HETATM   66  O16 UNL     1      -3.920  -5.895   7.256  1.00  0.00    -0.188 OA
HETATM   67  C36 UNL     1      -3.539  -4.981   3.754  1.00  0.00     0.026 A 
BRANCH  65  68
HETATM   68  O15 UNL     1      -4.344  -6.951   4.768  1.00  0.00    -0.326 OA
HETATM   69  C37 UNL     1      -4.674  -7.401   3.463  1.00  0.00     0.181 C 
ENDBRANCH  65  68
ENDBRANCH  60  61
ENDBRANCH  57  59
ENDBRANCH  56  57
ENDBRANCH  55  56
ENDBRANCH   3  55
TORSDOF 25
