REMARK WARNING: 32 MAX_TORS EXCEEDED!!!
REMARK  33 active torsions:
REMARK  status: ('A' for Active; 'I' for Inactive)
REMARK    1  A    between atoms: N1_2  and  C2_3 
REMARK    2  A    between atoms: C2_3  and  C3_4 
REMARK    3  A    between atoms: C3_4  and  C4_5 
REMARK    4  A    between atoms: C4_5  and  C5_6 
REMARK    5  A    between atoms: C5_6  and  N2_7 
REMARK    6  A    between atoms: N2_7  and  C6_8 
REMARK       I    between atoms: N2_7  and  C12_15 
REMARK    7  A    between atoms: C6_8  and  C7_9 
REMARK    8  A    between atoms: C7_9  and  C8_10 
REMARK    9  A    between atoms: C8_10  and  C9_11 
REMARK   10  A    between atoms: C9_11  and  N3_12 
REMARK   11  A    between atoms: C12_15  and  C13_16 
REMARK   12  A    between atoms: C14_17  and  C15_18 
REMARK   13  A    between atoms: C15_18  and  C16_19 
REMARK   14  A    between atoms: C16_19  and  C17_20 
REMARK   15  A    between atoms: C17_20  and  C18_21 
REMARK   16  A    between atoms: C18_21  and  C19_22 
REMARK   17  A    between atoms: C19_22  and  C20_23 
REMARK   18  A    between atoms: C20_23  and  C21_24 
REMARK   19  A    between atoms: C21_24  and  C22_25 
REMARK   20  A    between atoms: C22_25  and  C23_26 
REMARK   21  A    between atoms: C23_26  and  C24_27 
REMARK   22  A    between atoms: C24_27  and  C25_28 
REMARK   23  A    between atoms: C25_28  and  C26_29 
REMARK   24  A    between atoms: C26_29  and  C27_30 
REMARK   25  A    between atoms: C27_30  and  C28_31 
REMARK   26  A    between atoms: C28_31  and  C29_32 
REMARK   27  A    between atoms: C29_32  and  C30_33 
REMARK   28  A    between atoms: C30_33  and  C31_34 
REMARK   29  A    between atoms: C31_34  and  C32_35 
REMARK   30  A    between atoms: C32_35  and  C33_36 
REMARK   31  A    between atoms: C33_36  and  C34_37 
REMARK   32  A    between atoms: C34_37  and  C35_38 
REMARK   33  A    between atoms: C35_38  and  C36_39 
ROOT
HETATM    1  C16 UNL     1       4.268   0.629   3.561  1.00  0.00     0.005 C 
ENDROOT
BRANCH   1   2
HETATM    2  C15 UNL     1       4.885   1.492   4.662  1.00  0.00     0.026 C 
BRANCH   2   3
HETATM    3  C14 UNL     1       6.389   1.436   4.662  1.00  0.00    -0.021 C 
HETATM    4  C13 UNL     1       7.072   2.592   4.662  1.00  0.00     0.056 C 
BRANCH   4   5
HETATM    5  C12 UNL     1       8.541   2.592   4.662  1.00  0.00     0.257 C 
HETATM    6  N2  UNL     1       9.209   2.709   3.477  1.00  0.00    -0.317 N 
HETATM    7  O1  UNL     1       9.152   2.486   5.699  1.00  0.00    -0.267 OA
BRANCH   6   8
HETATM    8  C5  UNL     1       8.442   2.844   2.231  1.00  0.00     0.104 C 
BRANCH   8   9
HETATM    9  C4  UNL     1       8.024   4.297   1.996  1.00  0.00     0.026 C 
BRANCH   9  10
HETATM   10  C3  UNL     1       7.199   4.477   0.723  1.00  0.00     0.037 C 
BRANCH  10  11
HETATM   11  C2  UNL     1       6.783   5.930   0.488  1.00  0.00     0.251 C 
BRANCH  11  12
HETATM   12  N1  UNL     1       5.869   6.022  -0.637  1.00  0.00     0.141 N 
HETATM   13  C1  UNL     1       5.191   7.307  -0.637  1.00  0.00     0.285 C 
HETATM   14  C38 UNL     1       6.582   5.824  -1.889  1.00  0.00     0.285 C 
ENDBRANCH  11  12
ENDBRANCH  10  11
ENDBRANCH   9  10
ENDBRANCH   8   9
ENDBRANCH   6   8
BRANCH   6  15
HETATM   15  C6  UNL     1      10.676   2.703   3.412  1.00  0.00     0.104 C 
BRANCH  15  16
HETATM   16  C7  UNL     1      11.250   4.053   3.844  1.00  0.00     0.026 C 
BRANCH  16  17
HETATM   17  C8  UNL     1      12.772   4.121   3.701  1.00  0.00     0.037 C 
BRANCH  17  18
HETATM   18  C9  UNL     1      13.354   5.436   4.221  1.00  0.00     0.251 C 
BRANCH  18  19
HETATM   19  N3  UNL     1      14.774   5.518   3.918  1.00  0.00     0.141 N 
HETATM   20  C10 UNL     1      15.246   6.885   4.061  1.00  0.00     0.285 C 
HETATM   21  C11 UNL     1      15.528   4.625   4.781  1.00  0.00     0.285 C 
ENDBRANCH  18  19
ENDBRANCH  17  18
ENDBRANCH  16  17
ENDBRANCH  15  16
ENDBRANCH   6  15
ENDBRANCH   4   5
ENDBRANCH   2   3
ENDBRANCH   1   2
BRANCH   1  22
HETATM   22  C17 UNL     1       2.740   0.676   3.561  1.00  0.00     0.000 C 
BRANCH  22  23
HETATM   23  C18 UNL     1       2.123  -0.186   2.457  1.00  0.00     0.000 C 
BRANCH  23  24
HETATM   24  C19 UNL     1       0.596  -0.141   2.457  1.00  0.00     0.000 C 
BRANCH  24  25
HETATM   25  C20 UNL     1      -0.022  -1.000   1.354  1.00  0.00     0.000 C 
BRANCH  25  26
HETATM   26  C21 UNL     1      -1.549  -0.955   1.354  1.00  0.00     0.000 C 
BRANCH  26  27
HETATM   27  C22 UNL     1      -2.164  -1.815   0.248  1.00  0.00     0.000 C 
BRANCH  27  28
HETATM   28  C23 UNL     1      -3.693  -1.770   0.250  1.00  0.00     0.000 C 
BRANCH  28  29
HETATM   29  C24 UNL     1      -4.309  -2.629  -0.855  1.00  0.00     0.000 C 
BRANCH  29  30
HETATM   30  C25 UNL     1      -5.838  -2.584  -0.853  1.00  0.00     0.000 C 
BRANCH  30  31
HETATM   31  C26 UNL     1      -6.453  -3.445  -1.959  1.00  0.00     0.000 C 
BRANCH  31  32
HETATM   32  C27 UNL     1      -7.983  -3.400  -1.957  1.00  0.00     0.000 C 
BRANCH  32  33
HETATM   33  C28 UNL     1      -8.598  -4.260  -3.062  1.00  0.00     0.000 C 
BRANCH  33  34
HETATM   34  C29 UNL     1     -10.125  -4.215  -3.061  1.00  0.00     0.000 C 
BRANCH  34  35
HETATM   35  C30 UNL     1     -10.742  -5.074  -4.166  1.00  0.00     0.000 C 
BRANCH  35  36
HETATM   36  C31 UNL     1     -12.270  -5.029  -4.164  1.00  0.00     0.000 C 
BRANCH  36  37
HETATM   37  C32 UNL     1     -12.887  -5.889  -5.270  1.00  0.00     0.000 C 
BRANCH  37  38
HETATM   38  C33 UNL     1     -14.414  -5.844  -5.270  1.00  0.00     0.000 C 
BRANCH  38  39
HETATM   39  C34 UNL     1     -15.031  -6.703  -6.373  1.00  0.00     0.000 C 
BRANCH  39  40
HETATM   40  C35 UNL     1     -16.559  -6.658  -6.373  1.00  0.00     0.000 C 
BRANCH  40  41
HETATM   41  C36 UNL     1     -17.174  -7.520  -7.477  1.00  0.00     0.000 C 
HETATM   42  C37 UNL     1     -18.703  -7.475  -7.477  1.00  0.00     0.000 C 
ENDBRANCH  40  41
ENDBRANCH  39  40
ENDBRANCH  38  39
ENDBRANCH  37  38
ENDBRANCH  36  37
ENDBRANCH  35  36
ENDBRANCH  34  35
ENDBRANCH  33  34
ENDBRANCH  32  33
ENDBRANCH  31  32
ENDBRANCH  30  31
ENDBRANCH  29  30
ENDBRANCH  28  29
ENDBRANCH  27  28
ENDBRANCH  26  27
ENDBRANCH  25  26
ENDBRANCH  24  25
ENDBRANCH  23  24
ENDBRANCH  22  23
ENDBRANCH   1  22
TORSDOF 33
