REMARK  2 active torsions:
REMARK  status: ('A' for Active; 'I' for Inactive)
REMARK    1  A    between atoms: C2_2  and  O2_30 
REMARK    2  A    between atoms: O2_30  and  C28_31 
ROOT
HETATM    1  C1  UNL     1      -4.213   1.053  -0.609  1.00  0.00     0.030 C 
HETATM    2  C2  UNL     1      -4.549  -0.098   0.350  1.00  0.00     0.119 C 
HETATM    3  C3  UNL     1      -3.717  -0.020   1.639  1.00  0.00     0.051 C 
HETATM    4  C4  UNL     1      -2.231   0.137   1.365  1.00  0.00    -0.047 C 
HETATM    5  C5  UNL     1      -1.807   1.158   0.313  1.00  0.00     0.015 C 
HETATM    6  C6  UNL     1      -2.713   1.035  -0.937  1.00  0.00     0.006 C 
HETATM    7  C7  UNL     1      -0.291   1.092  -0.066  1.00  0.00     0.004 C 
HETATM    8  C8  UNL     1       0.580   0.809   1.176  1.00  0.00     0.005 C 
HETATM    9  C9  UNL     1       0.144  -0.502   1.856  1.00  0.00     0.025 C 
HETATM   10  C10 UNL     1      -1.346  -0.606   2.063  1.00  0.00    -0.035 C 
HETATM   11  C11 UNL     1       2.088   0.762   0.848  1.00  0.00     0.003 C 
HETATM   12  C12 UNL     1       2.480  -0.082  -0.385  1.00  0.00     0.003 C 
HETATM   13  C13 UNL     1       1.570   0.238  -1.582  1.00  0.00     0.000 C 
HETATM   14  C14 UNL     1       0.082   0.123  -1.213  1.00  0.00     0.000 C 
HETATM   15  C15 UNL     1       3.918   0.394  -0.672  1.00  0.00     0.032 C 
HETATM   16  C16 UNL     1       3.986   1.844  -0.174  1.00  0.00     0.117 C 
HETATM   17  C17 UNL     1       2.654   2.146   0.512  1.00  0.00     0.030 C 
HETATM   18  O1  UNL     1       5.047   1.873   0.760  1.00  0.00    -0.342 OA
HETATM   19  C18 UNL     1       5.988   0.857   0.488  1.00  0.00     0.172 C 
HETATM   20  C19 UNL     1       5.043  -0.303   0.123  1.00  0.00     0.049 C 
HETATM   21  C20 UNL     1       5.623  -1.481  -0.654  1.00  0.00     0.004 C 
HETATM   22  N1  UNL     1       6.865   1.316  -0.613  1.00  0.00    -0.273 NA
HETATM   23  C21 UNL     1       8.057   0.500  -0.883  1.00  0.00     0.122 C 
HETATM   24  C22 UNL     1       8.863   0.201   0.395  1.00  0.00     0.024 C 
HETATM   25  C23 UNL     1       7.959  -0.350   1.504  1.00  0.00     0.006 C 
HETATM   26  C24 UNL     1       6.793   0.609   1.775  1.00  0.00     0.051 C 
HETATM   27  C25 UNL     1      10.026  -0.752   0.104  1.00  0.00     0.002 C 
HETATM   28  C26 UNL     1       2.477  -1.586  -0.100  1.00  0.00     0.000 C 
HETATM   29  C27 UNL     1      -2.063   2.527   0.963  1.00  0.00     0.004 C 
ENDROOT
BRANCH   2  30
HETATM   30  O2  UNL     1      -5.924  -0.045   0.676  1.00  0.00    -0.354 OA
BRANCH  30  31
HETATM   31  C28 UNL     1      -6.764  -0.508  -0.369  1.00  0.00     0.175 C 
HETATM   32  C29 UNL     1      -7.961   0.451  -0.541  1.00  0.00     0.217 C 
HETATM   33  C30 UNL     1      -8.987  -0.156  -1.527  1.00  0.00     0.244 C 
HETATM   34  O6  UNL     1      -7.506   1.703  -1.031  1.00  0.00    -0.218 OA
HETATM   35  C31 UNL     1      -9.336  -1.613  -1.135  1.00  0.00     0.303 C 
HETATM   36  O5  UNL     1     -10.166   0.631  -1.520  1.00  0.00    -0.215 OA
HETATM   37  O3  UNL     1      -8.149  -2.385  -1.021  1.00  0.00    -0.327 OA
HETATM   38  O4  UNL     1     -10.158  -2.205  -2.121  1.00  0.00    -0.187 OA
HETATM   39  C32 UNL     1      -7.236  -1.940  -0.025  1.00  0.00     0.148 C 
HETATM   40  C33 UNL     1      -6.090  -2.955   0.008  1.00  0.00     0.035 C 
ENDBRANCH  30  31
ENDBRANCH   2  30
TORSDOF 2
