REMARK  1 active torsions:
REMARK  status: ('A' for Active; 'I' for Inactive)
REMARK    1  A    between atoms: C9_9  and  C12_12 
ROOT
HETATM    1  C1  UNL     1      -3.563   1.125  -0.016  1.00  0.00     0.172 C 
HETATM    2  C2  UNL     1      -2.904   0.434  -1.184  1.00  0.00     0.070 C 
HETATM    3  C3  UNL     1      -1.776  -0.520  -0.744  1.00  0.00     0.011 C 
HETATM    4  C4  UNL     1      -0.766   0.229   0.180  1.00  0.00     0.016 C 
HETATM    5  C5  UNL     1      -1.510   0.885   1.344  1.00  0.00    -0.042 C 
HETATM    6  C6  UNL     1      -2.791   1.289   1.225  1.00  0.00     0.029 C 
HETATM    7  C7  UNL     1      -0.809   1.094   2.662  1.00  0.00     0.026 C 
HETATM    8  C8  UNL     1       0.365  -0.719   0.635  1.00  0.00     0.008 C 
HETATM    9  C9  UNL     1       1.404  -0.791  -0.490  1.00  0.00     0.019 C 
HETATM   10  C10 UNL     1       1.217   0.516  -1.268  1.00  0.00     0.004 C 
HETATM   11  C11 UNL     1       0.098   1.270  -0.551  1.00  0.00     0.004 C 
HETATM   12  C15 UNL     1      -1.178  -1.209  -1.975  1.00  0.00     0.001 C 
HETATM   13  O1  UNL     1      -4.699   1.529  -0.090  1.00  0.00    -0.291 OA
ENDROOT
BRANCH   9  14
HETATM   14  C12 UNL     1       2.812  -0.992   0.016  1.00  0.00    -0.044 C 
HETATM   15  C13 UNL     1       3.476  -0.055   0.986  1.00  0.00     0.026 C 
HETATM   16  C14 UNL     1       3.504  -2.059  -0.424  1.00  0.00    -0.009 C 
ENDBRANCH   9  14
TORSDOF 1
