REMARK  6 active torsions:
REMARK  status: ('A' for Active; 'I' for Inactive)
REMARK    1  A    between atoms: C1_1  and  C19_29 
REMARK    2  A    between atoms: C4_4  and  O1_7 
REMARK    3  A    between atoms: O1_7  and  C7_8 
REMARK    4  A    between atoms: C8_10  and  C18_27 
REMARK    5  A    between atoms: C11_13  and  O3_14 
REMARK    6  A    between atoms: O3_14  and  C12_15 
ROOT
HETATM    1  C7  UNL     1      -2.641  -1.112   1.447  1.00  0.00     0.271 C 
HETATM    2  O2  UNL     1      -3.220  -1.680   2.610  1.00  0.00    -0.326 OA
HETATM    3  C8  UNL     1      -4.612  -1.830   2.509  1.00  0.00     0.184 C 
HETATM    4  C9  UNL     1      -4.929  -2.795   1.375  1.00  0.00     0.215 C 
HETATM    5  C10 UNL     1      -4.352  -2.250   0.086  1.00  0.00     0.217 C 
HETATM    6  C11 UNL     1      -2.857  -2.030   0.257  1.00  0.00     0.207 C 
HETATM    7  O8  UNL     1      -4.582  -3.166  -0.955  1.00  0.00    -0.218 OA
HETATM    8  O9  UNL     1      -6.317  -2.940   1.204  1.00  0.00    -0.218 OA
ENDROOT
BRANCH   1   9
HETATM    9  O1  UNL     1      -1.274  -1.053   1.800  1.00  0.00    -0.304 OA
BRANCH   9  10
HETATM   10  C4  UNL     1      -0.488  -0.001   1.402  1.00  0.00     0.097 A 
HETATM   11  C3  UNL     1       0.830   0.056   1.875  1.00  0.00     0.024 A 
HETATM   12  C2  UNL     1       1.714   1.086   1.548  1.00  0.00     0.002 A 
HETATM   13  C1  UNL     1       1.314   2.150   0.730  1.00  0.00     0.005 A 
HETATM   14  C6  UNL     1       0.005   2.097   0.231  1.00  0.00     0.002 A 
HETATM   15  C5  UNL     1      -0.867   1.057   0.561  1.00  0.00     0.024 A 
BRANCH  13  16
HETATM   16  C19 UNL     1       2.227   3.267   0.386  1.00  0.00     0.064 C 
HETATM   17  C20 UNL     1       2.160   3.904  -0.804  1.00  0.00     0.126 C 
HETATM   18  O11 UNL     1       2.952   4.953  -1.156  1.00  0.00    -0.305 OA
HETATM   19  C21 UNL     1       4.132   5.104  -0.488  1.00  0.00     0.107 A 
HETATM   20  C22 UNL     1       4.378   4.525   0.767  1.00  0.00     0.087 A 
HETATM   21  C27 UNL     1       5.130   5.916  -1.035  1.00  0.00     0.052 A 
HETATM   22  C23 UNL     1       3.299   3.676   1.336  1.00  0.00     0.201 C 
HETATM   23  C24 UNL     1       5.598   4.711   1.443  1.00  0.00     0.138 A 
HETATM   24  O12 UNL     1       3.281   3.349   2.518  1.00  0.00    -0.286 OA
HETATM   25  C25 UNL     1       6.559   5.524   0.834  1.00  0.00     0.055 A 
HETATM   26  O14 UNL     1       5.891   4.131   2.639  1.00  0.00    -0.190 OA
HETATM   27  C26 UNL     1       6.352   6.144  -0.399  1.00  0.00     0.135 A 
HETATM   28  O13 UNL     1       7.306   6.939  -0.953  1.00  0.00    -0.190 OA
ENDBRANCH  13  16
ENDBRANCH   9  10
ENDBRANCH   1   9
BRANCH   6  29
HETATM   29  O3  UNL     1      -2.388  -1.463  -0.934  1.00  0.00    -0.324 OA
BRANCH  29  30
HETATM   30  C12 UNL     1      -1.143  -1.962  -1.385  1.00  0.00     0.270 C 
HETATM   31  O4  UNL     1      -0.556  -0.817  -1.966  1.00  0.00    -0.329 OA
HETATM   32  C13 UNL     1       0.692  -1.050  -2.559  1.00  0.00     0.151 C 
HETATM   33  C14 UNL     1       0.639  -2.167  -3.597  1.00  0.00     0.212 C 
HETATM   34  C17 UNL     1       1.803  -1.208  -1.517  1.00  0.00     0.035 C 
HETATM   35  C15 UNL     1      -0.088  -3.410  -3.120  1.00  0.00     0.220 C 
HETATM   36  O7  UNL     1      -0.029  -1.691  -4.745  1.00  0.00    -0.218 OA
HETATM   37  C16 UNL     1      -1.378  -3.037  -2.422  1.00  0.00     0.241 C 
HETATM   38  O6  UNL     1       0.702  -4.133  -2.209  1.00  0.00    -0.218 OA
HETATM   39  O5  UNL     1      -1.878  -4.200  -1.806  1.00  0.00    -0.215 OA
ENDBRANCH  29  30
ENDBRANCH   6  29
BRANCH   3  40
HETATM   40  C18 UNL     1      -5.146  -2.322   3.846  1.00  0.00     0.214 C 
HETATM   41  O10 UNL     1      -4.993  -1.306   4.818  1.00  0.00    -0.218 OA
ENDBRANCH   3  40
TORSDOF 6
