REMARK  14 active torsions:
REMARK  status: ('A' for Active; 'I' for Inactive)
REMARK    1  A    between atoms: C1_1  and  O12_53 
REMARK    2  A    between atoms: C3_3  and  C40_50 
REMARK    3  A    between atoms: C19_19  and  O1_25 
REMARK    4  A    between atoms: O1_25  and  C25_26 
REMARK    5  A    between atoms: C29_31  and  O3_32 
REMARK    6  A    between atoms: O3_32  and  C30_33 
REMARK    7  A    between atoms: C31_35  and  C35_42 
REMARK    8  A    between atoms: O12_53  and  C42_54 
REMARK    9  A    between atoms: C43_56  and  C59_84 
REMARK   10  A    between atoms: C46_59  and  O14_60 
REMARK   11  A    between atoms: O14_60  and  C47_61 
REMARK   12  A    between atoms: C48_63  and  C58_80 
REMARK   13  A    between atoms: C51_66  and  O16_67 
REMARK   14  A    between atoms: O16_67  and  C52_68 
ROOT
HETATM    1  C1  UNL     1       3.940  -0.609   1.617  1.00  0.00     0.118 C 
HETATM    2  C2  UNL     1       4.305   0.123   0.314  1.00  0.00     0.032 C 
HETATM    3  C3  UNL     1       3.674   1.529   0.221  1.00  0.00     0.033 C 
HETATM    4  C4  UNL     1       2.141   1.439   0.475  1.00  0.00     0.003 C 
HETATM    5  C5  UNL     1       1.766   0.723   1.809  1.00  0.00     0.003 C 
HETATM    6  C6  UNL     1       2.414  -0.682   1.803  1.00  0.00     0.030 C 
HETATM    7  C7  UNL     1       0.209   0.646   1.973  1.00  0.00     0.005 C 
HETATM    8  C8  UNL     1      -0.490   2.037   1.893  1.00  0.00     0.004 C 
HETATM    9  C9  UNL     1      -0.103   2.684   0.537  1.00  0.00     0.000 C 
HETATM   10  C10 UNL     1       1.420   2.795   0.342  1.00  0.00     0.000 C 
HETATM   11  C11 UNL     1      -2.045   1.885   2.113  1.00  0.00     0.015 C 
HETATM   12  C12 UNL     1      -2.684   0.656   1.475  1.00  0.00    -0.049 C 
HETATM   13  C13 UNL     1      -1.936  -0.326   0.926  1.00  0.00    -0.035 C 
HETATM   14  C14 UNL     1      -0.432  -0.326   0.955  1.00  0.00     0.025 C 
HETATM   15  C15 UNL     1      -4.211   0.568   1.516  1.00  0.00     0.020 C 
HETATM   16  C16 UNL     1      -4.891   1.854   0.979  1.00  0.00     0.029 C 
HETATM   17  C17 UNL     1      -4.322   3.063   1.752  1.00  0.00     0.003 C 
HETATM   18  C18 UNL     1      -2.795   3.154   1.635  1.00  0.00     0.004 C 
HETATM   19  C19 UNL     1      -6.424   1.748   1.201  1.00  0.00     0.118 C 
HETATM   20  C20 UNL     1      -7.031   0.480   0.572  1.00  0.00     0.030 C 
HETATM   21  C21 UNL     1      -6.357  -0.801   1.092  1.00  0.00     0.003 C 
HETATM   22  C22 UNL     1      -4.834  -0.705   0.891  1.00  0.00     0.004 C 
HETATM   23  C23 UNL     1      -6.682  -0.998   2.578  1.00  0.00     0.000 C 
HETATM   24  C24 UNL     1      -6.900  -2.012   0.324  1.00  0.00     0.000 C 
HETATM   25  C36 UNL     1      -4.580   2.006  -0.523  1.00  0.00     0.003 C 
HETATM   26  C37 UNL     1      -2.318   1.691   3.617  1.00  0.00     0.004 C 
HETATM   27  C38 UNL     1       0.033   2.988   2.988  1.00  0.00     0.000 C 
HETATM   28  C39 UNL     1       2.354   1.471   3.018  1.00  0.00     0.000 C 
HETATM   29  C41 UNL     1       4.358   2.473   1.217  1.00  0.00     0.003 C 
ENDROOT
BRANCH   1  30
HETATM   30  O12 UNL     1       4.467  -1.920   1.574  1.00  0.00    -0.332 OA
BRANCH  30  31
HETATM   31  C42 UNL     1       5.852  -1.973   1.850  1.00  0.00     0.267 C 
HETATM   32  O13 UNL     1       6.043  -1.719   3.236  1.00  0.00    -0.318 OA
HETATM   33  C43 UNL     1       7.399  -1.684   3.660  1.00  0.00     0.237 C 
HETATM   34  C44 UNL     1       8.051  -3.065   3.402  1.00  0.00     0.223 C 
HETATM   35  C45 UNL     1       7.901  -3.488   1.924  1.00  0.00     0.217 C 
HETATM   36  O25 UNL     1       9.426  -2.992   3.740  1.00  0.00    -0.217 OA
HETATM   37  C46 UNL     1       6.424  -3.367   1.486  1.00  0.00     0.207 C 
HETATM   38  O24 UNL     1       8.342  -4.828   1.762  1.00  0.00    -0.218 OA
BRANCH  33  39
HETATM   39  C59 UNL     1       7.414  -1.283   5.115  1.00  0.00     0.217 C 
HETATM   40  O26 UNL     1       7.586  -2.106   5.984  1.00  0.00    -0.646 OA
HETATM   41  O27 UNL     1       7.225   0.014   5.346  1.00  0.00    -0.646 OA
ENDBRANCH  33  39
BRANCH  37  42
HETATM   42  O14 UNL     1       6.334  -3.561   0.084  1.00  0.00    -0.324 OA
BRANCH  42  43
HETATM   43  C47 UNL     1       5.951  -4.875  -0.273  1.00  0.00     0.267 C 
HETATM   44  O15 UNL     1       4.572  -5.039   0.033  1.00  0.00    -0.326 OA
HETATM   45  C48 UNL     1       4.051  -6.336  -0.227  1.00  0.00     0.184 C 
HETATM   46  C49 UNL     1       4.172  -6.645  -1.734  1.00  0.00     0.215 C 
HETATM   47  C50 UNL     1       5.629  -6.488  -2.225  1.00  0.00     0.217 C 
HETATM   48  O22 UNL     1       3.729  -7.971  -1.965  1.00  0.00    -0.218 OA
HETATM   49  C51 UNL     1       6.188  -5.115  -1.787  1.00  0.00     0.207 C 
HETATM   50  O21 UNL     1       5.678  -6.600  -3.637  1.00  0.00    -0.218 OA
BRANCH  45  51
HETATM   51  C58 UNL     1       2.600  -6.334   0.268  1.00  0.00     0.214 C 
HETATM   52  O23 UNL     1       2.613  -6.252   1.674  1.00  0.00    -0.218 OA
ENDBRANCH  45  51
BRANCH  49  53
HETATM   53  O16 UNL     1       7.580  -5.067  -2.057  1.00  0.00    -0.324 OA
BRANCH  53  54
HETATM   54  C52 UNL     1       7.891  -4.399  -3.264  1.00  0.00     0.270 C 
HETATM   55  O17 UNL     1       7.686  -3.006  -3.072  1.00  0.00    -0.329 OA
HETATM   56  C53 UNL     1       7.910  -2.201  -4.221  1.00  0.00     0.151 C 
HETATM   57  C54 UNL     1       9.385  -2.338  -4.662  1.00  0.00     0.212 C 
HETATM   58  C57 UNL     1       7.533  -0.768  -3.836  1.00  0.00     0.035 C 
HETATM   59  C55 UNL     1       9.764  -3.818  -4.897  1.00  0.00     0.220 C 
HETATM   60  O20 UNL     1       9.572  -1.600  -5.857  1.00  0.00    -0.218 OA
HETATM   61  C56 UNL     1       9.363  -4.666  -3.668  1.00  0.00     0.241 C 
HETATM   62  O19 UNL     1      11.160  -3.926  -5.121  1.00  0.00    -0.218 OA
HETATM   63  O18 UNL     1       9.526  -6.041  -3.975  1.00  0.00    -0.215 OA
ENDBRANCH  53  54
ENDBRANCH  49  53
ENDBRANCH  42  43
ENDBRANCH  37  42
ENDBRANCH  30  31
ENDBRANCH   1  30
BRANCH   3  64
HETATM   64  C40 UNL     1       3.938   2.080  -1.187  1.00  0.00     0.182 C 
HETATM   65  O11 UNL     1       5.318   1.984  -1.447  1.00  0.00    -0.221 OA
ENDBRANCH   3  64
BRANCH  19  66
HETATM   66  O1  UNL     1      -7.088   2.877   0.662  1.00  0.00    -0.332 OA
BRANCH  66  67
HETATM   67  C25 UNL     1      -8.340   3.131   1.272  1.00  0.00     0.267 C 
HETATM   68  O2  UNL     1      -8.113   3.590   2.598  1.00  0.00    -0.326 OA
HETATM   69  C26 UNL     1      -9.291   3.842   3.350  1.00  0.00     0.181 C 
HETATM   70  C27 UNL     1     -10.111   4.955   2.670  1.00  0.00     0.214 C 
HETATM   71  C28 UNL     1     -10.428   4.600   1.201  1.00  0.00     0.217 C 
HETATM   72  O10 UNL     1     -11.311   5.135   3.402  1.00  0.00    -0.218 OA
HETATM   73  C29 UNL     1      -9.127   4.199   0.469  1.00  0.00     0.207 C 
HETATM   74  O9  UNL     1     -11.024   5.713   0.555  1.00  0.00    -0.218 OA
BRANCH  73  75
HETATM   75  O3  UNL     1      -9.447   3.686  -0.814  1.00  0.00    -0.324 OA
BRANCH  75  76
HETATM   76  C30 UNL     1      -8.455   3.955  -1.785  1.00  0.00     0.270 C 
HETATM   77  O4  UNL     1      -8.268   2.783  -2.568  1.00  0.00    -0.326 OA
HETATM   78  C31 UNL     1      -7.258   2.881  -3.564  1.00  0.00     0.184 C 
HETATM   79  C32 UNL     1      -7.639   3.990  -4.572  1.00  0.00     0.215 C 
HETATM   80  C33 UNL     1      -7.895   5.336  -3.856  1.00  0.00     0.220 C 
HETATM   81  O7  UNL     1      -6.584   4.137  -5.506  1.00  0.00    -0.218 OA
HETATM   82  C34 UNL     1      -8.891   5.133  -2.693  1.00  0.00     0.241 C 
HETATM   83  O6  UNL     1      -8.414   6.279  -4.777  1.00  0.00    -0.218 OA
HETATM   84  O5  UNL     1      -8.957   6.320  -1.920  1.00  0.00    -0.215 OA
BRANCH  78  85
HETATM   85  C35 UNL     1      -7.143   1.500  -4.215  1.00  0.00     0.214 C 
HETATM   86  O8  UNL     1      -6.613   0.605  -3.260  1.00  0.00    -0.218 OA
ENDBRANCH  78  85
ENDBRANCH  75  76
ENDBRANCH  73  75
ENDBRANCH  66  67
ENDBRANCH  19  66
TORSDOF 14
