REMARK  4 active torsions:
REMARK  status: ('A' for Active; 'I' for Inactive)
REMARK    1  A    between atoms: C8_11  and  C10_14 
REMARK    2  A    between atoms: C11_15  and  O6_26 
REMARK    3  A    between atoms: C12_16  and  C16_21 
REMARK    4  A    between atoms: C16_21  and  C17_22 
ROOT
HETATM    1  C10 UNL     1      -1.496   1.721   0.010  1.00  0.00     0.009 A 
HETATM    2  C11 UNL     1      -1.367   0.330  -0.176  1.00  0.00     0.089 A 
HETATM    3  C12 UNL     1      -1.764  -0.250  -1.399  1.00  0.00     0.029 A 
HETATM    4  C13 UNL     1      -2.285   0.555  -2.430  1.00  0.00     0.129 A 
HETATM    5  C14 UNL     1      -2.410   1.939  -2.236  1.00  0.00     0.027 A 
HETATM    6  C15 UNL     1      -2.016   2.523  -1.022  1.00  0.00     0.000 A 
HETATM    7  O5  UNL     1      -2.656   0.018  -3.574  1.00  0.00    -0.190 OA
ENDROOT
BRANCH   1   8
HETATM    8  C8  UNL     1      -1.082   2.348   1.293  1.00  0.00     0.116 C 
HETATM    9  C7  UNL     1      -0.752   1.287   2.361  1.00  0.00     0.161 C 
HETATM   10  O3  UNL     1       0.492   0.637   2.074  1.00  0.00    -0.330 OA
HETATM   11  C2  UNL     1       1.576   1.363   1.730  1.00  0.00     0.101 A 
HETATM   12  C1  UNL     1       1.449   2.703   1.266  1.00  0.00     0.083 A 
HETATM   13  C3  UNL     1       2.858   0.775   1.834  1.00  0.00     0.052 A 
HETATM   14  C6  UNL     1       2.611   3.463   0.969  1.00  0.00     0.138 A 
HETATM   15  C9  UNL     1       0.088   3.291   1.086  1.00  0.00     0.183 C 
HETATM   16  C5  UNL     1       3.891   2.871   1.096  1.00  0.00     0.055 A 
HETATM   17  O1  UNL     1       2.518   4.736   0.559  1.00  0.00    -0.190 OA
HETATM   18  C4  UNL     1       4.014   1.527   1.518  1.00  0.00     0.135 A 
HETATM   19  O2  UNL     1       5.227   0.967   1.623  1.00  0.00    -0.190 OA
HETATM   20  O4  UNL     1      -0.170   4.436   0.791  1.00  0.00    -0.291 OA
ENDBRANCH   1   8
BRANCH   2  21
HETATM   21  O6  UNL     1      -0.879  -0.424   0.789  1.00  0.00    -0.329 OA
HETATM   22  C21 UNL     1      -1.695  -1.471   1.295  1.00  0.00     0.181 C 
ENDBRANCH   2  21
BRANCH   3  23
HETATM   23  C16 UNL     1      -1.629  -1.721  -1.598  1.00  0.00     0.056 C 
BRANCH  23  24
HETATM   24  C17 UNL     1      -0.230  -2.205  -1.324  1.00  0.00    -0.030 C 
HETATM   25  C18 UNL     1      -0.010  -3.527  -1.272  1.00  0.00    -0.048 C 
HETATM   26  C19 UNL     1       1.316  -4.176  -0.981  1.00  0.00     0.026 C 
HETATM   27  C20 UNL     1      -1.166  -4.459  -1.524  1.00  0.00     0.026 C 
ENDBRANCH  23  24
ENDBRANCH   3  23
TORSDOF 4
