REMARK  4 active torsions:
REMARK  status: ('A' for Active; 'I' for Inactive)
REMARK    1  A    between atoms: C1_1  and  C10_14 
REMARK    2  A    between atoms: C13_17  and  O5_20 
REMARK    3  A    between atoms: O5_20  and  C16_21 
REMARK    4  A    between atoms: C17_23  and  C21_30 
ROOT
HETATM    1  C10 UNL     1       0.684   1.662  -0.789  1.00  0.00     0.005 A 
HETATM    2  C11 UNL     1      -0.424   2.154  -1.502  1.00  0.00     0.002 A 
HETATM    3  C12 UNL     1      -1.645   1.461  -1.473  1.00  0.00     0.024 A 
HETATM    4  C13 UNL     1      -1.768   0.273  -0.731  1.00  0.00     0.097 A 
HETATM    5  C14 UNL     1      -0.660  -0.219  -0.018  1.00  0.00     0.024 A 
HETATM    6  C15 UNL     1       0.564   0.473  -0.045  1.00  0.00     0.002 A 
ENDROOT
BRANCH   1   7
HETATM    7  C1  UNL     1       1.982   2.396  -0.820  1.00  0.00     0.064 A 
HETATM    8  C2  UNL     1       1.982   3.750  -0.816  1.00  0.00     0.126 A 
HETATM    9  O1  UNL     1       3.121   4.471  -0.846  1.00  0.00    -0.305 OA
HETATM   10  C3  UNL     1       4.350   3.910  -0.875  1.00  0.00     0.107 A 
HETATM   11  C4  UNL     1       4.496   2.498  -0.879  1.00  0.00     0.087 A 
HETATM   12  C9  UNL     1       5.498   4.736  -0.904  1.00  0.00     0.052 A 
HETATM   13  C5  UNL     1       3.268   1.650  -0.854  1.00  0.00     0.201 A 
HETATM   14  C6  UNL     1       5.789   1.914  -0.906  1.00  0.00     0.138 A 
HETATM   15  O2  UNL     1       3.223   0.441  -0.856  1.00  0.00    -0.286 OA
HETATM   16  C7  UNL     1       6.932   2.748  -0.932  1.00  0.00     0.055 A 
HETATM   17  O4  UNL     1       5.947   0.582  -0.906  1.00  0.00    -0.190 OA
HETATM   18  C8  UNL     1       6.789   4.154  -0.932  1.00  0.00     0.135 A 
HETATM   19  O3  UNL     1       7.875   4.939  -0.959  1.00  0.00    -0.190 OA
ENDBRANCH   1   7
BRANCH   4  20
HETATM   20  O5  UNL     1      -2.914  -0.375  -0.703  1.00  0.00    -0.304 OA
BRANCH  20  21
HETATM   21  C16 UNL     1      -3.158  -1.252   0.389  1.00  0.00     0.274 C 
HETATM   22  O6  UNL     1      -2.592  -2.522   0.092  1.00  0.00    -0.326 OA
HETATM   23  C17 UNL     1      -2.721  -3.492   1.123  1.00  0.00     0.184 C 
HETATM   24  C18 UNL     1      -4.219  -3.760   1.395  1.00  0.00     0.215 C 
HETATM   25  C19 UNL     1      -4.977  -2.451   1.711  1.00  0.00     0.220 C 
HETATM   26  O9  UNL     1      -4.330  -4.654   2.486  1.00  0.00    -0.218 OA
HETATM   27  C20 UNL     1      -4.678  -1.400   0.619  1.00  0.00     0.241 C 
HETATM   28  O8  UNL     1      -6.373  -2.703   1.764  1.00  0.00    -0.218 OA
HETATM   29  O7  UNL     1      -5.201  -0.141   1.002  1.00  0.00    -0.215 OA
BRANCH  23  30
HETATM   30  C21 UNL     1      -1.965  -4.738   0.654  1.00  0.00     0.214 C 
HETATM   31  O10 UNL     1      -0.582  -4.477   0.746  1.00  0.00    -0.218 OA
ENDBRANCH  23  30
ENDBRANCH  20  21
ENDBRANCH   4  20
TORSDOF 4
