REMARK  1 active torsions:
REMARK  status: ('A' for Active; 'I' for Inactive)
REMARK    1  A    between atoms: C3_3  and  C6_9 
ROOT
HETATM    1  C1  UNL     1      -0.269   1.570   0.119  1.00  0.00     0.220 C 
HETATM    2  C2  UNL     1      -1.025   0.242  -0.115  1.00  0.00     0.241 C 
HETATM    3  C3  UNL     1      -0.230  -0.986   0.412  1.00  0.00     0.281 C 
HETATM    4  O1  UNL     1       1.078  -0.979  -0.154  1.00  0.00    -0.326 OA
HETATM    5  C4  UNL     1       1.865   0.180   0.113  1.00  0.00     0.181 C 
HETATM    6  C5  UNL     1       1.166   1.439  -0.433  1.00  0.00     0.215 C 
HETATM    7  O2  UNL     1       1.938   2.568  -0.072  1.00  0.00    -0.218 OA
HETATM    8  O3  UNL     1      -0.164  -0.990   1.830  1.00  0.00    -0.190 OA
HETATM    9  O5  UNL     1      -2.314   0.295   0.477  1.00  0.00    -0.215 OA
HETATM   10  O6  UNL     1      -0.939   2.633  -0.539  1.00  0.00    -0.218 OA
ENDROOT
BRANCH   3  11
HETATM   11  C6  UNL     1      -0.873  -2.315   0.000  1.00  0.00     0.244 C 
HETATM   12  O4  UNL     1      -0.980  -2.336  -1.404  1.00  0.00    -0.215 OA
ENDBRANCH   3  11
TORSDOF 1
