REMARK  9 active torsions:
REMARK  status: ('A' for Active; 'I' for Inactive)
REMARK    1  A    between atoms: C1_1  and  O3_33 
REMARK    2  A    between atoms: C3_3  and  C29_30 
REMARK    3  A    between atoms: O3_33  and  C31_34 
REMARK    4  A    between atoms: C32_36  and  C48_63 
REMARK    5  A    between atoms: C35_39  and  O5_40 
REMARK    6  A    between atoms: O5_40  and  C36_41 
REMARK    7  A    between atoms: C37_43  and  C47_59 
REMARK    8  A    between atoms: C40_46  and  O7_47 
REMARK    9  A    between atoms: O7_47  and  C41_48 
ROOT
HETATM    1  O3  UNL     1       2.260  -0.914   1.246  1.00  0.00    -0.332 OA
ENDROOT
BRANCH   1   2
HETATM    2  C1  UNL     1       1.732   0.397   1.289  1.00  0.00     0.118 C 
HETATM    3  C2  UNL     1       2.100   1.129  -0.014  1.00  0.00     0.032 C 
HETATM    4  C3  UNL     1       1.467   2.535  -0.107  1.00  0.00     0.033 C 
HETATM    5  C4  UNL     1      -0.066   2.445   0.148  1.00  0.00     0.003 C 
HETATM    6  C30 UNL     1       2.150   3.479   0.889  1.00  0.00     0.003 C 
HETATM    7  C5  UNL     1      -0.439   1.729   1.480  1.00  0.00     0.003 C 
HETATM    8  C10 UNL     1      -0.787   3.801   0.014  1.00  0.00     0.000 C 
HETATM    9  C6  UNL     1       0.207   0.322   1.475  1.00  0.00     0.030 C 
HETATM   10  C7  UNL     1      -1.998   1.652   1.645  1.00  0.00     0.005 C 
HETATM   11  C28 UNL     1       0.147   2.477   2.689  1.00  0.00     0.000 C 
HETATM   12  C8  UNL     1      -2.697   3.043   1.564  1.00  0.00     0.004 C 
HETATM   13  C14 UNL     1      -2.639   0.680   0.627  1.00  0.00     0.025 C 
HETATM   14  C9  UNL     1      -2.311   3.690   0.211  1.00  0.00     0.000 C 
HETATM   15  C11 UNL     1      -4.252   2.891   1.787  1.00  0.00     0.015 C 
HETATM   16  C27 UNL     1      -2.174   3.994   2.660  1.00  0.00     0.000 C 
HETATM   17  C12 UNL     1      -4.891   1.660   1.146  1.00  0.00    -0.049 C 
HETATM   18  C18 UNL     1      -5.002   4.160   1.307  1.00  0.00     0.004 C 
HETATM   19  C26 UNL     1      -4.525   2.697   3.289  1.00  0.00     0.004 C 
HETATM   20  C13 UNL     1      -4.143   0.680   0.600  1.00  0.00    -0.035 C 
HETATM   21  C15 UNL     1      -6.418   1.574   1.189  1.00  0.00     0.020 C 
HETATM   22  C16 UNL     1      -7.098   2.859   0.650  1.00  0.00     0.032 C 
HETATM   23  C22 UNL     1      -7.041   0.301   0.562  1.00  0.00     0.004 C 
HETATM   24  C17 UNL     1      -6.529   4.068   1.424  1.00  0.00     0.003 C 
HETATM   25  C19 UNL     1      -8.631   2.754   0.873  1.00  0.00     0.152 C 
HETATM   26  C25 UNL     1      -6.787   3.010  -0.850  1.00  0.00     0.003 C 
HETATM   27  C20 UNL     1      -9.238   1.484   0.244  1.00  0.00     0.033 C 
HETATM   28  O1  UNL     1      -9.295   3.883   0.336  1.00  0.00    -0.224 OA
HETATM   29  C21 UNL     1      -8.565   0.203   0.764  1.00  0.00     0.003 C 
HETATM   30  C23 UNL     1      -8.889   0.008   2.252  1.00  0.00     0.000 C 
HETATM   31  C24 UNL     1      -9.108  -1.006  -0.004  1.00  0.00     0.000 C 
BRANCH   4  32
HETATM   32  C29 UNL     1       1.731   3.086  -1.514  1.00  0.00     0.182 C 
HETATM   33  O2  UNL     1       3.111   2.981  -1.777  1.00  0.00    -0.221 OA
ENDBRANCH   4  32
ENDBRANCH   1   2
BRANCH   1  34
HETATM   34  C31 UNL     1       3.649  -0.967   1.506  1.00  0.00     0.267 C 
HETATM   35  O4  UNL     1       3.854  -0.758   2.897  1.00  0.00    -0.318 OA
HETATM   36  C32 UNL     1       5.213  -0.727   3.309  1.00  0.00     0.237 C 
HETATM   37  C33 UNL     1       5.873  -2.092   2.996  1.00  0.00     0.223 C 
HETATM   38  C34 UNL     1       5.711  -2.467   1.506  1.00  0.00     0.217 C 
HETATM   39  O15 UNL     1       7.252  -2.021   3.320  1.00  0.00    -0.217 OA
HETATM   40  C35 UNL     1       4.229  -2.342   1.088  1.00  0.00     0.207 C 
HETATM   41  O14 UNL     1       6.160  -3.795   1.291  1.00  0.00    -0.218 OA
BRANCH  36  42
HETATM   42  C48 UNL     1       5.240  -0.377   4.775  1.00  0.00     0.217 C 
HETATM   43  O16 UNL     1       5.453  -1.223   5.613  1.00  0.00    -0.646 OA
HETATM   44  O17 UNL     1       5.016   0.904   5.055  1.00  0.00    -0.646 OA
ENDBRANCH  36  42
BRANCH  40  45
HETATM   45  O5  UNL     1       4.123  -2.486  -0.320  1.00  0.00    -0.324 OA
BRANCH  45  46
HETATM   46  C36 UNL     1       3.787  -3.801  -0.721  1.00  0.00     0.267 C 
HETATM   47  O6  UNL     1       2.434  -4.045  -0.367  1.00  0.00    -0.326 OA
HETATM   48  C37 UNL     1       1.961  -5.354  -0.664  1.00  0.00     0.184 C 
HETATM   49  C38 UNL     1       2.033  -5.590  -2.190  1.00  0.00     0.215 C 
HETATM   50  C39 UNL     1       3.461  -5.342  -2.729  1.00  0.00     0.217 C 
HETATM   51  O12 UNL     1       1.643  -6.924  -2.461  1.00  0.00    -0.218 OA
HETATM   52  C40 UNL     1       3.973  -3.965  -2.252  1.00  0.00     0.207 C 
HETATM   53  O11 UNL     1       3.455  -5.391  -4.147  1.00  0.00    -0.218 OA
BRANCH  48  54
HETATM   54  C47 UNL     1       0.533  -5.443  -0.113  1.00  0.00     0.214 C 
HETATM   55  O13 UNL     1       0.602  -5.408   1.295  1.00  0.00    -0.218 OA
ENDBRANCH  48  54
BRANCH  52  56
HETATM   56  O7  UNL     1       5.348  -3.838  -2.574  1.00  0.00    -0.324 OA
BRANCH  56  57
HETATM   57  C41 UNL     1       5.574  -3.143  -3.785  1.00  0.00     0.267 C 
HETATM   58  O8  UNL     1       5.276  -1.768  -3.582  1.00  0.00    -0.329 OA
HETATM   59  C42 UNL     1       5.424  -0.941  -4.731  1.00  0.00     0.148 C 
HETATM   60  C43 UNL     1       6.893  -0.996  -5.211  1.00  0.00     0.182 C 
HETATM   61  C46 UNL     1       4.979   0.469  -4.326  1.00  0.00     0.035 C 
HETATM   62  C44 UNL     1       7.346  -2.439  -5.471  1.00  0.00     0.074 C 
HETATM   63  O10 UNL     1       7.029  -0.248  -6.404  1.00  0.00    -0.221 OA
HETATM   64  C45 UNL     1       7.051  -3.299  -4.231  1.00  0.00     0.211 C 
HETATM   65  O9  UNL     1       7.330  -4.650  -4.545  1.00  0.00    -0.218 OA
ENDBRANCH  56  57
ENDBRANCH  52  56
ENDBRANCH  45  46
ENDBRANCH  40  45
ENDBRANCH   1  34
TORSDOF 9
