REMARK  2 active torsions:
REMARK  status: ('A' for Active; 'I' for Inactive)
REMARK    1  A    between atoms: O1_2  and  C2_3 
REMARK    2  A    between atoms: C3_4  and  O2_5 
ROOT
HETATM    1  C2  UNL     1       3.469  -0.057   0.238  1.00  0.00     0.118 A 
HETATM    2  C3  UNL     1       2.869   1.205   0.018  1.00  0.00     0.116 A 
HETATM    3  C5  UNL     1       1.508   1.283  -0.359  1.00  0.00     0.026 A 
HETATM    4  C6  UNL     1       0.740   0.102  -0.512  1.00  0.00     0.030 A 
HETATM    5  C7  UNL     1       1.334  -1.164  -0.250  1.00  0.00     0.094 A 
HETATM    6  C8  UNL     1       2.701  -1.238   0.104  1.00  0.00     0.050 A 
HETATM    7  O3  UNL     1       0.615  -2.301  -0.336  1.00  0.00    -0.331 OA
HETATM    8  C9  UNL     1      -0.803  -2.260  -0.174  1.00  0.00     0.156 C 
HETATM    9  C10 UNL     1      -1.436  -1.178  -1.064  1.00  0.00     0.086 C 
HETATM   10  C11 UNL     1      -0.670   0.186  -0.967  1.00  0.00     0.152 C 
HETATM   11  O4  UNL     1      -1.469   1.029  -0.119  1.00  0.00    -0.329 OA
HETATM   12  C12 UNL     1      -2.689   0.514   0.025  1.00  0.00     0.093 A 
HETATM   13  C13 UNL     1      -2.791  -0.773  -0.527  1.00  0.00     0.005 A 
HETATM   14  C14 UNL     1      -4.025  -1.469  -0.504  1.00  0.00    -0.000 A 
HETATM   15  C15 UNL     1      -5.166  -0.896   0.096  1.00  0.00     0.027 A 
HETATM   16  C16 UNL     1      -5.072   0.383   0.678  1.00  0.00     0.133 A 
HETATM   17  C17 UNL     1      -3.842   1.072   0.641  1.00  0.00     0.051 A 
HETATM   18  O5  UNL     1      -6.143   0.940   1.260  1.00  0.00    -0.190 OA
ENDROOT
BRANCH   1  19
HETATM   19  O1  UNL     1       4.762  -0.139   0.578  1.00  0.00    -0.326 OA
HETATM   20  C1  UNL     1       5.309  -1.424   0.832  1.00  0.00     0.181 C 
ENDBRANCH   1  19
BRANCH   2  21
HETATM   21  O2  UNL     1       3.588   2.326   0.158  1.00  0.00    -0.326 OA
HETATM   22  C4  UNL     1       2.936   3.568  -0.066  1.00  0.00     0.181 C 
ENDBRANCH   2  21
TORSDOF 2
