REMARK  0 active torsions:
REMARK  status: ('A' for Active; 'I' for Inactive)
ROOT
HETATM    1  C1  UNL     1       0.964   0.967  -0.196  1.00  0.00     0.101 A 
HETATM    2  C2  UNL     1      -0.437   0.999  -0.252  1.00  0.00     0.045 A 
HETATM    3  C3  UNL     1      -1.156  -0.212  -0.270  1.00  0.00     0.098 A 
HETATM    4  C4  UNL     1      -0.482  -1.444  -0.253  1.00  0.00     0.045 A 
HETATM    5  C5  UNL     1       0.923  -1.457  -0.209  1.00  0.00     0.106 A 
HETATM    6  C6  UNL     1       1.654  -0.257  -0.181  1.00  0.00     0.084 A 
HETATM    7  C7  UNL     1       3.160  -0.282  -0.138  1.00  0.00     0.201 A 
HETATM    8  C8  UNL     1       3.720  -1.666  -0.122  1.00  0.00     0.062 A 
HETATM    9  C9  UNL     1       2.920  -2.735  -0.150  1.00  0.00     0.081 A 
HETATM   10  O1  UNL     1       1.549  -2.690  -0.195  1.00  0.00    -0.311 OA
HETATM   11  C10 UNL     1       3.568  -4.084  -0.132  1.00  0.00     0.058 C 
HETATM   12  O2  UNL     1       3.843   0.714  -0.119  1.00  0.00    -0.286 OA
HETATM   13  C11 UNL     1      -1.260  -2.681  -0.309  1.00  0.00     0.002 C 
HETATM   14  C12 UNL     1      -2.588  -2.598  -0.195  1.00  0.00     0.001 C 
HETATM   15  C13 UNL     1      -3.291  -1.291  -0.028  1.00  0.00     0.117 C 
HETATM   16  O3  UNL     1      -2.526  -0.125  -0.350  1.00  0.00    -0.332 OA
HETATM   17  C14 UNL     1      -4.521  -1.305  -0.926  1.00  0.00     0.035 C 
HETATM   18  C15 UNL     1      -3.608  -1.179   1.458  1.00  0.00     0.035 C 
HETATM   19  C16 UNL     1      -1.113   2.294  -0.307  1.00  0.00     0.002 C 
HETATM   20  C17 UNL     1      -0.379   3.399  -0.161  1.00  0.00     0.001 C 
HETATM   21  C18 UNL     1       1.100   3.357   0.047  1.00  0.00     0.117 C 
HETATM   22  O4  UNL     1       1.739   2.098  -0.192  1.00  0.00    -0.331 OA
HETATM   23  C19 UNL     1       1.728   4.381  -0.889  1.00  0.00     0.035 C 
HETATM   24  C20 UNL     1       1.310   3.645   1.528  1.00  0.00     0.035 C 
ENDROOT
TORSDOF 0
