REMARK  2 active torsions:
REMARK  status: ('A' for Active; 'I' for Inactive)
REMARK    1  A    between atoms: C11_14  and  O5_20 
REMARK    2  A    between atoms: O5_20  and  C15_21 
ROOT
HETATM    1  C1  UNL     1       0.117  -2.811  -0.307  1.00  0.00     0.249 C 
HETATM    2  C2  UNL     1      -1.170  -2.170  -0.707  1.00  0.00     0.158 C 
HETATM    3  C3  UNL     1      -1.997  -3.482  -0.543  1.00  0.00     0.068 C 
HETATM    4  C4  UNL     1      -1.409  -4.121   0.788  1.00  0.00     0.253 C 
HETATM    5  N1  UNL     1      -0.130  -3.372   0.930  1.00  0.00     0.138 N 
HETATM    6  C5  UNL     1       1.156  -4.074   1.220  1.00  0.00     0.250 C 
HETATM    7  C6  UNL     1       2.096  -2.915   0.817  1.00  0.00     0.040 C 
HETATM    8  C7  UNL     1       1.437  -2.135  -0.056  1.00  0.00     0.066 C 
HETATM    9  C8  UNL     1       1.972  -0.793  -0.551  1.00  0.00     0.154 C 
HETATM   10  O1  UNL     1       1.104   0.246  -0.128  1.00  0.00    -0.300 OA
HETATM   11  C9  UNL     1       1.444   1.574  -0.217  1.00  0.00     0.302 C 
HETATM   12  O2  UNL     1       2.582   1.865  -0.585  1.00  0.00    -0.261 OA
HETATM   13  C10 UNL     1       0.516   2.718   0.317  1.00  0.00     0.227 C 
HETATM   14  C11 UNL     1      -1.101   2.706  -0.124  1.00  0.00     0.144 C 
HETATM   15  C12 UNL     1      -1.877   1.366   0.380  1.00  0.00     0.115 C 
HETATM   16  C13 UNL     1      -1.452   0.099  -0.353  1.00  0.00     0.274 C 
HETATM   17  O3  UNL     1      -1.540  -1.154   0.207  1.00  0.00    -0.302 OA
HETATM   18  O4  UNL     1      -0.987   0.176  -1.466  1.00  0.00    -0.264 OA
HETATM   19  C14 UNL     1      -3.360   1.541   0.016  1.00  0.00     0.013 C 
HETATM   20  C17 UNL     1      -1.273   2.859  -1.664  1.00  0.00     0.034 C 
HETATM   21  O7  UNL     1       0.510   2.622   1.739  1.00  0.00    -0.213 OA
HETATM   22  C18 UNL     1       1.261   4.016  -0.069  1.00  0.00     0.046 C 
ENDROOT
BRANCH  14  23
HETATM   23  O5  UNL     1      -1.892   3.794   0.540  1.00  0.00    -0.303 OA
BRANCH  23  24
HETATM   24  C15 UNL     1      -1.782   5.172   0.099  1.00  0.00     0.272 C 
HETATM   25  C16 UNL     1      -2.631   6.206   0.773  1.00  0.00     0.106 C 
HETATM   26  O6  UNL     1      -1.071   5.528  -0.847  1.00  0.00    -0.264 OA
ENDBRANCH  23  24
ENDBRANCH  14  23
TORSDOF 2
