REMARK  12 active torsions:
REMARK  status: ('A' for Active; 'I' for Inactive)
REMARK    1  A    between atoms: C4_4  and  O8_38 
REMARK    2  A    between atoms: C7_7  and  O3_13 
REMARK    3  A    between atoms: C8_8  and  O1_9 
REMARK    4  A    between atoms: O1_9  and  C9_10 
REMARK    5  A    between atoms: O3_13  and  C11_14 
REMARK    6  A    between atoms: C15_19  and  O5_22 
REMARK    7  A    between atoms: O5_22  and  C18_23 
REMARK    8  A    between atoms: C18_23  and  C19_24 
REMARK    9  A    between atoms: C19_24  and  C20_25 
REMARK   10  A    between atoms: C20_25  and  C21_26 
REMARK   11  A    between atoms: C20_25  and  N1_32 
REMARK   12  A    between atoms: O8_38  and  C30_39 
ROOT
HETATM    1  C1  UNL     1       1.508   1.085   0.035  1.00  0.00     0.040 C 
HETATM    2  C2  UNL     1       2.621   2.133  -0.356  1.00  0.00     0.006 C 
HETATM    3  C3  UNL     1       1.679   3.329  -0.460  1.00  0.00     0.036 C 
HETATM    4  C4  UNL     1       0.963   3.168   0.898  1.00  0.00     0.128 C 
HETATM    5  C5  UNL     1       0.453   1.701   1.047  1.00  0.00     0.048 C 
HETATM    6  C6  UNL     1       0.809   1.053   2.451  1.00  0.00     0.034 C 
HETATM    7  C7  UNL     1       2.203   0.430   2.254  1.00  0.00     0.152 C 
HETATM    8  C8  UNL     1       2.118  -0.088   0.818  1.00  0.00     0.152 C 
HETATM    9  C13 UNL     1      -0.076  -0.110   2.960  1.00  0.00     0.006 C 
HETATM   10  C14 UNL     1      -1.551   0.198   2.794  1.00  0.00     0.035 C 
HETATM   11  C15 UNL     1      -1.847   0.375   1.315  1.00  0.00     0.143 C 
HETATM   12  C16 UNL     1      -1.063   1.533   0.723  1.00  0.00    -0.015 C 
HETATM   13  C17 UNL     1      -1.784   2.369  -0.058  1.00  0.00    -0.007 C 
HETATM   14  C29 UNL     1       0.874   2.105   3.562  1.00  0.00     0.003 C 
HETATM   15  C32 UNL     1       0.883   3.215  -1.778  1.00  0.00     0.067 C 
HETATM   16  C33 UNL     1       0.333   1.835  -2.100  1.00  0.00     0.150 C 
HETATM   17  C34 UNL     1       0.811   0.646  -1.284  1.00  0.00     0.060 C 
HETATM   18  C35 UNL     1       1.671  -0.291  -2.142  1.00  0.00     0.008 C 
HETATM   19  O10 UNL     1      -0.478   1.690  -2.985  1.00  0.00    -0.296 OA
HETATM   20  C36 UNL     1       3.718   2.497   0.649  1.00  0.00     0.000 C 
HETATM   21  C37 UNL     1       3.380   1.873  -1.662  1.00  0.00     0.000 C 
ENDROOT
BRANCH  11  22
HETATM   22  O5  UNL     1      -1.543  -0.824   0.616  1.00  0.00    -0.298 OA
BRANCH  22  23
HETATM   23  C18 UNL     1      -2.364  -1.034  -0.410  1.00  0.00     0.305 C 
HETATM   24  O7  UNL     1      -3.037  -0.170  -0.921  1.00  0.00    -0.261 OA
BRANCH  23  25
HETATM   25  C19 UNL     1      -2.408  -2.451  -0.915  1.00  0.00     0.273 C 
HETATM   26  O6  UNL     1      -1.109  -2.862  -1.276  1.00  0.00    -0.210 OA
BRANCH  25  27
HETATM   27  C20 UNL     1      -3.316  -2.607  -2.136  1.00  0.00     0.281 C 
BRANCH  27  28
HETATM   28  C21 UNL     1      -4.012  -3.920  -2.136  1.00  0.00     0.012 A 
HETATM   29  C22 UNL     1      -5.417  -3.972  -2.136  1.00  0.00    -0.002 A 
HETATM   30  C23 UNL     1      -6.075  -5.215  -2.136  1.00  0.00    -0.000 A 
HETATM   31  C24 UNL     1      -5.329  -6.405  -2.136  1.00  0.00    -0.000 A 
HETATM   32  C25 UNL     1      -3.924  -6.354  -2.136  1.00  0.00    -0.000 A 
HETATM   33  C26 UNL     1      -3.266  -5.113  -2.136  1.00  0.00    -0.002 A 
ENDBRANCH  27  28
BRANCH  27  34
HETATM   34  N1  UNL     1      -2.561  -2.401  -3.360  1.00  0.00     0.146 N 
HETATM   35  C27 UNL     1      -3.352  -2.789  -4.516  1.00  0.00     0.286 C 
HETATM   36  C28 UNL     1      -2.142  -1.015  -3.473  1.00  0.00     0.286 C 
ENDBRANCH  27  34
ENDBRANCH  25  27
ENDBRANCH  23  25
ENDBRANCH  22  23
ENDBRANCH  11  22
BRANCH   4  37
HETATM   37  O8  UNL     1      -0.047   4.151   1.079  1.00  0.00    -0.304 OA
BRANCH  37  38
HETATM   38  C30 UNL     1       0.455   5.376   1.203  1.00  0.00     0.272 C 
HETATM   39  C31 UNL     1      -0.557   6.490   1.170  1.00  0.00     0.106 C 
HETATM   40  O9  UNL     1       1.634   5.611   1.334  1.00  0.00    -0.264 OA
ENDBRANCH  37  38
ENDBRANCH   4  37
BRANCH   7  41
HETATM   41  O3  UNL     1       2.481  -0.638   3.155  1.00  0.00    -0.302 OA
BRANCH  41  42
HETATM   42  C11 UNL     1       2.853  -0.203   4.356  1.00  0.00     0.272 C 
HETATM   43  C12 UNL     1       2.827  -1.238   5.448  1.00  0.00     0.106 C 
HETATM   44  O4  UNL     1       3.192   0.935   4.584  1.00  0.00    -0.264 OA
ENDBRANCH  41  42
ENDBRANCH   7  41
BRANCH   8  45
HETATM   45  O1  UNL     1       3.406  -0.444   0.333  1.00  0.00    -0.302 OA
BRANCH  45  46
HETATM   46  C9  UNL     1       3.810  -1.626   0.789  1.00  0.00     0.272 C 
HETATM   47  C10 UNL     1       5.255  -1.955   0.525  1.00  0.00     0.106 C 
HETATM   48  O2  UNL     1       3.093  -2.402   1.377  1.00  0.00    -0.264 OA
ENDBRANCH  45  46
ENDBRANCH   8  45
TORSDOF 12
