REMARK  3 active torsions:
REMARK  status: ('A' for Active; 'I' for Inactive)
REMARK    1  A    between atoms: C2_2  and  O7_23 
REMARK    2  A    between atoms: C7_8  and  C10_13 
REMARK    3  A    between atoms: C14_17  and  O4_19 
ROOT
HETATM    1  C1  UNL     1      -3.891  -0.373   0.582  1.00  0.00     0.157 A 
HETATM    2  C2  UNL     1      -3.736  -1.678   1.111  1.00  0.00     0.145 A 
HETATM    3  C3  UNL     1      -2.443  -2.219   1.307  1.00  0.00     0.160 A 
HETATM    4  C4  UNL     1      -1.303  -1.447   0.969  1.00  0.00     0.091 A 
HETATM    5  C5  UNL     1      -1.455  -0.139   0.440  1.00  0.00     0.107 A 
HETATM    6  C6  UNL     1      -2.750   0.395   0.246  1.00  0.00     0.054 A 
HETATM    7  O1  UNL     1      -0.367   0.596   0.119  1.00  0.00    -0.305 OA
HETATM    8  C7  UNL     1       0.902   0.162   0.272  1.00  0.00     0.128 A 
HETATM    9  C8  UNL     1       1.180  -1.070   0.768  1.00  0.00     0.192 A 
HETATM   10  C9  UNL     1       0.074  -1.978   1.158  1.00  0.00     0.227 A 
HETATM   11  O2  UNL     1       0.383  -3.066   1.592  1.00  0.00    -0.284 OA
HETATM   12  O3  UNL     1       2.438  -1.488   0.914  1.00  0.00    -0.185 OA
HETATM   13  O6  UNL     1      -2.312  -3.455   1.811  1.00  0.00    -0.188 OA
HETATM   14  O8  UNL     1      -5.115   0.139   0.398  1.00  0.00    -0.188 OA
ENDROOT
BRANCH   8  15
HETATM   15  C10 UNL     1       2.027   1.068  -0.115  1.00  0.00     0.027 A 
HETATM   16  C11 UNL     1       3.084   1.303   0.781  1.00  0.00     0.004 A 
HETATM   17  C12 UNL     1       4.141   2.154   0.414  1.00  0.00     0.029 A 
HETATM   18  C13 UNL     1       4.145   2.774  -0.850  1.00  0.00     0.153 A 
HETATM   19  C14 UNL     1       3.088   2.537  -1.748  1.00  0.00     0.119 A 
HETATM   20  O5  UNL     1       5.139   3.570  -1.187  1.00  0.00    -0.188 OA
HETATM   21  C15 UNL     1       2.031   1.686  -1.379  1.00  0.00     0.028 A 
BRANCH  19  22
HETATM   22  O4  UNL     1       3.084   3.113  -2.934  1.00  0.00    -0.326 OA
HETATM   23  C16 UNL     1       2.039   2.777  -3.834  1.00  0.00     0.181 C 
ENDBRANCH  19  22
ENDBRANCH   8  15
BRANCH   2  24
HETATM   24  O7  UNL     1      -4.820  -2.400   1.430  1.00  0.00    -0.324 OA
HETATM   25  C17 UNL     1      -4.619  -3.705   1.953  1.00  0.00     0.182 C 
ENDBRANCH   2  24
TORSDOF 3
