REMARK  0 active torsions:
REMARK  status: ('A' for Active; 'I' for Inactive)
ROOT
HETATM    1  C1  UNL     1      -2.665   0.873   1.835  1.00  0.00     0.000 C 
HETATM    2  C2  UNL     1      -2.984  -0.617   1.700  1.00  0.00     0.002 C 
HETATM    3  C3  UNL     1      -1.704  -1.469   1.820  1.00  0.00     0.036 C 
HETATM    4  C4  UNL     1      -0.438  -0.667   1.487  1.00  0.00     0.063 C 
HETATM    5  C5  UNL     1      -0.601   0.391   0.380  1.00  0.00     0.040 C 
HETATM    6  C6  UNL     1      -1.824   1.303   0.628  1.00  0.00     0.002 C 
HETATM    7  C7  UNL     1       0.645   1.409   0.424  1.00  0.00     0.060 C 
HETATM    8  C8  UNL     1       0.735   0.834  -0.916  1.00  0.00     0.017 C 
HETATM    9  C9  UNL     1       1.405  -0.688  -0.263  1.00  0.00     0.064 C 
HETATM   10  C10 UNL     1       0.287  -1.505   0.464  1.00  0.00     0.314 C 
HETATM   11  N1  UNL     1      -0.862  -1.917  -0.399  1.00  0.00     0.159 N 
HETATM   12  C11 UNL     1      -0.906  -0.556  -0.955  1.00  0.00     0.223 C 
HETATM   13  C12 UNL     1      -0.096   0.258  -1.986  1.00  0.00     0.033 C 
HETATM   14  C13 UNL     1       1.400   0.080  -2.587  1.00  0.00     0.013 C 
HETATM   15  C14 UNL     1       2.621   0.807  -1.680  1.00  0.00     0.076 C 
HETATM   16  C15 UNL     1       2.450   2.180  -2.196  1.00  0.00    -0.038 C 
HETATM   17  C16 UNL     1       1.091   2.320  -1.629  1.00  0.00     0.023 C 
HETATM   18  C17 UNL     1       3.228   2.992  -2.914  1.00  0.00    -0.009 C 
HETATM   19  C18 UNL     1       2.271   1.322  -0.092  1.00  0.00     0.154 C 
HETATM   20  O1  UNL     1       3.184   1.692   0.617  1.00  0.00    -0.296 OA
HETATM   21  C19 UNL     1      -1.619  -2.518   0.702  1.00  0.00     0.253 C 
HETATM   22  O2  UNL     1       0.905  -2.648   1.023  1.00  0.00    -0.192 OA
HETATM   23  C20 UNL     1      -1.624  -2.119   3.212  1.00  0.00     0.002 C 
ENDROOT
TORSDOF 0
