REMARK  0 active torsions:
REMARK  status: ('A' for Active; 'I' for Inactive)
ROOT
HETATM    1  C1  UNL     1      -2.943   1.057   0.581  1.00  0.00     0.001 C 
HETATM    2  C2  UNL     1      -3.360  -0.397   0.824  1.00  0.00     0.006 C 
HETATM    3  C3  UNL     1      -2.153  -1.358   0.963  1.00  0.00     0.049 C 
HETATM    4  C4  UNL     1      -0.926  -0.507   1.385  1.00  0.00    -0.007 C 
HETATM    5  C5  UNL     1      -0.539   0.382   0.201  1.00  0.00     0.054 C 
HETATM    6  C6  UNL     1      -1.775   1.092  -0.405  1.00  0.00     0.006 C 
HETATM    7  C7  UNL     1       0.553   1.427   0.535  1.00  0.00     0.064 C 
HETATM    8  C8  UNL     1       1.766   0.491   0.503  1.00  0.00     0.020 C 
HETATM    9  C9  UNL     1       1.598  -0.324   1.838  1.00  0.00     0.069 C 
HETATM   10  C10 UNL     1       0.161  -0.440   2.443  1.00  0.00     0.165 C 
HETATM   11  O1  UNL     1      -0.058  -0.518   3.631  1.00  0.00    -0.292 OA
HETATM   12  C11 UNL     1       3.101   1.257   0.462  1.00  0.00     0.023 C 
HETATM   13  C12 UNL     1       3.176   2.067  -0.808  1.00  0.00    -0.038 C 
HETATM   14  C13 UNL     1       1.848   2.212  -1.510  1.00  0.00     0.076 C 
HETATM   15  C14 UNL     1       0.811   2.557  -0.456  1.00  0.00     0.154 C 
HETATM   16  O2  UNL     1       0.298   3.649  -0.377  1.00  0.00    -0.296 OA
HETATM   17  C15 UNL     1       1.493   0.830  -2.069  1.00  0.00     0.013 C 
HETATM   18  C16 UNL     1       1.508  -0.186  -0.913  1.00  0.00     0.034 C 
HETATM   19  C17 UNL     1       0.125  -0.753  -0.613  1.00  0.00     0.223 C 
HETATM   20  N1  UNL     1      -0.902  -1.391  -1.399  1.00  0.00     0.138 N 
HETATM   21  C18 UNL     1      -1.820  -2.067  -0.438  1.00  0.00     0.254 C 
HETATM   22  C19 UNL     1      -0.374  -2.303  -2.397  1.00  0.00     0.285 C 
HETATM   23  C20 UNL     1       4.320   2.582  -1.278  1.00  0.00    -0.009 C 
HETATM   24  C21 UNL     1      -2.549  -2.437   2.001  1.00  0.00     0.006 C 
ENDROOT
TORSDOF 0
