REMARK  8 active torsions:
REMARK  status: ('A' for Active; 'I' for Inactive)
REMARK    1  A    between atoms: C1_1  and  O8_27 
REMARK    2  A    between atoms: C2_2  and  O7_25 
REMARK    3  A    between atoms: C5_5  and  C7_7 
REMARK    4  A    between atoms: C7_7  and  C8_8 
REMARK    5  A    between atoms: C9_9  and  C10_10 
REMARK    6  A    between atoms: C10_10  and  O1_11 
REMARK    7  A    between atoms: O1_11  and  C11_12 
REMARK    8  A    between atoms: C11_12  and  C12_13 
ROOT
HETATM    1  C8  UNL     1       1.139   0.119  -0.924  1.00  0.00     0.164 A 
HETATM    2  C9  UNL     1       0.271  -1.016  -1.445  1.00  0.00     0.094 A 
HETATM    3  C18 UNL     1       1.078  -1.190  -0.164  1.00  0.00     0.185 A 
HETATM    4  O5  UNL     1       0.281  -1.096   1.008  1.00  0.00    -0.221 OA
HETATM    5  O6  UNL     1       2.348   0.240  -1.660  1.00  0.00    -0.223 OA
ENDROOT
BRANCH   1   6
HETATM    6  C7  UNL     1       0.611   1.469  -0.445  1.00  0.00     0.060 C 
BRANCH   6   7
HETATM    7  C5  UNL     1       1.629   2.203   0.350  1.00  0.00    -0.018 A 
HETATM    8  C4  UNL     1       1.795   1.922   1.717  1.00  0.00    -0.002 A 
HETATM    9  C3  UNL     1       2.758   2.617   2.465  1.00  0.00     0.026 A 
HETATM   10  C2  UNL     1       3.557   3.600   1.854  1.00  0.00     0.116 A 
HETATM   11  C1  UNL     1       3.391   3.883   0.484  1.00  0.00     0.116 A 
HETATM   12  C6  UNL     1       2.428   3.184  -0.264  1.00  0.00     0.022 A 
BRANCH  10  13
HETATM   13  O7  UNL     1       4.459   4.248   2.563  1.00  0.00    -0.326 OA
HETATM   14  C19 UNL     1       4.576   3.934   3.942  1.00  0.00     0.181 C 
ENDBRANCH  10  13
BRANCH  11  15
HETATM   15  O8  UNL     1       4.137   4.801  -0.100  1.00  0.00    -0.326 OA
HETATM   16  C20 UNL     1       4.436   5.980   0.633  1.00  0.00     0.181 C 
ENDBRANCH  11  15
ENDBRANCH   6   7
ENDBRANCH   1   6
BRANCH   2  17
HETATM   17  C10 UNL     1      -1.248  -0.867  -1.436  1.00  0.00     0.157 C 
BRANCH  17  18
HETATM   18  O1  UNL     1      -1.850  -2.154  -1.424  1.00  0.00    -0.298 OA
BRANCH  18  19
HETATM   19  C11 UNL     1      -3.178  -2.092  -1.422  1.00  0.00     0.296 C 
HETATM   20  O4  UNL     1      -3.805  -1.057  -1.420  1.00  0.00    -0.259 OA
BRANCH  19  21
HETATM   21  C12 UNL     1      -3.877  -3.412  -1.422  1.00  0.00     0.065 A 
HETATM   22  C13 UNL     1      -5.281  -3.465  -1.422  1.00  0.00     0.035 A 
HETATM   23  C14 UNL     1      -5.943  -4.707  -1.422  1.00  0.00     0.156 A 
HETATM   24  C15 UNL     1      -5.195  -5.899  -1.422  1.00  0.00     0.156 A 
HETATM   25  O3  UNL     1      -7.260  -4.748  -1.422  1.00  0.00    -0.188 OA
HETATM   26  C16 UNL     1      -3.791  -5.844  -1.422  1.00  0.00     0.030 A 
HETATM   27  O2  UNL     1      -5.809  -7.067  -1.422  1.00  0.00    -0.188 OA
HETATM   28  C17 UNL     1      -3.131  -4.604  -1.422  1.00  0.00     0.008 A 
ENDBRANCH  19  21
ENDBRANCH  18  19
ENDBRANCH  17  18
ENDBRANCH   2  17
TORSDOF 8
