REMARK  0 active torsions:
REMARK  status: ('A' for Active; 'I' for Inactive)
ROOT
HETATM    1  C1  UNL     1      -3.228  -0.531   1.206  1.00  0.00     0.000 C 
HETATM    2  C2  UNL     1      -3.329  -1.920   0.605  1.00  0.00     0.002 C 
HETATM    3  C3  UNL     1      -2.158  -2.071  -0.334  1.00  0.00     0.033 C 
HETATM    4  C4  UNL     1      -0.712  -1.879   0.388  1.00  0.00     0.035 C 
HETATM    5  C5  UNL     1      -0.386  -0.440   0.925  1.00  0.00     0.038 C 
HETATM    6  C6  UNL     1      -1.779  -0.327   1.883  1.00  0.00     0.002 C 
HETATM    7  C7  UNL     1       0.829   0.556  -0.600  1.00  0.00     0.060 C 
HETATM    8  C8  UNL     1       1.798   0.107   0.145  1.00  0.00     0.014 C 
HETATM    9  C9  UNL     1       1.659  -1.449  -0.179  1.00  0.00     0.034 C 
HETATM   10  C10 UNL     1       0.126  -1.811  -0.639  1.00  0.00     0.219 C 
HETATM   11  N1  UNL     1      -0.794  -0.492  -1.136  1.00  0.00     0.133 N 
HETATM   12  C11 UNL     1      -2.148  -1.015  -1.375  1.00  0.00     0.250 C 
HETATM   13  C12 UNL     1      -0.669   0.473   0.314  1.00  0.00     0.220 C 
HETATM   14  C13 UNL     1       0.922   0.912   1.167  1.00  0.00     0.033 C 
HETATM   15  C14 UNL     1       1.377   2.483   1.101  1.00  0.00     0.013 C 
HETATM   16  C15 UNL     1       1.755   2.817  -0.268  1.00  0.00     0.076 C 
HETATM   17  C16 UNL     1       3.052   2.057  -0.589  1.00  0.00    -0.038 C 
HETATM   18  C17 UNL     1       3.211   0.591  -0.166  1.00  0.00     0.023 C 
HETATM   19  C18 UNL     1       3.917   2.584  -1.459  1.00  0.00    -0.009 C 
HETATM   20  C19 UNL     1       0.733   2.125  -0.786  1.00  0.00     0.154 C 
HETATM   21  O1  UNL     1      -0.111   2.655  -1.520  1.00  0.00    -0.296 OA
HETATM   22  C20 UNL     1      -2.302  -3.449  -1.044  1.00  0.00     0.002 C 
ENDROOT
TORSDOF 0
