REMARK  0 active torsions:
REMARK  status: ('A' for Active; 'I' for Inactive)
ROOT
HETATM    1  C1  UNL     1      -2.688   0.039   1.924  1.00  0.00     0.000 C 
HETATM    2  C2  UNL     1      -3.182  -1.331   1.359  1.00  0.00     0.002 C 
HETATM    3  C3  UNL     1      -2.400  -1.823   0.059  1.00  0.00     0.033 C 
HETATM    4  C4  UNL     1      -0.886  -1.777   0.406  1.00  0.00     0.033 C 
HETATM    5  C5  UNL     1      -0.413  -0.371   0.616  1.00  0.00     0.032 C 
HETATM    6  C6  UNL     1      -1.081   0.119   2.033  1.00  0.00     0.002 C 
HETATM    7  C7  UNL     1       1.102   0.242  -0.801  1.00  0.00     0.003 C 
HETATM    8  C8  UNL     1       1.863   0.144   0.124  1.00  0.00     0.010 C 
HETATM    9  C9  UNL     1       1.603  -1.542   0.049  1.00  0.00     0.032 C 
HETATM   10  C10 UNL     1      -0.045  -1.887  -0.623  1.00  0.00     0.192 C 
HETATM   11  N1  UNL     1      -0.785  -0.516  -1.288  1.00  0.00     0.131 N 
HETATM   12  C11 UNL     1      -2.299  -0.948  -1.262  1.00  0.00     0.250 C 
HETATM   13  C12 UNL     1      -0.663   0.539  -0.055  1.00  0.00     0.222 C 
HETATM   14  C13 UNL     1       0.904   1.227   0.787  1.00  0.00     0.062 C 
HETATM   15  C14 UNL     1       1.234   2.736   0.309  1.00  0.00     0.158 C 
HETATM   16  C15 UNL     1       1.815   2.614  -0.998  1.00  0.00     0.049 C 
HETATM   17  C16 UNL     1       3.213   1.929  -0.835  1.00  0.00    -0.042 C 
HETATM   18  C17 UNL     1       3.320   0.556  -0.111  1.00  0.00     0.022 C 
HETATM   19  C18 UNL     1       4.296   2.488  -1.382  1.00  0.00    -0.009 C 
HETATM   20  C19 UNL     1       0.972   1.707  -1.632  1.00  0.00     0.007 C 
HETATM   21  O1  UNL     1       2.222   3.556   0.987  1.00  0.00    -0.223 OA
HETATM   22  C20 UNL     1      -0.044  -3.223  -1.435  1.00  0.00     0.033 C 
HETATM   23  C21 UNL     1      -3.046  -3.202  -0.316  1.00  0.00     0.002 C 
ENDROOT
TORSDOF 0
