REMARK  4 active torsions:
REMARK  status: ('A' for Active; 'I' for Inactive)
REMARK    1  A    between atoms: C15_15  and  C18_18 
REMARK    2  A    between atoms: C18_18  and  C19_19 
REMARK    3  A    between atoms: C20_20  and  C21_21 
REMARK    4  A    between atoms: C21_21  and  C23_23 
ROOT
HETATM    1  C1  UNL     1       6.420  -1.492  -0.297  1.00  0.00     0.033 C 
HETATM    2  C2  UNL     1       6.953  -0.238  -1.008  1.00  0.00     0.152 C 
HETATM    3  C3  UNL     1       6.178   1.021  -0.592  1.00  0.00     0.033 C 
HETATM    4  C4  UNL     1       4.666   0.840  -0.815  1.00  0.00     0.003 C 
HETATM    5  C5  UNL     1       4.104  -0.395  -0.055  1.00  0.00     0.000 C 
HETATM    6  C6  UNL     1       4.902  -1.648  -0.488  1.00  0.00     0.003 C 
HETATM    7  C7  UNL     1       2.594  -0.547  -0.391  1.00  0.00     0.000 C 
HETATM    8  C8  UNL     1       1.809   0.746  -0.051  1.00  0.00     0.000 C 
HETATM    9  C9  UNL     1       2.391   1.965  -0.783  1.00  0.00     0.000 C 
HETATM   10  C10 UNL     1       3.887   2.127  -0.492  1.00  0.00     0.000 C 
HETATM   11  C11 UNL     1       0.340   0.537  -0.449  1.00  0.00     0.000 C 
HETATM   12  C12 UNL     1      -0.287  -0.625   0.332  1.00  0.00     0.000 C 
HETATM   13  C13 UNL     1       0.434  -1.912  -0.080  1.00  0.00     0.000 C 
HETATM   14  C14 UNL     1       1.934  -1.793   0.250  1.00  0.00     0.000 C 
HETATM   15  C15 UNL     1      -1.729  -0.510  -0.176  1.00  0.00     0.004 C 
HETATM   16  C16 UNL     1      -2.004   1.000  -0.127  1.00  0.00     0.000 C 
HETATM   17  C17 UNL     1      -0.633   1.682  -0.170  1.00  0.00     0.000 C 
HETATM   18  C26 UNL     1      -0.244  -0.408   1.853  1.00  0.00     0.000 C 
HETATM   19  C27 UNL     1       4.274  -0.201   1.463  1.00  0.00     0.000 C 
HETATM   20  O1  UNL     1       8.322  -0.072  -0.699  1.00  0.00    -0.224 OA
ENDROOT
BRANCH  15  21
HETATM   21  C18 UNL     1      -2.744  -1.318   0.629  1.00  0.00     0.026 C 
BRANCH  21  22
HETATM   22  C19 UNL     1      -4.113  -1.305   0.008  1.00  0.00    -0.031 C 
HETATM   23  C20 UNL     1      -5.109  -0.686   0.664  1.00  0.00    -0.031 C 
BRANCH  23  24
HETATM   24  C21 UNL     1      -6.481  -0.672   0.041  1.00  0.00     0.022 C 
HETATM   25  C22 UNL     1      -7.522  -1.381   0.908  1.00  0.00     0.005 C 
BRANCH  24  26
HETATM   26  C23 UNL     1      -6.916   0.732  -0.375  1.00  0.00     0.004 C 
HETATM   27  C24 UNL     1      -7.000   1.699   0.807  1.00  0.00     0.000 C 
HETATM   28  C25 UNL     1      -6.088   1.289  -1.533  1.00  0.00     0.000 C 
ENDBRANCH  24  26
ENDBRANCH  23  24
ENDBRANCH  21  22
ENDBRANCH  15  21
TORSDOF 4
