REMARK  1 active torsions:
REMARK  status: ('A' for Active; 'I' for Inactive)
REMARK    1  A    between atoms: C11_11  and  C16_17 
ROOT
HETATM    1  C1  UNL     1      -2.898   1.808   0.268  1.00  0.00     0.033 C 
HETATM    2  C2  UNL     1      -3.479   0.455   0.661  1.00  0.00     0.152 C 
HETATM    3  C3  UNL     1      -2.839  -0.738  -0.078  1.00  0.00     0.029 C 
HETATM    4  C4  UNL     1      -1.289  -0.601   0.017  1.00  0.00     0.006 C 
HETATM    5  C5  UNL     1      -0.639   0.759  -0.367  1.00  0.00     0.019 C 
HETATM    6  C6  UNL     1      -1.374   1.850   0.448  1.00  0.00     0.007 C 
HETATM    7  C7  UNL     1       0.862   0.735  -0.031  1.00  0.00    -0.025 A 
HETATM    8  C8  UNL     1       1.579  -0.456   0.165  1.00  0.00    -0.026 A 
HETATM    9  C9  UNL     1       0.899  -1.804   0.048  1.00  0.00     0.026 C 
HETATM   10  C10 UNL     1      -0.484  -1.749  -0.609  1.00  0.00     0.005 C 
HETATM   11  C11 UNL     1       2.954  -0.411   0.462  1.00  0.00    -0.006 A 
HETATM   12  C12 UNL     1       3.652   0.805   0.517  1.00  0.00     0.003 A 
HETATM   13  C13 UNL     1       2.961   1.997   0.260  1.00  0.00     0.127 A 
HETATM   14  C14 UNL     1       1.593   1.931  -0.002  1.00  0.00     0.022 A 
HETATM   15  O1  UNL     1       3.586   3.205   0.268  1.00  0.00    -0.191 OA
HETATM   16  C15 UNL     1       5.119   0.881   0.885  1.00  0.00     0.033 C 
HETATM   17  C18 UNL     1      -0.683   1.115  -1.871  1.00  0.00     0.004 C 
HETATM   18  C19 UNL     1      -3.299  -2.028   0.659  1.00  0.00     0.003 C 
HETATM   19  C20 UNL     1      -3.369  -0.865  -1.522  1.00  0.00     0.003 C 
HETATM   20  O2  UNL     1      -4.873   0.489   0.454  1.00  0.00    -0.224 OA
ENDROOT
BRANCH  11  21
HETATM   21  C16 UNL     1       3.660  -1.694   0.746  1.00  0.00    -0.001 C 
HETATM   22  C17 UNL     1       4.751  -2.097   0.079  1.00  0.00    -0.000 C 
ENDBRANCH  11  21
TORSDOF 1
