REMARK WARNING: 32 MAX_TORS EXCEEDED!!!
REMARK  39 active torsions:
REMARK  status: ('A' for Active; 'I' for Inactive)
REMARK    1  A    between atoms: C3_4  and  C5_7 
REMARK    2  A    between atoms: C5_7  and  C6_8 
REMARK    3  A    between atoms: C6_8  and  C7_9 
REMARK    4  A    between atoms: C7_9  and  C8_10 
REMARK    5  A    between atoms: C8_10  and  C9_11 
REMARK    6  A    between atoms: C9_11  and  C10_12 
REMARK    7  A    between atoms: C10_12  and  C11_13 
REMARK    8  A    between atoms: C11_13  and  C12_14 
REMARK    9  A    between atoms: C12_14  and  C13_15 
REMARK   10  A    between atoms: C13_15  and  C14_16 
REMARK   11  A    between atoms: C14_16  and  C15_17 
REMARK   12  A    between atoms: C15_17  and  C16_18 
REMARK   13  A    between atoms: C16_18  and  C17_19 
REMARK   14  A    between atoms: C17_19  and  C18_20 
REMARK   15  A    between atoms: C18_20  and  C19_21 
REMARK   16  A    between atoms: C19_21  and  C20_22 
REMARK   17  A    between atoms: C20_22  and  C21_23 
REMARK   18  A    between atoms: C21_23  and  C22_24 
REMARK   19  A    between atoms: C22_24  and  C23_25 
REMARK   20  A    between atoms: C23_25  and  C24_26 
REMARK   21  A    between atoms: C24_26  and  C25_27 
REMARK   22  A    between atoms: C25_27  and  C26_28 
REMARK   23  A    between atoms: C26_28  and  C27_29 
REMARK   24  A    between atoms: C27_29  and  C28_30 
REMARK   25  A    between atoms: C29_32  and  C32_35 
REMARK   26  A    between atoms: C33_37  and  C36_40 
REMARK   27  A    between atoms: C36_40  and  C37_41 
REMARK   28  A    between atoms: C37_41  and  C38_42 
REMARK   29  A    between atoms: C38_42  and  C39_43 
REMARK   30  A    between atoms: C39_43  and  C40_44 
REMARK   31  A    between atoms: C40_44  and  C41_45 
REMARK   32  A    between atoms: C41_45  and  C42_46 
REMARK   33  A    between atoms: C42_46  and  C43_47 
REMARK   34  A    between atoms: C43_47  and  C44_48 
REMARK   35  A    between atoms: C44_48  and  C45_49 
REMARK   36  A    between atoms: C45_49  and  C46_50 
REMARK   37  A    between atoms: C46_50  and  C47_51 
REMARK   38  A    between atoms: C47_51  and  C48_52 
REMARK   39  A    between atoms: C48_52  and  C49_53 
ROOT
HETATM    1  C26 UNL     1       2.949  -8.676   0.234  1.00  0.00     0.035 C 
ENDROOT
BRANCH   1   2
HETATM    2  C25 UNL     1       1.680  -8.223  -0.486  1.00  0.00     0.003 C 
BRANCH   2   3
HETATM    3  C24 UNL     1       1.486  -6.707  -0.445  1.00  0.00     0.000 C 
BRANCH   3   4
HETATM    4  C23 UNL     1       0.217  -6.254  -1.168  1.00  0.00     0.000 C 
BRANCH   4   5
HETATM    5  C22 UNL     1       0.023  -4.738  -1.127  1.00  0.00     0.000 C 
BRANCH   5   6
HETATM    6  C21 UNL     1      -1.246  -4.285  -1.848  1.00  0.00     0.000 C 
BRANCH   6   7
HETATM    7  C20 UNL     1      -1.440  -2.770  -1.807  1.00  0.00     0.000 C 
BRANCH   7   8
HETATM    8  C19 UNL     1      -2.709  -2.316  -2.529  1.00  0.00     0.000 C 
BRANCH   8   9
HETATM    9  C18 UNL     1      -2.902  -0.801  -2.488  1.00  0.00     0.000 C 
BRANCH   9  10
HETATM   10  C17 UNL     1      -4.172  -0.348  -3.211  1.00  0.00     0.000 C 
BRANCH  10  11
HETATM   11  C16 UNL     1      -4.365   1.168  -3.170  1.00  0.00     0.000 C 
BRANCH  11  12
HETATM   12  C15 UNL     1      -5.635   1.621  -3.891  1.00  0.00     0.000 C 
BRANCH  12  13
HETATM   13  C14 UNL     1      -5.828   3.137  -3.850  1.00  0.00     0.000 C 
BRANCH  13  14
HETATM   14  C13 UNL     1      -7.098   3.590  -4.572  1.00  0.00     0.000 C 
BRANCH  14  15
HETATM   15  C12 UNL     1      -7.291   5.106  -4.531  1.00  0.00     0.000 C 
BRANCH  15  16
HETATM   16  C11 UNL     1      -8.561   5.559  -5.254  1.00  0.00     0.000 C 
BRANCH  16  17
HETATM   17  C10 UNL     1      -8.754   7.074  -5.213  1.00  0.00     0.000 C 
BRANCH  17  18
HETATM   18  C9  UNL     1     -10.024   7.527  -5.934  1.00  0.00     0.000 C 
BRANCH  18  19
HETATM   19  C8  UNL     1     -10.217   9.043  -5.893  1.00  0.00     0.000 C 
BRANCH  19  20
HETATM   20  C7  UNL     1     -11.487   9.496  -6.615  1.00  0.00     0.000 C 
BRANCH  20  21
HETATM   21  C6  UNL     1     -11.680  11.012  -6.574  1.00  0.00     0.005 C 
BRANCH  21  22
HETATM   22  C5  UNL     1     -12.948  11.465  -7.299  1.00  0.00     0.032 C 
BRANCH  22  23
HETATM   23  C3  UNL     1     -13.139  12.957  -7.244  1.00  0.00     0.039 A 
HETATM   24  C2  UNL     1     -12.311  13.824  -6.662  1.00  0.00     0.004 A 
HETATM   25  C1  UNL     1     -12.881  15.209  -6.846  1.00  0.00     0.146 A 
HETATM   26  O1  UNL     1     -14.106  15.002  -7.574  1.00  0.00    -0.297 OA
HETATM   27  C51 UNL     1     -13.182  15.908  -5.527  1.00  0.00     0.038 C 
HETATM   28  C4  UNL     1     -14.254  13.694  -7.813  1.00  0.00     0.292 A 
HETATM   29  O2  UNL     1     -15.170  13.176  -8.408  1.00  0.00    -0.260 OA
ENDBRANCH  22  23
ENDBRANCH  21  22
ENDBRANCH  20  21
ENDBRANCH  19  20
ENDBRANCH  18  19
ENDBRANCH  17  18
ENDBRANCH  16  17
ENDBRANCH  15  16
ENDBRANCH  14  15
ENDBRANCH  13  14
ENDBRANCH  12  13
ENDBRANCH  11  12
ENDBRANCH  10  11
ENDBRANCH   9  10
ENDBRANCH   8   9
ENDBRANCH   7   8
ENDBRANCH   6   7
ENDBRANCH   5   6
ENDBRANCH   4   5
ENDBRANCH   3   4
ENDBRANCH   2   3
ENDBRANCH   1   2
BRANCH   1  30
HETATM   30  C27 UNL     1       3.133 -10.194   0.211  1.00  0.00     0.179 C 
HETATM   31  O7  UNL     1       3.477 -10.576  -1.102  1.00  0.00    -0.221 OA
BRANCH  30  32
HETATM   32  C28 UNL     1       4.279 -10.580   1.137  1.00  0.00     0.146 C 
HETATM   33  O3  UNL     1       5.473 -10.020   0.641  1.00  0.00    -0.354 OA
HETATM   34  C29 UNL     1       6.574 -10.828   0.979  1.00  0.00     0.142 C 
HETATM   35  C30 UNL     1       6.018 -12.229   0.744  1.00  0.00     0.035 C 
HETATM   36  C31 UNL     1       4.559 -12.088   1.193  1.00  0.00     0.035 C 
BRANCH  34  37
HETATM   37  C32 UNL     1       6.943 -10.596   2.441  1.00  0.00     0.142 C 
HETATM   38  O4  UNL     1       7.217  -9.229   2.641  1.00  0.00    -0.354 OA
HETATM   39  C33 UNL     1       8.504  -8.910   2.160  1.00  0.00     0.146 C 
HETATM   40  C34 UNL     1       9.295 -10.219   2.281  1.00  0.00     0.035 C 
HETATM   41  C35 UNL     1       8.277 -11.238   2.805  1.00  0.00     0.035 C 
BRANCH  39  42
HETATM   42  C36 UNL     1       9.066  -7.762   2.988  1.00  0.00     0.179 C 
HETATM   43  O6  UNL     1      10.393  -7.527   2.576  1.00  0.00    -0.221 OA
BRANCH  42  44
HETATM   44  C37 UNL     1       8.252  -6.494   2.721  1.00  0.00     0.036 C 
BRANCH  44  45
HETATM   45  C38 UNL     1       8.658  -5.330   3.627  1.00  0.00     0.005 C 
BRANCH  45  46
HETATM   46  C39 UNL     1       7.797  -4.086   3.410  1.00  0.00     0.033 C 
BRANCH  46  47
HETATM   47  C40 UNL     1       8.182  -2.934   4.338  1.00  0.00     0.152 C 
HETATM   48  O5  UNL     1       9.455  -2.467   3.955  1.00  0.00    -0.224 OA
BRANCH  47  49
HETATM   49  C41 UNL     1       7.201  -1.762   4.262  1.00  0.00     0.033 C 
BRANCH  49  50
HETATM   50  C42 UNL     1       7.453  -0.711   5.344  1.00  0.00     0.003 C 
BRANCH  50  51
HETATM   51  C43 UNL     1       6.434   0.428   5.309  1.00  0.00     0.000 C 
BRANCH  51  52
HETATM   52  C44 UNL     1       6.686   1.480   6.389  1.00  0.00     0.000 C 
BRANCH  52  53
HETATM   53  C45 UNL     1       5.666   2.617   6.354  1.00  0.00     0.000 C 
BRANCH  53  54
HETATM   54  C46 UNL     1       5.920   3.670   7.434  1.00  0.00     0.000 C 
BRANCH  54  55
HETATM   55  C47 UNL     1       4.898   4.809   7.401  1.00  0.00     0.000 C 
BRANCH  55  56
HETATM   56  C48 UNL     1       5.152   5.861   8.479  1.00  0.00     0.000 C 
BRANCH  56  57
HETATM   57  C49 UNL     1       4.131   6.998   8.445  1.00  0.00     0.000 C 
HETATM   58  C50 UNL     1       4.385   8.051   9.526  1.00  0.00     0.000 C 
ENDBRANCH  56  57
ENDBRANCH  55  56
ENDBRANCH  54  55
ENDBRANCH  53  54
ENDBRANCH  52  53
ENDBRANCH  51  52
ENDBRANCH  50  51
ENDBRANCH  49  50
ENDBRANCH  47  49
ENDBRANCH  46  47
ENDBRANCH  45  46
ENDBRANCH  44  45
ENDBRANCH  42  44
ENDBRANCH  39  42
ENDBRANCH  34  37
ENDBRANCH  30  32
ENDBRANCH   1  30
TORSDOF 39
